data_fk_03448_intdb_v128
_audit_creation_date               2024-03-13
_audit_creation_method
;
Olex2 1.5-alpha
(compiled 2023.11.24 svn.r209d9fb2 for OlexSys, GUI svn.r6869)
;
_audit_contact_author_address      ?
_audit_contact_author_email        ?
_audit_contact_author_name         ''
_audit_contact_author_phone        ?
_publ_contact_author_id_orcid      ?
_publ_section_references
;
Bourhis, L.J., Dolomanov, O.V., Gildea, R.J., Howard, J.A.K., Puschmann, H.
 (2015). Acta Cryst. A71, 59-75.

Dolomanov, O.V., Bourhis, L.J., Gildea, R.J, Howard, J.A.K. & Puschmann, H.
 (2009), J. Appl. Cryst. 42, 339-341.
;
_chemical_name_systematic          '2-Amino-2-methylpropanoic acid'
_chemical_formula_moiety           'C4 H9 N O2'
_chemical_formula_sum              'C4 H9 N O2'
_chemical_formula_weight           103.122
loop_
  _atom_type_symbol
  _atom_type_scat_dispersion_real
  _atom_type_scat_dispersion_imag
  _atom_type_scat_Cromer_Mann_a1
  _atom_type_scat_Cromer_Mann_a2
  _atom_type_scat_Cromer_Mann_a3
  _atom_type_scat_Cromer_Mann_a4
  _atom_type_scat_Cromer_Mann_b1
  _atom_type_scat_Cromer_Mann_b2
  _atom_type_scat_Cromer_Mann_b3
  _atom_type_scat_Cromer_Mann_b4
  _atom_type_scat_Cromer_Mann_c
  _atom_type_scat_source
  _atom_type_scat_dispersion_source
 C 0.00313 0.00162 2.31000 1.02000 1.58860 0.86500 20.84390 10.20750 0.56870
 51.65120 0.21560 'International Tables Volume C Table 6.1.1.4 (pp. 500-502)'
 'Brennan, Cowan, Rev. Sci. Instrum., 1992, 63, 850'
 H 0.00000 0.00000 0.49300 0.32291 0.14019 0.04081 10.51090 26.12570 3.14236
 57.79970 0.00304 'International Tables Volume C Table 6.1.1.4 (pp. 500-502)'
 'Brennan, Cowan, Rev. Sci. Instrum., 1992, 63, 850'
 N 0.00612 0.00332 12.21260 3.13220 2.01250 1.16630 0.00570 9.89330 28.99750
 0.58260 -11.52900 'International Tables Volume C Table 6.1.1.4 (pp. 500-502)'
 'Brennan, Cowan, Rev. Sci. Instrum., 1992, 63, 850'
 O 0.01085 0.00610 3.04850 2.28680 1.54630 0.86700 13.27710 5.70110 0.32390
 32.90890 0.25080 'International Tables Volume C Table 6.1.1.4 (pp. 500-502)'
 'Brennan, Cowan, Rev. Sci. Instrum., 1992, 63, 850'

_space_group_crystal_system        'monoclinic'
_space_group_IT_number             15
_space_group_name_H-M_alt          'C 1 2/c 1'
_space_group_name_Hall             '-C 2yc'
loop_
  _space_group_symop_id
  _space_group_symop_operation_xyz
 1 x,y,z
 2 -x,y,-z+1/2
 3 -x,-y,-z
 4 x,-y,z-1/2
 5 x+1/2,y+1/2,z
 6 -x+1/2,y+1/2,-z+1/2
 7 -x+1/2,-y+1/2,-z
 8 x+1/2,-y+1/2,z-1/2

_symmetry_Int_Tables_number        15
_cell_length_a                     10.526(3)
_cell_length_b                     8.959(3)
_cell_length_c                     11.327(3)
_cell_angle_alpha                  90
_cell_angle_beta                   93.74(2)
_cell_angle_gamma                  90
_cell_volume                       1065.9(5)
_cell_formula_units_Z              8
_cell_measurement_temperature      100
_exptl_absorpt_coefficient_mu      0.102
_exptl_absorpt_correction_type     multi-scan
_exptl_crystal_density_diffrn      1.285
_exptl_crystal_F_000               448.347
_exptl_crystal_size_min            ?
_diffrn_reflns_av_R_equivalents    0.0177
_diffrn_reflns_av_unetI/netI       0.0102
_diffrn_reflns_Laue_measured_fraction_full  1.0000
_diffrn_reflns_Laue_measured_fraction_max  0.9883
_diffrn_reflns_limit_h_max         18
_diffrn_reflns_limit_h_min         -19
_diffrn_reflns_limit_k_max         16
_diffrn_reflns_limit_k_min         -16
_diffrn_reflns_limit_l_max         21
_diffrn_reflns_limit_l_min         -14
_diffrn_reflns_number              37034
_diffrn_reflns_point_group_measured_fraction_full  1.0000
_diffrn_reflns_point_group_measured_fraction_max  0.9883
_diffrn_reflns_theta_full          25.2417
_diffrn_reflns_theta_max           41.80
_diffrn_reflns_theta_min           2.99
_diffrn_ambient_temperature        100
_diffrn_detector                   Pilatus200K
_diffrn_detector_area_resol_mean   5.81
_diffrn_detector_type              'DECTRIS PILATUS 200K'
_diffrn_measured_fraction_theta_full  1.0000
_diffrn_measured_fraction_theta_max  0.9883
_diffrn_measurement_device         'Eulerian 4-circle diffractometer'
_diffrn_measurement_device_type    'STOE STADIVARI'
_diffrn_measurement_method         'rotation method, \w scans'
_diffrn_radiation_collimation      '0.6 mm diameter'
_diffrn_radiation_monochromator    'Graded multilayer mirror'
_diffrn_radiation_probe            x-ray
_diffrn_radiation_type             'Mo K\a'
_diffrn_radiation_wavelength       0.71073
_diffrn_source                     'Genix Mo'
_reflns_Friedel_coverage           0.0
_reflns_limit_h_max                19
_reflns_limit_h_min                -19
_reflns_limit_k_max                16
_reflns_limit_k_min                0
_reflns_limit_l_max                21
_reflns_limit_l_min                0
_reflns_number_gt                  3129
_reflns_number_total               3627
_reflns_threshold_expression       I>=2u(I)
_computing_molecular_graphics      'Olex2 1.5-alpha (Dolomanov et al., 2009)'
_computing_publication_material    'Olex2 1.5-alpha (Dolomanov et al., 2009)'
_computing_structure_refinement   
 'olex2.refine 1.5-alpha (Bourhis et al., 2015)'
_computing_structure_solution     
 'olex2.solve 1.5-alpha (Bourhis et al., 2015)'
_refine_diff_density_max           0.5184
_refine_diff_density_min           -0.2596
_refine_diff_density_rms           0.0632
_refine_ls_d_res_high              0.5331
_refine_ls_d_res_low               6.8164
_refine_ls_goodness_of_fit_ref     1.0474
_refine_ls_hydrogen_treatment      constr
_refine_ls_matrix_type             full
_refine_ls_number_constraints      9
_refine_ls_number_parameters       91
_refine_ls_number_reflns           3627
_refine_ls_number_restraints       0
_refine_ls_R_factor_all            0.0400
_refine_ls_R_factor_gt             0.0339
_refine_ls_restrained_S_all        1.0474
_refine_ls_shift/su_max            0.0005
_refine_ls_shift/su_mean           0.0001
_refine_ls_structure_factor_coef   Fsqd
_refine_ls_weighting_details      
 'w=1/[\s^2^(Fo^2^)+(0.0601P)^2^+0.2802P] where P=(Fo^2^+2Fc^2^)/3'
_refine_ls_weighting_scheme        calc
_refine_ls_wR_factor_gt            0.0964
_refine_ls_wR_factor_ref           0.1019
_olex2_refinement_description
;
1. Fixed Uiso
 At 1.2 times of:
  All N(H,H,H) groups
 At 1.5 times of:
  All C(H,H,H) groups
;
_atom_sites_solution_primary       iterative
loop_
  _atom_site_label
  _atom_site_type_symbol
  _atom_site_fract_x
  _atom_site_fract_y
  _atom_site_fract_z
  _atom_site_U_iso_or_equiv
  _atom_site_adp_type
  _atom_site_occupancy
  _atom_site_refinement_flags_posn
 O O 0.61156(3) 0.58561(4) 0.16138(3) 0.01176(6) Uani 1.000000 .
 O1 O 0.72414(4) 0.37774(4) 0.13709(3) 0.01537(7) Uani 1.000000 .
 N3 N 0.65254(4) 0.60197(4) 0.39103(3) 0.01048(6) Uani 1.000000 .
 H3a H 0.6869(9) 0.6871(10) 0.3639(8) 0.01257(8) Uiso 1.000000 R
 H3b H 0.5686(9) 0.6013(10) 0.3734(7) 0.01257(8) Uiso 1.000000 R
 H3c H 0.6728(9) 0.5997(10) 0.4742(8) 0.01257(8) Uiso 1.000000 R
 C4 C 0.70860(4) 0.46786(4) 0.33452(3) 0.00952(7) Uani 1.000000 .
 C5 C 0.67921(4) 0.47917(4) 0.19947(3) 0.00961(7) Uani 1.000000 .
 C6 C 0.64304(4) 0.32915(5) 0.38027(3) 0.01203(7) Uani 1.000000 .
 H6a H 0.6523(9) 0.3241(11) 0.4689(9) 0.01804(11) Uiso 1.000000 R
 H6b H 0.5504(9) 0.3325(11) 0.3547(8) 0.01804(11) Uiso 1.000000 R
 H6c H 0.6829(9) 0.2416(11) 0.3503(8) 0.01804(11) Uiso 1.000000 R
 C7 C 0.85205(4) 0.46723(5) 0.36624(4) 0.01431(8) Uani 1.000000 .
 H7a H 0.8920(10) 0.5590(12) 0.3379(8) 0.02146(11) Uiso 1.000000 R
 H7b H 0.8703(10) 0.4610(11) 0.4542(9) 0.02146(11) Uiso 1.000000 R
 H7c H 0.8908(10) 0.3760(12) 0.3333(8) 0.02146(11) Uiso 1.000000 R

loop_
  _atom_site_aniso_label
  _atom_site_aniso_U_11
  _atom_site_aniso_U_22
  _atom_site_aniso_U_33
  _atom_site_aniso_U_12
  _atom_site_aniso_U_13
  _atom_site_aniso_U_23
 O 0.01348(13) 0.01242(12) 0.00924(11) 0.00174(9) -0.00029(9) 0.00226(8)
 O1 0.02373(16) 0.01430(14) 0.00805(11) 0.00584(11) 0.00077(10) -0.00166(9)
 N3 0.01376(13) 0.00992(12) 0.00769(12) -0.00015(10) 0.00018(9) -0.00095(9)
 C4 0.01163(14) 0.01001(13) 0.00680(12) 0.00063(10) -0.00033(10) -0.00014(9)
 C5 0.01181(14) 0.01030(13) 0.00667(12) -0.00034(10) 0.00016(10) 0.00012(9)
 C6 0.01628(16) 0.01044(14) 0.00938(13) 0.00011(11) 0.00089(11) 0.00120(10)
 C7 0.01200(15) 0.01780(18) 0.01280(15) 0.00077(12) -0.00169(12) 0.00006(12)

loop_
  _geom_bond_atom_site_label_1
  _geom_bond_atom_site_label_2
  _geom_bond_distance
  _geom_bond_site_symmetry_2
  _geom_bond_publ_flag
 O C5 1.2500(6) . ?
 O1 C5 1.2618(6) . ?
 N3 H3a 0.906(9) . ?
 N3 H3b 0.893(9) . ?
 N3 H3c 0.953(9) . ?
 N3 C4 1.5003(6) . ?
 C4 C5 1.5441(7) . ?
 C4 C6 1.5284(7) . ?
 C4 C7 1.5291(8) . ?
 C6 H6a 1.003(10) . ?
 C6 H6b 0.999(10) . ?
 C6 H6c 0.962(10) . ?
 C7 H7a 0.987(11) . ?
 C7 H7b 1.004(10) . ?
 C7 H7c 0.997(10) . ?

loop_
  _geom_angle_atom_site_label_1
  _geom_angle_atom_site_label_2
  _geom_angle_atom_site_label_3
  _geom_angle
  _geom_angle_site_symmetry_1
  _geom_angle_site_symmetry_3
  _geom_angle_publ_flag
 H3b N3 H3a 109.9(8) . . ?
 H3c N3 H3a 106.6(8) . . ?
 H3c N3 H3b 112.0(8) . . ?
 C4 N3 H3a 110.6(6) . . ?
 C4 N3 H3b 108.1(6) . . ?
 C4 N3 H3c 109.7(5) . . ?
 C5 C4 N3 108.13(3) . . ?
 C6 C4 N3 107.92(3) . . ?
 C6 C4 C5 108.88(3) . . ?
 C7 C4 N3 108.21(3) . . ?
 C7 C4 C5 111.35(3) . . ?
 C7 C4 C6 112.22(3) . . ?
 O1 C5 O 125.59(4) . . ?
 C4 C5 O 117.70(3) . . ?
 C4 C5 O1 116.70(3) . . ?
 H6a C6 C4 111.1(6) . . ?
 H6b C6 C4 109.3(6) . . ?
 H6b C6 H6a 108.7(8) . . ?
 H6c C6 C4 109.1(6) . . ?
 H6c C6 H6a 107.4(8) . . ?
 H6c C6 H6b 111.2(8) . . ?
 H7a C7 C4 110.8(6) . . ?
 H7b C7 C4 110.8(6) . . ?
 H7b C7 H7a 108.1(8) . . ?
 H7c C7 C4 109.7(6) . . ?
 H7c C7 H7a 111.6(8) . . ?
 H7c C7 H7b 105.6(8) . . ?

loop_
  _geom_torsion_atom_site_label_1
  _geom_torsion_atom_site_label_2
  _geom_torsion_atom_site_label_3
  _geom_torsion_atom_site_label_4
  _geom_torsion
  _geom_torsion_site_symmetry_1
  _geom_torsion_site_symmetry_2
  _geom_torsion_site_symmetry_3
  _geom_torsion_site_symmetry_4
  _geom_torsion_publ_flag
 O C5 C4 N3 -4.01(4) . . . . ?
 O C5 C4 C6 113.00(4) . . . . ?
 O C5 C4 C7 -122.77(4) . . . . ?
 O1 C5 C4 N3 177.24(4) . . . . ?
 O1 C5 C4 C6 -65.76(4) . . . . ?
 O1 C5 C4 C7 58.48(4) . . . . ?

loop_
  _diffrn_refln_index_h
  _diffrn_refln_index_k
  _diffrn_refln_index_l
  _diffrn_refln_intensity_net
  _diffrn_refln_intensity_u
  _diffrn_refln_scale_group_code
 -13 -1 0 13.26 0.79 0
 -12 -2 -1 65.16 1.53 0
 -12 0 -2 17.2 0.96 0
 -12 0 0 20.79 0.88 0
 -12 2 -1 63.52 1.5 0
 -12 2 0 1.52 0.45 0
 -12 2 1 19.45 0.81 0
 -11 -1 -3 0.08 0.6 0
 -11 -1 -1 36.26 1.14 0
 -11 -1 0 1.16 0.41 0
 -11 -1 1 2.75 0.42 0
 -11 1 -3 0.53 0.49 0
 -11 1 -1 35.07 1.1 0
 -11 1 0 1.31 0.44 0
 -11 1 1 2.99 0.43 0
 -10 -2 -2 11.4 0.78 0
 -10 -2 -1 16.6 0.82 0
 -10 -2 0 19.65 0.82 0
 -10 0 -2 230.38 2.68 0
 -10 0 0 14.68 0.71 0
 -10 2 1 0.68 0.35 0
 -10 2 3 5.96 0.4 0
 -9 -3 -4 37.63 1.3 0
 -9 -3 -3 41.48 1.27 0
 -9 -3 -2 -0.01 0.37 0
 -9 -1 -5 0.51 0.53 0
 -9 -1 -4 79.3 1.69 0
 -9 -1 -3 40.84 1.21 0
 -9 -1 -2 33.72 1.06 0
 -9 -1 -1 0.51 0.39 0
 -9 -1 1 11.92 0.56 0
 -9 1 -5 -0.33 0.59 0
 -9 1 -4 79.46 1.72 0
 -9 1 -3 40.09 1.22 0
 -9 1 -1 0.36 0.38 0
 -9 1 1 12.66 0.59 0
 -9 1 3 8.44 0.37 0
 -9 3 5 3.07 0.22 0
 -8 -2 -6 4.57 0.7 0
 -8 -2 -5 17.9 0.97 0
 -8 -2 -4 2.41 0.52 0
 -8 -2 -3 1.17 0.52 0
 -8 -2 -2 22.38 0.88 0
 -8 -2 -1 3.05 0.44 0
 -8 -2 0 7.7 0.54 0
 -8 0 -6 153 2.49 0
 -8 0 -4 67.8 1.5 0
 -8 0 -2 432.13 3.24 0
 -8 0 0 64.46 1.15 0
 -8 2 4 102.21 0.86 0
 -7 -3 -6 27.54 1.17 0
 -7 -3 -4 222.87 2.64 0
 -7 -3 -3 482.4 3.64 0
 -7 -3 -2 36.2 1.02 0
 -7 -1 -7 0.39 0.49 0
 -7 -1 -6 672 4.71 0
 -7 -1 -4 30.03 1 0
 -7 -1 -3 56.11 1.23 0
 -7 -1 -2 458.78 3.18 0
 -7 -1 -1 26.29 0.78 0
 -7 -1 0 137.21 1.56 0
 -7 -1 1 131.79 1.39 0
 -7 1 3 0.01 0.13 0
 -7 5 7 -0 0.22 0
 -7 5 8 15.76 0.51 0
 -7 7 7 40.15 1.03 0
 -6 -4 -7 23.06 1.12 0
 -6 -4 -6 13.98 0.92 0
 -6 -4 -5 19.42 0.93 0
 -6 -2 -7 306.07 3.3 0
 -6 -2 -6 72.47 1.6 0
 -6 -2 -5 0.11 0.35 0
 -6 -2 -4 40.69 1.08 0
 -6 -2 -3 504.03 3.41 0
 -6 -2 -2 154.28 1.83 0
 -6 -2 -1 123.98 1.54 0
 -6 -2 0 68.88 1.11 0
 -6 0 -8 477.24 4.19 0
 -6 0 -6 8.11 0.74 0
 -6 0 -4 411.56 3.24 0
 -6 0 -2 35.55 0.9 0
 -6 0 0 377.56 2.29 0
 -6 6 7 48.33 1.03 0
 -6 6 8 3.27 0.42 0
 -6 6 9 10.04 0.58 0
 -6 8 7 1.34 0.46 0
 -5 -3 -8 145.83 2.39 0
 -5 -3 -7 387.7 3.61 0
 -5 -3 -6 2.57 0.57 0
 -5 -3 -5 263.23 2.72 0
 -5 -3 -4 -0.03 0.36 0
 -5 -3 -3 19.46 0.74 0
 -5 -3 -2 50.05 1.08 0
 -5 -1 -8 0.37 0.55 0
 -5 -1 -7 240.84 2.79 0
 -5 -1 -6 727.14 4.48 0
 -5 -1 -5 235.98 2.49 0
 -5 -1 -3 71.06 1.25 0
 -5 -1 -2 1010.88 4.11 0
 -5 -1 -1 700.71 3.17 0
 -5 -1 0 399.83 2.2 0
 -5 -1 1 56.75 0.78 0
 -5 3 5 563.69 2.21 0
 -5 3 7 0.54 0.18 0
 -5 5 6 97.66 1.34 0
 -5 5 7 48.79 1 0
 -5 5 8 14.72 0.61 0
 -5 5 9 1.43 0.34 0
 -5 7 7 3.42 0.5 0
 -5 7 8 9.26 0.68 0
 -4 -4 -8 192.29 2.68 0
 -4 -4 -7 0.49 0.44 0
 -4 -4 -6 17.24 0.87 0
 -4 -2 -9 1.7 0.54 0
 -4 -2 -8 62.62 1.48 0
 -4 -2 -6 1.22 0.37 0
 -4 -2 -5 201.21 2.21 0
 -4 -2 -4 21.89 0.75 0
 -4 -2 -3 677.34 3.51 0
 -4 -2 -2 41.48 0.89 0
 -4 -2 -1 79.12 1.13 0
 -4 0 -10 3.86 0.67 0
 -4 0 -8 95.44 1.87 0
 -4 0 0 2387.6 4.73 0
 -4 0 2 94.96 0.62 0
 -4 2 5 761.69 2.12 0
 -4 4 8 30.67 0.76 0
 -4 6 6 18.69 0.75 0
 -4 6 7 1.81 0.41 0
 -4 6 9 22.1 0.85 0
 -4 6 10 8.75 0.64 0
 -4 8 6 34.09 1.14 0
 -4 8 7 1.01 0.52 0
 -4 8 8 13.17 0.86 0
 -4 8 9 4.21 0.65 0
 -3 -3 -10 43.23 1.39 0
 -3 -3 -8 246.23 2.81 0
 -3 -3 -6 26.74 0.92 0
 -3 -3 -5 74.43 1.38 0
 -3 -3 -4 370.68 2.76 0
 -3 -3 -3 1407.41 5.02 0
 -3 -1 -11 16.72 1.01 0
 -3 -1 -10 55.69 1.48 0
 -3 -1 -9 1.94 0.51 0
 -3 -1 -8 27.5 0.98 0
 -3 -1 -7 153.64 2.03 0
 -3 -1 -6 394.48 3 0
 -3 -1 -4 774.05 3.64 0
 -3 -1 -3 517.44 2.75 0
 -3 -1 -2 661.04 2.85 0
 -3 -1 -1 533.29 2.3 0
 -3 -1 0 2957.35 4.74 0
 -3 1 -11 15.26 0.99 0
 -3 3 5 8.27 0.38 0
 -3 3 6 342.53 2.05 0
 -3 5 6 44.33 0.98 0
 -3 5 7 246.46 2.27 0
 -3 5 8 66.27 1.29 0
 -3 5 9 126.72 1.81 0
 -3 7 6 25.07 0.94 0
 -3 7 7 53.72 1.3 0
 -3 7 8 26.08 1 0
 -3 7 9 320.88 3.13 0
 -3 7 10 13.07 0.82 0
 -2 -4 -9 340.53 3.34 0
 -2 -2 -11 1.42 0.61 0
 -2 -2 -10 39.79 1.24 0
 -2 -2 -9 10.76 0.76 0
 -2 -2 -8 -0.11 0.32 0
 -2 -2 -7 71.02 1.37 0
 -2 -2 -6 15.27 0.67 0
 -2 -2 -5 49.91 1.06 0
 -2 -2 -4 379.59 2.48 0
 -2 -2 -3 0.52 0.22 0
 -2 -2 -2 482.05 2.38 0
 -2 0 -10 137.51 2.15 0
 -2 0 -8 703.91 4.25 0
 -2 2 4 131.17 1.09 0
 -2 2 5 1334.68 3.59 0
 -2 4 7 30.77 0.82 0
 -2 4 8 2.24 0.42 0
 -2 6 5 74.4 1.37 0
 -2 6 6 -0.18 0.36 0
 -2 6 7 7.33 0.63 0
 -2 6 8 63.71 1.36 0
 -2 6 10 10.54 0.76 0
 -2 8 6 10.71 0.78 0
 -2 8 7 13.03 0.87 0
 -1 -3 -12 45.86 1.4 0
 -1 -3 -11 2.1 0.54 0
 -1 -3 -10 1.09 0.47 0
 -1 -3 -7 3.51 0.44 0
 -1 -3 -6 79.43 1.34 0
 -1 -3 -5 2.57 0.39 0
 -1 -1 -12 36.04 1.24 0
 -1 -1 -11 0.27 0.42 0
 -1 -1 -10 34.13 1.1 0
 -1 -1 -9 56.78 1.27 0
 -1 -1 -8 8.3 0.59 0
 -1 -1 -7 5.59 0.5 0
 -1 -1 -6 27.5 0.76 0
 -1 -1 -5 30.43 0.74 0
 -1 -1 -4 4.42 0.36 0
 -1 -1 -3 0.16 0.2 0
 -1 -1 -2 15.48 0.41 0
 -1 -1 -1 7.93 0.26 0
 -1 1 -12 37.95 1.29 0
 -1 1 -11 0.77 0.56 0
 -1 1 2 830.94 1.83 0
 -1 1 3 0.59 0.12 0
 -1 3 4 764.99 3.12 0
 -1 3 5 915.48 3.59 0
 -1 5 6 105.4 1.6 0
 -1 5 7 402.2 3.09 0
 -1 5 8 522.85 3.64 0
 -1 5 9 274.34 2.81 0
 -1 7 5 475.5 3.65 0
 -1 7 6 8 0.71 0
 -1 7 7 238.2 2.77 0
 -1 7 8 12.94 0.84 0
 -1 7 9 9.15 0.8 0
 0 -2 -12 6.18 0.72 0
 0 -2 -11 11.49 0.76 0
 0 -2 -10 7.34 0.65 0
 0 -2 -9 153.01 1.99 0
 0 -2 -8 54.53 1.2 0
 0 -2 -7 9.65 0.54 0
 0 -2 -6 456.45 2.72 0
 0 -2 -5 120.66 1.37 0
 0 -2 -4 286.17 1.87 0
 0 0 -12 67.42 1.53 0
 0 0 -10 76.48 1.53 0
 0 0 -8 405.28 2.88 0
 0 2 -13 208.84 2.88 0
 0 2 2 712.69 2.45 0
 0 2 3 29.68 0.6 0
 0 2 4 278.26 1.82 0
 0 2 5 118.38 1.34 0
 0 4 4 822.8 3.74 0
 0 4 7 53.8 1.16 0
 0 4 8 317.06 2.86 0
 0 6 4 38.22 1.02 0
 0 6 5 5.39 0.59 0
 0 6 6 12.48 0.75 0
 0 6 7 6.83 0.67 0
 0 6 9 32.65 1.15 0
 0 8 5 328.64 3.37 0
 0 8 6 -0.21 0.51 0
 1 -1 -14 55.11 1.44 0
 1 -1 -13 4.27 0.58 0
 1 -1 -12 0.92 0.41 0
 1 -1 -11 31.98 1 0
 1 -1 -10 2.33 0.45 0
 1 -1 -9 21.66 0.75 0
 1 -1 -7 12.29 0.5 0
 1 -1 -6 568.96 2.66 0
 1 -1 -5 134.79 1.19 0
 1 -1 -4 1350.95 3.25 0
 1 -1 -3 0.56 0.12 0
 1 1 -12 0.73 0.46 0
 1 1 2 16.47 0.41 0
 1 1 3 0.19 0.17 0
 1 3 2 2.12 0.28 0
 1 3 3 173.04 1.63 0
 1 3 4 124.24 1.45 0
 1 5 5 109.23 1.69 0
 1 5 6 306 2.8 0
 1 5 7 141.78 2.07 0
 1 5 8 217.17 2.6 0
 1 5 9 3.44 0.58 0
 1 7 4 8.79 0.68 0
 1 7 5 148.65 2.23 0
 2 -2 -12 5.84 0.6 0
 2 -2 -11 31.17 0.93 0
 2 -2 -10 21.1 0.75 0
 2 -2 -9 600.72 3.24 0
 2 -2 -8 88.58 1.23 0
 2 0 -10 30.25 0.84 0
 2 0 -8 80.14 1.15 0
 2 0 -6 0.86 0.19 0
 2 2 -13 158.44 2.26 0
 2 2 1 568.37 2.4 0
 2 2 2 483.86 2.4 0
 2 2 3 0.61 0.27 0
 2 2 4 388.84 2.53 0
 2 4 2 0.06 0.26 0
 2 4 6 0.93 0.4 0
 2 4 7 95.83 1.73 0
 2 6 4 51 1.25 0
 2 6 5 16.17 0.81 0
 2 6 6 87.75 1.7 0
 2 8 3 42.64 1.31 0
 2 8 4 47.57 1.39 0
 3 -1 -13 36.59 0.97 0
 3 -1 -12 0.06 0.3 0
 3 -1 -10 524.3 2.84 0
 3 -1 -9 32.79 0.71 0
 3 -1 -8 164.82 1.39 0
 3 -1 -7 184.99 1.31 0
 3 1 -13 38.09 1.02 0
 3 1 -12 0.53 0.34 0
 3 1 -11 63.02 1.18 0
 3 1 -10 524.44 2.98 0
 3 1 -9 33.21 0.77 0
 3 1 -2 34.98 0.42 0
 3 1 -1 291.67 1.33 0
 3 1 0 3052.61 4.89 0
 3 1 1 538.14 2.35 0
 3 3 0 348.28 2.17 0
 3 3 1 7.84 0.45 0
 3 3 2 28.92 0.75 0
 3 3 3 1411.17 5 0
 3 5 5 108.95 1.83 0
 3 5 6 17.75 0.85 0
 3 5 7 15.94 0.87 0
 3 5 8 130.74 2.25 0
 3 7 2 188.72 2.44 0
 3 7 4 49.25 1.36 0
 3 7 5 54.93 1.46 0
 3 7 6 19.64 1 0
 4 0 -12 62.85 1.06 0
 4 0 -10 136.59 1.3 0
 4 0 -8 1.82 0.22 0
 4 2 -12 -0.12 0.3 0
 4 2 -11 112.39 1.49 0
 4 2 -2 0.13 0.16 0
 4 2 -1 1971.46 4.47 0
 4 2 0 226.16 1.67 0
 4 2 2 42.83 0.94 0
 4 2 3 690.33 3.6 0
 4 4 0 28.02 0.78 0
 4 4 1 89.51 1.38 0
 4 4 2 9.4 0.54 0
 4 4 6 19.15 0.87 0
 4 6 1 30.81 0.98 0
 4 6 2 8.62 0.67 0
 4 6 3 242.59 2.68 0
 4 6 5 10.89 0.82 0
 5 1 -11 3.94 0.32 0
 5 1 -10 349.74 1.65 0
 5 1 -9 25.4 0.45 0
 5 3 -2 622.86 2.89 0
 5 3 -1 651.2 3.1 0
 5 3 0 100.92 1.37 0
 5 3 1 708.56 3.58 0
 5 3 2 51.36 1.1 0
 5 5 -1 172.68 1.98 0
 5 5 0 116.3 1.7 0
 5 5 1 47.98 1.15 0
 5 5 2 5.25 0.55 0
 5 5 3 0.48 0.47 0
 5 5 4 0.05 0.39 0
 5 5 5 25.82 1.02 0
 5 5 6 82.91 1.75 0
 5 5 7 71.49 1.75 0
 5 7 -1 52.48 1.33 0
 5 7 0 179.59 2.43 0
 5 7 1 54.19 1.38 0
 5 7 2 101.26 2.01 0
 5 7 3 27.98 1.12 0
 6 2 -7 10.46 0.26 0
 6 2 -5 0.67 0.16 0
 6 2 -3 77.65 0.94 0
 6 2 -2 482.18 2.39 0
 6 2 -1 106.72 1.29 0
 6 4 -4 17.03 0.61 0
 6 4 -2 675.39 3.49 0
 6 4 -1 121.79 1.62 0
 6 4 0 119.71 1.65 0
 6 4 1 0.31 0.38 0
 6 4 2 30.11 0.97 0
 6 4 3 26.85 0.95 0
 6 4 4 0.43 0.43 0
 6 6 -3 14.88 0.74 0
 6 6 -2 0.53 0.37 0
 6 6 -1 394.48 3.27 0
 6 6 0 94.87 1.76 0
 6 6 2 150.44 2.27 0
 6 6 3 274.47 3.06 0
 6 6 4 5.66 0.76 0
 6 8 -2 21.02 1.04 0
 7 3 -7 13.81 0.41 0
 7 3 -6 5.94 0.34 0
 7 3 -5 108.66 1.16 0
 7 3 -4 21.37 0.59 0
 7 3 -3 10.81 0.49 0
 7 3 -1 701.63 3.58 0
 7 3 0 245.56 2.28 0
 7 3 1 140.43 1.89 0
 7 5 -6 0.47 0.32 0
 7 5 -5 4.57 0.5 0
 7 5 -4 42.74 1.02 0
 7 5 -3 1.19 0.37 0
 7 5 -2 228.22 2.36 0
 7 5 -1 127.84 1.88 0
 7 5 1 31.2 1.05 0
 7 5 2 174.11 2.38 0
 7 7 -5 10.54 0.76 0
 7 7 -4 3.56 0.6 0
 7 7 -3 48.07 1.28 0
 7 7 -2 53 1.37 0
 7 7 0 30.91 1.14 0
 8 4 -8 57.41 0.88 0
 8 4 -7 156.57 1.46 0
 8 4 -6 357.34 2.25 0
 8 4 -5 120.86 1.46 0
 8 4 -4 8.7 0.54 0
 8 4 -3 246.82 2.23 0
 8 4 -2 1117.61 4.8 0
 8 4 -1 628.35 3.8 0
 8 4 0 187.58 2.26 0
 8 4 1 10.7 0.73 0
 8 6 -7 185.41 2.13 0
 8 6 -6 50.31 1.16 0
 8 6 -5 2.75 0.5 0
 8 6 -4 22.4 0.9 0
 8 6 -3 243.21 2.62 0
 8 6 -1 103.48 1.91 0
 8 6 0 52.26 1.37 0
 8 6 2 7.63 0.79 0
 9 5 -6 64.51 1.25 0
 9 5 -5 7.63 0.57 0
 9 5 -4 20.94 0.81 0
 9 5 -3 1.93 0.45 0
 9 5 -2 12.53 0.74 0
 9 5 -1 14.17 0.81 0
 9 5 1 2.15 0.61 0
 9 5 2 58.93 1.57 0
 9 7 -5 119 2.02 0
 9 7 -4 0.82 0.49 0
 9 7 -3 85.71 1.87 0
 9 7 -2 0.77 0.58 0
 10 6 -4 89.14 1.76 0
 10 6 -1 6.77 0.77 0
 -8 6 -6 29.9 1.16 0
 -8 6 -5 12.85 0.8 0
 -8 6 -4 33.14 1.04 0
 -8 6 -1 3.2 0.34 0
 -8 8 -4 2.27 0.51 0
 -8 8 -3 9.11 0.69 0
 -7 5 -7 2.32 0.64 0
 -7 5 -5 103.43 1.84 0
 -7 5 -4 120.51 1.85 0
 -7 5 -2 178.95 1.87 0
 -7 5 0 27.14 0.56 0
 -7 7 -5 11.7 0.81 0
 -7 7 -4 110.06 1.91 0
 -7 7 -2 19.87 0.77 0
 -7 7 0 30.44 0.73 0
 -7 7 1 22.45 0.55 0
 -7 7 2 56.61 0.64 0
 -6 4 -8 -0.2 0.57 0
 -6 4 -7 22.76 1.03 0
 -6 4 -6 13.97 0.78 0
 -6 4 -5 18.91 0.84 0
 -6 4 -4 -0.1 0.26 0
 -6 4 -2 29.94 0.75 0
 -6 4 0 121.72 1.09 0
 -6 6 -4 6.33 0.62 0
 -6 6 -3 270.53 2.6 0
 -6 6 -2 150.02 1.84 0
 -6 6 1 383.39 2.08 0
 -6 6 2 0.2 0.14 0
 -6 8 -5 60.85 1.59 0
 -6 8 -4 51.32 1.39 0
 -6 8 -3 203.91 2.57 0
 -6 8 -2 68.55 1.43 0
 -6 8 -1 35.17 0.98 0
 -5 3 -7 377.38 3.56 0
 -5 3 -6 2.47 0.5 0
 -5 3 -5 272.79 2.68 0
 -5 3 -4 0.42 0.28 0
 -5 3 -3 19.66 0.67 0
 -5 3 -2 47.77 0.88 0
 -5 3 0 95.53 0.88 0
 -5 5 -4 -0.12 0.29 0
 -5 5 -3 0.64 0.3 0
 -5 5 -2 6 0.45 0
 -5 5 -1 49.88 0.97 0
 -5 5 4 0.59 0.13 0
 -5 5 6 92.16 0.95 0
 -5 7 -5 109.26 2.05 0
 -5 7 -4 26.63 1.03 0
 -5 7 -3 26.63 0.96 0
 -5 7 6 4.91 0.35 0
 -5 7 7 3.5 0.35 0
 -4 2 -9 2.68 0.67 0
 -4 2 -8 65.67 1.56 0
 -4 2 -7 7.94 0.7 0
 -4 2 -6 0.52 0.32 0
 -4 2 -5 203.74 2.21 0
 -4 2 -3 674.01 3.3 0
 -4 2 -1 78.16 0.89 0
 -4 4 -8 193.67 2.78 0
 -4 4 -7 0.11 0.38 0
 -4 4 -6 18.43 0.88 0
 -4 4 -5 90.6 1.61 0
 -4 4 -4 0.19 0.25 0
 -4 4 -3 236.11 2.17 0
 -4 4 -2 9.82 0.48 0
 -4 4 4 4.57 0.24 0
 -4 4 5 306.73 1.73 0
 -4 4 6 37.76 0.71 0
 -4 6 -7 248.73 3.16 0
 -4 6 -6 79.45 1.73 0
 -4 6 -5 11.28 0.76 0
 -4 6 -4 53.74 1.3 0
 -4 6 6 17.72 0.59 0
 -4 6 7 1.38 0.29 0
 -4 6 8 9.7 0.53 0
 -4 6 10 7.71 0.58 0
 -4 8 7 1.07 0.34 0
 -3 1 -10 56.57 1.61 0
 -3 1 -9 1.62 0.49 0
 -3 1 -8 27.47 1.04 0
 -3 1 -7 157.25 2.16 0
 -3 1 -6 390.19 3.1 0
 -3 1 -5 24.02 0.81 0
 -3 1 -4 797.07 3.73 0
 -3 1 -3 540.39 2.78 0
 -3 1 -2 668.44 2.69 0
 -3 1 -1 527.42 2.01 0
 -3 3 -9 87.77 1.9 0
 -3 3 -8 246.96 3 0
 -3 3 -7 393.12 3.52 0
 -3 3 -6 26.31 0.93 0
 -3 3 -5 73.5 1.37 0
 -3 3 -4 369.22 2.73 0
 -3 3 -3 1400.14 4.83 0
 -3 3 -2 29.04 0.68 0
 -3 3 4 945.1 2.8 0
 -3 3 5 8.14 0.36 0
 -3 3 6 338.96 2.16 0
 -3 3 8 791.94 3.98 0
 -3 3 9 8.31 0.57 0
 -3 5 -8 130.61 2.28 0
 -3 5 -7 18.66 0.96 0
 -3 5 -6 20.68 0.95 0
 -3 5 -5 106.43 1.78 0
 -3 5 7 249.71 2.21 0
 -3 5 8 61.8 1.21 0
 -3 5 9 130.83 1.86 0
 -3 5 10 0.07 0.33 0
 -3 5 11 18.47 0.87 0
 -3 5 12 0.28 0.4 0
 -3 7 -6 20 1.06 0
 -3 7 8 26.01 0.89 0
 -2 0 -8 718.89 4.63 0
 -2 0 -6 737.29 4.08 0
 -2 0 -4 4838.27 8.66 0
 -2 2 -8 0.02 0.35 0
 -2 2 -7 69.2 1.46 0
 -2 2 -6 15.18 0.72 0
 -2 2 -5 50.9 1.11 0
 -2 2 -4 384.51 2.59 0
 -2 2 -3 0.45 0.25 0
 -2 2 -2 469.4 2.28 0
 -2 2 3 289.52 1.39 0
 -2 2 4 129.59 1.14 0
 -2 2 5 1314.71 4.02 0
 -2 2 6 156.67 1.58 0
 -2 2 9 586.44 3.86 0
 -2 4 -9 339.03 3.73 0
 -2 4 -8 769.35 5.22 0
 -2 4 -7 94.99 1.79 0
 -2 4 -6 0.94 0.35 0
 -2 4 -5 42.73 1.1 0
 -2 4 7 29.14 0.82 0
 -2 4 8 1.99 0.36 0
 -2 4 9 395.91 3.22 0
 -2 4 10 55.25 1.32 0
 -2 4 11 96.46 1.85 0
 -2 4 12 7.79 0.73 0
 -2 6 -7 73.03 1.74 0
 -2 6 7 6.13 0.54 0
 -2 6 8 63.91 1.34 0
 -2 6 11 2.82 0.5 0
 -2 8 9 104.14 1.98 0
 -1 1 -11 0.42 0.63 0
 -1 1 -9 58.98 1.45 0
 -1 1 -8 8.77 0.69 0
 -1 1 -6 27.17 0.87 0
 -1 1 -5 30.56 0.81 0
 -1 1 -4 3.73 0.35 0
 -1 1 -3 0.31 0.17 0
 -1 1 -2 16.34 0.41 0
 -1 1 2 853.3 2.02 0
 -1 1 3 0.37 0.12 0
 -1 1 4 1346.88 3.82 0
 -1 1 5 137.54 1.42 0
 -1 1 6 576.93 3.16 0
 -1 1 8 0.35 0.26 0
 -1 3 -10 0.62 0.59 0
 -1 3 -9 148.16 2.4 0
 -1 3 -8 18.45 0.9 0
 -1 3 -7 3.36 0.47 0
 -1 3 -5 2.26 0.37 0
 -1 3 5 920.59 3.74 0
 -1 3 8 941.79 4.78 0
 -1 3 9 430.47 3.45 0
 -1 3 10 25.31 0.96 0
 -1 3 11 22.05 1.01 0
 -1 5 -7 147.3 2.35 0
 -1 5 7 411.65 3.16 0
 -1 5 8 524.17 3.76 0
 -1 5 9 269.83 2.88 0
 -1 5 10 9.63 0.76 0
 -1 5 11 26.94 1.08 0
 -1 7 8 12.24 0.77 0
 -1 7 10 53.4 1.48 0
 0 0 -10 73.99 1.64 0
 0 0 -8 398.24 3.27 0
 0 0 -6 1720.94 5.8 0
 0 0 -4 9832.74 11.27 0
 0 0 -2 1490.65 3.07 0
 0 0 2 1501.43 3.07 0
 0 0 4 9851.18 11.11 0
 0 0 6 1714.33 5.74 0
 0 2 -11 11.64 0.91 0
 0 2 -9 147.31 2.26 0
 0 2 -8 53.57 1.35 0
 0 2 -7 9.48 0.63 0
 0 2 -6 454.96 3.24 0
 0 2 -5 114.76 1.54 0
 0 2 4 280.29 1.95 0
 0 2 5 117.76 1.42 0
 0 2 6 448.54 2.95 0
 0 2 8 52.72 1.22 0
 0 2 9 153.75 2.15 0
 0 2 10 7.19 0.64 0
 0 2 11 10.45 0.78 0
 0 4 -9 8.63 0.73 0
 0 4 -8 324.61 3.43 0
 0 4 8 317.5 2.99 0
 0 4 9 8.46 0.67 0
 0 4 10 14.52 0.87 0
 0 4 11 4.39 0.64 0
 0 6 8 0.1 0.34 0
 0 6 9 35.35 1.2 0
 0 6 10 24.18 1.08 0
 1 -1 -9 23.42 0.92 0
 1 -1 -8 0.25 0.32 0
 1 -1 -6 576.82 3.17 0
 1 -1 -5 138.91 1.44 0
 1 -1 -4 1339.46 3.78 0
 1 -1 -3 0.57 0.15 0
 1 1 -10 2.79 0.55 0
 1 1 -9 21.59 0.92 0
 1 1 -8 -0.11 0.29 0
 1 1 -7 11.22 0.62 0
 1 1 -6 566.68 3.36 0
 1 1 -5 139.7 1.57 0
 1 1 3 -0.07 0.23 0
 1 1 4 3.83 0.38 0
 1 1 5 29.92 0.78 0
 1 1 6 27.77 0.82 0
 1 1 8 9.03 0.65 0
 1 1 9 56.49 1.4 0
 1 1 10 32.51 1.18 0
 1 1 11 1 0.57 0
 1 3 -10 23.83 1.06 0
 1 3 -8 964.52 5.52 0
 1 3 -7 10.26 0.63 0
 1 3 7 3.46 0.48 0
 1 3 8 17.75 0.82 0
 1 3 9 148.24 2.24 0
 1 3 10 0.43 0.51 0
 1 3 11 2 0.62 0
 1 5 -9 282.7 3.51 0
 1 5 8 218.32 2.67 0
 1 5 9 3.12 0.52 0
 1 5 10 17.94 0.95 0
 2 0 -10 31.04 1.06 0
 2 0 -8 81.34 1.48 0
 2 0 -6 0.48 0.3 0
 2 0 -4 22.42 0.54 0
 2 0 2 25.57 0.54 0
 2 0 4 4885.32 8.74 0
 2 0 10 131.41 2.23 0
 2 2 -11 29.01 1.18 0
 2 2 -9 596.19 4.35 0
 2 2 -8 89.94 1.67 0
 2 2 5 50.88 1.06 0
 2 2 8 0.31 0.38 0
 2 2 10 37.01 1.28 0
 2 4 -10 58.01 1.62 0
 2 4 -9 408.23 3.97 0
 2 4 7 97.43 1.76 0
 2 4 8 745.99 4.88 0
 2 4 9 325.79 3.44 0
 2 4 10 189.25 2.78 0
 3 -1 -11 59.66 1.46 0
 3 -1 -10 536.02 3.93 0
 3 -1 -9 32.11 0.97 0
 3 -1 -8 168.78 1.94 0
 3 -1 -7 187.83 1.86 0
 3 -1 -6 4.93 0.36 0
 3 -1 -5 0.38 0.18 0
 3 -1 -4 14.35 0.39 0
 3 -1 -3 556.88 1.67 0
 3 -1 0 3021.47 3.75 0
 3 -1 2 682.86 2.72 0
 3 -1 3 534.58 2.73 0
 3 -1 4 774.59 3.64 0
 3 -1 5 23.79 0.78 0
 3 1 -12 0.39 0.5 0
 3 1 -11 60.51 1.56 0
 3 1 -10 534.73 4.21 0
 3 1 -9 32.85 1.07 0
 3 1 -8 166.1 2.09 0
 3 1 -7 188.74 2.09 0
 3 1 -6 4.73 0.45 0
 3 1 4 780.64 3.73 0
 3 1 5 24.31 0.79 0
 3 1 8 26.61 1.01 0
 3 1 9 1.73 0.45 0
 3 1 10 54.87 1.49 0
 3 3 -10 3.2 0.61 0
 3 3 -9 9.07 0.7 0
 3 3 7 387.28 3.41 0
 3 3 8 239.7 2.85 0
 3 3 10 39.7 1.34 0
 3 5 8 130.92 2.29 0
 4 0 -12 63.47 1.59 0
 4 0 -10 136.45 2.07 0
 4 0 -8 1.75 0.33 0
 4 0 -6 62.4 1.03 0
 4 0 2 56.11 0.91 0
 4 0 4 265.2 2.3 0
 4 0 6 12.6 0.7 0
 4 0 8 95.17 1.83 0
 4 0 10 3.44 0.61 0
 4 2 -10 31.9 1.16 0
 4 2 -9 67.62 1.51 0
 4 2 -8 44.31 1.17 0
 4 2 8 63.63 1.53 0
 4 2 9 2.34 0.52 0
 4 4 7 0.81 0.41 0
 4 4 8 187.81 2.7 0
 5 -1 -11 3.74 0.54 0
 5 -1 -10 360.93 3.05 0
 5 -1 -9 25.11 0.81 0
 5 -1 -8 10 0.53 0
 5 -1 -7 18.14 0.57 0
 5 -1 -6 446.52 2.35 0
 5 -1 -4 122.49 0.91 0
 5 -1 0 405.88 1.84 0
 5 -1 1 710.91 2.83 0
 5 -1 2 1039.28 3.86 0
 5 -1 3 71.43 1.15 0
 5 -1 4 240.07 2.26 0
 5 -1 5 233.14 2.38 0
 5 -1 6 735.02 4.45 0
 5 -1 7 236.51 2.74 0
 5 -1 8 0.12 0.47 0
 5 -1 9 11 0.86 0
 5 1 -12 33.26 1.25 0
 5 1 -11 3.17 0.52 0
 5 1 -10 366.14 3.39 0
 5 1 -8 9.41 0.59 0
 5 1 4 235.82 2.31 0
 5 1 5 239.21 2.49 0
 5 1 6 729.32 4.54 0
 5 1 7 241.15 2.83 0
 5 1 8 -0.28 0.35 0
 5 1 9 11.34 0.87 0
 5 3 -10 -0.21 0.44 0
 5 3 7 373.36 3.6 0
 5 3 8 139.73 2.36 0
 6 -2 0 67.85 0.79 0
 6 -2 1 121.7 1.24 0
 6 -2 2 153.41 1.58 0
 6 -2 3 509.3 3.1 0
 6 -2 4 41.99 1.02 0
 6 -2 5 -0.17 0.32 0
 6 -2 6 73.62 1.54 0
 6 0 -12 27.71 1.06 0
 6 0 -10 929.84 4.99 0
 6 0 -8 172.49 1.93 0
 6 0 -6 262.12 2.01 0
 6 0 4 418.92 3.13 0
 6 0 8 460.27 4.08 0
 6 2 -11 8.04 0.75 0
 6 2 -10 53.96 1.43 0
 6 2 -9 2.34 0.49 0
 6 2 5 -0.3 0.29 0
 6 2 7 296.87 3.27 0
 6 2 8 94.61 1.96 0
 7 -1 -11 -0.14 0.3 0
 7 -1 -10 156.71 1.91 0
 7 -1 -9 1.11 0.31 0
 7 -1 -8 147.47 1.57 0
 7 -1 -7 0.08 0.19 0
 7 -1 -6 2.03 0.24 0
 7 -1 -5 27.77 0.53 0
 7 -1 -1 133.13 1.13 0
 7 -1 0 135.59 1.3 0
 7 -1 1 26.13 0.68 0
 7 -1 2 469.04 2.91 0
 7 -1 3 59.47 1.21 0
 7 -1 6 678.15 4.55 0
 7 -1 7 0.71 0.41 0
 7 -1 8 96.97 2.05 0
 7 1 -12 13.88 0.85 0
 7 1 -11 0.02 0.4 0
 7 1 -10 156.36 2.21 0
 7 1 -9 1.31 0.4 0
 7 1 -8 149.23 1.93 0
 7 1 4 29.43 0.97 0
 7 1 5 69.7 1.49 0
 7 1 6 678.54 4.72 0
 7 1 7 0.17 0.44 0
 7 1 8 92.13 2 0
 7 3 -10 -0.43 0.36 0
 7 3 6 26.78 1.12 0
 8 -2 0 7.78 0.37 0
 8 -2 2 21.69 0.7 0
 8 -2 3 0.87 0.35 0
 8 -2 5 18.52 0.86 0
 8 -2 6 5.03 0.6 0
 8 -2 7 91.31 1.96 0
 8 0 -10 243.21 2.47 0
 8 0 -8 137.68 1.67 0
 8 0 2 431.44 3.05 0
 8 0 6 148.74 2.3 0
 8 2 -11 5.65 0.65 0
 8 2 -9 40.67 1.2 0
 8 2 5 19.03 0.97 0
 9 -1 -8 91.44 1.04 0
 9 -1 -7 10.9 0.36 0
 9 -1 -6 324.15 1.41 0
 9 -1 -2 177.03 1.33 0
 9 -1 -1 12.25 0.46 0
 9 -1 0 73.79 1.13 0
 9 -1 1 0.37 0.25 0
 9 -1 2 31.81 0.9 0
 9 -1 3 37.88 1.04 0
 9 -1 4 79.3 1.63 0
 9 -1 5 0.42 0.36 0
 9 1 -9 25.88 0.89 0
 9 1 3 38.15 1.13 0
 9 1 4 81.35 1.71 0
 9 1 5 -0.21 0.36 0
 9 1 6 54.45 1.54 0
 9 3 -10 3.16 0.61 0
 10 -2 2 13.39 0.65 0
 10 -2 3 6.27 0.57 0
 10 -2 4 20.78 0.88 0
 10 -2 5 2.34 0.5 0
 10 0 0 15.03 0.63 0
 10 0 2 221.49 2.43 0
 10 0 4 51.35 1.35 0
 11 -1 -3 49.35 0.65 0
 11 -1 0 0.69 0.28 0
 11 -1 1 34.43 0.93 0
 11 -1 2 175.59 2.14 0
 11 -1 3 -0.27 0.36 0
 11 -1 4 10.1 0.72 0
 11 1 1 32.96 1.04 0
 11 1 2 185.52 2.44 0
 11 1 3 -0.38 0.45 0
 11 1 4 10.84 0.81 0
 12 0 0 18.92 0.76 0
 12 2 2 2.15 0.51 0
 -3 1 9 34.25 1.14 0
 -3 1 10 524.35 4.33 0
 -2 -2 9 595.83 4.59 0
 -2 -2 10 19.69 1.02 0
 -2 0 6 1.06 0.32 0
 -2 0 8 79.15 1.58 0
 -2 2 4 125 1.21 0
 -2 2 5 1372.26 4.53 0
 -2 2 6 158.6 1.74 0
 -2 2 8 88.93 1.57 0
 -2 2 9 600.22 4.24 0
 -2 2 10 19.23 0.88 0
 -2 2 11 28.11 1.12 0
 -2 4 5 727.63 2.85 0
 -2 4 8 2.6 0.41 0
 -2 4 9 405.37 3.32 0
 -2 4 11 97.19 1.95 0
 -2 4 12 8.67 0.77 0
 -2 6 8 67.58 1.15 0
 -2 6 9 66.94 1.28 0
 -2 6 10 11.21 0.64 0
 -2 6 11 3.57 0.54 0
 -1 -3 5 900.71 4.41 0
 -1 -3 6 171.24 2.12 0
 -1 -3 8 911.14 5.42 0
 -1 -3 9 439.48 4.01 0
 -1 -3 10 25.07 1.12 0
 -1 -1 4 1338.89 4.56 0
 -1 -1 5 137.8 1.66 0
 -1 -1 6 569.69 3.57 0
 -1 -1 9 23.53 1.02 0
 -1 -1 10 2.22 0.56 0
 -1 -1 11 34.12 1.34 0
 -1 1 2 866.38 2.23 0
 -1 1 3 0.37 0.13 0
 -1 1 4 1363.9 4.14 0
 -1 1 5 138.32 1.53 0
 -1 1 6 571.84 3.36 0
 -1 1 8 0.22 0.26 0
 -1 1 9 22.28 0.93 0
 -1 1 10 2.17 0.46 0
 -1 1 11 32.91 1.26 0
 -1 3 3 298 1.43 0
 -1 3 4 773.04 2.84 0
 -1 3 5 924.52 3.59 0
 -1 3 6 175.54 1.77 0
 -1 3 8 931.35 4.78 0
 -1 3 9 425.02 3.47 0
 -1 3 10 24.66 1.01 0
 -1 3 11 23.06 1.05 0
 -1 3 12 299.75 3.53 0
 -1 5 4 534.69 2 0
 -1 5 5 27.32 0.58 0
 -1 5 8 520.59 3.38 0
 -1 5 9 276.33 2.69 0
 -1 5 10 10.29 0.69 0
 -1 7 7 241.24 1.83 0
 -1 7 8 12.37 0.54 0
 -1 7 9 9.5 0.54 0
 0 -4 4 814.01 3.93 0
 0 -4 5 34.88 0.95 0
 0 -4 6 2.92 0.41 0
 0 -4 7 52.66 1.33 0
 0 -4 8 316.71 3.33 0
 0 -4 9 7.81 0.67 0
 0 -4 10 13.27 0.97 0
 0 -2 2 736.32 2.67 0
 0 -2 4 277.41 2.15 0
 0 -2 5 116.68 1.56 0
 0 -2 6 443.01 3.22 0
 0 -2 10 6.66 0.66 0
 0 0 2 1489.93 3.16 0
 0 0 4 9890.89 11.58 0
 0 0 6 1745.35 6.09 0
 0 0 10 73.14 1.69 0
 0 2 -4 288.74 2.21 0
 0 2 -3 28.07 0.62 0
 0 2 -2 730 2.67 0
 0 2 -1 193.35 1.12 0
 0 2 5 118.41 1.39 0
 0 2 6 447.34 2.92 0
 0 2 9 153.53 2.24 0
 0 2 10 6.83 0.63 0
 0 4 -5 35.19 0.95 0
 0 4 -4 819.9 3.97 0
 0 4 -3 235.85 1.98 0
 0 4 -2 92.97 1.13 0
 0 4 8 317.58 2.82 0
 0 4 10 13.24 0.81 0
 0 4 11 5.44 0.61 0
 0 4 12 3.98 0.66 0
 0 6 -4 36 0.94 0
 0 6 -3 2.23 0.33 0
 0 6 -2 1.84 0.26 0
 0 6 1 174.38 1.19 0
 0 6 7 7.1 0.46 0
 0 6 8 0.21 0.28 0
 0 6 10 23.29 0.93 0
 0 6 11 15.31 0.84 0
 0 8 -1 827.33 3.46 0
 0 8 7 3.36 0.32 0
 1 -5 3 58.61 1.01 0
 1 -5 5 105.7 1.65 0
 1 -5 6 309.36 2.95 0
 1 -5 7 146.3 2.22 0
 1 -5 8 211.33 2.79 0
 1 -5 9 3.64 0.58 0
 1 -3 1 152.99 1.05 0
 1 -3 2 1.43 0.2 0
 1 -3 3 171.14 1.58 0
 1 -3 4 122.87 1.51 0
 1 -3 6 76.52 1.41 0
 1 -3 8 18.2 0.89 0
 1 -3 9 140.46 2.3 0
 1 -3 10 0.06 0.4 0
 1 -1 -4 1333.57 4.08 0
 1 -1 -3 0.27 0.13 0
 1 -1 -2 824.36 2.2 0
 1 -1 4 4.14 0.33 0
 1 -1 5 31.04 0.8 0
 1 -1 9 55.11 1.45 0
 1 -1 10 32.39 1.18 0
 1 -1 11 0.08 0.43 0
 1 1 -6 565.37 3.59 0
 1 1 -5 137.85 1.66 0
 1 1 -3 0.24 0.15 0
 1 1 -2 866.37 2.82 0
 1 1 8 7.73 0.63 0
 1 1 9 55.56 1.41 0
 1 1 10 34 1.22 0
 1 1 11 0.2 0.41 0
 1 3 -6 177.01 2.17 0
 1 3 -5 940.79 4.59 0
 1 3 -4 761.46 3.85 0
 1 3 -3 282.35 2.11 0
 1 3 -2 307.22 1.99 0
 1 3 8 17.59 0.74 0
 1 3 9 142.35 2.13 0
 1 3 10 0.25 0.35 0
 1 3 11 2.44 0.52 0
 1 5 -6 103.28 1.8 0
 1 5 -5 28.51 0.93 0
 1 5 -4 545.3 3.56 0
 1 5 -3 751.76 3.8 0
 1 5 -2 358.25 2.46 0
 1 5 -1 19.85 0.56 0
 1 5 8 215.71 2.4 0
 1 5 9 3.4 0.51 0
 1 5 10 18.17 0.86 0
 1 5 11 24.78 1.08 0
 1 7 -7 250.56 3.12 0
 1 7 -6 7.25 0.64 0
 1 7 -5 488.26 3.79 0
 1 7 -4 10.6 0.63 0
 1 7 -3 93.56 1.56 0
 1 7 -2 5.09 0.44 0
 1 7 10 0.35 0.39 0
 1 9 -4 46.76 1.22 0
 1 9 -3 2.6 0.39 0
 1 9 0 6.52 0.41 0
 1 9 1 41.22 0.8 0
 1 9 2 96.44 1.11 0
 1 9 3 11.1 0.39 0
 2 -6 3 37.43 0.83 0
 2 -6 4 52.02 1.11 0
 2 -6 5 15.07 0.72 0
 2 -6 6 93.13 1.69 0
 2 -6 7 74.35 1.62 0
 2 -6 8 227.26 2.96 0
 2 -6 9 41.3 1.38 0
 2 -4 1 3.41 0.24 0
 2 -4 4 511.45 3.16 0
 2 -4 5 42.28 1.05 0
 2 -4 6 0.66 0.39 0
 2 -4 7 99.41 1.83 0
 2 -4 8 731.26 5 0
 2 -4 9 325.24 3.54 0
 2 -2 -5 1321.63 4.42 0
 2 -2 -4 125.31 1.22 0
 2 -2 -3 284.86 1.56 0
 2 -2 5 52.42 1.09 0
 2 -2 6 15.19 0.69 0
 2 -2 7 67 1.42 0
 2 -2 8 0.02 0.3 0
 2 -2 9 9.78 0.78 0
 2 -2 10 37.65 1.29 0
 2 0 -6 0.55 0.29 0
 2 0 -4 21.88 0.61 0
 2 0 8 702.42 4.6 0
 2 0 10 129.49 2.25 0
 2 2 -9 608.38 4.72 0
 2 2 -8 90.55 1.77 0
 2 2 -7 5.51 0.51 0
 2 2 -6 157.96 2.08 0
 2 2 -5 1334.11 5.37 0
 2 2 -3 290.44 2.14 0
 2 2 9 9.56 0.7 0
 2 2 10 37.57 1.28 0
 2 2 11 2.12 0.52 0
 2 4 -9 410.1 4.12 0
 2 4 -8 1.77 0.48 0
 2 4 -7 27.96 1.04 0
 2 4 -6 72.39 1.52 0
 2 4 -5 736.48 4.34 0
 2 4 -4 1.55 0.37 0
 2 4 -3 0.42 0.26 0
 2 4 11 0.66 0.5 0
 2 6 -8 65.84 1.68 0
 2 6 -7 7.57 0.73 0
 2 6 -6 0.41 0.41 0
 2 6 -5 72.71 1.52 0
 2 6 -4 46.44 1.16 0
 2 6 -3 10.79 0.62 0
 2 6 -2 6.31 0.44 0
 2 6 10 10.52 0.73 0
 2 6 11 4.4 0.61 0
 2 8 -7 14.3 0.88 0
 2 8 -6 12.48 0.84 0
 2 8 -5 45.17 1.31 0
 2 8 -4 26.58 1 0
 2 8 -3 27.59 0.93 0
 2 8 -2 22.91 0.82 0
 2 8 0 98.26 1.47 0
 2 10 -4 35.3 1.14 0
 2 10 -2 3.5 0.48 0
 2 10 0 0.37 0.19 0
 3 -7 3 132.74 1.55 0
 3 -7 4 47.97 1.06 0
 3 -7 5 56.27 1.25 0
 3 -7 6 19.23 0.87 0
 3 -7 7 38.34 1.24 0
 3 -7 8 35.64 1.28 0
 3 -5 0 132.42 0.82 0
 3 -5 1 90.47 0.94 0
 3 -5 2 12.68 0.46 0
 3 -5 4 377.24 2.83 0
 3 -5 5 109.05 1.69 0
 3 -5 6 18.23 0.84 0
 3 -5 7 16.91 0.88 0
 3 -5 8 133.95 2.25 0
 3 -3 -3 11.15 0.34 0
 3 -3 6 27.62 0.93 0
 3 -3 7 382.22 3.4 0
 3 -3 8 236.22 2.86 0
 3 -3 9 83.44 1.86 0
 3 -1 -8 166.34 2.21 0
 3 -1 -7 190.61 2.18 0
 3 -1 -6 5.22 0.45 0
 3 -1 -5 0.11 0.22 0
 3 -1 9 1.57 0.43 0
 3 -1 10 53.73 1.54 0
 3 1 -10 539.42 4.64 0
 3 1 -9 34.06 1.2 0
 3 1 -8 164.94 2.33 0
 3 1 -6 5.51 0.52 0
 3 1 -5 0.05 0.28 0
 3 1 10 53.89 1.53 0
 3 3 -10 3.44 0.75 0
 3 3 -9 8.05 0.79 0
 3 3 -8 806.51 5.4 0
 3 3 -7 19.19 0.86 0
 3 3 -6 339.53 3.13 0
 3 3 -5 8.59 0.59 0
 3 3 -4 933.02 4.56 0
 3 5 -7 251.58 3.11 0
 3 5 -6 44.69 1.27 0
 3 5 -5 14.17 0.77 0
 3 5 -4 131.58 1.93 0
 3 7 -7 52.88 1.59 0
 3 7 -4 26.36 1.02 0
 3 9 -5 -0.34 0.48 0
 3 9 -4 12.18 0.81 0
 3 9 -3 40.69 1.21 0
 3 9 -2 6.8 0.61 0
 3 9 -1 131.08 1.95 0
 4 -8 4 173.26 1.99 0
 4 -8 5 23.85 0.86 0
 4 -8 6 8.66 0.67 0
 4 -6 0 46.54 0.5 0
 4 -6 3 248.22 2.18 0
 4 -6 4 52.25 1.13 0
 4 -6 5 10.33 0.63 0
 4 -6 6 77.82 1.6 0
 4 -6 8 51.05 1.45 0
 4 -4 -5 300.16 1.94 0
 4 -4 -4 4.82 0.28 0
 4 -4 -3 10.08 0.31 0
 4 -4 5 91.4 1.56 0
 4 -4 6 18.02 0.8 0
 4 -4 7 0.09 0.35 0
 4 -4 8 184.34 2.63 0
 4 -2 -8 43.89 1.15 0
 4 -2 -7 132.03 1.82 0
 4 -2 -5 751.57 3.61 0
 4 -2 9 1.74 0.51 0
 4 0 -8 1.34 0.42 0
 4 0 -6 61.72 1.27 0
 4 2 -10 30.16 1.21 0
 4 2 -9 68.63 1.72 0
 4 2 -8 42.68 1.29 0
 4 2 -7 127.4 2.07 0
 4 2 -6 50.44 1.24 0
 4 2 -5 746.66 4.36 0
 4 4 -9 80.65 1.95 0
 4 4 -7 1.16 0.44 0
 4 4 -6 37.82 1.23 0
 4 4 -5 308.18 3.08 0
 4 6 -7 2.08 0.53 0
 4 6 -6 19.04 1.02 0
 4 6 -5 194.91 2.68 0
 4 6 -4 2.7 0.46 0
 4 8 -6 34.88 1.34 0
 4 8 -5 214.08 2.97 0
 4 8 -4 13.52 0.9 0
 4 8 -3 50.99 1.39 0
 4 8 -2 66.75 1.53 0
 4 10 -3 -0.2 0.36 0
 4 10 -2 12.04 0.8 0
 4 10 -1 27.13 1.04 0
 5 -7 1 54.7 0.78 0
 5 -7 2 102.38 1.27 0
 5 -7 3 26.62 0.77 0
 5 -7 4 27.6 0.87 0
 5 -7 5 109.68 1.82 0
 5 -7 6 186.03 2.47 0
 5 -5 -4 0.32 0.13 0
 5 -5 5 26.03 0.92 0
 5 -5 6 86.53 1.69 0
 5 -5 8 229.15 3.02 0
 5 -3 -9 155.57 2.2 0
 5 -3 -7 0.42 0.29 0
 5 -3 -6 67.8 1.25 0
 5 -3 -5 546.36 3.1 0
 5 -3 -4 47.43 0.91 0
 5 -3 9 5.33 0.77 0
 5 -1 -11 3.32 0.63 0
 5 -1 -10 349.9 3.66 0
 5 -1 -9 26.13 1.04 0
 5 -1 -8 9.65 0.71 0
 5 -1 -7 17.79 0.8 0
 5 1 -10 358.21 3.96 0
 5 1 -9 23.74 1.11 0
 5 1 -8 9.62 0.75 0
 5 1 -7 18.72 0.85 0
 5 3 -9 154.73 2.71 0
 5 3 -8 21.14 1.01 0
 5 3 -7 0.39 0.39 0
 5 3 -6 69.2 1.58 0
 5 3 -5 571.34 4.21 0
 5 5 -7 50.77 1.56 0
 5 5 -5 19.21 0.9 0
 5 7 -6 5.83 0.83 0
 5 7 -5 359.17 3.87 0
 5 7 -4 42.11 1.33 0
 5 9 -3 0.79 0.5 0
 5 9 -2 0.3 0.4 0
 6 -8 2 67.82 1.04 0
 6 -8 3 191.16 1.95 0
 6 -8 4 49.73 1.14 0
 6 -8 6 3.77 0.54 0
 6 -6 3 274.28 2.48 0
 6 -6 4 6.32 0.56 0
 6 -6 5 44.73 1.2 0
 6 -4 -6 640.72 3.57 0
 6 -4 8 0.25 0.42 0
 6 -2 -11 7.39 0.71 0
 6 -2 -10 55.12 1.5 0
 6 -2 -9 2.84 0.48 0
 6 -2 -8 185.25 2.47 0
 6 -2 -6 56.56 1.24 0
 6 -2 -5 0.66 0.31 0
 6 0 -10 937.6 6.33 0
 6 0 -8 172.47 2.52 0
 6 0 -6 267.33 2.84 0
 6 2 -9 2.43 0.62 0
 6 2 -8 179.73 2.75 0
 6 2 -7 10.81 0.8 0
 6 2 -6 56.61 1.47 0
 6 4 -7 141.3 2.52 0
 6 4 -6 641.98 4.98 0
 6 6 -6 36.03 1.38 0
 6 6 -5 56.27 1.6 0
 7 -7 1 -0.29 0.2 0
 7 -7 3 89.4 1.51 0
 7 -7 4 106.66 1.73 0
 7 -7 5 10.9 0.72 0
 7 -7 6 24.51 1.03 0
 7 -5 -7 0.25 0.26 0
 7 -5 -6 0.19 0.22 0
 7 -5 -5 4.1 0.37 0
 7 -5 7 1.34 0.45 0
 7 -3 -11 33.26 1.26 0
 7 -3 -10 -0.32 0.32 0
 7 -3 -9 9.65 0.71 0
 7 -3 -8 55.43 1.37 0
 7 -3 -7 14.73 0.76 0
 7 -3 -6 5.31 0.54 0
 7 -3 -5 101.97 1.6 0
 7 -1 -10 151.45 2.63 0
 7 -1 -9 0.67 0.45 0
 7 -1 -8 148.93 2.36 0
 7 -1 -7 0.44 0.36 0
 7 -1 -6 1.79 0.39 0
 7 1 -9 0.78 0.6 0
 7 1 -8 150.07 2.57 0
 7 1 -7 0.33 0.5 0
 7 3 -7 13.22 0.94 0
 8 -6 -6 47.4 0.91 0
 8 -6 -5 2.09 0.29 0
 8 -4 -10 12.67 0.82 0
 8 -4 -9 0.89 0.37 0
 8 -4 -7 155.3 2.13 0
 8 -4 -6 358.62 3.06 0
 8 -4 -5 115.81 1.72 0
 8 -2 -9 38.17 1.31 0
 8 -2 -8 58.7 1.51 0
 8 -2 -7 21.95 0.98 0
 8 -2 -6 2.67 0.44 0
 8 0 -8 139.06 2.52 0
 9 -5 -7 7.79 0.6 0
 9 -5 -5 6.72 0.53 0
 9 -3 -9 9.27 0.8 0
 9 -3 -8 8.47 0.73 0
 9 -3 -7 104.02 2 0
 9 -1 -8 89.65 2.02 0
 9 -1 -7 10.48 0.81 0
 10 -4 -8 8.63 0.74 0
 10 -4 -7 17.87 0.91 0
 10 -4 -6 4.98 0.6 0
 -5 -5 7 46.66 0.91 0
 -5 -5 8 14.18 0.55 0
 -4 -4 2 9.52 0.47 0
 -4 -4 3 11.67 0.49 0
 -4 -4 9 83.76 1.07 0
 -3 -3 1 630.07 2.7 0
 -3 -3 2 1371.85 3.85 0
 -3 -3 3 11.38 0.42 0
 -3 -3 4 943.34 3.05 0
 -3 -3 5 8.22 0.36 0
 -3 -3 6 340.82 1.87 0
 -3 -3 7 18.24 0.49 0
 -3 -1 11 62.9 0.72 0
 -3 1 8 163.27 1.07 0
 -3 1 10 514.42 2.11 0
 -3 1 11 61.82 0.85 0
 -2 -4 -1 3.19 0.39 0
 -2 -4 0 11.46 0.54 0
 -2 -4 1 771.34 3.34 0
 -2 -4 2 367.86 2.33 0
 -2 -4 3 0.69 0.31 0
 -2 -4 4 2.35 0.34 0
 -2 -2 0 648.27 2.36 0
 -2 -2 1 1063.03 2.86 0
 -2 -2 2 2332.48 4.03 0
 -2 -2 3 289.54 1.44 0
 -2 0 10 32.16 0.68 0
 -2 4 7 28.69 0.87 0
 -2 4 8 2.41 0.42 0
 -2 4 9 399.78 3.03 0
 -2 4 10 57.07 1.22 0
 -2 4 11 99.55 1.71 0
 -2 4 12 7.81 0.66 0
 -1 -3 -2 1.77 0.31 0
 -1 -3 -1 151.04 1.35 0
 -1 -3 0 477.59 2.31 0
 -1 -3 1 1139.66 3.53 0
 -1 -3 2 313.7 1.94 0
 -1 -1 0 2040.05 2.95 0
 -1 1 7 11.32 0.43 0
 -1 1 8 -0.25 0.21 0
 -1 3 3 296.85 2.05 0
 -1 3 4 748.21 3.23 0
 -1 3 9 429.33 2.99 0
 -1 3 10 23.88 0.83 0
 -1 3 11 23.19 0.86 0
 -1 3 12 309.34 2.85 0
 -1 3 13 40.61 1.13 0
 -1 5 6 101.93 1.72 0
 -1 5 7 402.55 3.3 0
 -1 5 8 519.1 3.8 0
 -1 5 9 271.41 2.87 0
 -1 5 10 10.05 0.78 0
 -1 5 11 28.3 1.1 0
 -1 5 12 71.66 1.63 0
 -1 5 13 139.28 2.33 0
 0 -4 -3 232.29 1.98 0
 0 -4 -2 89.89 1.22 0
 0 -4 -1 65.94 1.07 0
 0 -4 0 666.36 3.15 0
 0 -2 -3 29.26 0.58 0
 0 -2 -2 731.15 2.47 0
 0 -2 -1 195.21 1.25 0
 0 -2 0 4163.36 5.63 0
 0 0 14 -0.69 0.28 0
 0 2 1 190.01 1.27 0
 0 2 2 726.88 2.55 0
 0 2 3 28.99 0.59 0
 0 2 4 279.69 1.81 0
 0 2 5 119.13 1.27 0
 0 2 10 6.67 0.56 0
 0 2 11 10.31 0.65 0
 0 2 12 6.63 0.63 0
 0 2 13 210.61 2.52 0
 0 2 14 1.72 0.44 0
 0 4 6 4.03 0.44 0
 0 4 7 52.87 1.17 0
 0 4 8 312.03 2.81 0
 0 4 9 7.92 0.67 0
 0 4 10 13.91 0.81 0
 0 4 12 3.91 0.6 0
 0 4 13 20.07 1.01 0
 0 6 4 37.91 1.19 0
 0 6 5 5.78 0.67 0
 0 6 6 11.99 0.83 0
 0 6 7 6.76 0.77 0
 0 6 8 0.24 0.45 0
 0 6 9 33.91 1.23 0
 0 6 10 25.69 1.17 0
 0 6 11 15.7 1.01 0
 0 6 12 89.25 2.02 0
 0 6 13 22.79 1.25 0
 1 -3 -4 739.07 2.98 0
 1 -3 -3 285.04 1.85 0
 1 -3 -2 305.1 1.92 0
 1 -3 -1 1168.58 3.71 0
 1 -1 -2 864.41 1.89 0
 1 1 0 1987.65 2.93 0
 1 1 13 22.6 1 0
 1 1 14 1.02 0.51 0
 1 3 0 491.33 2.5 0
 1 3 1 153.84 1.46 0
 1 3 6 73.5 1.26 0
 1 3 7 3.99 0.49 0
 1 3 8 19.04 0.79 0
 1 3 9 152.38 2.09 0
 1 3 10 0.82 0.49 0
 1 3 11 2.65 0.56 0
 1 3 12 43.91 1.32 0
 1 3 13 153.73 2.47 0
 1 3 14 61.45 1.61 0
 1 5 1 398.7 3.09 0
 1 5 2 316.28 2.72 0
 1 5 3 60.75 1.26 0
 1 5 4 3.41 0.45 0
 1 5 6 311.27 2.99 0
 1 5 7 145.12 2.19 0
 1 5 8 216.95 2.7 0
 1 5 9 3.67 0.62 0
 1 5 10 19.77 1.03 0
 1 5 12 244.33 3.25 0
 1 5 13 36.68 1.46 0
 1 5 14 27.77 1.31 0
 1 7 5 155.34 2.58 0
 1 7 7 239.89 3.22 0
 1 7 8 20.09 1.14 0
 1 7 9 78.6 1.95 0
 1 7 10 0.13 0.73 0
 1 7 11 100.64 2.28 0
 1 7 12 26.67 1.41 0
 1 7 14 34.09 1.59 0
 2 -4 -5 724.25 3.33 0
 2 -4 -4 1.61 0.33 0
 2 -4 -3 0.67 0.33 0
 2 -4 -2 355.76 2.38 0
 2 -2 -4 129.67 1.07 0
 2 -2 -3 292.13 1.56 0
 2 2 -1 1048.28 2.93 0
 2 2 0 639.34 2.41 0
 2 2 1 586.9 2.47 0
 2 2 2 484.62 2.43 0
 2 2 11 2.26 0.58 0
 2 2 12 2.08 0.6 0
 2 2 13 0.36 0.58 0
 2 2 15 5.73 0.8 0
 2 4 3 31.49 0.87 0
 2 4 4 497.24 3.3 0
 2 4 6 0.99 0.36 0
 2 4 7 99.71 1.79 0
 2 4 8 759.62 4.78 0
 2 4 9 327.24 3.3 0
 2 4 10 200.62 2.75 0
 2 4 11 0.59 0.64 0
 2 4 12 190 2.9 0
 2 4 13 185.41 2.96 0
 2 4 14 181.86 3 0
 2 6 1 56.01 1.36 0
 2 6 3 39.97 1.19 0
 2 6 4 50.21 1.35 0
 2 6 7 76.36 1.77 0
 2 6 8 232.35 3.1 0
 2 6 9 42.41 1.46 0
 2 6 10 10.73 1 0
 2 6 11 5.48 0.92 0
 2 6 12 26.19 1.36 0
 2 6 13 40.4 1.64 0
 2 6 14 22.8 1.45 0
 2 8 5 235.48 3.38 0
 2 8 6 7.7 0.93 0
 2 8 8 2.23 0.76 0
 2 8 9 35.42 1.57 0
 2 8 10 3.53 0.92 0
 2 8 11 14.24 1.31 0
 2 8 12 6.73 1.18 0
 2 8 13 13.85 1.37 0
 3 -3 -6 342.29 2 0
 3 -3 -4 939.72 3.3 0
 3 -3 -3 12.22 0.51 0
 3 1 -2 35.61 0.45 0
 3 1 15 5.52 0.88 0
 3 1 16 90.26 2.12 0
 3 3 -2 1374.66 4.11 0
 3 3 -1 635.77 2.89 0
 3 3 4 355.29 2.73 0
 3 3 5 73.62 1.44 0
 3 3 6 26.53 0.92 0
 3 3 7 383.86 3.29 0
 3 3 8 239.06 2.75 0
 3 3 9 85.08 1.75 0
 3 3 10 42.48 1.35 0
 3 3 11 66.26 1.66 0
 3 3 12 37.39 1.37 0
 3 3 13 3.05 0.72 0
 3 3 14 -0.1 0.66 0
 3 3 15 30.53 1.45 0
 3 3 16 45.61 1.73 0
 3 5 -1 5.71 0.53 0
 3 5 1 90.54 1.57 0
 3 5 2 13.23 0.72 0
 3 5 4 364.7 3.23 0
 3 5 5 105.21 1.89 0
 3 5 6 20.33 0.98 0
 3 5 7 16.69 0.94 0
 3 5 9 136.91 2.48 0
 3 5 10 65.98 1.76 0
 3 5 11 0.36 0.71 0
 3 5 12 4.28 0.92 0
 3 5 13 34.16 1.54 0
 3 5 14 1.15 0.87 0
 3 5 15 0.96 0.84 0
 3 7 1 89.07 1.87 0
 3 7 2 193.39 2.76 0
 3 7 3 138.75 2.44 0
 3 7 4 50.69 1.53 0
 3 7 5 56.9 1.65 0
 3 7 6 19.69 1.15 0
 3 7 9 4.71 0.9 0
 3 7 10 4.77 0.96 0
 3 7 11 35.59 1.62 0
 3 7 12 3.09 1.01 0
 3 7 13 0.58 0.89 0
 3 7 14 0.45 1.02 0
 3 9 4 1.03 0.83 0
 3 9 5 72.99 2.16 0
 3 9 6 3.65 0.96 0
 3 9 7 17.39 1.39 0
 3 9 8 1.15 0.8 0
 3 9 9 6.89 1.21 0
 3 9 10 0.68 1.05 0
 3 9 11 22.16 1.66 0
 4 -4 -7 1.25 0.29 0
 4 -4 -6 35.11 0.78 0
 4 -4 -5 298.05 2.16 0
 4 -4 -4 4.59 0.42 0
 4 -2 -5 758.81 2.36 0
 4 -2 -4 69.48 0.81 0
 4 2 -3 52.16 0.72 0
 4 2 -2 0.13 0.18 0
 4 2 -1 1913.89 4.55 0
 4 2 14 193.26 3.25 0
 4 2 15 0.5 0.75 0
 4 2 16 75.62 2.14 0
 4 4 1 89.83 1.47 0
 4 4 2 8.55 0.58 0
 4 4 3 229.05 2.42 0
 4 4 4 -0.12 0.31 0
 4 4 5 88.61 1.66 0
 4 4 6 18.37 0.89 0
 4 4 7 0.52 0.53 0
 4 4 8 191.09 2.71 0
 4 4 9 23.4 1.13 0
 4 4 10 48.78 1.54 0
 4 4 11 -0.24 0.55 0
 4 4 12 224.77 3.41 0
 4 4 14 255.54 3.87 0
 4 4 15 41.25 1.77 0
 4 6 0 45.44 1.24 0
 4 6 1 32.85 1.12 0
 4 6 2 8.28 0.72 0
 4 6 3 236.57 2.89 0
 4 6 4 52.91 1.46 0
 4 6 5 11.19 0.89 0
 4 6 6 78.46 1.83 0
 4 6 7 248.36 3.31 0
 4 6 8 53.96 1.69 0
 4 6 9 108.78 2.32 0
 4 6 10 13.02 1.12 0
 4 6 12 152.46 3.13 0
 4 6 13 106.64 2.6 0
 4 6 14 16.32 1.47 0
 4 8 1 75 1.92 0
 4 8 3 176.86 2.91 0
 4 8 4 177.02 2.99 0
 4 8 5 23.05 1.31 0
 4 8 6 10.09 1.11 0
 4 8 7 137.04 2.77 0
 4 8 8 53.51 1.91 0
 4 8 9 65.67 2.14 0
 4 8 10 10.81 1.29 0
 4 8 11 3.92 1.04 0
 4 8 12 14.43 1.47 0
 4 10 5 0.36 0.83 0
 4 10 6 5.69 1.24 0
 4 10 7 13.35 1.49 0
 4 10 9 30.67 1.93 0
 5 -3 -7 0.24 0.2 0
 5 -3 -6 71.2 0.95 0
 5 -3 -5 561.01 2.59 0
 5 1 -4 122.3 0.79 0
 5 1 -3 200.94 1.23 0
 5 1 16 8.21 1.16 0
 5 3 -3 123.26 1.33 0
 5 3 2 49.71 1.1 0
 5 3 11 241.8 3.49 0
 5 3 12 54.15 1.79 0
 5 3 14 51.82 1.87 0
 5 3 15 67.72 2.15 0
 5 5 -2 269.05 2.55 0
 5 5 -1 169.7 2.12 0
 5 5 0 114.54 1.8 0
 5 5 1 50.17 1.24 0
 5 5 2 5.61 0.63 0
 5 5 3 0.91 0.42 0
 5 5 4 -0.06 0.42 0
 5 5 5 27.21 1.13 0
 5 5 6 84.96 1.87 0
 5 5 7 77.69 1.88 0
 5 5 8 231.02 3.27 0
 5 5 10 0.19 0.6 0
 5 5 11 14.76 1.24 0
 5 5 14 12.16 1.38 0
 5 7 0 179.11 2.62 0
 5 7 1 54.88 1.54 0
 5 7 5 103.83 2.24 0
 5 7 6 185.12 3.08 0
 5 7 7 64.25 1.91 0
 5 7 9 21.27 1.42 0
 5 7 10 26.13 1.54 0
 5 7 11 1.41 0.83 0
 5 7 12 21.95 1.59 0
 5 9 4 16.59 1.27 0
 5 9 5 98.31 2.51 0
 5 9 6 2.32 1.03 0
 5 9 7 27.88 1.66 0
 5 9 8 11.52 1.35 0
 5 9 9 6.86 1.21 0
 5 9 10 0.82 1.03 0
 6 -4 -8 31.22 0.69 0
 6 -4 -7 136.09 1.46 0
 6 -2 -6 56.22 0.67 0
 6 -2 -5 0.92 0.21 0
 6 2 -4 68.59 0.87 0
 6 2 -3 79.27 1.03 0
 6 2 -2 467.51 2.54 0
 6 2 15 20.07 1.55 0
 6 4 0 122.92 1.81 0
 6 4 1 0.28 0.32 0
 6 4 2 31.33 1.03 0
 6 4 3 26.21 0.98 0
 6 4 4 0.16 0.49 0
 6 4 5 20.36 1.03 0
 6 4 6 14.77 0.96 0
 6 4 7 21.32 1.11 0
 6 4 8 0.58 0.62 0
 6 4 9 32.82 1.39 0
 6 4 11 4.62 0.9 0
 6 4 12 23.99 1.44 0
 6 4 13 4.14 1.09 0
 6 4 14 28.15 1.7 0
 6 6 -2 0.1 0.39 0
 6 6 -1 389.3 3.52 0
 6 6 1 35.41 1.24 0
 6 6 2 153.39 2.5 0
 6 6 3 275.41 3.31 0
 6 6 4 6.49 0.81 0
 6 6 5 45.24 1.54 0
 6 6 6 43.07 1.56 0
 6 6 7 223.67 3.44 0
 6 6 8 16.74 1.21 0
 6 6 9 90.89 2.32 0
 6 6 10 1.43 0.9 0
 6 6 11 114.2 2.73 0
 6 6 12 3.35 0.98 0
 6 8 0 -0.41 0.6 0
 6 8 1 36.32 1.47 0
 6 8 2 62.82 1.84 0
 6 8 4 50.99 1.79 0
 6 8 5 66.13 2.06 0
 6 8 8 62.53 2.17 0
 6 8 9 139.58 3.1 0
 6 10 3 2.64 1.04 0
 6 10 7 6.74 1.33 0
 7 -3 -7 13.27 0.42 0
 7 -3 -6 5.56 0.38 0
 7 1 -5 29.01 0.47 0
 7 1 -4 66.78 0.85 0
 7 3 -1 681.53 3.76 0
 7 3 0 246.23 2.42 0
 7 3 12 0.91 0.79 0
 7 3 13 0.36 1.01 0
 7 5 -3 1.42 0.4 0
 7 5 -2 230.44 2.56 0
 7 5 -1 123.98 2 0
 7 5 0 26.9 1.03 0
 7 5 1 30.65 1.14 0
 7 5 3 77.42 1.77 0
 7 5 4 124.59 2.31 0
 7 5 5 105.2 2.17 0
 7 5 6 -0.42 0.51 0
 7 5 7 1.14 0.75 0
 7 5 8 -0.54 0.67 0
 7 5 9 7.33 0.92 0
 7 5 11 -0.65 0.94 0
 7 5 12 27.83 1.69 0
 7 7 -2 54.93 1.56 0
 7 7 -1 21.98 1.13 0
 7 7 0 31.79 1.29 0
 7 7 1 0.12 0.51 0
 7 7 3 82.18 2.04 0
 7 7 4 109.98 2.39 0
 7 7 5 12.29 1.1 0
 7 7 6 24.04 1.39 0
 7 7 8 10.4 1.22 0
 7 7 9 14.5 1.38 0
 7 7 10 27.99 1.72 0
 7 9 0 0.78 0.88 0
 7 9 1 139.7 2.89 0
 7 9 2 5.86 0.94 0
 7 9 3 4.75 0.88 0
 7 9 4 11.09 1.29 0
 7 9 5 134.65 3.01 0
 7 9 6 20.44 1.57 0
 7 9 7 104.71 2.82 0
 7 9 8 5.22 1.25 0
 8 -2 -6 3.84 0.3 0
 8 2 -5 0.61 0.24 0
 8 2 -4 100.2 1.26 0
 8 4 -4 9.03 0.59 0
 8 4 -3 241.63 2.41 0
 8 4 -2 1111.55 5.15 0
 8 4 -1 636.74 4.13 0
 8 4 0 194.79 2.47 0
 8 4 1 9.99 0.79 0
 8 4 2 356.52 3.48 0
 8 4 3 261.11 3.15 0
 8 4 5 7.56 0.82 0
 8 4 6 44.27 1.56 0
 8 4 7 18.54 1.21 0
 8 4 8 1.28 0.69 0
 8 4 10 50.36 1.9 0
 8 4 11 0.29 1.01 0
 8 4 12 0.2 0.89 0
 8 6 -3 238.98 2.84 0
 8 6 -1 108.26 2.17 0
 8 6 0 53.11 1.51 0
 8 6 1 2.79 0.62 0
 8 6 2 7.98 0.92 0
 8 6 3 67.87 1.84 0
 8 6 5 15.41 1.17 0
 8 6 6 31.74 1.5 0
 8 6 7 17.42 1.3 0
 8 6 8 10.31 1.22 0
 8 6 9 3.09 0.89 0
 8 6 10 12.02 1.41 0
 8 8 -1 5.3 0.83 0
 8 8 1 2.44 0.76 0
 8 8 2 22.99 1.37 0
 8 8 3 10.62 1.16 0
 8 8 4 1.92 0.87 0
 8 8 6 23.83 1.61 0
 8 8 7 7.48 1.15 0
 8 8 8 2.16 1.21 0
 8 10 2 46.43 2.07 0
 8 10 3 0.75 1.13 0
 9 1 -5 8.88 0.43 0
 9 3 -3 92.73 1.55 0
 9 3 -2 36.5 1.04 0
 9 3 -1 0.84 0.47 0
 9 3 0 0.16 0.41 0
 9 5 -4 20.74 0.9 0
 9 5 -3 2.06 0.5 0
 9 5 -2 12.24 0.82 0
 9 5 -1 14.22 0.93 0
 9 5 1 2.22 0.7 0
 9 5 3 0.16 0.69 0
 9 5 4 1.14 0.64 0
 9 5 5 1.46 0.74 0
 9 5 6 50.55 1.78 0
 9 5 7 1.13 0.89 0
 9 5 8 8.28 1.12 0
 9 5 9 0.91 0.81 0
 9 5 10 53.47 2.11 0
 9 7 -3 88.4 1.96 0
 9 7 -2 1.96 0.73 0
 9 7 -1 55.98 1.68 0
 9 7 0 5.06 0.79 0
 9 7 1 80.57 2.08 0
 9 7 2 25.58 1.39 0
 9 7 3 12.67 1.16 0
 9 7 4 9.43 1.13 0
 9 7 6 7.17 1.13 0
 9 7 7 22.59 1.55 0
 9 9 -1 65.96 2.14 0
 9 9 0 -0.15 0.93 0
 9 9 1 14.03 1.3 0
 9 9 2 2.62 1.08 0
 9 9 3 25.65 1.65 0
 9 9 4 1.85 0.92 0
 9 9 5 75.51 2.51 0
 10 0 -6 4.5 0.3 0
 10 2 -6 0.82 0.25 0
 10 2 -4 36.64 0.91 0
 10 2 -3 5.07 0.55 0
 10 2 -2 25.1 0.93 0
 10 4 -5 47.67 1.09 0
 10 4 -4 43.7 1.13 0
 10 4 -3 8.54 0.71 0
 10 4 -2 131.03 2.14 0
 10 4 -1 14.86 0.9 0
 10 4 0 20.46 1.06 0
 10 4 1 0.27 0.54 0
 10 4 2 139.51 2.55 0
 10 4 3 64.62 1.79 0
 10 4 4 109.13 2.34 0
 10 4 5 17.46 1.25 0
 10 4 6 10.19 1.14 0
 10 4 7 11.57 1.19 0
 10 4 8 11.09 1.29 0
 10 4 9 0.3 0.83 0
 10 4 10 30.06 1.79 0
 10 6 -4 87.91 1.81 0
 10 6 -3 227.78 2.95 0
 10 6 -2 61.23 1.64 0
 10 6 -1 8.02 0.9 0
 10 6 0 9.61 0.95 0
 10 6 1 35.62 1.46 0
 10 6 2 97.45 2.25 0
 10 6 3 2 0.88 0
 10 6 4 7.25 0.95 0
 10 6 5 1.45 0.79 0
 10 6 6 15.66 1.4 0
 10 6 7 36.75 1.8 0
 10 6 8 0.87 0.89 0
 10 8 -1 1.15 0.76 0
 10 8 0 0.23 0.86 0
 10 8 1 0.79 0.77 0
 10 8 2 8.07 1.19 0
 10 8 3 26.05 1.59 0
 10 8 4 2.57 0.97 0
 10 8 5 14.25 1.47 0
 10 8 6 23.9 1.77 0
 10 10 1 75.38 2.58 0
 11 1 -4 53.48 1.18 0
 11 3 -5 7.12 0.58 0
 11 3 -4 27.19 0.92 0
 11 3 -2 96.91 1.85 0
 11 3 -1 58.46 1.49 0
 11 3 0 226.06 2.97 0
 11 3 1 38.72 1.39 0
 11 5 -5 3.62 0.6 0
 11 5 -4 3.47 0.6 0
 11 5 -3 4.55 0.67 0
 11 5 0 48.26 1.57 0
 11 5 1 19.9 1.22 0
 11 5 2 37.72 1.56 0
 11 5 3 79.36 2.16 0
 11 5 4 51.45 1.88 0
 11 5 5 51.8 1.96 0
 11 5 6 0.44 0.79 0
 11 5 7 26 1.62 0
 11 5 8 10.13 1.25 0
 11 7 -3 -0.72 0.62 0
 11 7 -2 18.48 1.22 0
 11 7 -1 6.06 0.91 0
 11 7 0 1.09 0.83 0
 11 7 2 3.33 0.89 0
 11 7 3 38.46 1.77 0
 11 7 6 -0.45 0.89 0
 11 9 -1 0.07 0.87 0
 11 9 0 -0.49 0.84 0
 11 9 1 42.03 1.94 0
 11 9 2 7.03 1.32 0
 12 2 -4 5.9 0.62 0
 12 2 -2 -0.5 0.43 0
 12 4 -4 4.88 0.65 0
 12 4 -3 86.36 1.91 0
 12 4 -2 39.12 1.32 0
 12 4 -1 82.24 1.9 0
 12 4 0 1.33 0.72 0
 12 4 1 59.62 1.77 0
 12 4 2 7.16 1.02 0
 12 4 3 58.58 1.89 0
 12 4 5 41.63 1.8 0
 12 4 6 33.35 1.76 0
 12 4 7 72.18 2.41 0
 12 6 -3 23.63 1.2 0
 12 6 -2 18.16 1.2 0
 12 6 -1 7.79 0.95 0
 12 6 0 -0.03 0.65 0
 12 6 1 8.31 1.1 0
 12 6 2 -0.62 0.81 0
 12 6 3 5.06 1.04 0
 12 6 4 2.65 1.12 0
 12 6 5 3.9 1.19 0
 12 8 -2 23.64 1.46 0
 12 8 -1 54.63 1.99 0
 12 8 0 3.14 0.92 0
 12 8 1 4.82 1.15 0
 12 8 2 7.27 1.2 0
 13 1 -3 0.88 0.52 0
 13 3 -3 2.23 0.61 0
 13 3 -2 46.11 1.44 0
 13 3 -1 -0.31 0.54 0
 13 3 0 134.58 2.63 0
 13 3 1 0.49 0.7 0
 13 3 3 16.12 1.34 0
 13 5 -3 4.91 0.78 0
 13 5 -1 53.47 1.72 0
 13 5 0 23.2 1.35 0
 13 5 1 6.08 1 0
 13 5 2 36.45 1.7 0
 13 5 3 59.3 2.12 0
 13 5 4 51.74 2.05 0
 13 7 -2 0.01 0.84 0
 13 7 -1 115.64 2.63 0
 13 7 0 5.81 1.02 0
 13 7 1 4.58 1.15 0
 13 7 2 0.35 0.98 0
 14 2 -2 14.08 0.98 0
 14 2 -1 0.4 0.66 0
 14 2 0 -0.4 0.68 0
 14 4 -2 10.83 1.01 0
 14 4 -1 2.79 0.77 0
 14 4 0 3.82 0.88 0
 14 4 1 28.93 1.51 0
 14 4 2 9.48 1.12 0
 14 4 3 24.6 1.6 0
 14 4 4 -0.4 0.98 0
 14 6 -1 8.5 1.12 0
 14 6 0 22.09 1.46 0
 14 6 1 1.12 0.89 0
 14 6 2 14.46 1.49 0
 15 3 0 0.82 0.79 0
 15 3 1 17.08 1.36 0
 15 3 2 14.94 1.39 0
 15 5 0 19.18 1.49 0
 -7 7 7 41.42 1.97 0
 -7 7 8 0.26 0.72 0
 -7 7 9 2.59 0.93 0
 -7 7 10 -0.53 0.79 0
 -7 7 11 121.31 3.33 0
 -7 9 7 33.08 2.12 0
 -7 9 8 17.17 1.69 0
 -7 9 9 112.73 3.49 0
 -6 4 6 635.89 5.4 0
 -6 4 7 142.16 2.76 0
 -6 4 9 35.43 1.54 0
 -6 4 11 50.22 1.82 0
 -6 4 12 0.46 0.64 0
 -6 6 4 71.55 2.08 0
 -6 6 5 60 1.94 0
 -6 6 6 35.98 1.63 0
 -6 6 8 2.91 0.91 0
 -6 6 9 11.11 1.25 0
 -6 6 10 3.65 1.04 0
 -6 6 11 0.06 0.71 0
 -6 6 13 -0.28 0.8 0
 -6 8 3 4.63 0.94 0
 -6 8 5 5.51 0.98 0
 -6 8 6 6.12 1.05 0
 -6 8 7 2.09 0.91 0
 -6 8 8 1.77 0.91 0
 -6 8 9 156.56 3.73 0
 -6 8 10 17.7 1.65 0
 -6 8 12 0.6 0.96 0
 -6 10 4 1.85 1.09 0
 -6 10 5 6.83 1.23 0
 -6 10 6 26.21 1.89 0
 -6 10 7 69.39 2.85 0
 -6 10 8 3.94 1.24 0
 -5 3 5 555.66 4.44 0
 -5 3 6 66.52 1.63 0
 -5 3 7 0.52 0.49 0
 -5 3 9 149.29 2.62 0
 -5 3 10 0.32 0.46 0
 -5 3 11 -0.31 0.56 0
 -5 3 12 9.75 0.93 0
 -5 3 13 29.28 1.35 0
 -5 5 2 265.94 3.39 0
 -5 5 3 37.19 1.36 0
 -5 5 4 0.66 0.43 0
 -5 5 6 90.82 2.22 0
 -5 5 7 51.05 1.75 0
 -5 5 9 1 0.71 0
 -5 5 10 2.65 0.86 0
 -5 5 11 3.01 0.87 0
 -5 5 12 2.55 0.87 0
 -5 5 13 2.19 0.94 0
 -5 5 14 0.45 0.77 0
 -5 5 15 0.65 0.78 0
 -5 7 1 54.41 1.8 0
 -5 7 2 3.52 0.8 0
 -5 7 3 30.7 1.42 0
 -5 7 4 40.28 1.69 0
 -5 7 6 5.32 1.05 0
 -5 7 9 350.17 5.22 0
 -5 7 10 1.05 0.95 0
 -5 7 11 9.64 1.35 0
 -5 7 12 5.43 1.12 0
 -5 7 13 99.63 3.08 0
 -5 7 14 7.78 1.48 0
 -5 9 1 7.33 0.98 0
 -5 9 2 0.93 0.89 0
 -5 9 3 0.59 0.9 0
 -5 9 4 0.94 0.78 0
 -5 9 7 9.82 1.34 0
 -5 9 8 6.85 1.45 0
 -5 9 9 33.75 2.17 0
 -5 9 10 0.5 1.16 0
 -5 11 2 21.43 1.76 0
 -5 11 3 6.38 1.4 0
 -5 11 5 10.86 1.52 0
 -4 2 6 51.17 1.27 0
 -4 2 7 126.96 2.06 0
 -4 2 8 45.06 1.3 0
 -4 2 9 65.05 1.58 0
 -4 2 10 30.29 1.17 0
 -4 2 13 5.71 0.7 0
 -4 4 1 812.06 5.05 0
 -4 4 2 9.33 0.68 0
 -4 4 4 4.93 0.62 0
 -4 4 5 301.26 3.5 0
 -4 4 7 0.98 0.5 0
 -4 4 8 29.61 1.3 0
 -4 4 9 79.91 2.06 0
 -4 4 10 3.59 0.83 0
 -4 4 11 12.61 1.12 0
 -4 4 12 -0.36 0.69 0
 -4 4 13 -0.29 0.59 0
 -4 4 14 17.26 1.32 0
 -4 6 0 45.08 1.43 0
 -4 6 1 291.23 3.56 0
 -4 6 2 112.81 2.3 0
 -4 6 4 2.97 0.62 0
 -4 6 6 20.11 1.27 0
 -4 6 7 1.44 0.61 0
 -4 6 8 11.37 1.16 0
 -4 6 9 21.42 1.43 0
 -4 6 11 31.85 1.71 0
 -4 6 12 56.51 2.23 0
 -4 6 13 16.02 1.54 0
 -4 6 14 1.17 0.87 0
 -4 6 15 48.18 2.24 0
 -4 8 0 94.65 2.32 0
 -4 8 1 320.16 4.26 0
 -4 8 2 67.13 2.12 0
 -4 8 5 214.02 3.94 0
 -4 8 7 0.44 0.71 0
 -4 8 8 13.54 1.47 0
 -4 8 10 53.14 2.35 0
 -4 8 11 63.27 2.62 0
 -4 8 12 -0.71 1.09 0
 -4 10 0 25.37 1.61 0
 -4 10 1 26.77 1.6 0
 -4 10 2 11.47 1.36 0
 -4 10 4 27.84 1.73 0
 -4 10 5 14.07 1.47 0
 -4 10 7 32.28 2.15 0
 -4 10 8 0.32 1.03 0
 -4 10 9 110.41 3.54 0
 -4 12 1 21.09 1.75 0
 -4 12 3 -0.96 0.88 0
 -3 1 3 567.03 3.06 0
 -3 1 4 14.92 0.59 0
 -3 1 5 0.06 0.22 0
 -3 1 10 515.2 3.86 0
 -3 1 11 58.94 1.4 0
 -3 3 5 8.12 0.61 0
 -3 3 6 336.61 3.34 0
 -3 3 8 785.21 5.43 0
 -3 3 9 7.44 0.75 0
 -3 3 10 3.41 0.64 0
 -3 3 11 6.62 0.81 0
 -3 3 14 1.07 0.56 0
 -3 5 -1 92.87 1.72 0
 -3 5 0 133.2 2.12 0
 -3 5 1 6.05 0.62 0
 -3 5 2 68.17 1.62 0
 -3 5 3 455.65 4.2 0
 -3 5 4 128.37 2.36 0
 -3 5 5 13.92 0.91 0
 -3 5 6 45.22 1.54 0
 -3 5 7 242.34 3.5 0
 -3 5 10 -0.32 0.55 0
 -3 5 11 18.24 1.31 0
 -3 5 12 -0.31 0.82 0
 -3 5 13 33.27 1.69 0
 -3 5 14 11.22 1.31 0
 -3 5 15 1.94 0.92 0
 -3 7 -2 199.63 2.85 0
 -3 7 -1 86.16 1.93 0
 -3 7 0 8.28 0.82 0
 -3 7 1 238.8 3.42 0
 -3 7 3 44.31 1.63 0
 -3 7 5 8.65 1.03 0
 -3 7 7 53.77 2.03 0
 -3 7 8 29.25 1.65 0
 -3 7 9 338.8 5 0
 -3 7 10 13.76 1.37 0
 -3 7 12 68.26 2.54 0
 -3 7 14 5.8 1.24 0
 -3 9 -2 23.65 1.29 0
 -3 9 0 30.65 1.51 0
 -3 9 1 136.83 2.97 0
 -3 9 2 6.41 0.94 0
 -3 9 3 40.5 1.81 0
 -3 9 4 13.3 1.36 0
 -3 9 5 0.12 0.85 0
 -3 9 7 85.64 2.77 0
 -3 9 9 173.62 4.02 0
 -3 9 10 16.24 1.75 0
 -3 11 0 69.95 2.38 0
 -3 11 1 7.89 1.27 0
 -3 11 2 3.23 1.17 0
 -3 11 3 77.52 2.78 0
 -3 11 4 14.52 1.61 0
 -3 11 5 0.47 0.92 0
 -3 11 6 1.38 1.23 0
 -3 11 7 94.07 3.23 0
 -3 13 0 1.07 1.05 0
 -3 13 1 2.25 1.11 0
 -2 2 0 615.91 2.94 0
 -2 2 2 2293.89 6.22 0
 -2 2 4 127.55 1.69 0
 -2 2 9 579.97 4.33 0
 -2 2 13 157.08 2.66 0
 -2 4 3 1.02 0.32 0
 -2 4 4 1.29 0.39 0
 -2 4 5 723.3 4.95 0
 -2 4 6 70.65 1.67 0
 -2 4 8 1.74 0.52 0
 -2 4 9 402.3 4.31 0
 -2 4 10 60.47 1.83 0
 -2 4 12 9.65 1.06 0
 -2 4 13 158.15 3.17 0
 -2 4 14 57.87 2.01 0
 -2 4 15 105.09 2.61 0
 -2 6 0 38.93 1.23 0
 -2 6 1 0.61 0.37 0
 -2 6 2 6.61 0.68 0
 -2 6 3 10.11 0.78 0
 -2 6 4 47.31 1.53 0
 -2 6 5 72.03 1.92 0
 -2 6 6 0.01 0.61 0
 -2 6 7 6.43 0.84 0
 -2 6 8 67.54 2.09 0
 -2 6 10 12.11 1.22 0
 -2 6 11 3.17 0.85 0
 -2 6 12 21.46 1.56 0
 -2 6 15 17.2 1.62 0
 -2 8 -2 1.1 0.51 0
 -2 8 -1 111.25 2.31 0
 -2 8 0 95.39 2.23 0
 -2 8 1 55.3 1.8 0
 -2 8 2 23.27 1.3 0
 -2 8 3 28.18 1.42 0
 -2 8 4 25.55 1.46 0
 -2 8 6 11.5 1.24 0
 -2 8 7 15.87 1.43 0
 -2 8 8 23.6 1.66 0
 -2 8 10 30.25 1.92 0
 -2 8 11 2.11 1.12 0
 -2 8 12 13.56 1.67 0
 -2 8 13 46.94 2.39 0
 -2 10 -3 185.63 3.17 0
 -2 10 -1 0.71 0.65 0
 -2 10 0 0.67 0.84 0
 -2 10 2 3.44 0.98 0
 -2 10 4 37.43 1.99 0
 -2 10 5 98.33 2.98 0
 -2 10 7 86.09 2.99 0
 -2 10 10 59.71 2.75 0
 -2 12 -2 -0.19 0.85 0
 -2 12 -1 0.99 0.8 0
 -2 12 0 48.82 2.16 0
 -2 12 3 20.94 1.88 0
 -2 12 4 99.64 3.3 0
 -1 -1 5 138.12 0.89 0
 -1 -1 8 -0.01 0.14 0
 -1 -1 9 21.42 0.57 0
 -1 -1 10 2.9 0.32 0
 -1 -1 11 31.96 0.74 0
 -1 -1 12 1.65 0.26 0
 -1 1 0 2012.04 3.7 0
 -1 1 2 857.17 2.87 0
 -1 1 3 0.52 0.17 0
 -1 1 4 1341.15 4.22 0
 -1 1 6 563.86 3.17 0
 -1 1 10 2.06 0.38 0
 -1 1 11 32.77 1.06 0
 -1 1 12 0.47 0.39 0
 -1 3 -1 155.09 1.54 0
 -1 3 0 491.18 2.82 0
 -1 3 1 1140.86 4.47 0
 -1 3 6 172.89 2.27 0
 -1 3 8 921.42 5.64 0
 -1 3 9 440.12 4.11 0
 -1 3 10 24.95 1.13 0
 -1 3 11 22.39 1.13 0
 -1 3 12 308.29 3.85 0
 -1 5 1 18.99 0.84 0
 -1 5 2 356.09 3.34 0
 -1 5 3 745.24 4.99 0
 -1 5 4 516.98 4.32 0
 -1 5 5 28.8 1.14 0
 -1 5 7 419.99 4.37 0
 -1 5 8 516.92 5.01 0
 -1 5 9 275.08 3.83 0
 -1 5 10 10.31 1.04 0
 -1 5 11 30.5 1.53 0
 -1 5 14 5.92 1.06 0
 -1 5 15 2.24 0.91 0
 -1 5 16 2.65 1.05 0
 -1 7 -4 8.15 0.61 0
 -1 7 -3 290.83 3.01 0
 -1 7 -2 1.01 0.47 0
 -1 7 -1 54.64 1.48 0
 -1 7 0 10.73 0.82 0
 -1 7 1 878.63 6.04 0
 -1 7 2 5.04 0.73 0
 -1 7 3 88.88 2.11 0
 -1 7 4 10.51 0.95 0
 -1 7 5 488.23 5.1 0
 -1 7 6 8.68 0.95 0
 -1 7 7 244.94 3.94 0
 -1 7 8 13.11 1.26 0
 -1 7 10 54.11 2.09 0
 -1 7 11 19.36 1.48 0
 -1 7 12 13.95 1.51 0
 -1 7 13 4.1 1.06 0
 -1 7 14 21.34 1.76 0
 -1 9 -3 11.08 0.89 0
 -1 9 0 6.2 0.82 0
 -1 9 1 53.36 1.9 0
 -1 9 2 72.28 2.18 0
 -1 9 4 47.74 1.95 0
 -1 9 5 85.45 2.58 0
 -1 9 6 16.26 1.39 0
 -1 9 7 54.27 2.28 0
 -1 9 11 1.25 1.07 0
 -1 11 -3 100.27 2.43 0
 -1 11 -2 0.3 0.75 0
 -1 11 -1 32.51 1.66 0
 -1 11 0 79.26 2.44 0
 -1 11 1 29.15 1.76 0
 -1 11 3 -0.31 0.84 0
 -1 11 4 172.43 3.92 0
 -1 11 5 8.79 1.49 0
 -1 11 7 49.16 2.49 0
 -1 11 8 74.25 3.02 0
 -1 13 -2 24.7 1.64 0
 -1 13 -1 7.02 1.3 0
 -1 13 2 13.66 1.65 0
 0 -2 2 735.22 2.02 0
 0 -2 10 6.76 0.32 0
 0 -2 11 10.76 0.38 0
 0 2 -2 698.99 2.01 0
 0 2 -1 188.63 1.18 0
 0 2 11 9.71 0.76 0
 0 2 13 207.28 3.06 0
 0 2 14 2.84 0.63 0
 0 2 15 -0.38 0.25 0
 0 4 -2 95.43 1.27 0
 0 4 -1 64.73 1.1 0
 0 4 0 659.44 3.57 0
 0 4 10 12.54 0.93 0
 0 4 11 4.79 0.74 0
 0 4 12 3.5 0.75 0
 0 4 13 22.01 1.37 0
 0 4 14 4.7 0.96 0
 0 4 15 10.77 1.19 0
 0 6 0 11.86 0.71 0
 0 6 1 179.45 2.48 0
 0 6 2 1.36 0.48 0
 0 6 3 1.83 0.44 0
 0 6 4 36.25 1.27 0
 0 6 5 4.88 0.73 0
 0 6 6 12.97 1 0
 0 6 8 -0.04 0.64 0
 0 6 9 35.89 1.64 0
 0 6 10 24.55 1.44 0
 0 6 11 15.19 1.34 0
 0 6 12 91.34 2.64 0
 0 6 13 22.12 1.57 0
 0 6 14 5.59 1.18 0
 0 6 15 17.34 1.63 0
 0 8 -4 4.98 0.59 0
 0 8 -3 101.88 2.04 0
 0 8 -1 865.15 6 0
 0 8 1 817.28 6.17 0
 0 8 2 3.68 0.74 0
 0 8 4 4.67 0.77 0
 0 8 6 0.23 0.63 0
 0 8 8 1.32 0.79 0
 0 8 9 3.22 1.05 0
 0 8 10 3.02 1.08 0
 0 8 11 7.2 1.36 0
 0 8 12 17.99 1.6 0
 0 8 13 6.43 1.48 0
 0 10 -4 11.51 0.92 0
 0 10 -3 2.81 0.69 0
 0 10 -2 0.83 0.59 0
 0 10 -1 272.23 3.99 0
 0 10 0 40.82 1.73 0
 0 10 1 280.8 4.33 0
 0 10 3 2 0.81 0
 0 10 5 170.49 3.72 0
 0 10 6 1.02 0.8 0
 0 10 8 1.47 0.96 0
 0 10 9 6.62 1.46 0
 0 10 10 15.87 1.86 0
 0 12 -3 12.08 1.23 0
 0 12 -2 0.87 0.83 0
 0 12 -1 33.3 1.79 0
 0 12 0 -0.22 0.83 0
 0 12 1 34.68 1.89 0
 0 12 2 1.27 0.93 0
 0 12 4 0.27 1.07 0
 0 14 -1 0.22 1.09 0
 1 -3 0 499.02 2.67 0
 1 -3 1 153.72 1.46 0
 1 -3 2 1.79 0.26 0
 1 -3 3 175.58 1.47 0
 1 -3 4 125.8 1.22 0
 1 -3 5 2.28 0.25 0
 1 -3 6 76.33 0.91 0
 1 -3 7 3.27 0.27 0
 1 -3 8 18.44 0.48 0
 1 -3 10 0.5 0.18 0
 1 -1 -2 861.08 2.78 0
 1 -1 -1 38.85 0.6 0
 1 -1 0 2061.38 3.85 0
 1 3 -3 280.28 1.38 0
 1 5 -4 522 2.7 0
 1 5 -3 767.58 3.6 0
 1 5 -2 357.06 2.65 0
 1 5 12 239.25 3.96 0
 1 5 13 34.66 1.74 0
 1 5 14 27.15 1.68 0
 1 5 16 19.33 1.6 0
 1 7 -2 5.31 0.58 0
 1 7 -1 846.52 5.3 0
 1 7 0 10.22 0.77 0
 1 7 8 20.19 1.36 0
 1 7 9 75.94 2.35 0
 1 7 10 -0.2 0.86 0
 1 7 13 43.99 2.23 0
 1 7 14 31.68 2.07 0
 1 9 -5 86.08 1.72 0
 1 9 -4 45.05 1.37 0
 1 9 -3 3.32 0.67 0
 1 9 -2 74.07 1.9 0
 1 9 0 6.82 0.9 0
 1 9 1 42.86 1.63 0
 1 9 3 11.08 1.06 0
 1 9 6 13.73 1.4 0
 1 9 8 28.51 1.81 0
 1 9 9 3.4 0.99 0
 1 9 10 4.8 1.13 0
 1 9 11 14.21 1.57 0
 1 11 -4 172.42 2.99 0
 1 11 -3 -0.14 0.67 0
 1 11 -2 4.16 0.81 0
 1 11 1 32.27 1.77 0
 1 11 2 -0.64 0.92 0
 1 11 3 104.94 2.96 0
 1 11 5 3.61 1.26 0
 1 11 8 7.64 1.52 0
 1 13 0 0.87 1.1 0
 1 13 1 7.44 1.41 0
 1 13 2 23.21 1.94 0
 1 13 3 3.36 1.18 0
 2 -6 5 15.81 0.67 0
 2 -6 7 74.46 1.24 0
 2 -4 -1 766.11 4.06 0
 2 -4 0 10.73 0.58 0
 2 -4 1 3.11 0.37 0
 2 -4 2 0.39 0.26 0
 2 -4 3 29.89 0.79 0
 2 -4 4 512.08 3.01 0
 2 -4 6 0.89 0.23 0
 2 -2 -3 288.45 2.18 0
 2 -2 -2 2398.96 6.04 0
 2 -2 -1 1056.79 3.92 0
 2 -2 0 658.36 3.04 0
 2 -2 1 574.54 2.73 0
 2 0 -4 21.86 0.5 0
 2 0 -2 657.06 2.35 0
 2 4 -4 1.79 0.21 0
 2 4 15 40.49 1.87 0
 2 4 16 1.07 0.81 0
 2 6 -5 75.44 1.1 0
 2 6 -4 45.96 0.97 0
 2 6 13 42.73 2.03 0
 2 6 14 23.42 1.72 0
 2 6 15 71.7 2.7 0
 2 8 -6 10.94 0.56 0
 2 8 -4 23.83 0.95 0
 2 8 -3 27.07 1.06 0
 2 8 -2 21.3 1 0
 2 8 -1 53.34 1.54 0
 2 8 0 95.69 2.06 0
 2 8 1 115.1 2.41 0
 2 8 10 2.17 0.89 0
 2 8 11 16.63 1.65 0
 2 8 12 5.61 1.21 0
 2 10 -5 95.9 1.94 0
 2 10 -4 34.89 1.32 0
 2 10 -3 154.9 2.76 0
 2 10 -2 3.69 0.76 0
 2 10 -1 429.54 4.87 0
 2 10 0 -0.33 0.53 0
 2 10 2 0.7 0.75 0
 2 10 4 40 1.93 0
 2 10 5 20.47 1.51 0
 2 10 6 3.09 0.93 0
 2 10 7 4.23 1.06 0
 2 10 9 3.25 1.27 0
 2 12 -3 21.76 1.41 0
 2 12 -2 26.36 1.59 0
 2 12 -1 74.24 2.42 0
 2 12 0 50.5 2.15 0
 2 12 1 1.05 0.87 0
 2 12 3 1.44 0.94 0
 2 12 4 -0.23 0.86 0
 2 12 5 1.17 1.2 0
 3 -5 7 16.24 0.7 0
 3 -5 8 130.11 1.74 0
 3 -3 -3 10.66 0.63 0
 3 -3 -2 1353.16 5.43 0
 3 -3 -1 645.69 3.71 0
 3 -3 0 343.38 2.69 0
 3 -3 1 8.11 0.53 0
 3 -3 2 28.81 0.83 0
 3 -3 3 1417.05 5.18 0
 3 -1 -5 -0 0.19 0
 3 -1 -4 14.59 0.57 0
 3 -1 -3 574.66 3.02 0
 3 1 -5 0.25 0.16 0
 3 1 -4 15.21 0.44 0
 3 5 -5 14.17 0.43 0
 3 5 15 1.19 0.9 0
 3 7 -6 23.61 0.64 0
 3 7 -5 8.6 0.54 0
 3 7 13 -0.6 0.84 0
 3 9 -5 -0.27 0.38 0
 3 9 -4 12.69 0.85 0
 3 9 -3 44.5 1.42 0
 3 9 -1 138.26 2.66 0
 3 9 10 1.86 1.05 0
 3 11 -4 13.6 1.07 0
 3 11 -3 73.71 2.06 0
 3 11 -2 3.24 0.89 0
 3 11 0 67.54 2.22 0
 3 11 1 3.33 0.94 0
 3 11 2 6.82 1.15 0
 3 11 3 49.3 2.2 0
 3 11 4 88.88 2.89 0
 3 11 5 -0.75 0.84 0
 3 11 6 6.73 1.25 0
 3 11 7 99.71 3.31 0
 3 13 -1 1.09 0.86 0
 3 13 0 3.16 1.11 0
 3 13 1 2 1.1 0
 3 13 2 21.93 1.94 0
 4 -2 -4 68.07 1.38 0
 4 -2 -2 0.07 0.3 0
 4 -2 -1 1975.13 6.46 0
 4 -2 0 220.06 2.17 0
 4 0 -6 64.89 1.09 0
 4 0 -4 830.13 3.74 0
 4 2 -6 54.89 0.78 0
 4 2 -5 765.54 2.91 0
 4 6 -6 18.94 0.51 0
 4 8 -6 32.05 0.87 0
 4 10 -4 27.11 1.23 0
 4 10 -3 0.62 0.55 0
 4 10 -2 11.98 1.06 0
 4 10 -1 27.06 1.4 0
 4 10 0 25.75 1.42 0
 4 10 1 4.01 0.81 0
 4 12 -1 21.96 1.54 0
 4 12 1 0.82 1.04 0
 4 12 2 4.92 1.05 0
 4 12 3 23.78 1.8 0
 4 12 4 51.44 2.52 0
 5 -1 -4 123.72 1.79 0
 5 -1 -3 195.98 2.18 0
 5 -1 -2 318.49 2.71 0
 5 1 -7 18.36 0.61 0
 5 1 -6 449.15 2.81 0
 5 1 -5 133.09 1.59 0
 5 3 -7 0.06 0.16 0
 5 3 -6 69.37 0.99 0
 5 7 -6 5.71 0.46 0
 5 9 -5 37.25 1.17 0
 5 9 -4 0.98 0.53 0
 5 11 -3 5.41 0.91 0
 5 11 -2 23.71 1.41 0
 5 11 -1 85.58 2.43 0
 5 11 0 77.48 2.38 0
 5 11 1 19.91 1.52 0
 5 11 2 2.19 0.93 0
 5 13 0 68.29 2.57 0
 5 13 1 13.54 1.64 0
 6 2 -8 180.35 1.72 0
 6 2 -7 10.68 0.53 0
 6 2 -6 58.2 1.14 0
 6 4 -7 140.45 1.41 0
 6 10 -4 0.64 0.6 0
 6 12 -1 14.39 1.41 0
 6 12 0 -0.31 0.87 0
 6 12 1 0.9 0.9 0
 6 12 3 5.37 1.3 0
 7 3 -7 13.05 0.63 0
 7 11 -2 19 1.38 0
 -10 -2 2 23.69 0.66 0
 -9 -3 3 89.52 1.29 0
 -9 -3 4 0.39 0.23 0
 -9 -3 5 2.7 0.31 0
 -8 -2 0 7.5 0.49 0
 -8 -2 4 102.55 1.06 0
 -8 -2 5 0.59 0.17 0
 -7 -1 0 136.45 1.43 0
 -7 -1 1 135.13 1.3 0
 -7 -1 2 67.25 0.82 0
 -7 -1 3 -0.04 0.11 0
 -7 -1 6 1.98 0.17 0
 -7 -1 7 0.24 0.15 0
 -7 -1 8 146.05 1.24 0
 -7 -1 9 1.59 0.26 0
 -7 -1 11 -0.08 0.14 0
 -6 -2 0 66.94 1.05 0
 -6 -2 1 100.84 1.18 0
 -6 -2 2 477.49 2.36 0
 -6 -2 10 53.11 1.18 0
 -6 -2 11 8.31 0.64 0
 -6 -2 12 2.56 0.46 0
 -6 0 8 170.81 1.38 0
 -5 -5 15 1.14 0.79 0
 -5 -3 0 98.05 1.34 0
 -5 -3 12 12 0.87 0
 -5 -3 13 31.14 1.25 0
 -5 -3 14 0.99 0.59 0
 -5 -1 -3 72.35 1.23 0
 -5 -1 -2 1038.1 4.13 0
 -5 -1 -1 727.69 3.16 0
 -5 -1 0 405.63 2.13 0
 -5 -1 1 59 0.77 0
 -5 -1 10 353.04 2.94 0
 -5 -1 11 3.86 0.49 0
 -5 -1 12 33.77 1.09 0
 -5 -1 13 1.69 0.5 0
 -5 -1 14 17.57 0.91 0
 -5 1 7 19.11 0.47 0
 -5 1 8 9.29 0.43 0
 -5 1 11 3.21 0.44 0
 -5 1 12 31.61 1 0
 -5 1 13 1.54 0.4 0
 -4 -4 14 17.99 1.21 0
 -4 -4 15 3.3 0.78 0
 -4 -4 16 21.2 1.4 0
 -4 -2 -3 666.41 3.52 0
 -4 -2 -2 41.57 0.88 0
 -4 -2 0 227.25 1.69 0
 -4 -2 11 107.82 1.96 0
 -4 -2 12 0.85 0.44 0
 -4 -2 13 6.84 0.78 0
 -4 -2 14 67.74 1.82 0
 -4 -2 15 39.76 1.51 0
 -4 -2 16 56.02 1.8 0
 -4 0 10 134.59 1.88 0
 -4 0 12 62.65 1.48 0
 -4 0 14 319.82 3.6 0
 -4 2 10 31.82 0.95 0
 -4 2 11 111.9 1.83 0
 -4 2 12 -0.05 0.32 0
 -4 2 13 7.37 0.72 0
 -3 -5 15 0.95 0.79 0
 -3 -5 16 1.08 0.87 0
 -3 -3 -2 28.69 0.76 0
 -3 -3 13 55.85 1.74 0
 -3 -3 14 0.19 0.66 0
 -3 -3 15 -0.8 0.58 0
 -3 -3 16 10.88 1.16 0
 -3 -1 -4 800.82 3.81 0
 -3 -1 -3 551.12 2.94 0
 -3 -1 -2 693.72 2.95 0
 -3 -1 -1 545.2 2.34 0
 -3 -1 0 3048.94 4.79 0
 -3 -1 9 32.98 0.99 0
 -3 -1 10 524.2 3.96 0
 -3 -1 11 62.86 1.52 0
 -3 -1 12 0.11 0.5 0
 -3 -1 14 338.41 3.96 0
 -3 -1 15 15.11 1.13 0
 -3 -1 16 31.94 1.51 0
 -3 -1 17 23.72 1.43 0
 -3 1 9 33.09 0.94 0
 -3 1 10 523.28 3.76 0
 -3 1 11 60.47 1.43 0
 -3 1 12 0.13 0.38 0
 -3 1 13 35.9 1.29 0
 -3 1 15 16.18 1.1 0
 -2 -4 14 56.17 1.96 0
 -2 -4 16 11.75 1.29 0
 -2 -2 -4 376.59 2.58 0
 -2 -2 -3 0.6 0.3 0
 -2 -2 -2 472.8 2.45 0
 -2 -2 11 30.7 1.19 0
 -2 -2 12 6.64 0.85 0
 -2 -2 13 157.02 2.83 0
 -2 -2 14 52.28 1.79 0
 -2 -2 15 56.45 1.92 0
 -2 -2 16 42.27 1.77 0
 -2 -2 17 2.9 0.89 0
 -2 0 0 5971.83 4.85 0
 -2 0 8 79.38 1.4 0
 -2 0 12 27.11 1.15 0
 -2 0 14 3.34 0.7 0
 -2 0 16 105.16 2.49 0
 -2 2 8 88.12 1.49 0
 -2 2 9 575.53 3.88 0
 -2 2 10 20.6 0.9 0
 -2 2 11 30.02 1.1 0
 -2 2 12 5.25 0.63 0
 -2 2 13 151.83 2.6 0
 -2 2 14 50.94 1.67 0
 -2 2 15 55.96 1.81 0
 -2 2 16 42.7 1.69 0
 -2 2 17 3.15 0.9 0
 -1 -3 -4 122.36 1.54 0
 -1 -3 -3 170.54 1.69 0
 -1 -3 13 39.81 1.64 0
 -1 -3 14 50.42 1.84 0
 -1 -3 15 34.86 1.73 0
 -1 -3 16 19.34 1.45 0
 -1 -1 -3 0.11 0.22 0
 -1 -1 -2 16.1 0.42 0
 -1 -1 9 21.92 0.9 0
 -1 -1 10 2.73 0.53 0
 -1 -1 12 1.16 0.53 0
 -1 -1 13 6.15 0.79 0
 -1 -1 14 54.59 1.81 0
 -1 -1 15 27.28 1.48 0
 -1 -1 16 60.58 2.1 0
 -1 1 3 0.58 0.15 0
 -1 1 4 1373.22 3.87 0
 -1 1 5 139.27 1.43 0
 -1 1 8 0.46 0.36 0
 -1 1 9 23.23 0.94 0
 -1 1 10 2.39 0.54 0
 -1 1 12 0.62 0.52 0
 -1 1 13 3.88 0.77 0
 -1 1 14 54.98 1.79 0
 -1 1 15 27.23 1.42 0
 -1 1 16 62.53 2.08 0
 -1 3 8 948.14 5.08 0
 -1 3 9 433.07 3.66 0
 -1 3 10 25.25 1.07 0
 -1 3 11 21.77 1.08 0
 -1 3 12 316.08 3.72 0
 -1 3 13 40.48 1.53 0
 -1 3 14 51.63 1.76 0
 0 -4 14 4.64 0.92 0
 0 -4 15 12.97 1.38 0
 0 -2 -5 120.22 1.48 0
 0 -2 -4 279.45 2 0
 0 -2 -3 29.42 0.63 0
 0 -2 12 6.58 0.84 0
 0 -2 13 210.85 3.46 0
 0 -2 14 1.76 0.8 0
 0 -2 15 0.24 0.82 0
 0 -2 16 7.33 1.16 0
 0 0 4 9822.04 11.15 0
 0 0 8 403.92 3.37 0
 0 0 12 65.81 1.78 0
 0 0 14 -0.26 0.74 0
 0 0 16 4.53 0.96 0
 0 2 4 280.51 2.06 0
 0 2 7 8.32 0.58 0
 0 2 8 53.8 1.28 0
 0 2 10 7.28 0.75 0
 0 2 12 5.85 0.76 0
 0 2 13 208.04 3.29 0
 0 2 14 1.69 0.66 0
 0 2 15 0.42 0.74 0
 0 2 16 5.76 0.95 0
 1 -5 14 27.49 1.74 0
 1 -5 15 8.13 1.19 0
 1 -3 -5 901.72 3.87 0
 1 -3 -4 745.08 3.27 0
 1 -3 12 45.27 1.7 0
 1 -3 13 153.29 3.05 0
 1 -3 14 63.97 2.18 0
 1 -3 15 49.23 2.07 0
 1 -1 -4 1346.18 3.75 0
 1 -1 -3 0.61 0.19 0
 1 -1 9 55.97 1.46 0
 1 -1 10 34.79 1.32 0
 1 -1 11 0.74 0.54 0
 1 -1 12 37.51 1.49 0
 1 -1 13 24.71 1.4 0
 1 -1 14 1.61 0.67 0
 1 -1 15 4.18 1.01 0
 1 -1 16 183.78 3.74 0
 1 1 3 0.27 0.18 0
 1 1 4 4.35 0.37 0
 1 1 7 6.63 0.53 0
 1 1 8 8.82 0.66 0
 1 1 9 56.02 1.46 0
 1 1 10 34.92 1.26 0
 1 1 11 0.46 0.5 0
 1 1 12 38.2 1.49 0
 1 1 13 23.33 1.34 0
 1 1 14 1.94 0.73 0
 1 1 15 3.47 0.86 0
 1 1 16 189.61 3.77 0
 1 3 8 18.34 0.9 0
 1 3 9 151.17 2.41 0
 1 3 10 0.79 0.51 0
 1 3 11 2.55 0.61 0
 1 3 12 45.8 1.64 0
 1 3 14 65.69 2.08 0
 1 3 15 47.12 1.92 0
 1 3 16 3.6 0.94 0
 2 -4 -5 713.43 3.53 0
 2 -4 -4 1.67 0.28 0
 2 -4 13 190.15 3.64 0
 2 -4 14 179.08 3.65 0
 2 -4 15 42.69 2.11 0
 2 -2 -6 157.99 1.59 0
 2 -2 -5 1380.4 4.22 0
 2 -2 -4 128.72 1.18 0
 2 -2 -3 292.6 1.57 0
 2 -2 12 1.09 0.63 0
 2 -2 13 -0.13 0.6 0
 2 0 2 24.55 0.55 0
 2 0 6 707.81 4.18 0
 2 0 8 712.47 4.83 0
 2 0 10 133.49 2.45 0
 2 0 12 304.59 3.98 0
 2 0 14 10.4 1.14 0
 2 0 16 226.58 4.23 0
 2 2 3 0.69 0.23 0
 2 2 7 67.82 1.46 0
 2 2 8 0.04 0.35 0
 2 2 9 10.25 0.82 0
 2 2 10 38.57 1.39 0
 2 2 11 1.81 0.68 0
 2 2 12 1.81 0.75 0
 2 2 13 0.08 0.69 0
 2 2 15 5.38 1.14 0
 2 2 16 30.85 1.76 0
 3 -5 13 36.17 1.81 0
 3 -5 14 0.83 0.91 0
 3 -3 -7 17.47 0.62 0
 3 -3 -6 338.34 2.29 0
 3 -3 -4 927.48 3.23 0
 3 -3 11 69.96 2.04 0
 3 -3 12 38.19 1.69 0
 3 -3 13 2.85 0.95 0
 3 -3 14 0.33 0.98 0
 3 -3 15 31.63 1.87 0
 3 -1 7 154.78 2.24 0
 3 -1 8 28.22 1.07 0
 3 -1 9 2.71 0.57 0
 3 -1 11 15.43 1.12 0
 3 -1 12 -0.23 0.55 0
 3 -1 13 8.43 1 0
 3 -1 15 3.21 0.96 0
 3 1 1 525.36 2.33 0
 3 1 2 667.94 2.95 0
 3 1 5 23.19 0.8 0
 3 1 7 149.61 2.18 0
 3 1 8 28.36 1.1 0
 3 1 10 56.54 1.64 0
 3 1 11 16.18 1.08 0
 3 1 12 0.04 0.69 0
 3 1 13 8.76 1 0
 3 1 14 31.74 1.67 0
 3 3 5 72.25 1.46 0
 3 3 6 25.89 0.97 0
 3 3 7 381.1 3.62 0
 3 3 8 240.7 3.05 0
 3 3 9 86.36 1.97 0
 3 3 11 67.51 1.97 0
 3 3 12 37.23 1.56 0
 3 3 13 2.84 0.82 0
 3 3 14 0.29 0.77 0
 3 3 15 31.21 1.7 0
 4 -4 -7 0.74 0.26 0
 4 -4 -5 297.13 2.08 0
 4 -4 13 134.49 3.16 0
 4 -4 14 254.33 4.52 0
 4 -2 -3 53.79 0.56 0
 4 -2 9 1.67 0.53 0
 4 -2 10 80.79 2.09 0
 4 -2 11 10.24 1.05 0
 4 -2 12 11.95 1.17 0
 4 -2 13 28.13 1.66 0
 4 -2 14 187.79 3.84 0
 4 -2 15 1.51 1.1 0
 4 0 0 2381.46 4.21 0
 4 0 2 54.15 0.94 0
 4 0 6 12.16 0.72 0
 4 0 10 3.86 0.78 0
 4 0 12 0.15 0.62 0
 4 0 14 25.85 1.62 0
 4 2 4 21.86 0.79 0
 4 2 5 197.55 2.33 0
 4 2 6 0.83 0.41 0
 4 2 9 1.56 0.62 0
 4 2 10 80.99 2.05 0
 4 2 11 10.16 1.04 0
 4 2 12 11.76 1.14 0
 4 2 13 27.04 1.56 0
 4 2 14 196.59 3.82 0
 4 2 15 1.34 0.86 0
 5 -5 12 118.62 2.98 0
 5 -5 13 58.58 2.21 0
 5 -3 -6 70.88 0.93 0
 5 -3 -5 569.32 2.25 0
 5 -3 -4 47.15 0.66 0
 5 -3 9 5.69 0.78 0
 5 -3 10 52.11 1.82 0
 5 -3 11 243 3.91 0
 5 -3 12 55.02 2.08 0
 5 -3 13 63.19 2.26 0
 5 -3 14 48.91 2.18 0
 5 -1 -1 58.4 0.63 0
 5 -1 0 407.41 1.98 0
 5 -1 1 714.42 3.06 0
 5 -1 4 235.39 2.42 0
 5 -1 5 233.61 2.6 0
 5 -1 6 758.18 4.97 0
 5 -1 7 248.37 3.1 0
 5 -1 8 0.23 0.46 0
 5 -1 9 11.99 1.02 0
 5 -1 10 160.62 2.97 0
 5 -1 11 148.88 3.05 0
 5 -1 12 10.56 1.09 0
 5 -1 13 0.26 0.69 0
 5 -1 14 60.22 2.22 0
 5 1 1 707.87 3.16 0
 5 1 4 242.4 2.45 0
 5 1 6 732.43 4.84 0
 5 1 7 236.11 2.96 0
 5 1 8 0.51 0.42 0
 5 1 9 10.42 0.97 0
 5 1 10 160.75 2.97 0
 5 1 12 9.23 1.15 0
 5 1 13 -0.32 0.63 0
 5 1 14 59.73 2.25 0
 5 3 6 2.79 0.5 0
 5 3 8 146.35 2.6 0
 5 3 9 5.17 0.74 0
 5 3 10 50.83 1.73 0
 5 3 11 228.33 3.68 0
 5 3 12 57.08 2.02 0
 5 3 13 57.97 2.18 0
 5 3 14 52.42 2.19 0
 6 -6 12 3.44 1.24 0
 6 -4 -7 139.9 1.37 0
 6 -4 -6 635.87 2.67 0
 6 -4 -5 183.74 1.42 0
 6 -4 10 5.16 0.87 0
 6 -4 11 5.08 0.99 0
 6 -4 12 23.61 1.51 0
 6 -2 4 42.35 1.17 0
 6 -2 5 0.04 0.34 0
 6 -2 6 73.01 1.7 0
 6 -2 7 298.6 3.5 0
 6 -2 8 98.05 2.17 0
 6 -2 10 11.5 1.01 0
 6 -2 11 70.92 2.13 0
 6 -2 12 101.04 2.64 0
 6 -2 13 1.93 0.84 0
 6 -2 14 47.07 2.16 0
 6 0 0 376.64 2.05 0
 6 0 4 411.56 3.28 0
 6 0 6 8.19 0.66 0
 6 0 8 475.84 4.54 0
 6 0 10 3.43 0.71 0
 6 0 12 319.63 4.59 0
 6 0 14 87.28 2.66 0
 6 2 3 505.61 3.55 0
 6 2 4 40 1.13 0
 6 2 5 -0.17 0.32 0
 6 2 6 72.95 1.68 0
 6 2 7 296.92 3.48 0
 6 2 8 96.34 2.12 0
 6 2 9 12.83 1.02 0
 6 2 10 10.8 0.96 0
 6 2 12 99.21 2.62 0
 6 2 13 1.91 0.87 0
 6 2 14 44.6 2.11 0
 7 -5 -6 0.17 0.21 0
 7 -5 -5 5.19 0.35 0
 7 -5 10 2.16 0.8 0
 7 -5 11 0.41 0.98 0
 7 -5 12 30.36 1.75 0
 7 -3 7 17.48 1.03 0
 7 -3 8 1.89 0.61 0
 7 -3 9 92.95 2.31 0
 7 -3 10 4.66 0.84 0
 7 -3 12 1.63 0.83 0
 7 -3 13 0.74 0.98 0
 7 -1 -1 131.79 1.06 0
 7 -1 0 136.03 1.34 0
 7 -1 3 59.03 1.26 0
 7 -1 4 28.6 0.99 0
 7 -1 5 70.27 1.56 0
 7 -1 6 691.24 5.06 0
 7 -1 7 0.77 0.5 0
 7 -1 8 102.85 2.24 0
 7 -1 9 15.72 1.17 0
 7 -1 10 112.99 2.59 0
 7 -1 11 25.91 1.52 0
 7 -1 12 42.59 1.91 0
 7 -1 13 0.8 0.99 0
 7 1 5 69.84 1.58 0
 7 1 6 668.33 4.98 0
 7 1 7 0.71 0.48 0
 7 1 8 91.4 2.09 0
 7 1 9 15.64 1.14 0
 7 1 10 113.96 2.59 0
 7 1 11 27.64 1.54 0
 7 1 12 44.16 1.94 0
 7 1 13 0.18 0.85 0
 7 3 7 17.28 1.05 0
 7 3 8 1.78 0.59 0
 7 3 9 92.67 2.34 0
 7 3 10 4.75 0.91 0
 7 3 11 6.33 1.12 0
 7 3 12 0.91 0.72 0
 7 3 13 0.16 1.03 0
 8 -6 10 15.49 1.41 0
 8 -6 11 30.13 1.9 0
 8 -4 7 18.12 1.17 0
 8 -4 8 0.62 0.64 0
 8 -4 9 3.61 0.85 0
 8 -4 10 53.49 2.03 0
 8 -4 11 1.07 0.8 0
 8 -4 12 0.44 0.82 0
 8 -2 -1 50.01 0.78 0
 8 -2 0 8.18 0.45 0
 8 -2 2 22.67 0.83 0
 8 -2 3 0.76 0.34 0
 8 -2 4 2.34 0.47 0
 8 -2 5 18.08 0.99 0
 8 -2 6 5.45 0.75 0
 8 -2 7 90.72 2.14 0
 8 -2 8 2.13 0.77 0
 8 -2 9 0.5 0.59 0
 8 -2 10 64.72 2.13 0
 8 0 4 69.63 1.52 0
 8 0 8 60.47 1.8 0
 8 0 10 0.25 0.79 0
 8 0 12 5.4 1.14 0
 8 2 4 2.33 0.48 0
 8 2 5 17.86 0.99 0
 8 2 6 4.5 0.65 0
 8 2 7 84.17 2.01 0
 8 2 8 2.57 0.76 0
 8 2 9 1.5 0.67 0
 8 2 10 67.99 2.16 0
 8 2 12 15.17 1.43 0
 9 -5 7 1.39 0.79 0
 9 -5 9 0.06 0.87 0
 9 -5 10 54.59 2.2 0
 9 -5 11 0.79 1.08 0
 9 -3 -1 0.62 0.24 0
 9 -3 1 17.44 0.72 0
 9 -3 2 0.03 0.4 0
 9 -3 3 43.07 1.25 0
 9 -3 4 38.37 1.27 0
 9 -3 5 27.24 1.21 0
 9 -3 6 20.47 1.17 0
 9 -3 7 65.2 1.92 0
 9 -3 9 29.46 1.57 0
 9 -3 10 3.04 0.82 0
 9 -3 11 54.84 2.18 0
 9 -3 12 1.56 1.02 0
 9 -1 3 40.26 1.15 0
 9 -1 4 76.03 1.65 0
 9 -1 5 -0.05 0.42 0
 9 -1 6 54.01 1.62 0
 9 -1 7 45.5 1.58 0
 9 -1 8 11.23 1.09 0
 9 -1 9 0.8 0.65 0
 9 -1 10 30.88 1.54 0
 9 -1 11 27.72 1.59 0
 9 1 4 76.04 1.66 0
 9 1 5 -0.46 0.35 0
 9 1 6 53.07 1.59 0
 9 1 8 13.15 1.09 0
 9 1 9 0.36 0.65 0
 9 1 10 30.55 1.54 0
 9 1 11 30.52 1.73 0
 9 1 12 107.86 2.94 0
 10 -6 6 14.24 1.22 0
 10 -6 7 37.22 1.7 0
 10 -6 8 0.38 0.73 0
 10 -6 9 13.31 1.3 0
 10 -4 -2 128.63 1.13 0
 10 -4 1 -0 0.32 0
 10 -4 2 131.92 2.08 0
 10 -4 3 65.19 1.59 0
 10 -4 5 17.44 1.1 0
 10 -4 7 12.21 1.07 0
 10 -4 9 2.27 0.82 0
 10 -4 10 29.23 1.73 0
 10 -2 -1 1.06 0.21 0
 10 -2 1 15.54 0.68 0
 10 -2 2 12.29 0.7 0
 10 -2 3 6.48 0.66 0
 10 -2 4 19.58 0.97 0
 10 -2 5 2.09 0.65 0
 10 -2 6 156.93 2.78 0
 10 -2 7 -0.16 0.54 0
 10 -2 8 60.73 1.97 0
 10 -2 9 5.78 1 0
 10 -2 10 10.06 1.26 0
 10 -2 11 1.69 1.06 0
 10 0 2 225.51 2.48 0
 10 0 4 49.51 1.39 0
 10 0 6 492.32 4.66 0
 10 0 8 501.14 5.23 0
 10 0 10 85.25 2.49 0
 10 2 7 0.24 0.63 0
 10 2 9 5.94 1.06 0
 10 2 11 2.18 1.01 0
 11 -7 5 72.26 2.14 0
 11 -7 6 -0.41 0.66 0
 11 -7 8 0.74 1.03 0
 11 -5 0 48.04 1.13 0
 11 -5 1 19.09 0.86 0
 11 -5 2 36.42 1.22 0
 11 -5 3 77.35 1.81 0
 11 -5 4 50.07 1.6 0
 11 -5 6 0.75 0.63 0
 11 -5 7 26.39 1.51 0
 11 -5 8 10.84 1.26 0
 11 -5 9 53.64 2.09 0
 11 -3 -1 57.74 0.85 0
 11 -3 2 6.67 0.63 0
 11 -3 4 120.61 2.25 0
 11 -3 5 1.55 0.58 0
 11 -3 6 0.52 0.63 0
 11 -3 7 23.96 1.34 0
 11 -3 8 34.92 1.67 0
 11 -3 9 0.26 0.88 0
 11 -3 10 0.35 0.99 0
 11 -1 1 32.88 0.92 0
 11 -1 2 179.38 2.27 0
 11 -1 3 -0.37 0.42 0
 11 -1 4 11.44 0.85 0
 11 -1 5 12.99 0.94 0
 11 -1 6 120.14 2.47 0
 11 -1 7 2.08 0.66 0
 11 -1 8 24.65 1.38 0
 11 -1 9 3.18 0.9 0
 11 -1 10 8.11 1.1 0
 11 1 5 11.78 0.96 0
 11 1 7 1.94 0.67 0
 11 1 8 26.01 1.47 0
 11 1 9 3.11 0.8 0
 12 -6 3 4.71 0.8 0
 12 -6 4 1.97 0.67 0
 12 -6 5 3.67 0.88 0
 12 -6 6 0.07 0.74 0
 12 -6 7 25.7 1.57 0
 12 -6 8 -0.2 0.87 0
 12 -4 2 7.69 0.66 0
 12 -4 3 56.06 1.51 0
 12 -4 4 13 0.95 0
 12 -4 5 41.88 1.54 0
 12 -4 6 32.1 1.49 0
 12 -4 7 70.29 2.12 0
 12 -4 8 -0.49 0.86 0
 12 -4 9 0.69 0.98 0
 12 -2 1 67.89 1.36 0
 12 -2 2 2.3 0.45 0
 12 -2 3 17.1 0.91 0
 12 -2 4 37.22 1.31 0
 12 -2 7 8.16 1 0
 12 -2 9 -0.1 0.83 0
 12 0 4 55.75 1.55 0
 12 0 8 35.86 1.69 0
 12 0 10 121.3 3.05 0
 13 -5 6 10.34 1.13 0
 13 -5 7 11.43 1.21 0
 13 -3 5 -0.2 0.6 0
 13 -3 6 16.33 1.17 0
 13 -3 7 24.76 1.45 0
 13 -1 5 17.48 1.13 0
 13 -1 6 62.09 1.9 0
 13 -1 7 3.35 0.87 0
 13 -1 8 4.04 0.94 0
 13 -1 9 20.8 1.53 0
 14 -2 8 1.13 0.77 0
 -17 -3 9 8.34 1.57 0
 -17 -3 10 21.37 2.21 0
 -16 -6 10 3.84 1.84 0
 -16 -4 10 42.62 2.78 0
 -16 -4 11 31.55 2.55 0
 -16 -2 9 2.15 1.36 0
 -16 -2 10 52.17 2.71 0
 -16 -2 11 2.07 1.27 0
 -16 -2 12 3.45 1.27 0
 -15 -5 11 26.82 2.33 0
 -15 -5 12 4.75 1.77 0
 -15 -3 10 1.31 1.11 0
 -15 -3 11 7.15 1.5 0
 -15 -3 12 30.53 2.45 0
 -15 -3 13 9.5 1.84 0
 -15 -1 9 1.57 1.01 0
 -15 -1 10 1.17 1.04 0
 -15 -1 11 -0.03 0.98 0
 -15 -1 12 -0.17 0.98 0
 -15 -1 13 -1.77 1.09 0
 -15 -1 14 2.24 1.35 0
 -14 -8 11 3.47 1.55 0
 -14 -6 11 5.5 1.73 0
 -14 -6 12 11.06 1.89 0
 -14 -6 13 1.08 1.49 0
 -14 -4 10 55.8 2.92 0
 -14 -4 11 69.31 3.2 0
 -14 -4 12 78.09 3.4 0
 -14 -4 13 3.35 1.35 0
 -14 -4 14 2.38 1.55 0
 -14 -2 9 25.43 2.03 0
 -14 -2 10 20.72 1.94 0
 -14 -2 12 3.75 1.33 0
 -14 -2 13 0.47 1.15 0
 -14 -2 14 -0.41 1.18 0
 -14 -2 15 4.03 1.65 0
 -14 0 8 245.42 4.46 0
 -14 0 10 0.82 0.85 0
 -14 0 12 62.78 2.62 0
 -14 0 14 9.17 1.53 0
 -13 -9 11 0.16 1.44 0
 -13 -7 11 32.4 2.65 0
 -13 -7 13 19.54 2.28 0
 -13 -5 11 6.45 1.57 0
 -13 -5 12 36.89 2.67 0
 -13 -5 13 5.41 1.65 0
 -13 -5 14 8.17 1.72 0
 -13 -3 10 14.04 1.83 0
 -13 -3 11 68.27 3 0
 -13 -3 13 0.18 1.37 0
 -13 -3 14 0.02 1.24 0
 -13 -3 15 13.2 1.9 0
 -13 -1 9 2.24 1.1 0
 -13 -1 10 4.51 1.2 0
 -13 -1 12 0.54 1.09 0
 -13 -1 13 -0.99 1.18 0
 -13 -1 14 6.76 1.5 0
 -13 -1 15 0.93 1.08 0
 -13 1 7 2.63 0.76 0
 -13 1 9 1.51 0.76 0
 -13 1 10 5.62 1 0
 -13 1 11 6.47 1.1 0
 -13 1 12 1.81 0.98 0
 -13 1 14 8.15 1.23 0
 -13 1 15 1.44 1.01 0
 -12 -10 11 0.35 1.59 0
 -12 -8 12 7.3 1.72 0
 -12 -8 13 -0.65 1.3 0
 -12 -6 11 19.15 2.09 0
 -12 -6 13 0.9 1.53 0
 -12 -6 14 14.42 2.06 0
 -12 -6 15 1.46 1.51 0
 -12 -4 11 4.31 1.31 0
 -12 -4 12 28.04 2.31 0
 -12 -4 13 10.28 1.88 0
 -12 -4 14 0.28 1.33 0
 -12 -4 15 0.7 1.26 0
 -12 -4 16 65.7 3.34 0
 -12 -2 10 -0.8 1.02 0
 -12 -2 11 16.42 1.77 0
 -12 -2 12 11.11 1.57 0
 -12 -2 13 6.41 1.58 0
 -12 -2 14 12.79 1.88 0
 -12 -2 15 -0.28 1.07 0
 -12 -2 16 10.09 1.83 0
 -12 -2 17 -1.08 1.16 0
 -12 0 8 21.26 1.5 0
 -12 0 10 29.15 1.77 0
 -12 0 12 5.18 1.17 0
 -12 0 14 0.52 1.19 0
 -12 0 16 13.7 1.81 0
 -12 2 8 0.92 0.5 0
 -12 2 10 0.4 0.6 0
 -12 2 11 14.89 1.2 0
 -12 2 12 12.69 1.2 0
 -12 2 15 -0.44 0.77 0
 -11 -11 10 15.33 2.28 0
 -11 -9 11 31.53 2.42 0
 -11 -9 12 0.82 1.47 0
 -11 -9 13 6.21 1.87 0
 -11 -7 11 2.9 1.58 0
 -11 -7 12 1.06 1.39 0
 -11 -7 13 3.06 1.46 0
 -11 -7 15 5.27 1.93 0
 -11 -5 12 39.93 2.6 0
 -11 -5 13 12.97 1.96 0
 -11 -5 15 25.08 2.19 0
 -11 -5 16 36.99 2.82 0
 -11 -3 10 18.62 1.79 0
 -11 -3 11 79.71 3.02 0
 -11 -3 12 125.47 3.76 0
 -11 -3 13 1.72 1.4 0
 -11 -3 14 1.14 1.27 0
 -11 -3 15 91.62 3.51 0
 -11 -3 16 65.34 3.18 0
 -11 -3 17 1.77 1.44 0
 -11 -1 9 46.03 2.04 0
 -11 -1 10 78.43 2.67 0
 -11 -1 12 3.23 1.06 0
 -11 -1 13 16.78 1.75 0
 -11 -1 14 -0.97 1.1 0
 -11 -1 15 10 1.52 0
 -11 -1 16 1.41 1.44 0
 -11 -1 17 0.3 1.11 0
 -11 1 8 38.26 1.66 0
 -11 1 9 48.76 1.91 0
 -11 1 11 7.14 1.05 0
 -11 1 12 4.22 1.02 0
 -11 1 14 0.64 0.89 0
 -11 1 15 11.52 1.48 0
 -11 1 16 -0.7 1.18 0
 -11 1 17 1.59 1.13 0
 -11 1 18 11.76 1.65 0
 -11 3 6 3.61 0.54 0
 -11 3 7 0.96 0.4 0
 -11 3 13 -0.01 0.48 0
 -11 3 14 -0.55 0.46 0
 -10 -12 10 44.77 3.01 0
 -10 -10 11 13.09 1.95 0
 -10 -10 12 -0.34 1.27 0
 -10 -10 13 1.37 1.76 0
 -10 -8 12 31.8 2.5 0
 -10 -8 13 -0.81 1.53 0
 -10 -8 14 -0.29 1.35 0
 -10 -8 15 61.38 3.27 0
 -10 -6 11 50.63 2.67 0
 -10 -6 13 9.88 1.69 0
 -10 -6 14 1 1.29 0
 -10 -6 15 29.93 2.63 0
 -10 -6 16 0.29 1.35 0
 -10 -4 10 36.48 2.08 0
 -10 -4 11 68.37 2.82 0
 -10 -4 12 -0.7 1.06 0
 -10 -4 13 21.6 2.07 0
 -10 -4 14 12.97 1.74 0
 -10 -4 15 49.24 2.8 0
 -10 -4 16 9.71 1.86 0
 -10 -4 17 12.59 1.92 0
 -10 -2 10 0.94 0.81 0
 -10 -2 11 69.69 2.67 0
 -10 -2 12 5.19 1.33 0
 -10 -2 13 3.14 1.23 0
 -10 -2 14 1.17 1.1 0
 -10 -2 15 38.58 2.43 0
 -10 -2 16 26.57 2.29 0
 -10 -2 17 -0.36 1.11 0
 -10 -2 18 31.15 2.55 0
 -10 0 10 20.76 1.41 0
 -10 0 12 35.35 1.92 0
 -10 0 14 34.49 2.15 0
 -10 0 18 1.72 1.25 0
 -10 2 6 1.55 0.55 0
 -10 2 7 22.93 1.16 0
 -10 2 10 2.52 0.84 0
 -10 2 12 4.62 1.03 0
 -10 2 13 5.02 0.98 0
 -10 2 14 0.29 0.77 0
 -10 2 15 42.19 2.16 0
 -10 2 16 22.84 1.86 0
 -10 2 17 0.23 1.06 0
 -10 2 18 31.83 2.18 0
 -10 4 3 7.84 0.44 0
 -10 4 12 0.34 0.37 0
 -9 -13 9 1.7 1.58 0
 -9 -11 10 2.77 1.48 0
 -9 -11 11 10.87 1.76 0
 -9 -11 12 -0.1 1.54 0
 -9 -9 12 5.3 1.48 0
 -9 -9 13 3.83 1.79 0
 -9 -9 14 -0.06 1.36 0
 -9 -9 15 47.32 3.02 0
 -9 -7 11 196.68 4.77 0
 -9 -7 12 6.03 1.61 0
 -9 -7 13 8.5 1.79 0
 -9 -7 14 11.36 1.83 0
 -9 -7 15 66.08 3.29 0
 -9 -7 16 1.31 1.62 0
 -9 -5 11 5.42 1.21 0
 -9 -5 12 6.34 1.32 0
 -9 -5 13 4.78 1.37 0
 -9 -5 14 1.26 1.41 0
 -9 -5 15 7.06 1.73 0
 -9 -5 16 24.75 2.17 0
 -9 -5 17 29.12 2.6 0
 -9 -3 10 3.02 1.04 0
 -9 -3 11 7.06 1.14 0
 -9 -3 12 41.35 2.15 0
 -9 -3 14 2.58 1.19 0
 -9 -3 15 2.85 1.4 0
 -9 -3 16 72.82 3.11 0
 -9 -3 17 0.24 1.53 0
 -9 -1 9 27.53 1.58 0
 -9 -1 10 580.85 6.46 0
 -9 -1 12 14.59 1.54 0
 -9 -1 13 20.48 1.8 0
 -9 -1 14 143.84 3.78 0
 -9 -1 15 4.72 1.41 0
 -9 -1 16 40.04 2.37 0
 -9 -1 17 11.12 1.7 0
 -9 -1 18 0.92 1.48 0
 -9 -1 19 8.31 1.65 0
 -9 1 7 10.87 0.89 0
 -9 1 10 579.06 5.98 0
 -9 1 11 0.03 0.72 0
 -9 1 12 14.35 1.41 0
 -9 1 13 23.96 1.64 0
 -9 1 14 146.4 3.56 0
 -9 1 15 4.9 1.31 0
 -9 1 16 37.38 2.26 0
 -9 1 17 9.65 1.5 0
 -9 1 18 1.01 1.18 0
 -9 3 6 31.94 1.09 0
 -9 3 7 100.78 1.96 0
 -9 3 8 8.11 0.78 0
 -9 3 9 9.08 0.86 0
 -9 3 11 7.96 0.97 0
 -9 3 12 38.47 1.7 0
 -9 3 13 3.44 0.96 0
 -9 3 14 2.79 0.93 0
 -9 3 15 3.85 1 0
 -9 3 16 74.78 2.68 0
 -9 3 17 0.74 1.09 0
 -9 3 18 57.89 2.51 0
 -8 -14 8 70.31 3.32 0
 -8 -12 10 -0.09 1.24 0
 -8 -12 11 6.32 1.77 0
 -8 -12 12 -0.01 1.3 0
 -8 -10 10 8.33 1.54 0
 -8 -10 11 42.28 2.67 0
 -8 -10 12 2.02 1.58 0
 -8 -10 13 17.67 2.22 0
 -8 -10 14 1.66 1.37 0
 -8 -8 11 -0.52 1.21 0
 -8 -8 12 7.58 1.66 0
 -8 -8 13 3.66 1.44 0
 -8 -8 15 22.37 2.39 0
 -8 -8 16 2.5 1.53 0
 -8 -6 11 30.63 1.93 0
 -8 -6 12 6.17 1.28 0
 -8 -6 13 12.79 1.72 0
 -8 -6 14 3.75 1.34 0
 -8 -6 15 30.93 2.49 0
 -8 -6 16 3.14 1.36 0
 -8 -4 10 13.56 1.36 0
 -8 -4 11 0.77 0.83 0
 -8 -4 12 0.38 0.91 0
 -8 -4 13 0.16 0.95 0
 -8 -4 14 4.46 1.28 0
 -8 -4 15 9.84 1.63 0
 -8 -4 16 0.42 1.28 0
 -8 -4 17 -1.47 1.11 0
 -8 -4 18 -0.26 1.29 0
 -8 -2 9 40.31 1.81 0
 -8 -2 10 20.86 1.47 0
 -8 -2 11 5.31 1.12 0
 -8 -2 12 3.36 1.05 0
 -8 -2 13 27.79 1.94 0
 -8 -2 15 41.81 2.39 0
 -8 -2 16 0.13 1.1 0
 -8 -2 17 8.14 1.66 0
 -8 -2 18 4.11 1.38 0
 -8 -2 19 42.54 2.8 0
 -8 0 10 236.4 3.99 0
 -8 0 12 3.26 0.99 0
 -8 0 14 1.4 1.1 0
 -8 0 16 13.05 1.56 0
 -8 0 18 6.69 1.61 0
 -8 2 5 0.84 0.41 0
 -8 2 6 3.9 0.59 0
 -8 2 7 21.16 1.03 0
 -8 2 8 62.29 1.74 0
 -8 2 9 38.65 1.52 0
 -8 2 11 6.03 0.94 0
 -8 2 12 3.89 0.85 0
 -8 2 13 29.13 1.61 0
 -8 2 14 3.45 0.92 0
 -8 2 16 0.54 0.91 0
 -8 2 17 9.93 1.57 0
 -8 2 18 6.6 1.51 0
 -8 2 19 48.7 2.57 0
 -8 4 3 236.77 1.65 0
 -8 4 4 8.87 0.44 0
 -8 4 5 117.12 1.55 0
 -8 4 9 -0.03 0.36 0
 -8 4 11 1.88 0.64 0
 -8 4 12 0.29 0.64 0
 -8 4 13 -0.18 0.57 0
 -8 4 14 3.16 0.91 0
 -8 4 15 11.9 1.31 0
 -8 4 16 0.25 0.8 0
 -8 4 17 0.47 0.88 0
 -8 4 18 -0.22 1 0
 -8 4 19 20.07 1.83 0
 -7 -13 9 4.73 1.55 0
 -7 -13 10 1.83 1.28 0
 -7 -13 11 -0.16 1.26 0
 -7 -11 10 0.91 1.35 0
 -7 -11 11 23.83 2.25 0
 -7 -11 14 11.33 1.89 0
 -7 -9 10 1.22 1.14 0
 -7 -9 11 2.59 1.24 0
 -7 -9 13 73.71 3.19 0
 -7 -9 14 11.02 1.96 0
 -7 -9 16 1.22 1.43 0
 -7 -7 10 -0.68 0.82 0
 -7 -7 12 1.46 1.01 0
 -7 -7 13 0.18 1.02 0
 -7 -7 14 0.59 1.42 0
 -7 -7 15 134.82 4.23 0
 -7 -7 16 0.25 1.23 0
 -7 -7 17 14.71 2.18 0
 -7 -5 11 0.14 0.8 0
 -7 -5 12 7.5 1.34 0
 -7 -5 13 1.37 1.07 0
 -7 -5 14 18.12 1.81 0
 -7 -5 15 0.81 1.16 0
 -7 -5 16 20.59 2.2 0
 -7 -5 17 21.93 2.19 0
 -7 -5 18 65.91 3.25 0
 -7 -3 9 10.51 1.18 0
 -7 -3 10 0.14 0.64 0
 -7 -3 13 -0.17 0.91 0
 -7 -3 15 31.93 2.05 0
 -7 -3 16 3.25 1.44 0
 -7 -3 17 1.34 1.16 0
 -7 -3 18 58.03 2.99 0
 -7 -1 11 -0.03 0.77 0
 -7 -1 12 13.02 1.37 0
 -7 -1 13 -0.28 0.69 0
 -7 -1 14 245.29 4.81 0
 -7 -1 15 0.39 0.89 0
 -7 -1 16 29.83 2.19 0
 -7 -1 17 0.34 1.29 0
 -7 -1 18 20.35 2.12 0
 -7 -1 19 1.01 1.25 0
 -7 1 6 2.21 0.55 0
 -7 1 7 0.05 0.4 0
 -7 1 8 146.86 2.69 0
 -7 1 9 1.55 0.66 0
 -7 1 11 -0.15 0.57 0
 -7 1 12 14.86 1.34 0
 -7 1 13 0.41 0.7 0
 -7 1 14 229.89 4.41 0
 -7 1 15 0.23 0.82 0
 -7 1 16 29.42 1.91 0
 -7 1 17 0.49 0.99 0
 -7 1 18 20.8 1.96 0
 -7 1 19 0.36 1.25 0
 -7 3 3 11.64 0.5 0
 -7 3 6 5.96 0.58 0
 -7 3 7 13.73 0.79 0
 -7 3 8 51.82 1.45 0
 -7 3 9 9.55 0.84 0
 -7 3 12 18.41 1.31 0
 -7 3 13 0.15 0.66 0
 -7 3 14 -0.06 0.86 0
 -7 3 16 3.57 1.17 0
 -7 3 17 1.23 1 0
 -7 3 19 43.05 2.35 0
 -7 5 4 39.97 0.47 0
 -7 5 5 4.46 0.3 0
 -7 5 6 0.5 0.25 0
 -7 5 8 15.91 0.75 0
 -7 5 9 1.46 0.44 0
 -7 5 10 10.08 0.81 0
 -7 5 12 9.25 0.92 0
 -7 5 13 0.97 0.61 0
 -7 5 15 0.76 0.79 0
 -7 5 16 22.02 1.55 0
 -7 5 17 20.98 1.6 0
 -7 5 18 65.65 2.37 0
 -6 -14 8 1.5 1.23 0
 -6 -14 9 1.07 1.16 0
 -6 -14 10 29.97 2.39 0
 -6 -12 9 6.61 1.37 0
 -6 -12 10 6.97 1.46 0
 -6 -12 11 0.88 1.4 0
 -6 -12 12 -0.41 1.18 0
 -6 -12 13 2.32 1.43 0
 -6 -10 10 42.6 2.34 0
 -6 -10 12 0.78 1.41 0
 -6 -10 13 -1.09 1.08 0
 -6 -8 10 17.09 1.71 0
 -6 -8 11 97.14 3.28 0
 -6 -8 12 0.59 1.28 0
 -6 -8 13 24.18 2.18 0
 -6 -8 14 3.04 1.28 0
 -6 -8 15 73.18 3.29 0
 -6 -8 16 -0.34 1.22 0
 -6 -8 17 6.08 1.69 0
 -6 -6 10 4.64 0.99 0
 -6 -6 11 1.06 0.84 0
 -6 -6 12 8.75 1.32 0
 -6 -6 13 -1.04 0.84 0
 -6 -6 14 8.05 1.46 0
 -6 -6 15 -0.01 1.28 0
 -6 -6 16 2.52 1.24 0
 -6 -6 17 6.43 1.76 0
 -6 -6 18 7.39 1.59 0
 -6 -4 9 34.34 1.69 0
 -6 -4 11 52.47 2.24 0
 -6 -4 12 -0.67 0.78 0
 -6 -4 13 39.11 2.2 0
 -6 -4 14 96.32 3.26 0
 -6 -4 15 20.73 1.86 0
 -6 -4 16 3.28 1.37 0
 -6 -4 18 95.81 3.59 0
 -6 -2 10 52.28 1.92 0
 -6 -2 12 1.75 0.8 0
 -6 -2 13 5.21 1.03 0
 -6 -2 15 8.59 1.31 0
 -6 -2 16 38.82 2.37 0
 -6 -2 17 5.37 1.51 0
 -6 -2 18 33.17 2.45 0
 -6 -2 19 8.08 1.6 0
 -6 0 8 175.23 2.94 0
 -6 0 12 28.22 1.6 0
 -6 0 14 358.29 5.49 0
 -6 0 16 105.87 3.26 0
 -6 0 18 7.44 1.45 0
 -6 0 20 5.97 1.57 0
 -6 2 4 67.72 1.24 0
 -6 2 5 0.45 0.32 0
 -6 2 7 10.72 0.78 0
 -6 2 8 183.63 2.74 0
 -6 2 12 1.65 0.72 0
 -6 2 13 6.51 1.11 0
 -6 2 14 7.15 1.16 0
 -6 2 15 7.75 1.19 0
 -6 2 17 3.76 1.15 0
 -6 2 18 32.6 2.14 0
 -6 2 20 -1.26 1.05 0
 -6 4 3 49.46 0.63 0
 -6 4 4 16.97 0.5 0
 -6 4 7 136.31 1.95 0
 -6 4 8 33.16 1.12 0
 -6 4 9 36.15 1.27 0
 -6 4 10 144.62 2.57 0
 -6 4 12 -0.2 0.53 0
 -6 4 13 37.34 1.65 0
 -6 4 14 97.84 2.61 0
 -6 4 15 19.26 1.45 0
 -6 4 16 3.61 0.93 0
 -6 4 17 32.69 1.93 0
 -6 4 18 97.71 3.08 0
 -6 4 19 21.96 1.88 0
 -6 6 9 11.12 0.69 0
 -6 6 10 3.42 0.53 0
 -6 6 12 12.28 0.91 0
 -6 6 13 1.01 0.52 0
 -5 -13 8 1.1 1.23 0
 -5 -13 9 5.59 1.41 0
 -5 -13 10 0.09 1.08 0
 -5 -13 11 0.41 1.33 0
 -5 -13 12 1 1.25 0
 -5 -11 9 4.63 1.28 0
 -5 -11 11 41.26 2.36 0
 -5 -11 12 2.42 1.41 0
 -5 -11 13 41.74 2.62 0
 -5 -11 14 3.56 1.38 0
 -5 -11 15 11.6 1.91 0
 -5 -9 9 32.59 1.92 0
 -5 -9 10 0.1 0.86 0
 -5 -9 11 56.28 2.51 0
 -5 -9 12 20.93 1.93 0
 -5 -9 15 3.98 1.45 0
 -5 -9 16 0.89 1.38 0
 -5 -9 17 4.58 1.56 0
 -5 -7 9 347.29 5.28 0
 -5 -7 11 8.05 1.28 0
 -5 -7 12 5.61 1.23 0
 -5 -7 13 101.23 3.44 0
 -5 -7 14 7.77 1.46 0
 -5 -7 15 0.45 1.13 0
 -5 -7 16 2.25 1.31 0
 -5 -7 17 54.86 2.93 0
 -5 -7 18 0.07 1.28 0
 -5 -5 9 1.18 0.82 0
 -5 -5 10 3.34 0.8 0
 -5 -5 11 3.92 0.97 0
 -5 -5 12 2.86 0.99 0
 -5 -5 13 1.17 0.89 0
 -5 -5 14 0.74 0.93 0
 -5 -5 15 0.24 1.16 0
 -5 -5 16 16 1.8 0
 -5 -5 17 11.11 1.69 0
 -5 -5 18 43.35 2.77 0
 -5 -3 8 21.17 1.28 0
 -5 -3 10 -0.11 0.55 0
 -5 -3 11 0.4 0.66 0
 -5 -3 12 11.08 1.15 0
 -5 -3 13 31.68 1.93 0
 -5 -3 14 1.27 0.94 0
 -5 -3 15 3.48 1.24 0
 -5 -3 16 2.24 1.04 0
 -5 -3 17 0.65 1.12 0
 -5 -3 18 4.35 1.51 0
 -5 -3 19 33.08 2.6 0
 -5 -3 20 3.05 1.66 0
 -5 -1 7 17.83 0.95 0
 -5 -1 8 8.97 0.89 0
 -5 -1 9 25.54 1.24 0
 -5 -1 11 3.37 0.73 0
 -5 -1 12 32.96 1.71 0
 -5 -1 13 1.38 0.78 0
 -5 -1 14 17.31 1.58 0
 -5 -1 15 4.07 1.1 0
 -5 -1 17 0.25 1.06 0
 -5 -1 18 -0.28 1.11 0
 -5 -1 19 6.07 1.52 0
 -5 -1 20 -0.43 1.31 0
 -5 1 5 131.42 1.88 0
 -5 1 6 458.03 3.73 0
 -5 1 7 18.4 0.92 0
 -5 1 8 7.97 0.8 0
 -5 1 9 26.3 1.24 0
 -5 1 14 17.37 1.43 0
 -5 1 15 3.14 1.11 0
 -5 1 16 3.53 1.19 0
 -5 1 17 0.61 0.95 0
 -5 1 18 -0.25 1.09 0
 -5 1 19 5.84 1.57 0
 -5 1 20 0.5 1.15 0
 -5 3 3 122.64 1.21 0
 -5 3 5 562.25 3.33 0
 -5 3 6 68.14 1.33 0
 -5 3 8 21.33 0.94 0
 -5 3 9 150.69 2.51 0
 -5 3 12 10.83 1.08 0
 -5 3 13 31.82 1.59 0
 -5 3 14 0.95 0.75 0
 -5 3 15 3.45 1.05 0
 -5 3 16 1.62 1.03 0
 -5 3 17 -0.06 0.84 0
 -5 3 18 5.81 1.28 0
 -5 3 19 33.05 2.22 0
 -5 3 20 4.42 1.29 0
 -5 5 5 19.96 0.56 0
 -5 5 7 47.67 1.09 0
 -5 5 8 13.67 0.73 0
 -5 5 9 1.41 0.41 0
 -5 5 10 2.99 0.62 0
 -5 5 12 2.62 0.65 0
 -5 5 13 1.79 0.71 0
 -5 5 14 0.32 0.73 0
 -5 5 15 -0.11 0.71 0
 -5 5 16 18.07 1.49 0
 -5 5 17 13.66 1.44 0
 -4 -14 6 1.34 1.11 0
 -4 -12 8 3.41 1.14 0
 -4 -12 9 18.79 1.82 0
 -4 -12 10 57.98 2.65 0
 -4 -12 11 -0.13 0.97 0
 -4 -12 12 7.8 1.61 0
 -4 -12 14 3.74 1.44 0
 -4 -10 8 -0.24 0.75 0
 -4 -10 9 106.51 3.17 0
 -4 -10 10 1.01 1.06 0
 -4 -10 11 1.75 1.04 0
 -4 -10 12 5.57 1.28 0
 -4 -10 13 59.32 2.83 0
 -4 -10 14 18.49 1.99 0
 -4 -10 15 38.52 2.52 0
 -4 -10 16 2.29 1.31 0
 -4 -8 9 2.7 0.87 0
 -4 -8 10 54.44 2.25 0
 -4 -8 11 60.84 2.48 0
 -4 -8 12 1.01 0.9 0
 -4 -8 13 0.36 1.01 0
 -4 -8 14 34.6 2.32 0
 -4 -8 16 6.4 1.57 0
 -4 -8 17 21.95 2.26 0
 -4 -6 9 23.68 1.54 0
 -4 -6 10 9.02 1.19 0
 -4 -6 11 31.3 1.75 0
 -4 -6 13 16.44 1.69 0
 -4 -6 14 1.78 1.03 0
 -4 -6 16 81.94 3.17 0
 -4 -6 17 61.4 3.03 0
 -4 -6 19 -0.55 1.22 0
 -4 -4 10 4.44 0.92 0
 -4 -4 11 13.97 1.36 0
 -4 -4 12 0.35 0.85 0
 -4 -4 13 -0.99 0.64 0
 -4 -4 14 16.15 1.66 0
 -4 -4 16 20.81 1.99 0
 -4 -4 17 46.49 2.63 0
 -4 -4 18 144.79 4.27 0
 -4 -4 19 27.66 2.31 0
 -4 -2 11 106.16 2.71 0
 -4 -2 14 66.32 2.46 0
 -4 -2 15 40.23 2.2 0
 -4 -2 16 58.9 2.68 0
 -4 -2 17 56.24 2.76 0
 -4 -2 18 1.66 1.3 0
 -4 -2 19 0.13 1.27 0
 -4 -2 20 3.52 1.51 0
 -4 0 6 63.23 1.44 0
 -4 0 8 1.81 0.49 0
 -4 0 12 63.44 2.14 0
 -4 0 16 281.98 5.34 0
 -4 0 18 35.43 2.39 0
 -4 2 5 757.02 4.01 0
 -4 2 6 51.16 1.22 0
 -4 2 7 127.43 2.03 0
 -4 2 8 45.11 1.35 0
 -4 2 9 67.92 1.76 0
 -4 2 10 29.15 1.25 0
 -4 2 12 -0.17 0.51 0
 -4 2 13 5.32 0.89 0
 -4 2 14 68.05 2.42 0
 -4 2 16 58.52 2.48 0
 -4 2 17 60.89 2.61 0
 -4 2 18 2.81 1.12 0
 -4 2 19 0.39 1.19 0
 -4 2 20 2.91 1.2 0
 -4 4 3 10.51 0.3 0
 -4 4 6 34.95 0.92 0
 -4 4 7 1.06 0.33 0
 -4 4 8 31.72 1.11 0
 -4 4 9 79.01 1.77 0
 -4 4 10 3.4 0.64 0
 -4 4 12 0.42 0.65 0
 -4 4 13 0.87 0.63 0
 -4 4 14 15.86 1.3 0
 -4 4 15 2.38 0.96 0
 -4 4 16 21.03 1.63 0
 -4 4 17 47.59 2.24 0
 -4 4 18 148.19 3.71 0
 -3 -13 6 13.7 1.47 0
 -3 -13 8 -0.59 0.8 0
 -3 -13 9 8.37 1.28 0
 -3 -13 10 15.06 1.69 0
 -3 -13 11 2.95 1.14 0
 -3 -11 7 95.92 2.81 0
 -3 -11 8 0.46 0.92 0
 -3 -11 9 42.32 2.15 0
 -3 -11 10 11.79 1.55 0
 -3 -11 11 -1.04 0.88 0
 -3 -11 12 0.7 1.01 0
 -3 -11 13 -0.38 1.17 0
 -3 -11 14 16.78 1.82 0
 -3 -11 15 4.98 1.47 0
 -3 -9 8 3.19 0.83 0
 -3 -9 10 14.27 1.5 0
 -3 -9 13 70.19 2.9 0
 -3 -9 15 41.07 2.5 0
 -3 -9 16 1.64 1.16 0
 -3 -9 17 5.4 1.51 0
 -3 -7 8 27.25 1.49 0
 -3 -7 9 329.08 4.8 0
 -3 -7 10 14.23 1.32 0
 -3 -7 11 35.03 1.88 0
 -3 -7 12 66.52 2.5 0
 -3 -7 14 4.69 1.18 0
 -3 -7 16 22.08 1.92 0
 -3 -7 17 65.28 3.03 0
 -3 -7 18 16.12 2.18 0
 -3 -5 10 -0.36 0.55 0
 -3 -5 11 19.24 1.32 0
 -3 -5 12 0.47 0.65 0
 -3 -5 13 35.86 2.02 0
 -3 -5 14 10.81 1.31 0
 -3 -5 15 2.25 1.08 0
 -3 -5 16 1.06 1.27 0
 -3 -5 17 4.46 1.46 0
 -3 -5 18 16.59 1.99 0
 -3 -5 19 3.53 1.37 0
 -3 -3 7 18.89 1 0
 -3 -3 8 811.16 6.17 0
 -3 -3 11 6.86 0.93 0
 -3 -3 12 107.7 2.86 0
 -3 -3 13 54.95 2.18 0
 -3 -3 14 1.01 0.88 0
 -3 -3 15 -1.68 0.95 0
 -3 -3 16 8.82 1.51 0
 -3 -3 19 0.76 1.5 0
 -3 -3 20 11.64 2.08 0
 -3 -1 6 4.4 0.51 0
 -3 -1 7 188.3 2.68 0
 -3 -1 8 165.26 2.7 0
 -3 -1 14 348.79 5.31 0
 -3 -1 15 15.7 1.6 0
 -3 -1 16 30.62 2.1 0
 -3 -1 17 27.19 2 0
 -3 -1 18 72.8 3.02 0
 -3 -1 19 3.02 1.49 0
 -3 -1 20 7.52 1.62 0
 -3 1 3 575.23 2.8 0
 -3 1 4 15.85 0.65 0
 -3 1 5 0.01 0.31 0
 -3 1 6 4.93 0.53 0
 -3 1 7 191.76 2.51 0
 -3 1 8 167.18 2.56 0
 -3 1 9 31.46 1.22 0
 -3 1 10 526.94 5.04 0
 -3 1 12 0.74 0.57 0
 -3 1 13 36.27 1.79 0
 -3 1 14 348.48 5.21 0
 -3 1 15 15.92 1.53 0
 -3 1 16 27.82 1.93 0
 -3 1 17 23.71 1.84 0
 -3 1 18 69.54 2.89 0
 -3 1 19 4.29 1.22 0
 -3 1 20 9.16 1.76 0
 -3 3 4 927.13 3.58 0
 -3 3 5 8.56 0.49 0
 -3 3 6 342.73 2.85 0
 -3 3 7 18.71 0.84 0
 -3 3 8 804.62 5.2 0
 -3 3 9 9.31 0.86 0
 -3 3 10 3.6 0.64 0
 -3 3 12 108.55 2.57 0
 -3 3 13 54.43 1.93 0
 -3 3 14 1.63 0.74 0
 -3 3 15 -0.65 0.76 0
 -3 3 16 10.24 1.39 0
 -3 3 17 55.73 2.45 0
 -3 3 18 3.19 1.25 0
 -3 3 19 1.77 1.1 0
 -3 5 7 246.29 2.51 0
 -3 5 8 64.48 1.44 0
 -3 5 10 -0.38 0.4 0
 -3 5 12 0.66 0.66 0
 -3 5 13 36.63 1.65 0
 -3 5 14 11.77 1.22 0
 -3 5 15 1.9 0.83 0
 -2 -12 7 2.37 0.99 0
 -2 -12 9 27.96 1.82 0
 -2 -12 10 171.58 3.85 0
 -2 -12 11 -1.6 0.91 0
 -2 -12 12 -0.9 0.86 0
 -2 -12 13 35.64 2.2 0
 -2 -10 8 12.98 1.33 0
 -2 -10 9 35.99 1.87 0
 -2 -10 11 29.92 1.97 0
 -2 -10 12 -0.14 0.84 0
 -2 -10 13 50.3 2.49 0
 -2 -10 14 8.03 1.41 0
 -2 -10 15 46.22 2.51 0
 -2 -10 16 0.08 1.26 0
 -2 -8 8 22.88 1.38 0
 -2 -8 10 31.21 1.79 0
 -2 -8 11 1.59 0.93 0
 -2 -8 12 13.28 1.42 0
 -2 -8 13 48.99 2.38 0
 -2 -8 14 71.98 2.76 0
 -2 -8 15 15.9 1.81 0
 -2 -8 16 3.59 1.48 0
 -2 -8 17 63.58 2.96 0
 -2 -8 18 29.7 2.32 0
 -2 -6 7 7.56 0.82 0
 -2 -6 10 12.79 1.24 0
 -2 -6 11 3.93 0.92 0
 -2 -6 12 20.87 1.48 0
 -2 -6 13 30.45 1.92 0
 -2 -6 15 17.54 1.7 0
 -2 -6 17 70.21 3.08 0
 -2 -6 18 2.05 1.43 0
 -2 -6 19 -0.77 1.39 0
 -2 -4 7 29.45 1.2 0
 -2 -4 8 1.85 0.55 0
 -2 -4 11 100.04 2.68 0
 -2 -4 12 8.64 0.99 0
 -2 -4 14 55.7 2.37 0
 -2 -4 16 11.08 1.62 0
 -2 -4 17 2.89 1.43 0
 -2 -4 18 5.19 1.6 0
 -2 -4 20 0.29 1.33 0
 -2 -2 6 160.12 2.32 0
 -2 -2 7 5.31 0.59 0
 -2 -2 8 91.44 2.04 0
 -2 -2 9 604.95 5.41 0
 -2 -2 12 4.92 0.84 0
 -2 -2 16 42.86 2.34 0
 -2 -2 17 2.78 1.15 0
 -2 -2 18 0.51 1.04 0
 -2 -2 19 10.9 1.81 0
 -2 -2 20 9.16 1.73 0
 -2 0 4 22.34 0.75 0
 -2 0 6 0.76 0.37 0
 -2 0 8 79.26 1.79 0
 -2 0 12 26.69 1.41 0
 -2 0 16 105.87 3.2 0
 -2 0 18 1.71 1.09 0
 -2 0 20 41.88 2.52 0
 -2 2 4 126.58 1.45 0
 -2 2 5 1342.31 5.07 0
 -2 2 6 155.07 1.98 0
 -2 2 7 5.12 0.6 0
 -2 2 8 90.52 1.85 0
 -2 2 9 600.38 4.93 0
 -2 2 12 5.97 0.85 0
 -2 2 14 49.99 2.01 0
 -2 2 15 57.33 2.25 0
 -2 2 16 42.57 2.1 0
 -2 2 17 2.95 1.01 0
 -2 2 18 1.01 0.99 0
 -2 2 19 10.79 1.61 0
 -2 2 20 7.95 1.7 0
 -2 4 5 750.38 3.62 0
 -2 4 7 29.01 0.95 0
 -2 4 8 2 0.52 0
 -2 4 9 394.9 3.82 0
 -2 4 12 9.17 0.95 0
 -2 4 13 161.28 3.2 0
 -2 4 15 109.76 2.94 0
 -2 4 16 12.83 1.47 0
 -2 4 17 2.75 0.95 0
 -1 -11 8 71.64 2.34 0
 -1 -11 9 94.9 2.75 0
 -1 -11 10 44.3 2.06 0
 -1 -11 11 3.01 1.15 0
 -1 -11 12 10.28 1.34 0
 -1 -11 13 37.43 2.13 0
 -1 -11 14 8.66 1.47 0
 -1 -11 15 2.26 1.23 0
 -1 -9 8 17.06 1.23 0
 -1 -9 9 5.61 0.94 0
 -1 -9 10 20.7 1.49 0
 -1 -9 11 1.96 1 0
 -1 -9 12 14.7 1.44 0
 -1 -9 13 20 1.76 0
 -1 -9 14 17.77 1.76 0
 -1 -9 15 16.14 1.75 0
 -1 -9 16 9.28 1.48 0
 -1 -9 17 0.46 1.07 0
 -1 -7 6 8.55 0.8 0
 -1 -7 7 240.33 3.51 0
 -1 -7 10 54.73 2.04 0
 -1 -7 11 18.99 1.49 0
 -1 -7 12 13.39 1.25 0
 -1 -7 13 4.46 1.13 0
 -1 -7 14 21.49 1.81 0
 -1 -7 17 0.75 1.17 0
 -1 -7 18 8.01 1.58 0
 -1 -5 7 404.84 4.19 0
 -1 -5 8 521.12 5.01 0
 -1 -5 11 27.34 1.56 0
 -1 -5 13 130.35 3.27 0
 -1 -5 14 5.15 1.12 0
 -1 -5 15 3.46 1.12 0
 -1 -5 16 3.58 1.17 0
 -1 -5 17 3.59 1.22 0
 -1 -5 18 37.36 2.3 0
 -1 -5 19 2.75 1.36 0
 -1 -3 5 925.97 5.03 0
 -1 -3 6 177.62 2.45 0
 -1 -3 8 960.23 6.38 0
 -1 -3 9 452.38 4.72 0
 -1 -3 12 298.29 4.5 0
 -1 -3 13 39.51 1.82 0
 -1 -3 14 47.97 2.15 0
 -1 -3 15 35.17 2.07 0
 -1 -3 16 16.9 1.78 0
 -1 -3 17 27.39 1.99 0
 -1 -3 18 1.77 1.29 0
 -1 -3 19 1.47 1.3 0
 -1 -1 4 1355.62 5 0
 -1 -1 5 140.54 1.87 0
 -1 -1 6 578.72 4.05 0
 -1 -1 8 0.5 0.46 0
 -1 -1 9 20.89 1.09 0
 -1 -1 10 1.87 0.67 0
 -1 -1 12 1.15 0.59 0
 -1 -1 13 4.03 0.95 0
 -1 -1 17 44.2 2.41 0
 -1 -1 18 1.35 1.14 0
 -1 -1 19 1.8 1.18 0
 -1 -1 20 6.41 1.54 0
 -1 1 2 848.96 2.48 0
 -1 1 3 0.29 0.18 0
 -1 1 4 1340.81 4.59 0
 -1 1 5 137.68 1.72 0
 -1 1 6 577.73 3.8 0
 -1 1 7 11.94 0.75 0
 -1 1 8 -0.1 0.42 0
 -1 1 9 21.69 1.1 0
 -1 1 10 2.84 0.6 0
 -1 1 12 1.26 0.61 0
 -1 1 13 4.97 0.86 0
 -1 1 14 54.59 2.13 0
 -1 1 15 24.2 1.63 0
 -1 1 17 42.52 2.12 0
 -1 1 18 2.01 1.05 0
 -1 1 19 2.6 1.22 0
 -1 1 20 8.07 1.65 0
 -1 3 4 754.07 3.31 0
 -1 3 5 910.26 4.11 0
 -1 3 6 180.57 2.11 0
 -1 3 8 943.82 5.59 0
 -1 3 9 440.91 4.13 0
 -1 3 10 25.68 1.23 0
 -1 3 12 302.31 4.14 0
 -1 3 14 48.41 1.99 0
 -1 3 15 36.22 1.9 0
 -1 3 16 17.68 1.64 0
 -1 3 17 28.81 1.88 0
 -1 3 18 2.94 1.05 0
 0 -10 5 165.32 2.85 0
 0 -10 8 0.94 0.63 0
 0 -10 9 8.4 1.08 0
 0 -10 10 14.05 1.34 0
 0 -10 11 42.08 1.99 0
 0 -10 12 0.06 0.8 0
 0 -10 13 5.74 1.14 0
 0 -10 14 8.08 1.31 0
 0 -10 15 34.87 2.14 0
 0 -10 16 0.76 1.09 0
 0 -8 5 346.81 3.77 0
 0 -8 6 0.28 0.47 0
 0 -8 7 3.19 0.76 0
 0 -8 9 4.04 0.92 0
 0 -8 10 3.16 0.8 0
 0 -8 11 7.02 1.15 0
 0 -8 12 19.43 1.54 0
 0 -8 13 5.04 1.05 0
 0 -8 14 7.46 1.26 0
 0 -8 15 8.31 1.33 0
 0 -8 16 2.02 1.14 0
 0 -8 17 25.04 2.02 0
 0 -6 5 5.99 0.67 0
 0 -6 6 11.76 0.87 0
 0 -6 7 8.12 0.89 0
 0 -6 8 0.31 0.49 0
 0 -6 12 89.48 2.62 0
 0 -6 14 7.53 1.19 0
 0 -6 15 17.29 1.74 0
 0 -6 16 52.63 2.6 0
 0 -6 18 25.89 2.17 0
 0 -6 19 10.85 1.62 0
 0 -4 5 35.73 1.08 0
 0 -4 6 3.19 0.49 0
 0 -4 7 53.95 1.51 0
 0 -4 9 7.79 0.94 0
 0 -4 11 5.88 0.86 0
 0 -4 12 4.16 0.82 0
 0 -4 15 11.82 1.41 0
 0 -4 16 -0.71 0.88 0
 0 -4 17 31.88 2.25 0
 0 -4 18 9.58 1.52 0
 0 -4 19 25.36 2.15 0
 0 -4 20 1.4 1.39 0
 0 -2 3 29.61 0.69 0
 0 -2 4 274.78 2.32 0
 0 -2 5 121.89 1.77 0
 0 -2 6 460.68 3.65 0
 0 -2 7 8.97 0.73 0
 0 -2 8 53.61 1.51 0
 0 -2 9 154.45 2.68 0
 0 -2 10 6.77 0.91 0
 0 -2 13 205.94 3.89 0
 0 -2 14 1.43 0.86 0
 0 -2 15 -0.55 0.74 0
 0 -2 16 7.46 1.44 0
 0 -2 17 148.56 3.88 0
 0 -2 18 -1.2 0.95 0
 0 -2 20 9.43 1.7 0
 0 0 4 9999.99 12.69 0
 0 0 6 1715.29 6.61 0
 0 0 8 397.85 3.79 0
 0 0 14 -0.41 0.77 0
 0 0 16 2.87 1.05 0
 0 0 18 7.7 1.33 0
 0 2 3 28.85 0.63 0
 0 2 4 276.45 2.09 0
 0 2 5 121.25 1.64 0
 0 2 6 453.76 3.36 0
 0 2 7 9.58 0.69 0
 0 2 9 155.66 2.57 0
 0 2 10 6.11 0.74 0
 0 2 12 5.57 0.84 0
 0 2 13 215.36 3.77 0
 0 2 16 6.84 1.18 0
 0 2 17 149.61 3.72 0
 0 2 18 -0.45 0.9 0
 0 4 9 9.35 0.76 0
 0 4 11 5.33 0.74 0
 0 4 12 5.64 0.85 0
 0 4 13 19.59 1.21 0
 1 -11 4 -0.02 0.44 0
 1 -11 5 5.18 0.78 0
 1 -11 8 8.36 1.01 0
 1 -11 9 25.08 1.45 0
 1 -11 10 44.72 1.87 0
 1 -11 11 24.49 1.57 0
 1 -9 4 26.43 1.07 0
 1 -9 5 1.18 0.54 0
 1 -9 6 15.56 0.98 0
 1 -9 9 4.62 0.88 0
 1 -9 10 3.68 0.93 0
 1 -9 11 14.11 1.32 0
 1 -9 12 14.76 1.42 0
 1 -9 13 6.93 1.23 0
 1 -9 14 10.87 1.51 0
 1 -9 15 47.06 2.35 0
 1 -9 16 26.8 2 0
 1 -9 17 69.44 2.83 0
 1 -7 4 8.49 0.67 0
 1 -7 5 151.11 2.3 0
 1 -7 6 18.4 0.98 0
 1 -7 7 245.62 3.28 0
 1 -7 8 19.34 1.15 0
 1 -7 10 -0.29 0.68 0
 1 -7 12 23.33 1.56 0
 1 -7 13 42.77 2.07 0
 1 -7 14 34.75 2.01 0
 1 -7 15 4.66 1.15 0
 1 -7 16 4.54 1.28 0
 1 -7 17 100.27 3.4 0
 1 -7 18 1.99 1.19 0
 1 -5 4 3.19 0.43 0
 1 -5 5 105.27 1.79 0
 1 -5 7 151.08 2.47 0
 1 -5 8 220.64 3.15 0
 1 -5 9 3.76 0.67 0
 1 -5 11 25.07 1.43 0
 1 -5 12 235.97 4.09 0
 1 -5 13 36.5 1.86 0
 1 -5 14 25.73 1.69 0
 1 -5 15 8.85 1.43 0
 1 -5 16 19.17 1.63 0
 1 -5 17 -0.41 1.19 0
 1 -5 18 0.3 1.04 0
 1 -5 19 0.71 1.19 0
 1 -3 2 1.57 0.24 0
 1 -3 3 168.63 1.65 0
 1 -3 6 79.36 1.57 0
 1 -3 8 18.49 0.98 0
 1 -3 9 145.83 2.64 0
 1 -3 13 153.14 3.35 0
 1 -3 14 62.8 2.39 0
 1 -3 15 49.77 2.3 0
 1 -3 16 3.07 1.06 0
 1 -3 18 0.87 1.27 0
 1 -3 19 15.84 1.69 0
 1 -3 20 0.23 1.39 0
 1 -1 3 0.16 0.19 0
 1 -1 4 4.31 0.46 0
 1 -1 6 26.56 0.95 0
 1 -1 7 5.71 0.56 0
 1 -1 8 7.84 0.64 0
 1 -1 9 58.96 1.67 0
 1 -1 12 37.94 1.7 0
 1 -1 13 21.38 1.42 0
 1 -1 14 0.66 0.68 0
 1 -1 15 3.38 0.9 0
 1 -1 17 -0.27 0.87 0
 1 -1 18 71.04 2.9 0
 1 -1 19 -0.2 1.3 0
 1 -1 20 49.52 2.64 0
 1 1 3 0.35 0.21 0
 1 1 4 4.08 0.43 0
 1 1 5 30.82 0.85 0
 1 1 9 58.63 1.63 0
 1 1 12 36.47 1.6 0
 1 1 14 1.33 0.86 0
 1 1 15 4.91 0.97 0
 1 1 17 1.25 1.19 0
 1 3 7 3.15 0.46 0
 1 3 8 18.83 0.93 0
 1 3 9 141.92 2.41 0
 1 3 12 43.08 1.71 0
 1 3 13 155.3 3.22 0
 1 3 14 65.52 2.29 0
 2 -10 2 0.21 0.33 0
 2 -10 3 182.99 2.3 0
 2 -10 5 20.81 0.99 0
 2 -10 6 3.61 0.68 0
 2 -10 9 4.3 0.83 0
 2 -10 10 5.39 0.96 0
 2 -10 11 12.39 1.23 0
 2 -10 12 24.79 1.59 0
 2 -10 13 0.11 0.87 0
 2 -10 14 5.01 1.09 0
 2 -8 2 0.43 0.29 0
 2 -8 3 41.39 1.05 0
 2 -8 4 47.01 1.2 0
 2 -8 5 237.28 2.81 0
 2 -8 7 1.32 0.52 0
 2 -8 8 1.9 0.64 0
 2 -8 10 2.82 0.71 0
 2 -8 11 14.85 1.25 0
 2 -8 12 6.66 1.13 0
 2 -8 13 13.79 1.36 0
 2 -8 14 2.72 1.14 0
 2 -8 17 23.77 1.96 0
 2 -8 18 2.4 1.17 0
 2 -6 2 176.15 1.69 0
 2 -6 3 37.32 0.9 0
 2 -6 4 48.44 1.12 0
 2 -6 5 16.46 0.8 0
 2 -6 7 76.85 1.76 0
 2 -6 8 224.01 3.13 0
 2 -6 11 5.37 0.91 0
 2 -6 12 25.23 1.55 0
 2 -6 13 42.85 1.98 0
 2 -6 14 23.06 1.66 0
 2 -6 15 70.65 2.71 0
 2 -6 16 14.65 1.53 0
 2 -6 17 1.07 1.2 0
 2 -6 18 1.71 1.07 0
 2 -6 19 31.53 2.27 0
 2 -4 2 0.7 0.2 0
 2 -4 4 502.93 3.15 0
 2 -4 5 42.2 1.06 0
 2 -4 6 0.99 0.35 0
 2 -4 7 98.47 1.89 0
 2 -4 8 753 5.41 0
 2 -4 9 339.43 3.93 0
 2 -4 11 0.83 0.58 0
 2 -4 12 183.08 3.56 0
 2 -4 13 193.18 3.82 0
 2 -4 14 173.64 3.77 0
 2 -4 15 43.81 2.21 0
 2 -4 16 1.57 0.97 0
 2 -4 17 7.77 1.31 0
 2 -4 19 10.46 1.53 0
 2 -2 2 466.09 1.99 0
 2 -2 3 0.49 0.22 0
 2 -2 4 383.36 2.58 0
 2 -2 5 48.2 1.06 0
 2 -2 6 14.46 0.72 0
 2 -2 7 70.27 1.58 0
 2 -2 8 0.05 0.38 0
 2 -2 12 2.14 0.71 0
 2 -2 13 0.37 0.8 0
 2 -2 14 60.32 2.32 0
 2 -2 16 32.85 2.02 0
 2 -2 17 33.63 2.15 0
 2 -2 18 1.52 1.29 0
 2 -2 19 0.16 1.23 0
 2 -2 20 0.79 1.14 0
 2 0 4 4934.95 9 0
 2 0 6 736.48 4.36 0
 2 0 8 724.44 5.12 0
 2 0 12 304.29 4.27 0
 2 0 14 12.02 1.16 0
 2 0 16 221.39 4.43 0
 2 0 18 33.82 2.16 0
 2 2 6 14.97 0.71 0
 2 2 7 70.46 1.53 0
 2 2 8 0.31 0.46 0
 2 2 9 10.31 0.78 0
 2 2 11 1.5 0.6 0
 2 2 12 1.55 0.62 0
 2 2 13 0.63 0.65 0
 2 2 14 58.76 2.16 0
 2 2 15 4.81 0.93 0
 3 -9 3 5.48 0.46 0
 3 -9 4 0.83 0.34 0
 3 -9 5 73.1 1.47 0
 3 -9 6 3.86 0.57 0
 3 -9 7 15.77 0.95 0
 3 -9 10 0.28 0.59 0
 3 -9 11 21.99 1.39 0
 3 -9 12 0.22 0.78 0
 3 -9 13 0.89 0.9 0
 3 -9 14 0.45 0.8 0
 3 -9 15 69.41 2.51 0
 3 -9 16 7.69 1.35 0
 3 -7 0 7.62 0.28 0
 3 -7 2 188.15 1.59 0
 3 -7 3 136.79 1.58 0
 3 -7 4 48.03 1.06 0
 3 -7 5 54.86 1.25 0
 3 -7 6 20.85 0.91 0
 3 -7 7 38.54 1.27 0
 3 -7 8 39.55 1.36 0
 3 -7 10 4.05 0.83 0
 3 -7 11 36.74 1.66 0
 3 -7 12 1.4 0.71 0
 3 -7 13 0.25 0.75 0
 3 -7 14 1.79 0.95 0
 3 -7 15 3.42 1.18 0
 3 -7 16 2.94 1.04 0
 3 -7 17 31.1 2.01 0
 3 -7 18 6.67 1.5 0
 3 -5 3 42.34 0.82 0
 3 -5 4 367.35 2.64 0
 3 -5 5 110.09 1.65 0
 3 -5 6 20.43 0.87 0
 3 -5 7 16.51 0.86 0
 3 -5 8 134.99 2.34 0
 3 -5 11 -0.14 0.72 0
 3 -5 12 3.96 0.96 0
 3 -5 13 34.61 1.82 0
 3 -5 14 0.21 0.96 0
 3 -5 15 0.61 0.98 0
 3 -5 18 3 1.18 0
 3 -5 19 -0.77 1.24 0
 3 -3 2 29.08 0.54 0
 3 -3 3 1420.16 4.26 0
 3 -3 4 371.23 2.57 0
 3 -3 5 72.54 1.34 0
 3 -3 6 27.7 0.96 0
 3 -3 7 395.88 3.63 0
 3 -3 11 65.52 2.03 0
 3 -3 12 36.96 1.62 0
 3 -3 13 1.37 0.72 0
 3 -3 14 0.91 0.92 0
 3 -3 15 34.02 1.95 0
 3 -3 16 42.25 2.19 0
 3 -3 17 0.7 1.03 0
 3 -3 18 0.5 1.14 0
 3 -3 19 13.79 1.87 0
 3 -1 3 526.64 2.61 0
 3 -1 4 771.05 3.59 0
 3 -1 6 394.37 3.22 0
 3 -1 7 154.89 2.25 0
 3 -1 8 28.22 1.07 0
 3 -1 9 2.12 0.61 0
 3 -1 12 0.38 0.58 0
 3 -1 13 9.73 1.16 0
 3 -1 14 31.84 1.63 0
 3 -1 15 3.52 1.11 0
 3 -1 16 87.04 2.88 0
 3 -1 17 10.15 1.36 0
 3 -1 18 5.81 1.3 0
 3 1 6 383.38 3.19 0
 3 1 7 158.84 2.28 0
 3 1 8 28.37 1.15 0
 3 1 9 1.96 0.5 0
 3 1 12 0.09 0.51 0
 3 1 13 9.1 1.06 0
 3 1 14 34.87 1.74 0
 4 -8 3 178.92 1.44 0
 4 -8 4 175.85 1.76 0
 4 -8 5 23.73 0.8 0
 4 -8 6 9.27 0.68 0
 4 -8 7 141.04 2.24 0
 4 -8 8 51.56 1.49 0
 4 -8 10 11.89 1.02 0
 4 -8 11 3.8 0.77 0
 4 -8 12 13.73 1.24 0
 4 -8 13 21.28 1.48 0
 4 -8 14 0.06 0.9 0
 4 -8 15 45.72 2.08 0
 4 -8 16 23.93 1.75 0
 4 -8 17 28.99 1.9 0
 4 -6 2 7.83 0.26 0
 4 -6 3 242.08 1.71 0
 4 -6 5 9.47 0.6 0
 4 -6 6 79.21 1.56 0
 4 -6 8 56.86 1.56 0
 4 -6 9 113.53 2.34 0
 4 -6 11 32.3 1.54 0
 4 -6 14 14.68 1.41 0
 4 -6 15 22.79 1.7 0
 4 -6 16 27.53 1.89 0
 4 -6 17 3.58 1.28 0
 4 -6 18 4.95 1.39 0
 4 -4 2 8.51 0.28 0
 4 -4 4 0.44 0.24 0
 4 -4 5 89.43 1.43 0
 4 -4 6 18.61 0.82 0
 4 -4 7 0.38 0.42 0
 4 -4 9 23.22 1.17 0
 4 -4 11 0.04 0.5 0
 4 -4 12 222.47 3.76 0
 4 -4 13 130.29 2.99 0
 4 -4 14 245.97 4.36 0
 4 -4 15 43.57 2.04 0
 4 -4 16 14.4 1.47 0
 4 -4 17 36.24 2.16 0
 4 -4 18 78.1 2.92 0
 4 -2 5 204.08 2.11 0
 4 -2 6 0.91 0.32 0
 4 -2 7 8.64 0.68 0
 4 -2 8 62.07 1.53 0
 4 -2 9 1.67 0.5 0
 4 -2 11 12.24 1.07 0
 4 -2 12 10.4 1.08 0
 4 -2 13 26.82 1.58 0
 4 -2 14 188.54 3.82 0
 4 -2 15 1.01 0.92 0
 4 -2 16 75.42 2.68 0
 4 0 14 23.94 1.49 0
 5 -7 4 26.59 0.61 0
 5 -7 5 107.04 1.44 0
 5 -7 6 187.92 2.14 0
 5 -7 7 63.58 1.42 0
 5 -7 8 30.95 1.15 0
 5 -7 11 1.11 0.66 0
 5 -7 12 21.19 1.35 0
 5 -7 13 21.32 1.41 0
 5 -7 14 1.21 0.96 0
 5 -7 15 2.17 0.89 0
 5 -7 16 3.05 0.97 0
 5 -5 4 0.2 0.21 0
 5 -5 5 25.72 0.77 0
 5 -5 6 86.59 1.53 0
 5 -5 7 74.17 1.55 0
 5 -5 8 230 2.9 0
 5 -5 11 13.65 1.13 0
 5 -5 12 117.37 2.69 0
 5 -5 14 10.9 1.3 0
 5 -5 15 1.51 0.96 0
 5 -5 16 21.72 1.77 0
 5 -3 5 261.18 2.36 0
 5 -3 6 2.41 0.41 0
 5 -3 7 387.12 3.48 0
 5 -3 8 143.09 2.31 0
 5 -3 9 5.42 0.69 0
 5 -3 11 228.65 3.56 0
 5 -3 12 53.16 1.92 0
 5 -3 13 62.02 2.18 0
 5 -3 14 50.89 2.13 0
 5 -1 11 144.62 2.85 0
 5 -1 12 8.81 0.96 0
 6 -6 7 222.98 2.52 0
 6 -6 8 16.44 0.88 0
 6 -6 12 2.08 0.7 0
 6 -6 13 111.82 2.66 0
 6 -4 8 0.27 0.44 0
 6 -4 11 5.8 0.82 0
 6 -4 12 23.42 1.39 0
 -14 -6 12 15.07 1.65 0
 -13 -7 12 15.86 1.78 0
 -13 -7 13 22.72 2.01 0
 -13 -5 12 36.8 1.99 0
 -12 -8 12 7.22 1.49 0
 -12 -8 13 1.78 1.41 0
 -12 -6 12 4.5 1.16 0
 -12 -6 13 1.47 1.04 0
 -12 -6 14 14.03 1.7 0
 -12 -6 15 0.71 1.05 0
 -12 -4 11 4.01 1.01 0
 -12 -4 12 27.43 1.69 0
 -12 -2 10 -0.03 0.3 0
 -11 -9 12 0.75 1.18 0
 -11 -9 13 4.56 1.5 0
 -11 -7 12 -0.45 1.01 0
 -11 -7 13 2.95 1.09 0
 -11 -7 14 15.8 1.87 0
 -11 -7 15 7.15 1.56 0
 -11 -5 12 38.52 2 0
 -11 -5 13 14.73 1.59 0
 -11 -5 14 4.26 1.21 0
 -11 -5 15 21.78 1.82 0
 -11 -5 16 38.87 2.18 0
 -11 -3 11 74.04 2.24 0
 -11 -3 12 130.08 2.98 0
 -11 -3 13 1.42 0.73 0
 -11 -3 14 -0.26 0.49 0
 -10 -10 12 0.44 1.14 0
 -10 -10 13 -0.44 1.44 0
 -10 -8 12 29.46 2.18 0
 -10 -8 13 0.03 1.31 0
 -10 -8 15 64.43 3.03 0
 -10 -6 12 2.44 1.03 0
 -10 -6 14 0.96 1.21 0
 -10 -6 15 32.34 2.15 0
 -10 -6 16 0.57 1.01 0
 -10 -6 17 15.49 1.9 0
 -10 -4 11 66.57 2.26 0
 -10 -4 12 0.06 0.85 0
 -10 -4 13 23.3 1.64 0
 -10 -4 14 12.09 1.4 0
 -10 -4 16 8.2 1.34 0
 -10 -2 10 1.74 0.59 0
 -10 -2 11 64.29 1.96 0
 -10 -2 12 5.12 0.86 0
 -10 -2 14 -0.73 0.36 0
 -9 -11 12 1.39 1.22 0
 -9 -9 12 5.07 1.28 0
 -9 -9 13 4.2 1.34 0
 -9 -9 14 1.75 1.39 0
 -9 -9 15 49.02 2.88 0
 -9 -7 12 6.3 1.33 0
 -9 -7 13 8.91 1.58 0
 -9 -7 14 10.52 1.61 0
 -9 -7 15 63.55 2.84 0
 -9 -7 16 -1.13 0.98 0
 -9 -5 12 5.9 1.08 0
 -9 -5 13 5.64 1.23 0
 -9 -5 14 -0.2 0.99 0
 -9 -5 15 5.38 1.16 0
 -9 -5 16 24.47 1.91 0
 -9 -5 17 26.27 2.02 0
 -9 -5 18 3.31 1.23 0
 -9 -3 11 8.69 0.97 0
 -9 -3 13 4.22 0.95 0
 -9 -3 14 2.49 0.91 0
 -9 -3 15 2.88 1.02 0
 -9 -3 16 73.35 2.68 0
 -9 -3 17 1.12 0.82 0
 -9 -1 9 26.19 1.12 0
 -9 -1 12 13.47 1.01 0
 -9 1 7 12.43 0.59 0
 -8 -12 11 7.66 1.63 0
 -8 -10 12 0.02 1.06 0
 -8 -10 13 20.74 2.17 0
 -8 -10 14 2.42 1.55 0
 -8 -8 12 8.65 1.49 0
 -8 -8 13 5 1.43 0
 -8 -8 14 1.94 1.36 0
 -8 -8 15 19.19 2.1 0
 -8 -8 16 4.93 1.55 0
 -8 -6 14 6.11 1.41 0
 -8 -6 15 33.15 2.16 0
 -8 -6 16 2.13 1.22 0
 -8 -6 17 7.37 1.53 0
 -8 -6 18 11.5 1.81 0
 -8 -4 11 1.17 0.67 0
 -8 -4 12 0.74 0.74 0
 -8 -4 13 1.77 0.93 0
 -8 -4 14 3.25 1 0
 -8 -4 15 11.62 1.39 0
 -8 -4 16 0.6 0.92 0
 -8 -4 17 -0.41 0.94 0
 -8 -4 18 1.65 1.08 0
 -8 -4 19 19.24 1.84 0
 -8 -2 11 5.31 0.78 0
 -8 -2 12 2.83 0.73 0
 -8 -2 13 27.09 1.48 0
 -8 -2 14 2.58 0.82 0
 -8 -2 15 40.42 1.85 0
 -8 -2 16 0.53 0.75 0
 -8 -2 17 10.4 1.22 0
 -8 0 8 139.53 2.08 0
 -8 0 10 242.36 2.98 0
 -8 2 5 0.35 0.15 0
 -8 2 6 3.91 0.27 0
 -8 2 7 19.79 0.54 0
 -8 2 8 59.17 1 0
 -8 2 9 37.49 0.85 0
 -7 -11 11 24.52 2.04 0
 -7 -11 12 6.08 1.66 0
 -7 -11 13 35.73 2.58 0
 -7 -9 15 51.89 2.75 0
 -7 -9 16 3.2 1.47 0
 -7 -7 13 2.03 1.11 0
 -7 -7 14 -0.74 1.02 0
 -7 -7 16 0.2 1.06 0
 -7 -5 11 0.58 0.7 0
 -7 -5 12 8.13 1.13 0
 -7 -5 13 0.74 0.78 0
 -7 -5 14 16.31 1.6 0
 -7 -5 15 0.35 1.07 0
 -7 -5 17 19.31 1.94 0
 -7 -5 18 68.79 2.9 0
 -7 -3 11 32.95 1.57 0
 -7 -3 12 16.11 1.24 0
 -7 -3 13 0.36 0.8 0
 -7 -3 14 -0.47 0.68 0
 -7 -3 16 3.93 1.01 0
 -7 -3 17 1.4 0.97 0
 -7 -3 18 57.69 2.48 0
 -7 -1 9 0.59 0.41 0
 -7 -1 10 156.01 2.64 0
 -7 -1 13 -0.15 0.63 0
 -7 -1 14 237.59 3.83 0
 -7 -1 15 -0.28 0.79 0
 -7 -1 16 33.41 1.71 0
 -7 -1 17 1.5 0.72 0
 -7 1 9 1.16 0.34 0
 -7 1 10 148.55 2.17 0
 -7 1 11 0.21 0.37 0
 -7 1 12 13.88 0.86 0
 -7 1 15 0 0.29 0
 -7 3 7 12.65 0.26 0
 -7 3 8 51.56 0.71 0
 -7 3 9 10.53 0.42 0
 -6 -12 12 -0.65 1.18 0
 -6 -12 13 2.26 1.48 0
 -6 -10 11 18.34 1.94 0
 -6 -10 12 0.4 1.06 0
 -6 -10 13 1.56 1.24 0
 -6 -10 15 36.03 2.51 0
 -6 -8 12 0.4 0.9 0
 -6 -8 13 20.73 1.74 0
 -6 -8 14 2.58 1.16 0
 -6 -8 15 73.12 3.12 0
 -6 -8 16 1.91 1.26 0
 -6 -8 17 8 1.6 0
 -6 -6 11 1.51 0.86 0
 -6 -6 13 0.42 0.86 0
 -6 -6 14 7.37 1.29 0
 -6 -6 15 0.4 1.02 0
 -6 -6 16 1.67 1.33 0
 -6 -6 17 6.42 1.44 0
 -6 -6 18 7.86 1.5 0
 -6 -4 10 144.72 2.97 0
 -6 -4 11 51.49 1.89 0
 -6 -4 12 -0.43 0.76 0
 -6 -4 13 36.55 1.8 0
 -6 -4 14 99.18 2.85 0
 -6 -4 15 20.51 1.59 0
 -6 -4 16 3.3 1.04 0
 -6 -4 17 33.46 2.11 0
 -6 -4 18 97.78 3.28 0
 -6 -2 9 2.69 0.55 0
 -6 -2 13 5.34 0.84 0
 -6 -2 14 7.04 1 0
 -6 -2 15 8.68 1.14 0
 -6 -2 16 41.98 2.03 0
 -6 -2 17 4.39 1.11 0
 -6 -2 18 32.44 1.93 0
 -6 -2 19 6.15 1.29 0
 -6 -2 20 -0.98 0.87 0
 -6 0 8 176.9 2.3 0
 -6 0 10 893.95 5.61 0
 -6 0 14 360.16 4.44 0
 -6 0 16 106.91 2.64 0
 -6 2 5 0.6 0.14 0
 -6 2 7 10.25 0.45 0
 -6 2 10 52.36 1.2 0
 -6 2 11 8.01 0.63 0
 -6 2 12 1.93 0.44 0
 -5 -13 10 0.55 1.15 0
 -5 -13 11 1.17 1.26 0
 -5 -11 11 43.62 2.5 0
 -5 -11 12 1.52 1.25 0
 -5 -11 14 2.38 1.39 0
 -5 -9 11 55.62 2.55 0
 -5 -9 12 22.42 1.98 0
 -5 -9 13 4.62 1.31 0
 -5 -9 14 16.61 1.83 0
 -5 -9 15 4.95 1.61 0
 -5 -9 16 2.27 1.33 0
 -5 -7 11 8.12 1.15 0
 -5 -7 12 3.95 1.12 0
 -5 -7 13 106.34 3.3 0
 -5 -7 14 7.39 1.28 0
 -5 -7 15 0.32 1.02 0
 -5 -7 16 1.93 1.37 0
 -5 -7 17 55.75 2.8 0
 -5 -7 18 -0.36 1.21 0
 -5 -5 10 3.16 0.78 0
 -5 -5 11 2.9 0.79 0
 -5 -5 12 3 0.84 0
 -5 -5 13 2.19 0.86 0
 -5 -5 14 0.63 0.83 0
 -5 -5 15 0.37 0.88 0
 -5 -5 16 18.14 1.77 0
 -5 -5 17 12.38 1.76 0
 -5 -5 18 39.77 2.34 0
 -5 -5 19 7.74 1.63 0
 -5 -3 11 0.65 0.57 0
 -5 -3 13 32.15 1.68 0
 -5 -3 14 1.61 0.87 0
 -5 -3 15 4.25 1.15 0
 -5 -3 16 1.24 0.88 0
 -5 -3 17 1.34 1.06 0
 -5 -3 18 5.02 1.27 0
 -5 -3 19 28.15 2.05 0
 -5 -3 20 4.84 1.34 0
 -5 -1 9 25.52 1.07 0
 -5 -1 10 352.32 3.83 0
 -5 -1 13 0.56 0.68 0
 -5 -1 14 19.8 1.3 0
 -5 -1 15 2.51 0.92 0
 -5 -1 16 3.88 0.9 0
 -5 -1 17 1.27 0.92 0
 -5 -1 18 0.71 0.94 0
 -5 -1 19 6.99 1.23 0
 -5 -1 20 -0.53 0.93 0
 -5 1 7 19.21 0.67 0
 -5 1 8 9.77 0.6 0
 -5 1 9 25.63 0.93 0
 -5 1 10 350.94 3.36 0
 -5 1 11 3.31 0.54 0
 -5 1 14 20.63 1.19 0
 -5 1 15 2.87 0.72 0
 -5 1 16 4.04 0.84 0
 -5 1 17 2.34 0.76 0
 -5 1 18 -0.65 0.54 0
 -5 3 6 69.16 0.73 0
 -5 3 7 0.23 0.16 0
 -5 3 8 22.98 0.63 0
 -5 3 11 0.02 0.33 0
 -5 3 12 10.81 0.69 0
 -4 -14 9 1.18 1.24 0
 -4 -14 10 16.51 2.18 0
 -4 -12 10 54.76 2.72 0
 -4 -12 11 -1.44 1.25 0
 -4 -12 12 6.25 1.51 0
 -4 -12 13 1.66 1.27 0
 -4 -10 10 1.44 0.97 0
 -4 -10 11 1.01 0.98 0
 -4 -10 13 61.47 2.81 0
 -4 -10 16 4.2 1.59 0
 -4 -8 11 63.38 2.51 0
 -4 -8 12 0.52 1.09 0
 -4 -8 13 1.43 1.07 0
 -4 -8 14 35.76 2.12 0
 -4 -8 15 141.79 4.07 0
 -4 -8 16 5.95 1.37 0
 -4 -6 10 8.31 1.02 0
 -4 -6 11 32.55 1.78 0
 -4 -6 12 55.97 2.31 0
 -4 -6 13 15.65 1.58 0
 -4 -6 14 1.36 0.93 0
 -4 -6 15 51.43 2.45 0
 -4 -6 16 81.64 3.12 0
 -4 -6 17 60.08 2.71 0
 -4 -6 18 71.3 3.12 0
 -4 -6 19 1.06 1.2 0
 -4 -4 11 13.39 1.21 0
 -4 -4 12 0.15 0.71 0
 -4 -4 13 -0.14 0.75 0
 -4 -4 14 16.35 1.5 0
 -4 -4 16 19.65 1.75 0
 -4 -4 17 47.35 2.41 0
 -4 -4 18 152.64 3.99 0
 -4 -4 19 27.92 2.05 0
 -4 -4 20 4.76 1.51 0
 -4 -2 8 45.56 1.36 0
 -4 -2 9 65.7 1.73 0
 -4 -2 12 0.47 0.57 0
 -4 -2 15 39.84 1.92 0
 -4 -2 16 57.14 2.28 0
 -4 -2 17 60.29 2.47 0
 -4 -2 18 1.77 1.01 0
 -4 -2 19 -0.44 0.88 0
 -4 -2 20 2.45 1.21 0
 -4 0 6 64.31 1.18 0
 -4 0 8 1.55 0.37 0
 -4 0 10 139.11 2.34 0
 -4 0 14 319.23 4.34 0
 -4 0 16 279.29 4.46 0
 -4 0 18 36.24 1.89 0
 -4 0 20 92.86 2.88 0
 -4 2 5 744.74 2.62 0
 -4 2 8 42.6 0.99 0
 -4 2 9 68.7 1.36 0
 -4 2 10 30.31 1.02 0
 -4 2 11 111.14 2 0
 -4 2 12 0.57 0.44 0
 -4 2 14 63.66 1.82 0
 -4 2 16 57.1 1.9 0
 -4 2 17 62.82 2.03 0
 -3 -15 7 2.65 1.25 0
 -3 -15 8 10.38 1.79 0
 -3 -13 9 7.76 1.66 0
 -3 -13 11 2.92 1.35 0
 -3 -13 12 3.49 1.35 0
 -3 -11 10 11.54 1.52 0
 -3 -11 11 -1.37 1.1 0
 -3 -11 12 -0.85 0.97 0
 -3 -11 13 0.98 1.32 0
 -3 -11 14 15.75 2.02 0
 -3 -11 15 4.09 1.42 0
 -3 -9 10 14.01 1.43 0
 -3 -9 11 12.8 1.51 0
 -3 -9 12 8.66 1.47 0
 -3 -9 14 -1.4 1.11 0
 -3 -9 15 42.76 2.5 0
 -3 -9 16 2.56 1.33 0
 -3 -9 17 2.47 1.58 0
 -3 -7 10 16.11 1.35 0
 -3 -7 11 36.12 1.92 0
 -3 -7 15 71.35 2.97 0
 -3 -7 16 19.87 1.9 0
 -3 -7 17 65.14 3.05 0
 -3 -7 18 16.34 2.05 0
 -3 -5 10 0.25 0.67 0
 -3 -5 11 18.34 1.34 0
 -3 -5 12 -0.42 0.73 0
 -3 -5 14 13.18 1.37 0
 -3 -5 15 1.85 1.1 0
 -3 -5 16 1.17 0.99 0
 -3 -5 17 3.75 1.41 0
 -3 -5 18 13.94 1.72 0
 -3 -5 19 4.37 1.42 0
 -3 -3 8 791.62 5.54 0
 -3 -3 9 7.49 0.84 0
 -3 -3 12 110.92 2.66 0
 -3 -3 13 53.87 1.98 0
 -3 -3 14 1.56 0.93 0
 -3 -3 15 -0.2 0.71 0
 -3 -3 17 54.86 2.48 0
 -3 -3 18 4.6 1.21 0
 -3 -3 19 3.07 1.13 0
 -3 -3 20 12.1 1.72 0
 -3 -1 6 5.33 0.45 0
 -3 -1 7 193.35 2.36 0
 -3 -1 8 167.5 2.36 0
 -3 -1 9 32.89 1.18 0
 -3 -1 10 527.22 4.67 0
 -3 -1 14 340.11 4.67 0
 -3 -1 15 15.12 1.33 0
 -3 -1 16 31.56 1.78 0
 -3 -1 17 23.78 1.69 0
 -3 -1 19 3.98 1.12 0
 -3 -1 20 8.92 1.33 0
 -3 1 5 0.07 0.19 0
 -3 1 6 5.17 0.41 0
 -3 1 7 193.74 2.07 0
 -3 1 8 167.45 2.12 0
 -3 1 9 33.11 1.06 0
 -3 1 10 523.26 4.23 0
 -3 1 14 342.61 4.36 0
 -3 1 15 15.23 1.2 0
 -3 1 16 29.86 1.62 0
 -3 1 17 26.76 1.64 0
 -3 1 19 1.81 1.03 0
 -3 1 20 8.84 1.36 0
 -3 3 7 18.13 0.6 0
 -3 3 8 790.19 3.94 0
 -3 3 9 8.74 0.57 0
 -3 3 10 3.71 0.5 0
 -3 3 11 7.32 0.65 0
 -3 3 12 107.01 2.06 0
 -3 3 14 0.92 0.58 0
 -3 3 16 8.32 0.97 0
 -2 -16 5 1.87 1.26 0
 -2 -14 8 0.61 1.17 0
 -2 -14 9 0.66 1.3 0
 -2 -14 10 -1.33 1.22 0
 -2 -14 11 4.14 1.6 0
 -2 -12 8 35.08 2.08 0
 -2 -12 9 25.14 2.02 0
 -2 -12 10 171.37 4.35 0
 -2 -12 11 0.04 1.06 0
 -2 -12 12 -0.32 1.06 0
 -2 -12 13 37.07 2.52 0
 -2 -12 14 89.22 3.59 0
 -2 -10 9 39.48 2.08 0
 -2 -10 10 57.11 2.42 0
 -2 -10 11 32.7 2.2 0
 -2 -10 12 0.42 0.98 0
 -2 -10 13 44.75 2.52 0
 -2 -10 15 45.32 2.68 0
 -2 -10 16 -0.99 1.13 0
 -2 -8 10 29.64 1.67 0
 -2 -8 11 1.93 0.99 0
 -2 -8 12 12.08 1.42 0
 -2 -8 14 70.36 2.88 0
 -2 -8 16 4.36 1.33 0
 -2 -8 17 64.97 3.02 0
 -2 -8 18 30.51 2.49 0
 -2 -6 9 66.55 2.08 0
 -2 -6 10 13.65 1.21 0
 -2 -6 11 4.08 0.93 0
 -2 -6 12 19.01 1.48 0
 -2 -6 13 31.14 1.76 0
 -2 -6 14 33.75 2.05 0
 -2 -6 15 18.35 1.67 0
 -2 -6 16 16.58 1.81 0
 -2 -6 17 65.4 2.96 0
 -2 -6 18 3.49 1.34 0
 -2 -6 19 -0.58 1.13 0
 -2 -4 8 1.71 0.58 0
 -2 -4 11 96.29 2.45 0
 -2 -4 12 9.83 1.04 0
 -2 -4 14 57.75 2.26 0
 -2 -4 16 9.73 1.51 0
 -2 -4 17 2.84 1.27 0
 -2 -4 19 13.08 1.62 0
 -2 -4 20 -0.43 1.13 0
 -2 -2 6 157.95 2.05 0
 -2 -2 7 4.97 0.62 0
 -2 -2 8 86.64 1.81 0
 -2 -2 9 590.77 4.87 0
 -2 -2 10 20.09 1.05 0
 -2 -2 13 150.86 3.15 0
 -2 -2 14 51.54 2.05 0
 -2 -2 16 44.16 2.13 0
 -2 -2 17 1.69 1.08 0
 -2 -2 18 0.31 1.12 0
 -2 -2 19 11.45 1.65 0
 -2 -2 20 8.55 1.56 0
 -2 0 6 0.38 0.27 0
 -2 0 10 31.88 1.2 0
 -2 0 14 3.43 0.78 0
 -2 0 16 103.52 2.78 0
 -2 0 18 1.86 0.97 0
 -2 0 20 41.75 2.18 0
 -2 2 5 1308.79 3.97 0
 -2 2 6 160.12 1.64 0
 -2 2 7 5.41 0.44 0
 -2 2 8 89.69 1.52 0
 -2 2 9 605.24 4.17 0
 -2 2 10 21.5 0.97 0
 -2 2 11 31.01 1.2 0
 -2 2 14 49.89 1.73 0
 -2 2 15 55.46 1.91 0
 -2 2 16 43.16 1.83 0
 -2 2 17 3 0.86 0
 -2 2 18 0.03 0.73 0
 -1 -15 5 0.66 1.17 0
 -1 -15 6 50.45 2.54 0
 -1 -15 7 20.19 1.93 0
 -1 -15 8 0.45 1.24 0
 -1 -15 9 23.3 2.23 0
 -1 -13 7 67.42 2.71 0
 -1 -13 8 9.67 1.59 0
 -1 -13 9 28.2 2.17 0
 -1 -13 11 2.45 1.42 0
 -1 -13 12 2.7 1.51 0
 -1 -11 8 73.54 2.63 0
 -1 -11 9 93.79 3.04 0
 -1 -11 10 42.54 2.38 0
 -1 -11 11 2.26 1.3 0
 -1 -11 12 9.12 1.53 0
 -1 -11 13 38.56 2.29 0
 -1 -11 14 7.76 1.51 0
 -1 -9 9 6.25 1.05 0
 -1 -9 10 21.34 1.68 0
 -1 -9 11 0.36 0.8 0
 -1 -9 12 14.52 1.66 0
 -1 -9 13 22.87 1.89 0
 -1 -9 14 16.62 1.68 0
 -1 -9 15 17.66 1.96 0
 -1 -9 16 12.51 1.91 0
 -1 -9 17 -1.27 1.45 0
 -1 -7 9 8.42 0.93 0
 -1 -7 10 54.47 2.09 0
 -1 -7 11 18.32 1.5 0
 -1 -7 12 11.92 1.29 0
 -1 -7 13 5.99 1.2 0
 -1 -7 14 19.91 1.81 0
 -1 -7 15 17 1.76 0
 -1 -7 17 0.42 1.1 0
 -1 -7 18 7.37 1.67 0
 -1 -5 12 69.58 2.33 0
 -1 -5 13 134.67 3.31 0
 -1 -5 14 6.38 1.09 0
 -1 -5 15 3.26 1.03 0
 -1 -5 16 4.74 1.2 0
 -1 -5 17 2.23 1.16 0
 -1 -5 18 37.92 2.42 0
 -1 -5 19 2.71 1.5 0
 -1 -3 6 178.49 2.34 0
 -1 -3 7 10.7 0.73 0
 -1 -3 8 965.17 6.17 0
 -1 -3 9 441.4 4.45 0
 -1 -3 12 300.44 4.36 0
 -1 -3 13 40.1 1.84 0
 -1 -3 16 18.92 1.7 0
 -1 -3 17 26.7 1.98 0
 -1 -3 18 2.92 1.16 0
 -1 -3 19 -0.68 0.95 0
 -1 -3 20 35.08 2.35 0
 -1 -1 4 1362.6 4.57 0
 -1 -1 6 587.92 3.74 0
 -1 -1 7 11.88 0.67 0
 -1 -1 9 21.87 0.99 0
 -1 -1 10 2.95 0.59 0
 -1 -1 12 0.73 0.57 0
 -1 -1 13 4.63 0.89 0
 -1 -1 14 54.52 2.02 0
 -1 -1 15 23.74 1.54 0
 -1 -1 16 59.21 2.36 0
 -1 -1 17 46.02 2.16 0
 -1 -1 18 2.91 1.05 0
 -1 -1 20 7.32 1.46 0
 -1 1 4 1323.01 3.87 0
 -1 1 5 134.89 1.46 0
 -1 1 6 569.91 3.31 0
 -1 1 7 11.24 0.62 0
 -1 1 8 0.13 0.34 0
 -1 1 9 22.45 0.92 0
 -1 1 10 2.22 0.55 0
 -1 1 11 33.95 1.32 0
 -1 1 13 4.85 0.83 0
 -1 1 14 54.37 1.93 0
 -1 1 15 25.62 1.55 0
 -1 1 16 65.8 2.29 0
 -1 1 17 44.66 2 0
 -1 1 18 2.16 0.94 0
 -1 1 20 8.58 1.32 0
 -1 3 7 10.07 0.54 0
 -1 3 8 952.08 4.82 0
 -1 3 9 439.88 3.57 0
 -1 3 10 26.71 1.07 0
 -1 3 11 22.19 1 0
 -1 3 13 41.04 1.52 0
 -1 3 14 45.77 1.67 0
 -1 3 15 35.52 1.58 0
 0 -14 5 11.58 1.43 0
 0 -14 6 1.4 0.98 0
 0 -14 7 -0.01 0.99 0
 0 -14 9 22.59 2.06 0
 0 -14 11 25.37 2.15 0
 0 -12 7 32.79 1.94 0
 0 -12 8 0.93 0.93 0
 0 -12 9 0.33 0.98 0
 0 -12 10 14.11 1.72 0
 0 -12 11 -0.11 1.1 0
 0 -12 12 1.86 1.28 0
 0 -12 13 20.97 2.14 0
 0 -12 14 18.89 2.13 0
 0 -10 8 0.51 0.76 0
 0 -10 9 5.96 1.18 0
 0 -10 10 13.84 1.38 0
 0 -10 12 -0.6 0.92 0
 0 -10 13 5.94 1.48 0
 0 -10 14 8.19 1.67 0
 0 -10 15 37 2.52 0
 0 -10 16 2.24 1.61 0
 0 -8 8 1.67 0.66 0
 0 -8 9 3.71 0.86 0
 0 -8 10 2.81 0.84 0
 0 -8 11 7.23 1.19 0
 0 -8 12 17.81 1.46 0
 0 -8 14 9.54 1.45 0
 0 -8 15 8.81 1.57 0
 0 -8 16 1.53 1.3 0
 0 -8 17 22.37 2.23 0
 0 -8 18 25.05 2.36 0
 0 -6 7 6.77 0.73 0
 0 -6 10 23.15 1.41 0
 0 -6 11 13.75 1.17 0
 0 -6 12 88.75 2.73 0
 0 -6 13 26.12 1.81 0
 0 -6 14 6.91 1.24 0
 0 -6 16 48.06 2.47 0
 0 -6 17 19.07 1.91 0
 0 -6 19 12.07 1.74 0
 0 -4 6 3.13 0.54 0
 0 -4 7 54.62 1.5 0
 0 -4 8 327.13 3.83 0
 0 -4 11 5.41 0.84 0
 0 -4 12 4.76 0.86 0
 0 -4 13 19.31 1.41 0
 0 -4 14 4.03 0.94 0
 0 -4 15 13.08 1.37 0
 0 -4 16 0.21 0.85 0
 0 -4 17 31.57 2.1 0
 0 -4 19 24 2.15 0
 0 -2 4 279.15 2.3 0
 0 -2 6 451.79 3.51 0
 0 -2 8 54.79 1.46 0
 0 -2 9 153.93 2.58 0
 0 -2 10 6.92 0.88 0
 0 -2 12 6.65 0.89 0
 0 -2 13 204.35 3.74 0
 0 -2 14 1.51 0.84 0
 0 -2 15 0.63 0.75 0
 0 -2 16 5.9 1.06 0
 0 -2 17 143.54 3.69 0
 0 -2 18 -0.08 0.96 0
 0 -2 19 9.28 1.41 0
 0 -2 20 9.43 1.6 0
 0 0 2 1485.88 3.16 0
 0 0 4 9898.36 11.83 0
 0 0 6 1723.15 6.18 0
 0 0 8 412.25 3.62 0
 0 0 10 75.43 1.8 0
 0 0 14 -0.27 0.63 0
 0 0 16 3.3 0.92 0
 0 0 18 7.5 1.4 0
 0 0 20 0.98 1.15 0
 0 2 4 279.28 1.88 0
 0 2 5 120.29 1.43 0
 0 2 6 446.51 2.97 0
 0 2 7 9.52 0.59 0
 0 2 9 152.46 2.3 0
 0 2 10 8.12 0.76 0
 0 2 13 208.73 3.37 0
 0 2 14 2.2 0.68 0
 0 2 15 0.05 0.67 0
 0 2 16 5.4 1.11 0
 0 2 17 151.3 3.4 0
 1 -15 4 4.74 1.17 0
 1 -15 5 27.52 1.89 0
 1 -15 8 3.88 1.23 0
 1 -15 9 -0.61 1.04 0
 1 -13 5 15.57 1.47 0
 1 -13 6 4.89 1.21 0
 1 -13 7 59.89 2.56 0
 1 -13 8 4.8 1.2 0
 1 -13 9 6.45 1.29 0
 1 -13 10 0.23 1.1 0
 1 -13 11 37.35 2.41 0
 1 -13 12 -1.92 1.04 0
 1 -11 6 12.36 1.33 0
 1 -11 7 27.99 1.73 0
 1 -11 8 7.27 1.19 0
 1 -11 9 23.76 1.76 0
 1 -11 10 44.91 2.26 0
 1 -11 12 2.65 1.34 0
 1 -9 6 14.16 1.02 0
 1 -9 7 6.02 1.01 0
 1 -9 8 28.4 1.53 0
 1 -9 9 4.58 0.98 0
 1 -9 10 5 1.13 0
 1 -9 11 15.57 1.59 0
 1 -9 12 15.99 1.71 0
 1 -9 13 7.24 1.52 0
 1 -9 14 11.56 1.75 0
 1 -9 15 44.95 2.63 0
 1 -9 17 73.19 3.25 0
 1 -7 6 16.87 1.09 0
 1 -7 8 20.03 1.27 0
 1 -7 10 0.64 0.63 0
 1 -7 11 97.08 2.75 0
 1 -7 12 25.72 1.73 0
 1 -7 13 45.59 2.23 0
 1 -7 14 35.44 2.14 0
 1 -7 15 5.16 1.2 0
 1 -7 16 3.24 1.16 0
 1 -7 18 3.59 1.37 0
 1 -5 5 102.49 1.9 0
 1 -5 6 320.32 3.52 0
 1 -5 11 25.26 1.47 0
 1 -5 12 233.52 4.15 0
 1 -5 13 34.47 1.9 0
 1 -5 14 25.05 1.8 0
 1 -5 15 7.62 1.39 0
 1 -5 17 -0.05 0.96 0
 1 -5 18 -0.76 1.01 0
 1 -3 4 123.84 1.7 0
 1 -3 5 2.6 0.42 0
 1 -3 6 78.62 1.61 0
 1 -3 8 19.81 1 0
 1 -3 9 147.11 2.69 0
 1 -3 12 44.18 1.82 0
 1 -3 14 60.69 2.23 0
 1 -3 15 47.13 2.21 0
 1 -3 16 2.74 0.97 0
 1 -3 18 -0.99 1.04 0
 1 -3 19 16.03 1.82 0
 1 -3 20 -0.19 1.12 0
 1 -1 1 7.57 0.26 0
 1 -1 2 16.09 0.46 0
 1 -1 3 -0.08 0.18 0
 1 -1 4 3.97 0.44 0
 1 -1 5 32.71 0.9 0
 1 -1 6 27.36 0.89 0
 1 -1 7 5.63 0.6 0
 1 -1 9 59.31 1.62 0
 1 -1 12 35.79 1.5 0
 1 -1 13 22.84 1.37 0
 1 -1 14 1.14 0.77 0
 1 -1 15 4.15 1.07 0
 1 -1 16 177.45 3.83 0
 1 -1 17 1.4 0.94 0
 1 -1 18 72.14 2.81 0
 1 -1 19 0.53 0.97 0
 1 -1 20 50.78 2.57 0
 1 1 2 15.84 0.41 0
 1 1 3 0.1 0.17 0
 1 1 5 32.37 0.85 0
 1 1 6 27.59 0.88 0
 1 1 7 5.85 0.57 0
 1 1 8 7.56 0.66 0
 1 1 9 57.32 1.51 0
 1 1 12 35.99 1.48 0
 1 1 13 23.9 1.36 0
 1 1 14 1.02 0.66 0
 1 1 15 3.37 0.99 0
 1 1 17 0.14 0.82 0
 1 1 18 71.08 2.65 0
 1 1 19 0.09 0.99 0
 1 3 9 147.3 2.27 0
 1 3 10 0.35 0.39 0
 1 3 12 44.91 1.57 0
 2 -14 4 21.79 1.6 0
 2 -14 5 -0.54 0.87 0
 2 -14 6 44.9 2.19 0
 2 -14 7 65.77 2.6 0
 2 -14 8 0.42 0.99 0
 2 -14 9 50.92 2.51 0
 2 -14 10 1.68 1.14 0
 2 -14 11 -0.21 1.14 0
 2 -12 4 0.31 0.8 0
 2 -12 5 1.18 0.87 0
 2 -12 6 0.18 0.79 0
 2 -12 7 33.5 1.85 0
 2 -12 8 10.79 1.41 0
 2 -12 9 41.87 2.24 0
 2 -12 10 13.73 1.64 0
 2 -12 11 0.95 1.06 0
 2 -12 12 4.84 1.52 0
 2 -12 13 11.47 1.71 0
 2 -12 14 23.84 2.14 0
 2 -10 5 21.76 1.25 0
 2 -10 6 2.29 0.73 0
 2 -10 7 4.24 0.91 0
 2 -10 8 44.79 2.02 0
 2 -10 9 3.25 0.92 0
 2 -10 10 4.76 1.05 0
 2 -10 11 11.73 1.43 0
 2 -10 12 27.45 2.01 0
 2 -10 15 10.77 1.66 0
 2 -10 16 1.51 1.28 0
 2 -8 7 0.86 0.7 0
 2 -8 8 1.92 0.71 0
 2 -8 9 34.93 1.69 0
 2 -8 10 3.55 0.9 0
 2 -8 11 14.95 1.41 0
 2 -8 12 7.57 1.32 0
 2 -8 13 12.52 1.62 0
 2 -8 14 4.01 1.22 0
 2 -8 15 38.84 2.25 0
 2 -8 16 16.6 1.92 0
 2 -6 4 47.41 1.28 0
 2 -6 6 92.4 2.03 0
 2 -6 7 73.17 1.93 0
 2 -6 10 11.43 1.17 0
 2 -6 11 6.23 1.06 0
 2 -6 12 24.24 1.64 0
 2 -6 13 40.95 1.99 0
 2 -6 14 21.17 1.75 0
 2 -6 17 -0.03 1.05 0
 2 -6 18 3.64 1.53 0
 2 -6 19 32.1 2.48 0
 2 -4 4 507.94 3.62 0
 2 -4 5 42.58 1.21 0
 2 -4 6 1.1 0.4 0
 2 -4 8 765.61 5.81 0
 2 -4 11 0.21 0.71 0
 2 -4 12 181.91 3.55 0
 2 -4 15 43.78 2.23 0
 2 -4 16 1.47 0.98 0
 2 -4 17 8.28 1.47 0
 2 -4 18 12.7 1.7 0
 2 -2 0 618.57 1.75 0
 2 -2 1 559.04 2.15 0
 2 -2 2 480.07 2.4 0
 2 -2 3 0.31 0.24 0
 2 -2 4 386.83 2.8 0
 2 -2 5 48.29 1.12 0
 2 -2 7 70.8 1.6 0
 2 -2 8 0.15 0.46 0
 2 -2 9 10.05 0.9 0
 2 -2 11 2.09 0.6 0
 2 -2 12 2 0.65 0
 2 -2 13 0.67 0.63 0
 2 -2 14 56.16 2.19 0
 2 -2 15 4.23 1.09 0
 2 -2 16 30.04 1.87 0
 2 -2 17 33.95 2.09 0
 2 -2 18 0.54 1.19 0
 2 -2 19 0.76 1.02 0
 2 -2 20 0.59 1.3 0
 2 0 2 24.73 0.55 0
 2 0 4 4893.79 9.15 0
 2 0 6 725.95 4.31 0
 2 0 8 719.29 4.98 0
 2 0 14 10.51 1.21 0
 2 0 16 232.86 4.42 0
 2 0 18 32.49 2.04 0
 2 0 20 29.12 2.11 0
 2 2 6 16.08 0.74 0
 2 2 7 69.52 1.47 0
 2 2 8 -0.06 0.34 0
 2 2 12 1.38 0.61 0
 2 2 13 0.28 0.55 0
 2 2 14 59.56 2.07 0
 2 2 15 4 0.99 0
 2 2 16 28.53 1.57 0
 3 -13 3 23.81 1.45 0
 3 -13 4 0.63 0.72 0
 3 -13 5 4.68 0.98 0
 3 -13 6 13.61 1.42 0
 3 -13 7 7.88 1.21 0
 3 -13 8 7.97 1.37 0
 3 -13 10 1.04 1.07 0
 3 -13 11 7.76 1.57 0
 3 -13 12 9.28 1.51 0
 3 -11 4 88.31 2.33 0
 3 -11 5 -0.12 0.62 0
 3 -11 6 6.73 1 0
 3 -11 8 78.24 2.58 0
 3 -11 9 3.52 1.02 0
 3 -11 10 4.98 1.26 0
 3 -11 11 54.86 2.45 0
 3 -11 12 48.51 2.53 0
 3 -11 13 1.29 1.13 0
 3 -11 14 1.02 1.34 0
 3 -11 15 92.36 3.49 0
 3 -9 6 3.39 0.74 0
 3 -9 7 14.57 1.18 0
 3 -9 8 1.15 0.68 0
 3 -9 9 6.99 1.12 0
 3 -9 11 25.78 1.68 0
 3 -9 12 -0.71 1.05 0
 3 -9 13 0.27 0.97 0
 3 -9 14 0.72 1.06 0
 3 -9 15 68.02 3.01 0
 3 -9 16 7.12 1.46 0
 3 -7 4 50.85 1.46 0
 3 -7 6 20.08 1.06 0
 3 -7 8 38.96 1.63 0
 3 -7 9 5.03 0.94 0
 3 -7 10 4.1 0.85 0
 3 -7 11 37.72 1.86 0
 3 -7 12 2.78 1.06 0
 3 -7 13 -0.02 0.77 0
 3 -7 14 1.94 1.19 0
 3 -7 18 4.62 1.41 0
 3 -5 2 12.7 0.61 0
 3 -5 4 376.78 3.31 0
 3 -5 6 19.87 0.98 0
 3 -5 7 18.41 1.06 0
 3 -5 10 64.9 2.1 0
 3 -5 11 -0.34 0.57 0
 3 -5 12 4.99 0.97 0
 3 -5 13 33.29 1.89 0
 3 -5 14 0.32 0.79 0
 3 -5 15 1.14 1.04 0
 3 -5 16 14.23 1.62 0
 3 -5 17 24.88 2.1 0
 3 -5 18 2.34 1.17 0
 3 -5 19 0.55 1.3 0
 3 -3 0 337.87 1.58 0
 3 -3 2 28.39 0.71 0
 3 -3 3 1404 5.12 0
 3 -3 4 380.24 2.97 0
 3 -3 5 72.6 1.46 0
 3 -3 6 26.09 1.01 0
 3 -3 7 395.17 3.86 0
 3 -3 8 246.13 3.28 0
 3 -3 13 2.69 0.8 0
 3 -3 14 1.14 0.79 0
 3 -3 15 33.68 2 0
 3 -3 16 46.01 2.36 0
 3 -3 17 1.31 0.99 0
 3 -3 19 14.18 1.87 0
 3 -1 1 530.45 2.09 0
 3 -1 2 678.88 2.85 0
 3 -1 3 538.68 2.93 0
 3 -1 4 795.6 3.97 0
 3 -1 5 24.06 0.81 0
 3 -1 6 401.59 3.39 0
 3 -1 7 153.78 2.31 0
 3 -1 9 1.61 0.56 0
 3 -1 11 16.32 1.13 0
 3 -1 12 -0.05 0.5 0
 3 -1 13 9.75 1.16 0
 3 -1 15 4.54 0.95 0
 3 -1 16 86.18 2.83 0
 3 -1 17 9.41 1.35 0
 3 -1 19 0.89 1.04 0
 3 1 4 805.67 3.9 0
 3 1 5 24.64 0.85 0
 3 1 6 395.27 3.28 0
 3 1 7 154.73 2.23 0
 3 1 8 29.52 1.11 0
 3 1 9 2.26 0.53 0
 3 1 11 14.83 1.09 0
 3 1 12 0.34 0.65 0
 3 1 13 8.99 1.04 0
 3 1 14 34.5 1.73 0
 3 1 15 4.58 0.95 0
 3 1 16 89.4 2.81 0
 3 1 17 9.28 1.32 0
 4 -12 2 5.11 0.8 0
 4 -12 4 50 1.82 0
 4 -12 5 1.65 0.72 0
 4 -12 6 -0.85 0.67 0
 4 -12 7 6.02 1.17 0
 4 -12 8 4.49 1.12 0
 4 -12 9 32.15 1.93 0
 4 -12 11 -0.27 1.12 0
 4 -12 12 -0.68 1.02 0
 4 -12 13 64.46 2.86 0
 4 -10 0 26.68 1.01 0
 4 -10 1 3.66 0.59 0
 4 -10 2 0.57 0.44 0
 4 -10 5 -0.48 0.59 0
 4 -10 6 3.95 0.8 0
 4 -10 7 12.07 1.25 0
 4 -10 8 11.21 1.26 0
 4 -10 9 27.83 1.69 0
 4 -10 10 11.15 1.47 0
 4 -10 12 25.34 1.92 0
 4 -10 13 25.28 2.04 0
 4 -10 14 15.44 1.75 0
 4 -10 15 139.23 4.04 0
 4 -8 1 72.53 1.47 0
 4 -8 2 29.97 1.07 0
 4 -8 4 175.56 2.72 0
 4 -8 5 23.17 1.19 0
 4 -8 7 136.48 2.85 0
 4 -8 8 53.13 1.94 0
 4 -8 9 65.87 2.19 0
 4 -8 10 11.42 1.33 0
 4 -8 11 3.89 0.99 0
 4 -8 13 21.32 1.83 0
 4 -8 14 0.57 0.94 0
 4 -8 15 45.09 2.54 0
 4 -8 16 21.41 2.04 0
 4 -8 17 32 2.42 0
 4 -6 -1 277.93 1.85 0
 4 -6 0 47.44 0.93 0
 4 -6 1 31.74 0.84 0
 4 -6 2 9.07 0.59 0
 4 -6 3 249.15 2.67 0
 4 -6 4 52.45 1.36 0
 4 -6 5 10.49 0.77 0
 4 -6 6 77.16 1.88 0
 4 -6 9 108.21 2.59 0
 4 -6 10 12.17 1.24 0
 4 -6 11 33.09 1.77 0
 4 -6 12 144.64 3.38 0
 4 -6 13 107.98 3.11 0
 4 -6 15 23.54 1.91 0
 4 -6 16 30.48 2.14 0
 4 -6 17 2.68 1.46 0
 4 -6 18 3.75 1.3 0
 4 -4 0 27.25 0.56 0
 4 -4 1 88.99 1.12 0
 4 -4 2 8.96 0.49 0
 4 -4 3 238.97 2.32 0
 4 -4 4 0.2 0.33 0
 4 -4 5 91.08 1.75 0
 4 -4 10 50.41 1.82 0
 4 -4 11 -0.66 0.59 0
 4 -4 13 132.95 3.3 0
 4 -4 15 40 2.13 0
 4 -4 16 12.79 1.5 0
 4 -4 17 33.78 2.2 0
 4 -4 19 26.19 2.16 0
 4 -2 1 78.4 0.94 0
 4 -2 2 43.17 0.85 0
 4 -2 3 683.91 3.53 0
 4 -2 4 21.4 0.79 0
 4 -2 5 203.64 2.35 0
 4 -2 6 0.36 0.38 0
 4 -2 7 9.68 0.69 0
 4 -2 8 64.21 1.67 0
 4 -2 11 12.43 1.08 0
 4 -2 12 11.36 1.12 0
 4 -2 13 24.1 1.45 0
 4 -2 15 0.66 0.94 0
 4 -2 16 73.35 2.77 0
 4 -2 17 6.87 1.37 0
 4 -2 18 8.7 1.51 0
 4 -2 19 1.2 1.37 0
 4 0 4 265.06 2.4 0
 4 0 6 12.38 0.72 0
 4 0 8 96.74 2 0
 4 0 12 -0.16 0.55 0
 4 0 14 25.48 1.54 0
 4 0 18 35.09 2.17 0
 5 -13 9 18.83 1.68 0
 5 -13 10 51.04 2.36 0
 5 -13 11 14.72 1.7 0
 5 -11 4 7.03 0.93 0
 5 -11 5 13.63 1.12 0
 5 -11 8 20.92 1.51 0
 5 -11 9 15.61 1.45 0
 5 -11 10 8.57 1.23 0
 5 -11 11 6.9 1.28 0
 5 -11 13 9.15 1.63 0
 5 -11 14 0.22 1.09 0
 5 -9 -1 6.29 0.49 0
 5 -9 0 14.06 0.67 0
 5 -9 1 66.32 1.42 0
 5 -9 2 2.78 0.52 0
 5 -9 3 -0.12 0.47 0
 5 -9 4 18.39 1.06 0
 5 -9 6 3.12 0.69 0
 5 -9 7 31.25 1.53 0
 5 -9 8 10.27 1.13 0
 5 -9 9 5.51 0.98 0
 5 -9 10 1.45 0.84 0
 5 -9 11 0.61 0.94 0
 5 -9 12 22.13 1.84 0
 5 -9 13 9.5 1.5 0
 5 -9 14 -1.64 0.9 0
 5 -9 15 0.14 1.09 0
 5 -9 16 8.8 1.74 0
 5 -7 -2 3.76 0.24 0
 5 -7 -1 54.42 0.87 0
 5 -7 0 178.63 1.76 0
 5 -7 1 53.97 1.12 0
 5 -7 2 103.68 1.69 0
 5 -7 3 29.12 1.03 0
 5 -7 4 28.27 1.1 0
 5 -7 5 104.78 2.12 0
 5 -7 8 30.83 1.53 0
 5 -7 9 20.08 1.37 0
 5 -7 10 25.74 1.61 0
 5 -7 11 2.47 0.93 0
 5 -7 12 21.63 1.74 0
 5 -7 13 19.8 1.76 0
 5 -7 14 2.8 1.22 0
 5 -7 15 1.92 1.13 0
 5 -7 16 4.25 1.26 0
 5 -7 17 19.72 2.09 0
 5 -5 0 114.2 1.15 0
 5 -5 1 49.95 0.94 0
 5 -5 2 5.66 0.47 0
 5 -5 3 0.51 0.33 0
 5 -5 5 25.52 1 0
 5 -5 7 76.09 1.94 0
 5 -5 9 34.02 1.51 0
 5 -5 10 0.23 0.75 0
 5 -5 11 13.53 1.27 0
 5 -5 12 116.29 3.01 0
 5 -5 13 59.21 2.3 0
 5 -5 15 -0.85 0.81 0
 5 -5 16 17.15 1.69 0
 5 -5 17 28.23 2.15 0
 5 -5 18 -0.75 1.18 0
 5 -3 1 704.72 2.89 0
 5 -3 2 50.99 0.98 0
 5 -3 3 18.24 0.7 0
 5 -3 4 0.07 0.3 0
 5 -3 5 271.97 2.88 0
 5 -3 6 2.79 0.49 0
 5 -3 7 382.08 3.91 0
 5 -3 10 51.1 1.8 0
 5 -3 11 226.28 3.84 0
 5 -3 12 52.58 2.09 0
 5 -3 13 59.08 2.26 0
 5 -3 14 48.94 2.17 0
 5 -3 15 63.98 2.6 0
 5 -3 16 6.13 1.41 0
 5 -3 17 33.88 2.26 0
 5 -1 3 74.31 1.24 0
 5 -1 4 242.67 2.4 0
 5 -1 5 244.07 2.63 0
 5 -1 6 741.09 4.86 0
 5 -1 7 242.87 3.04 0
 5 -1 10 146.06 2.81 0
 5 -1 11 149.09 3.04 0
 5 -1 12 9.31 1.08 0
 5 -1 13 -0.28 0.57 0
 5 -1 14 60.68 2.32 0
 5 -1 15 50.18 2.24 0
 5 -1 16 7.09 1.29 0
 5 -1 17 0.42 0.93 0
 5 -1 18 60.66 2.67 0
 5 1 7 246.08 2.95 0
 5 1 8 0.25 0.49 0
 5 1 11 146.95 2.97 0
 5 1 12 9.5 1.08 0
 5 1 13 -0.58 0.58 0
 6 -12 8 23.96 1.6 0
 6 -12 9 2.29 0.95 0
 6 -12 11 1.04 1.02 0
 6 -10 2 1.55 0.48 0
 6 -10 3 2.27 0.56 0
 6 -10 5 25.55 1.29 0
 6 -10 6 3.87 0.76 0
 6 -10 7 7 1.05 0
 6 -10 8 3.17 0.91 0
 6 -10 9 2.28 0.84 0
 6 -10 10 9.21 1.34 0
 6 -10 11 1.82 1.13 0
 6 -10 12 5.26 1.29 0
 6 -10 13 14.25 1.73 0
 6 -10 14 3.95 1.44 0
 6 -10 15 38.98 2.43 0
 6 -8 0 -0.3 0.21 0
 6 -8 2 65.85 1.39 0
 6 -8 3 199.7 2.6 0
 6 -8 4 52.61 1.48 0
 6 -8 5 61.19 1.72 0
 6 -8 8 62.57 2.08 0
 6 -8 9 139.08 3.09 0
 6 -8 10 10.39 1.22 0
 6 -8 11 106.37 3.02 0
 6 -8 12 17.16 1.66 0
 6 -8 13 167.36 4 0
 6 -8 14 5.83 1.43 0
 6 -8 16 21.45 2.08 0
 6 -6 0 91.76 1.07 0
 6 -6 1 33.63 0.8 0
 6 -6 3 281.4 2.78 0
 6 -6 4 6.8 0.67 0
 6 -6 5 47.02 1.4 0
 6 -6 6 43.6 1.46 0
 6 -6 8 16.69 1.15 0
 6 -6 9 85.26 2.36 0
 6 -6 12 2.19 0.89 0
 6 -6 14 10.26 1.42 0
 6 -6 15 -0.2 1.02 0
 6 -6 16 0.6 1.18 0
 6 -6 17 14.19 1.78 0
 6 -4 0 121.11 1.03 0
 6 -4 1 0.3 0.18 0
 6 -4 3 25.88 0.84 0
 6 -4 4 0.32 0.39 0
 6 -4 6 14.47 0.85 0
 6 -4 7 23.61 1.17 0
 6 -4 9 32.03 1.41 0
 6 -4 10 6.29 0.87 0
 6 -4 11 4.8 0.91 0
 6 -4 12 22.85 1.56 0
 6 -4 13 4.8 1.02 0
 6 -4 14 30.21 1.91 0
 6 -4 15 14.84 1.72 0
 6 -4 16 0.1 1 0
 6 -4 17 3.24 1.2 0
 6 -2 2 149.95 1.62 0
 6 -2 3 506.77 3.26 0
 6 -2 5 0.12 0.31 0
 6 -2 6 72.84 1.65 0
 6 -2 7 301.13 3.5 0
 6 -2 10 10.15 0.9 0
 6 -2 13 2.34 0.82 0
 6 -2 14 45.52 2.14 0
 6 -2 16 1.3 1.03 0
 6 -2 17 0.48 0.96 0
 6 -2 18 6.51 1.43 0
 6 0 6 7.66 0.67 0
 6 0 10 2.68 0.73 0
 6 0 12 314.65 4.6 0
 7 -11 9 1.36 0.97 0
 7 -11 10 6.93 1.12 0
 7 -11 11 0.07 1.04 0
 7 -11 12 3.64 1.22 0
 7 -11 13 12.58 1.51 0
 7 -9 3 5.74 0.65 0
 7 -9 4 10.54 0.81 0
 7 -9 6 22.71 1.25 0
 7 -9 9 1.25 0.88 0
 7 -9 10 11.2 1.31 0
 7 -9 11 16.48 1.58 0
 7 -9 12 9.04 1.31 0
 7 -9 13 4.97 1.22 0
 7 -9 14 5.31 1.3 0
 7 -9 15 20.15 1.97 0
 7 -7 0 30.36 0.6 0
 7 -7 1 0.16 0.24 0
 7 -7 2 20.73 0.77 0
 7 -7 4 107.49 2 0
 7 -7 5 12.96 0.89 0
 7 -7 7 249.61 3.65 0
 7 -7 8 9.28 1.03 0
 7 -7 9 14.48 1.21 0
 7 -7 10 26.68 1.59 0
 7 -7 11 57.33 2.29 0
 7 -7 12 1.4 0.9 0
 7 -7 13 18.36 1.74 0
 7 -7 14 6.65 1.31 0
 7 -7 15 4.42 1.2 0
 7 -7 16 1.6 1.15 0
 7 -5 1 29.13 0.68 0
 7 -5 2 172 1.87 0
 7 -5 4 124.21 2.01 0
 7 -5 6 0.2 0.43 0
 7 -5 8 0.39 0.64 0
 7 -5 10 2.14 0.72 0
 7 -5 11 -0.25 0.62 0
 7 -5 12 27.2 1.78 0
 7 -5 13 3.4 0.98 0
 7 -5 15 17.03 1.57 0
 7 -5 17 -0.47 1.26 0
 7 -3 3 484.02 3.33 0
 7 -3 4 226.68 2.53 0
 7 -3 5 337.91 3.33 0
 7 -3 6 27.67 1.13 0
 7 -3 9 96.32 2.36 0
 7 -3 10 4.94 0.81 0
 7 -3 12 1.21 0.89 0
 7 -3 13 0.43 0.89 0
 7 -3 15 10.01 1.46 0
 7 -3 16 27.12 1.95 0
 7 -3 17 1.75 1.28 0
 7 -3 18 10.06 1.56 0
 7 -1 6 684.81 4.94 0
 7 -1 7 0.11 0.48 0
 7 -1 9 18.19 1.16 0
 7 -1 10 115.78 2.64 0
 7 -1 11 28.91 1.57 0
 7 -1 12 42.39 1.8 0
 7 -1 13 0.23 0.71 0
 7 -1 14 -0.37 0.75 0
 7 -1 15 28.76 1.81 0
 8 -10 7 -0.04 0.73 0
 8 -10 8 -0.12 0.64 0
 8 -10 9 48.02 2 0
 8 -10 10 3.1 0.93 0
 8 -10 13 10.92 1.51 0
 8 -8 3 10.54 0.67 0
 8 -8 4 2.04 0.51 0
 8 -8 7 7.08 0.89 0
 8 -8 8 4.79 0.9 0
 8 -8 9 0.08 0.64 0
 8 -8 10 0.44 0.73 0
 8 -8 11 17.7 1.53 0
 8 -8 12 0.06 1.01 0
 8 -8 14 -0.34 1.13 0
 8 -8 15 9.67 1.52 0
 8 -6 2 8.25 0.51 0
 8 -6 3 67.1 1.39 0
 8 -6 4 33.69 1.11 0
 8 -6 5 13.73 0.88 0
 8 -6 9 3.01 0.74 0
 8 -6 10 13.29 1.21 0
 8 -6 11 30.63 1.72 0
 8 -6 12 18 1.46 0
 8 -6 13 14.21 1.54 0
 8 -6 14 14.57 1.67 0
 8 -6 15 12.09 1.55 0
 8 -6 16 27.92 2.07 0
 8 -4 3 262.1 2.54 0
 8 -4 4 128.2 1.99 0
 8 -4 5 8.63 0.74 0
 8 -4 6 42.16 1.37 0
 8 -4 8 1.19 0.55 0
 8 -4 9 2.56 0.68 0
 8 -4 10 49.09 1.93 0
 8 -4 11 0.93 0.72 0
 8 -4 12 -0.12 0.7 0
 8 -4 13 16.84 1.43 0
 8 -4 14 8.45 1.33 0
 8 -4 15 3.72 1.31 0
 8 -4 16 -0.12 0.99 0
 8 -4 17 33.81 2.27 0
 8 -2 6 4.51 0.6 0
 8 -2 8 1.93 0.56 0
 8 -2 9 0.72 0.62 0
 8 -2 13 19.23 1.56 0
 8 -2 14 15.89 1.53 0
 9 -9 7 21.98 1.28 0
 9 -9 8 -0.69 0.67 0
 9 -9 9 4.77 0.88 0
 9 -9 10 40.87 1.9 0
 9 -9 11 45.11 2.09 0
 9 -9 12 3.05 1.1 0
 9 -9 13 23.13 1.82 0
 9 -9 14 17.12 1.78 0
 9 -7 3 13.27 0.69 0
 9 -7 4 9.12 0.7 0
 9 -7 8 11.61 1.11 0
 9 -7 9 72.24 2.21 0
 9 -7 10 0.63 0.87 0
 9 -7 11 29.67 1.76 0
 9 -7 12 3.19 1.02 0
 9 -7 14 2.39 1.28 0
 9 -7 15 6.58 1.29 0
 9 -5 4 1.32 0.4 0
 9 -5 5 1.09 0.52 0
 9 -5 7 0.51 0.47 0
 9 -5 8 7.7 0.93 0
 9 -5 9 1.18 0.76 0
 9 -5 10 49.25 1.92 0
 9 -5 11 1.45 0.96 0
 9 -5 12 1.96 0.9 0
 9 -5 13 8.33 1.25 0
 9 -5 14 96.96 3.11 0
 9 -5 15 37.62 2.28 0
 9 -3 8 3.39 0.78 0
 9 -3 9 26.37 1.35 0
 9 -3 10 2.4 0.7 0
 9 -3 11 59.52 2.18 0
 9 -3 12 2.03 0.93 0
 9 -3 13 14.8 1.56 0
 10 -8 8 0.72 0.72 0
 10 -8 10 8.51 1.15 0
 10 -8 11 98.72 2.81 0
 10 -8 12 -0.62 0.78 0
 10 -8 14 4.29 1.19 0
 10 -6 7 34.13 1.43 0
 10 -6 8 0.25 0.63 0
 10 -6 9 11.54 1.13 0
 10 -6 10 11.94 1.24 0
 10 -6 11 13.29 1.41 0
 10 -6 12 1.31 0.87 0
 10 -6 13 19.29 1.62 0
 10 -6 14 4.37 1.12 0
 -5 -1 9 25.27 0.59 0
 -5 -1 11 4.34 0.38 0
 -5 1 9 25.21 0.42 0
 -4 -2 12 0.37 0.37 0
 -4 -2 13 6.97 0.6 0
 -4 0 6 63.28 0.59 0
 -4 0 10 137.44 1.47 0
 -4 2 8 46.43 0.71 0
 -4 2 9 68.34 0.92 0
 -4 2 10 30.74 0.69 0
 -4 2 11 111.67 1.38 0
 -4 2 12 0.81 0.23 0
 -3 -5 16 -0.55 0.32 0
 -3 -3 15 -0.8 0.32 0
 -3 -1 10 509.04 3.25 0
 -3 -1 12 0.14 0.35 0
 -3 1 5 0.14 0.1 0
 -3 1 6 5.16 0.25 0
 -3 1 11 61.89 1.2 0
 -3 1 12 0.18 0.31 0
 -3 1 13 39.9 1.09 0
 -3 3 11 7.65 0.54 0
 -3 3 12 112.97 1.73 0
 -3 3 14 0.03 0.17 0
 -2 -4 16 12.93 1.12 0
 -2 -2 15 59.36 1.73 0
 -2 0 8 82.31 1.24 0
 -2 0 10 31.7 0.94 0
 -2 2 6 154.77 1.35 0
 -2 2 7 4.92 0.34 0
 -2 2 8 87.25 1.25 0
 -2 2 9 592.38 3.36 0
 -2 2 10 20.46 0.75 0
 -2 2 11 29.6 0.93 0
 -2 2 12 5.32 0.57 0
 -2 2 13 156.81 2.27 0
 -2 4 8 1.99 0.35 0
 -2 4 10 58.36 1.26 0
 -2 4 12 8.88 0.69 0
 -1 -7 17 0.76 1.15 0
 -1 -7 18 9.39 1.32 0
 -1 -5 16 4.47 1.03 0
 -1 -5 17 5.09 1.06 0
 -1 -3 14 48.3 1.63 0
 -1 -3 15 35.87 1.57 0
 -1 -3 16 17.68 1.31 0
 -1 -3 17 29.53 1.52 0
 -1 -1 10 3.01 0.48 0
 -1 -1 14 54.35 1.63 0
 -1 -1 15 26.87 1.28 0
 -1 -1 16 62.15 1.84 0
 -1 1 4 1314.3 3.18 0
 -1 1 5 137.83 1.24 0
 -1 1 6 577.23 2.77 0
 -1 1 7 11.57 0.51 0
 -1 1 8 0.02 0.27 0
 -1 1 9 22.94 0.79 0
 -1 1 10 2.6 0.42 0
 -1 1 11 34.98 1.08 0
 -1 1 12 0.84 0.48 0
 -1 1 15 25.69 1.2 0
 -1 3 5 923.7 3.62 0
 -1 3 6 177.77 1.72 0
 -1 3 7 9.67 0.53 0
 -1 3 8 939.3 4.43 0
 -1 3 9 440.61 3.25 0
 -1 3 10 26.66 0.94 0
 -1 3 11 22.84 0.93 0
 -1 3 12 311.01 3.24 0
 -1 3 15 36.75 1.34 0
 -1 5 8 513.25 3.67 0
 -1 5 10 10.6 0.77 0
 -1 5 11 27.59 1.11 0
 -1 5 13 132.32 2.41 0
 -1 5 14 5.45 0.74 0
 0 -8 18 22.54 1.84 0
 0 -6 17 18.97 1.61 0
 0 -6 18 25.99 1.87 0
 0 -6 19 12.41 1.53 0
 0 -4 15 13.3 1.21 0
 0 -4 16 -0.36 0.76 0
 0 -4 18 12.89 1.43 0
 0 -2 14 2.69 0.79 0
 0 -2 15 0.6 0.68 0
 0 -2 16 7.94 1.09 0
 0 0 6 1659.21 5.08 0
 0 0 8 418.3 3.13 0
 0 0 14 0.54 0.5 0
 0 0 16 5.04 0.88 0
 0 2 2 720.35 2.44 0
 0 2 3 27.97 0.57 0
 0 2 4 284.53 1.87 0
 0 2 5 120.35 1.37 0
 0 2 6 452.31 2.76 0
 0 2 7 9.14 0.53 0
 0 2 9 157.24 2.07 0
 0 2 10 6.79 0.63 0
 0 2 14 2.34 0.6 0
 0 2 15 0.44 0.54 0
 0 2 16 5.66 0.83 0
 0 2 18 -0.33 0.41 0
 0 4 5 35.57 0.91 0
 0 4 6 3.46 0.45 0
 0 4 8 323.83 2.95 0
 0 4 9 8.3 0.68 0
 0 4 10 14.15 0.84 0
 0 4 13 19.15 1.08 0
 0 4 14 4.87 0.72 0
 0 4 15 12.03 1.03 0
 0 4 16 0.48 0.61 0
 0 6 11 14.47 0.99 0
 0 6 12 87.75 2.09 0
 0 6 13 24.16 1.29 0
 0 6 14 5.53 0.82 0
 1 -7 17 96.1 2.97 0
 1 -7 18 4.4 1.41 0
 1 -5 16 18.14 1.55 0
 1 -5 17 -0.47 0.95 0
 1 -5 18 1.43 1.05 0
 1 -5 19 -0.65 0.95 0
 1 -3 13 150.8 2.86 0
 1 -3 14 60 1.96 0
 1 -3 15 47.8 1.93 0
 1 -3 16 2.3 1.01 0
 1 -3 17 9.76 1.23 0
 1 -3 18 -0.12 0.96 0
 1 -3 19 17.21 1.57 0
 1 -1 9 57.17 1.39 0
 1 -1 10 34.86 1.18 0
 1 -1 11 0.76 0.55 0
 1 -1 13 22.19 1.26 0
 1 -1 14 1.9 0.73 0
 1 -1 15 3.46 0.85 0
 1 -1 16 180.31 3.39 0
 1 -1 17 0.13 0.82 0
 1 -1 18 74.39 2.36 0
 1 -1 19 1.3 0.82 0
 1 1 0 1996.36 2.95 0
 1 1 2 15.47 0.41 0
 1 1 3 0.38 0.23 0
 1 1 5 31.41 0.77 0
 1 1 7 7.36 0.54 0
 1 1 8 8 0.58 0
 1 1 9 58.37 1.35 0
 1 1 10 34.77 1.17 0
 1 1 11 0.98 0.46 0
 1 1 13 23.88 1.17 0
 1 1 14 1.67 0.61 0
 1 1 15 3.43 0.76 0
 1 1 16 189.21 3.41 0
 1 1 17 0.59 0.72 0
 1 1 18 68.77 2.21 0
 1 3 3 175.31 1.66 0
 1 3 4 125.7 1.51 0
 1 3 5 2.9 0.39 0
 1 3 6 75.88 1.33 0
 1 3 7 3.35 0.47 0
 1 3 8 18.41 0.84 0
 1 3 9 151.12 2.2 0
 1 3 10 0.35 0.41 0
 1 3 13 151.64 2.67 0
 1 3 14 62.81 1.85 0
 1 3 15 46.15 1.7 0
 1 3 16 2.95 0.89 0
 1 3 17 11.6 1.22 0
 1 5 5 109.03 1.79 0
 1 5 7 148.82 2.2 0
 1 5 8 222.25 2.76 0
 1 5 9 3.93 0.58 0
 1 5 13 34.41 1.46 0
 1 5 14 25.4 1.37 0
 1 5 15 10.04 1.12 0
 1 5 16 18.36 1.34 0
 1 5 17 0.53 0.7 0
 2 -8 17 19.48 1.92 0
 2 -8 18 2.29 1.24 0
 2 -6 16 15.85 1.64 0
 2 -6 17 1.45 0.99 0
 2 -6 18 3.6 1.3 0
 2 -6 19 33.34 2.23 0
 2 -4 14 176.47 3.47 0
 2 -4 15 44.99 1.95 0
 2 -4 16 1.13 0.9 0
 2 -4 17 8.67 1.44 0
 2 -4 18 16.09 1.65 0
 2 -4 19 10.95 1.54 0
 2 -4 20 0.5 1.02 0
 2 -2 12 1.03 0.52 0
 2 -2 13 0.37 0.6 0
 2 -2 14 61.31 2.07 0
 2 -2 15 5.88 1.07 0
 2 -2 16 31.53 1.76 0
 2 -2 17 35.65 1.88 0
 2 -2 18 -0.63 0.93 0
 2 -2 19 0.53 0.89 0
 2 -2 20 1.67 1.13 0
 2 0 0 5754.4 5.01 0
 2 0 4 4892.18 8.48 0
 2 0 6 729.13 3.98 0
 2 0 14 11.32 1.1 0
 2 0 16 223.44 3.83 0
 2 0 18 35.14 1.83 0
 2 2 1 565.23 2.42 0
 2 2 2 482.24 2.43 0
 2 2 3 0.43 0.26 0
 2 2 4 395.74 2.61 0
 2 2 5 50.07 1.05 0
 2 2 6 15.86 0.71 0
 2 2 7 68.4 1.38 0
 2 2 8 -0.02 0.41 0
 2 2 10 39.02 1.3 0
 2 2 12 0.48 0.61 0
 2 2 13 0.02 0.51 0
 2 2 14 59.06 1.9 0
 2 2 15 3.78 0.93 0
 2 2 16 28.42 1.58 0
 2 2 17 34.16 1.75 0
 2 2 18 0.15 0.82 0
 2 2 19 1.13 1.03 0
 2 4 4 514.21 3.41 0
 2 4 5 42.93 1.08 0
 2 4 6 0.62 0.41 0
 2 4 8 764.57 5.01 0
 2 4 9 340.39 3.55 0
 2 4 12 182.13 3.02 0
 2 4 13 187.86 3.26 0
 2 4 14 184.63 3.38 0
 2 4 15 39.35 1.73 0
 2 4 16 1.31 0.8 0
 2 4 17 9.19 1.29 0
 2 4 18 13.06 1.4 0
 2 4 19 12.16 1.37 0
 2 6 6 91.24 1.83 0
 2 6 7 74.42 1.78 0
 2 6 10 10.2 0.93 0
 2 6 11 5.12 0.88 0
 2 6 12 26.69 1.4 0
 2 6 14 22.77 1.42 0
 2 6 16 13.09 1.39 0
 2 6 17 1.43 1 0
 2 6 18 2.29 0.91 0
 3 -7 16 1.74 1.14 0
 3 -7 17 33.54 2.17 0
 3 -7 18 8.09 1.59 0
 3 -5 15 1.03 0.86 0
 3 -5 16 14.15 1.63 0
 3 -5 17 25.35 1.94 0
 3 -5 18 2.26 1.3 0
 3 -5 19 1.28 1.13 0
 3 -3 12 39.81 1.74 0
 3 -3 13 2.39 0.85 0
 3 -3 14 0.55 0.86 0
 3 -3 15 34.27 1.89 0
 3 -3 16 46.97 2.15 0
 3 -3 17 1.27 1.01 0
 3 -3 18 0.84 0.94 0
 3 -3 19 17.54 1.72 0
 3 -3 20 30.07 2.02 0
 3 -1 8 28.09 1.06 0
 3 -1 9 1.97 0.5 0
 3 -1 12 0.53 0.57 0
 3 -1 14 35.89 1.66 0
 3 -1 15 4.81 0.98 0
 3 -1 16 89.06 2.61 0
 3 -1 18 7.77 1.22 0
 3 -1 19 1.61 0.99 0
 3 1 -1 281.8 1.34 0
 3 1 0 2974.05 4.79 0
 3 1 1 529.92 2.32 0
 3 1 2 681.98 2.92 0
 3 1 4 791.85 3.8 0
 3 1 5 24.73 0.83 0
 3 1 6 398.63 3.16 0
 3 1 8 29.63 1.08 0
 3 1 9 2.13 0.55 0
 3 1 12 0.68 0.64 0
 3 1 13 9.06 1.03 0
 3 1 14 34.22 1.59 0
 3 1 15 3.96 0.93 0
 3 1 16 90.69 2.59 0
 3 1 17 10.92 1.36 0
 3 1 18 7.09 1.22 0
 3 1 19 2.42 1.02 0
 3 3 2 28.86 0.75 0
 3 3 3 1437.61 5.26 0
 3 3 4 369.62 2.86 0
 3 3 5 72.59 1.39 0
 3 3 6 25.2 0.92 0
 3 3 7 389.28 3.46 0
 3 3 8 239.92 2.89 0
 3 3 12 37.36 1.52 0
 3 3 13 2.53 0.72 0
 3 3 14 0.92 0.68 0
 3 3 15 31.09 1.67 0
 3 3 16 44.44 1.94 0
 3 3 17 -0.29 0.77 0
 3 3 18 0.01 0.85 0
 3 3 19 17.01 1.6 0
 3 5 4 381.97 3.37 0
 3 5 6 19.52 0.96 0
 3 5 7 17.25 0.98 0
 3 5 10 63.36 1.83 0
 3 5 11 0.32 0.64 0
 3 5 12 4.07 0.87 0
 3 5 13 32.08 1.55 0
 3 5 14 0.68 0.73 0
 3 5 15 1.41 0.8 0
 3 5 16 14.24 1.38 0
 3 5 17 22.22 1.65 0
 3 5 18 2.93 1.07 0
 3 5 19 -0.21 0.99 0
 3 7 10 4.04 0.79 0
 3 7 11 37.96 1.7 0
 3 7 12 1.77 0.91 0
 3 7 13 0.95 0.84 0
 3 7 14 1.01 0.82 0
 3 7 15 3.79 0.99 0
 4 -8 17 27.86 2.13 0
 4 -6 15 24.26 1.84 0
 4 -6 16 30.95 1.97 0
 4 -6 17 2.95 1.37 0
 4 -6 18 3.73 1.41 0
 4 -4 13 132.94 3.03 0
 4 -4 15 40.48 2.03 0
 4 -4 16 13.19 1.59 0
 4 -4 17 38.88 2.2 0
 4 -4 19 28.23 2.07 0
 4 -2 11 11.14 1 0
 4 -2 12 13.58 1.14 0
 4 -2 13 26.51 1.59 0
 4 -2 15 1.63 0.88 0
 4 -2 16 76.84 2.61 0
 4 -2 17 9.74 1.47 0
 4 -2 18 9.72 1.49 0
 4 -2 19 1.67 1.21 0
 4 -2 20 36.79 2.24 0
 4 0 0 2416.03 4.61 0
 4 0 6 12.98 0.75 0
 4 0 12 0.31 0.55 0
 4 0 14 23.54 1.44 0
 4 0 16 201.21 3.95 0
 4 0 18 34.81 2.02 0
 4 0 20 93.72 2.99 0
 4 2 0 225.15 1.72 0
 4 2 1 79.31 1.13 0
 4 2 3 700.13 3.69 0
 4 2 4 22.25 0.76 0
 4 2 6 0.84 0.34 0
 4 2 7 8.76 0.73 0
 4 2 8 66.47 1.62 0
 4 2 12 11.74 1.05 0
 4 2 14 194.11 3.63 0
 4 2 15 -0.22 0.78 0
 4 2 17 7.33 1.3 0
 4 2 18 9.41 1.36 0
 4 2 19 0.42 1 0
 4 2 20 40.77 2.21 0
 4 4 2 9.07 0.59 0
 4 4 3 238.53 2.48 0
 4 4 4 0.77 0.33 0
 4 4 5 92.73 1.75 0
 4 4 6 19.43 0.92 0
 4 4 10 50.68 1.62 0
 4 4 11 -0.07 0.52 0
 4 4 12 220.24 3.62 0
 4 4 13 129.21 2.87 0
 4 4 14 255.55 4.2 0
 4 4 15 41.91 1.95 0
 4 4 16 13.15 1.42 0
 4 4 17 35.01 1.97 0
 4 4 18 77.28 2.68 0
 4 4 19 26.59 1.88 0
 4 6 5 9.37 0.75 0
 4 6 8 53.55 1.71 0
 4 6 10 11.79 1.06 0
 4 6 11 32.11 1.58 0
 4 6 15 24.02 1.71 0
 4 6 16 28.11 1.87 0
 4 6 17 1.94 1.08 0
 4 6 18 3.65 1.24 0
 5 -7 15 1.01 1.17 0
 5 -7 16 5.16 1.47 0
 5 -7 17 16.73 2.01 0
 5 -5 14 12.07 1.47 0
 5 -5 15 1.47 1.08 0
 5 -5 16 18.94 1.89 0
 5 -5 17 29.7 2.25 0
 5 -5 18 -0.14 1.39 0
 5 -3 11 234.96 3.77 0
 5 -3 12 54.53 1.95 0
 5 -3 13 64.62 2.28 0
 5 -3 14 52.7 2.26 0
 5 -3 16 7.25 1.3 0
 5 -3 17 36.69 2.16 0
 5 -3 18 7.38 1.56 0
 5 -1 -2 317.2 1.32 0
 5 -1 0 402.35 2.16 0
 5 -1 5 237.32 2.59 0
 5 -1 6 718.68 4.67 0
 5 -1 7 246.6 2.97 0
 5 -1 8 0.29 0.45 0
 5 -1 11 151.99 3.06 0
 5 -1 12 9.52 1.12 0
 5 -1 13 -0.01 0.63 0
 5 -1 14 60.37 2.19 0
 5 -1 16 7.46 1.24 0
 5 -1 17 0.1 0.94 0
 5 -1 18 58.48 2.5 0
 5 -1 19 18.59 1.86 0
 5 1 -1 57.73 0.82 0
 5 1 0 405.92 2.26 0
 5 1 1 722.51 3.3 0
 5 1 2 1004.81 4.2 0
 5 1 4 243.4 2.44 0
 5 1 5 235.84 2.58 0
 5 1 6 736.7 4.76 0
 5 1 7 242.67 2.93 0
 5 1 8 0.89 0.5 0
 5 1 11 146.64 2.87 0
 5 1 12 8.78 1.02 0
 5 1 13 0.43 0.68 0
 5 1 14 60.49 2.14 0
 5 1 16 8.31 1.22 0
 5 1 17 0.03 0.86 0
 5 1 18 56.31 2.45 0
 5 1 19 19.08 1.82 0
 5 3 1 709.74 3.75 0
 5 3 2 48.43 1.07 0
 5 3 3 18.89 0.77 0
 5 3 4 -0.01 0.34 0
 5 3 5 271.84 2.91 0
 5 3 6 2.51 0.5 0
 5 3 7 382.68 3.8 0
 5 3 10 52.44 1.71 0
 5 3 11 233.42 3.61 0
 5 3 13 59.73 2.1 0
 5 3 15 62.3 2.28 0
 5 3 16 6.26 1.29 0
 5 3 17 34.44 2.03 0
 5 3 18 6.6 1.37 0
 5 3 19 17.66 1.8 0
 5 5 3 0.77 0.39 0
 5 5 4 0.51 0.47 0
 5 5 5 26.34 1.08 0
 5 5 10 0.36 0.55 0
 5 5 11 14.62 1.17 0
 5 5 12 116.68 2.8 0
 5 5 13 59.28 2.18 0
 5 5 14 9.97 1.39 0
 5 5 15 2.13 1.12 0
 5 5 16 18.32 1.67 0
 5 5 17 25.13 1.81 0
 5 5 18 0.22 1.08 0
 5 7 7 61.12 1.91 0
 5 7 8 30.99 1.54 0
 5 7 10 25.33 1.53 0
 5 7 11 1.45 0.92 0
 5 7 12 21.02 1.6 0
 5 7 13 21.17 1.7 0
 5 7 14 1.63 0.97 0
 5 7 15 2.39 1.09 0
 5 7 16 2.64 1.14 0
 5 7 17 15.06 1.71 0
 6 -8 15 1.82 1.42 0
 6 -8 16 21.87 2.12 0
 6 -6 17 14.22 2 0
 6 -4 12 26.34 1.6 0
 6 -4 13 2.61 0.94 0
 6 -4 14 30.77 2 0
 6 -4 15 16.42 1.75 0
 6 -4 16 1.03 1.04 0
 6 -4 17 5.06 1.38 0
 6 -4 18 21.63 2.03 0
 6 -2 9 12.63 1 0
 6 -2 10 10.81 1.04 0
 6 -2 13 2.36 0.94 0
 6 -2 14 44.65 2.05 0
 6 -2 16 3.02 1.08 0
 6 -2 17 0.29 1.18 0
 6 -2 18 9.04 1.46 0
 6 -2 19 -0.17 1.15 0
 6 0 -2 5.69 0.27 0
 6 0 0 386.05 2.3 0
 6 0 2 35.59 0.92 0
 6 0 10 3.66 0.75 0
 6 0 12 320.11 4.5 0
 6 0 16 0.52 0.91 0
 6 2 -1 102.72 1.3 0
 6 2 0 69.1 1.12 0
 6 2 2 152.93 1.91 0
 6 2 4 41.99 1.13 0
 6 2 5 -0.27 0.34 0
 6 2 6 72.19 1.67 0
 6 2 9 12.46 0.95 0
 6 2 12 99.45 2.57 0
 6 2 13 2.1 0.96 0
 6 2 14 45.35 2.05 0
 6 2 15 18.36 1.61 0
 6 2 16 1.1 0.93 0
 6 2 17 -0.15 0.91 0
 6 2 18 8.25 1.37 0
 6 2 19 -1.51 1 0
 6 4 2 31.5 1.05 0
 6 4 3 26.52 1.01 0
 6 4 4 0.7 0.48 0
 6 4 9 31.29 1.41 0
 6 4 10 6.21 0.87 0
 6 4 11 5.58 0.86 0
 6 4 12 23.31 1.55 0
 6 4 14 31.61 1.82 0
 6 4 15 13.71 1.56 0
 6 4 16 -0.55 1.08 0
 6 4 17 4.86 1.22 0
 6 4 18 18.73 1.82 0
 6 6 6 44.63 1.6 0
 6 6 7 218.28 3.43 0
 6 6 8 15.37 1.13 0
 6 6 10 2.01 0.89 0
 6 6 12 3.29 1.09 0
 6 6 15 1.01 1.07 0
 6 6 16 0.99 1.15 0
 7 -9 15 21.93 2.13 0
 7 -7 14 6.53 1.53 0
 7 -7 15 5.1 1.47 0
 7 -5 12 27.55 1.81 0
 7 -5 13 3 1.03 0
 7 -5 14 27.76 2.05 0
 7 -5 15 15.83 1.77 0
 7 -5 16 7.66 1.53 0
 7 -5 17 0.88 1.5 0
 7 -3 9 94.56 2.33 0
 7 -3 10 3.68 0.76 0
 7 -3 11 7.6 1.05 0
 7 -3 12 1.21 0.9 0
 7 -3 13 2 1.14 0
 7 -3 14 83.64 2.84 0
 7 -3 15 9.08 1.51 0
 7 -3 16 27.62 2.03 0
 7 -3 18 10.79 1.55 0
 7 -1 -3 -0.05 0.09 0
 7 -1 -2 65.94 0.82 0
 7 -1 -1 134.22 1.36 0
 7 -1 0 137.06 1.55 0
 7 -1 3 58.97 1.35 0
 7 -1 5 72.69 1.66 0
 7 -1 9 17.1 1.19 0
 7 -1 10 118.77 2.74 0
 7 -1 11 27.4 1.56 0
 7 -1 12 42.38 1.84 0
 7 -1 13 -0.69 0.7 0
 7 -1 14 0.38 0.83 0
 7 -1 15 29.68 1.87 0
 7 -1 16 30.2 1.98 0
 7 -1 17 2.71 1.28 0
 7 1 -2 67.46 0.93 0
 7 1 -1 131.96 1.41 0
 7 1 0 134.06 1.55 0
 7 1 1 27.76 0.82 0
 7 1 2 468.28 3.32 0
 7 1 3 58.11 1.31 0
 7 1 4 29.16 1.03 0
 7 1 5 72.94 1.64 0
 7 1 6 695.29 5.1 0
 7 1 9 18 1.12 0
 7 1 11 27.43 1.51 0
 7 1 12 43.8 1.84 0
 7 1 13 -0.27 0.77 0
 7 1 14 -0.18 0.82 0
 7 1 15 30.05 1.96 0
 7 1 16 28.36 1.98 0
 7 1 17 1.28 1.16 0
 7 3 0 259.26 2.47 0
 7 3 1 143.08 1.96 0
 7 3 2 36.9 1.1 0
 7 3 3 489.86 3.88 0
 7 3 4 227.75 2.84 0
 7 3 5 341.67 3.6 0
 7 3 10 4.35 0.89 0
 7 3 11 7 0.96 0
 7 3 12 0.72 0.91 0
 7 3 13 1.36 0.98 0
 7 3 15 7.67 1.28 0
 7 3 16 26.67 1.94 0
 7 3 17 3.35 1.18 0
 7 3 18 12.3 1.67 0
 7 5 3 74.8 1.77 0
 7 5 7 1.83 0.62 0
 7 5 8 -0.01 0.53 0
 7 5 9 7.47 0.97 0
 7 5 10 1.44 0.7 0
 7 5 11 -0.27 0.66 0
 7 5 12 29.18 1.73 0
 7 5 13 3.49 1.09 0
 7 5 14 23.89 1.84 0
 7 5 16 5.99 1.46 0
 7 5 17 0.43 1.04 0
 7 7 6 25.88 1.42 0
 7 7 7 246.71 3.98 0
 7 7 9 15.36 1.42 0
 7 7 10 24.28 1.58 0
 7 7 11 54.47 2.28 0
 7 7 12 0.11 1.05 0
 7 7 13 18.89 1.69 0
 7 7 14 5.91 1.39 0
 7 7 15 3.98 1.23 0
 7 7 16 1.01 1.11 0
 8 -8 14 -0.35 1.08 0
 8 -8 15 10.36 1.71 0
 8 -6 12 17.8 1.64 0
 8 -6 14 17.64 1.85 0
 8 -4 9 4.16 0.94 0
 8 -4 10 48.59 1.95 0
 8 -4 11 0.26 0.75 0
 8 -4 12 0.74 0.87 0
 8 -4 14 8.72 1.6 0
 8 -4 15 2.43 1.22 0
 8 -4 16 1.54 1.46 0
 8 -4 17 33.93 2.29 0
 8 -2 -3 51.87 0.65 0
 8 -2 -2 200.82 1.6 0
 8 -2 1 2.52 0.45 0
 8 -2 2 23.57 0.89 0
 8 -2 3 0.97 0.47 0
 8 -2 4 2.06 0.47 0
 8 -2 5 17.45 1.01 0
 8 -2 8 2.45 0.68 0
 8 -2 9 0.57 0.8 0
 8 -2 10 67.07 2.23 0
 8 -2 11 134.55 3.18 0
 8 -2 12 12.44 1.45 0
 8 -2 13 21.43 1.74 0
 8 -2 14 16.91 1.72 0
 8 -2 15 97.77 3.14 0
 8 -2 16 11.55 1.55 0
 8 -2 17 36.77 2.31 0
 8 -2 18 -0.54 1.36 0
 8 0 -2 200.69 1.55 0
 8 0 0 61.11 1.12 0
 8 0 2 439.45 3.37 0
 8 0 4 68.95 1.56 0
 8 0 8 63.42 1.89 0
 8 0 10 0.14 0.58 0
 8 0 16 15.22 1.77 0
 8 0 18 8.6 1.72 0
 8 2 -1 50.16 1.05 0
 8 2 0 8.82 0.58 0
 8 2 1 2.02 0.39 0
 8 2 2 21.88 0.89 0
 8 2 3 0.85 0.4 0
 8 2 4 2.68 0.56 0
 8 2 5 18.82 0.98 0
 8 2 7 84.77 2.08 0
 8 2 8 3.51 0.75 0
 8 2 9 1.07 0.76 0
 8 2 11 134.61 3.09 0
 8 2 12 13.63 1.44 0
 8 2 13 17.13 1.59 0
 8 2 14 16.81 1.68 0
 8 2 15 99.14 3.07 0
 8 2 16 9.59 1.61 0
 8 2 17 38.35 2.34 0
 8 2 18 0.09 1.21 0
 8 4 1 11.45 0.79 0
 8 4 2 362.91 3.54 0
 8 4 3 252.78 3.12 0
 8 4 6 40.57 1.53 0
 8 4 7 20.17 1.19 0
 8 4 8 1.22 0.7 0
 8 4 9 4.25 0.78 0
 8 4 11 0.77 0.73 0
 8 4 12 1.07 1.03 0
 8 4 13 16.61 1.58 0
 8 4 14 7.14 1.27 0
 8 4 15 1.86 1.06 0
 8 4 16 1.5 1.33 0
 8 4 17 30.71 2.15 0
 8 6 5 13.94 1.09 0
 8 6 6 30.85 1.51 0
 8 6 7 15.29 1.16 0
 8 6 9 3.06 0.85 0
 8 6 10 14.63 1.39 0
 8 6 12 19.19 1.67 0
 8 6 13 14.63 1.59 0
 8 6 14 16.76 1.76 0
 8 6 15 15.39 1.84 0
 8 8 12 0.11 1.08 0
 8 8 13 15.33 1.7 0
 9 -9 13 23.65 2.19 0
 9 -7 12 4.13 1.41 0
 9 -7 13 144 3.82 0
 9 -7 14 2.11 1.54 0
 9 -7 15 10.43 1.72 0
 9 -5 9 0.22 0.82 0
 9 -5 10 50.39 2.15 0
 9 -5 11 0.52 0.99 0
 9 -5 12 2.05 1.3 0
 9 -5 15 40.61 2.59 0
 9 -5 16 30.18 2.25 0
 9 -3 -3 94.56 1.09 0
 9 -3 -1 0.31 0.31 0
 9 -3 0 0.04 0.35 0
 9 -3 1 16.17 0.79 0
 9 -3 2 -0.21 0.34 0
 9 -3 3 41.96 1.32 0
 9 -3 6 21.37 1.18 0
 9 -3 7 63.63 1.93 0
 9 -3 8 4.89 0.94 0
 9 -3 9 26.87 1.59 0
 9 -3 10 2.6 1.04 0
 9 -3 12 1.8 0.97 0
 9 -3 13 12.39 1.51 0
 9 -3 14 45.07 2.31 0
 9 -3 15 54.62 2.6 0
 9 -1 -3 7.85 0.31 0
 9 -1 -2 183.53 1.57 0
 9 -1 -1 12.63 0.55 0
 9 -1 0 73.94 1.33 0
 9 -1 1 0.4 0.33 0
 9 -1 2 33.89 1.08 0
 9 -1 3 40.36 1.27 0
 9 -1 4 82.3 1.83 0
 9 -1 7 48.87 1.74 0
 9 -1 8 12.31 1.07 0
 9 -1 9 0.52 0.65 0
 9 -1 10 34.53 1.73 0
 9 -1 12 107.95 2.92 0
 9 -1 13 0.64 1.13 0
 9 -1 14 23.27 1.88 0
 9 -1 15 11.66 1.48 0
 9 -1 16 -0.37 1 0
 9 -1 17 -0.99 1.08 0
 9 1 -2 182.56 1.74 0
 9 1 -1 11.79 0.59 0
 9 1 1 0.54 0.34 0
 9 1 2 32.27 1.09 0
 9 1 3 40.21 1.25 0
 9 1 4 76.4 1.76 0
 9 1 7 47.96 1.65 0
 9 1 8 13.29 1.09 0
 9 1 9 1.03 0.81 0
 9 1 10 31.44 1.63 0
 9 1 11 27.28 1.58 0
 9 1 12 106.45 2.91 0
 9 1 13 1.2 0.95 0
 9 1 14 22.23 1.86 0
 9 1 16 -0.37 1.19 0
 9 1 17 0.26 1.39 0
 9 3 0 -0.01 0.32 0
 9 3 1 16.99 0.86 0
 9 3 2 0.36 0.38 0
 9 3 3 43.17 1.39 0
 9 3 7 62.56 1.93 0
 9 3 8 4.28 0.85 0
 9 3 9 28.73 1.57 0
 9 3 10 2.1 0.93 0
 9 3 11 56.4 2.15 0
 9 3 12 1.97 1.12 0
 9 3 13 13.87 1.61 0
 9 3 14 44.82 2.32 0
 9 3 16 31.03 2.14 0
 9 3 17 22.51 2.12 0
 9 5 4 1.55 0.56 0
 9 5 5 0.28 0.55 0
 9 5 6 48.87 1.75 0
 9 5 7 0.69 0.63 0
 9 5 8 9.44 1.07 0
 9 5 9 1.23 0.86 0
 9 5 10 52.33 2.13 0
 9 5 11 0.2 0.82 0
 9 5 12 3.22 1.17 0
 9 5 13 7.78 1.3 0
 9 5 15 35.88 2.31 0
 9 5 16 28.14 2.2 0
 9 7 7 22.75 1.6 0
 9 7 8 9.22 1.28 0
 9 7 10 0.94 1 0
 9 7 11 30.98 1.96 0
 9 7 12 3.9 1.18 0
 9 7 13 138.46 3.78 0
 9 7 14 2.14 1.27 0
 9 7 15 8.35 1.74 0
 10 -8 12 -0.31 1.23 0
 10 -8 13 54.47 2.73 0
 10 -6 9 12.72 1.48 0
 10 -6 11 11.47 1.56 0
 10 -6 12 0.1 1.15 0
 10 -6 13 22.32 2 0
 10 -6 14 4.05 1.44 0
 10 -6 15 1.11 1.58 0
 10 -4 -3 8.36 0.48 0
 10 -4 -2 133.27 1.68 0
 10 -4 -1 14.04 0.69 0
 10 -4 5 16.19 1.08 0
 10 -4 6 9.23 0.95 0
 10 -4 8 10.5 1.27 0
 10 -4 9 1.5 0.82 0
 10 -4 10 30.14 1.9 0
 10 -4 11 5.89 1.4 0
 10 -4 12 1.81 1.17 0
 10 -4 13 1.98 1.18 0
 10 -4 14 43.11 2.48 0
 10 -4 16 8.97 1.79 0
 10 -2 -3 6.08 0.32 0
 10 -2 -2 24.83 0.67 0
 10 -2 -1 1.23 0.34 0
 10 -2 0 20.14 0.81 0
 10 -2 1 17.31 0.86 0
 10 -2 6 156.11 3.02 0
 10 -2 7 0.35 0.63 0
 10 -2 8 63.88 2.11 0
 10 -2 9 6.91 1.04 0
 10 -2 11 2.81 1.01 0
 10 -2 12 60.15 2.46 0
 10 -2 13 15.31 1.62 0
 10 -2 14 17.63 1.83 0
 10 -2 16 -1.47 1.34 0
 10 0 -2 1.24 0.28 0
 10 0 0 15.11 0.73 0
 10 0 2 231.2 2.75 0
 10 0 6 501.85 4.96 0
 10 0 8 507.12 5.47 0
 10 0 10 80.51 2.49 0
 10 0 12 409.55 5.81 0
 10 0 16 49.64 2.62 0
 10 2 -1 1.33 0.42 0
 10 2 0 18.83 0.84 0
 10 2 1 16.37 0.85 0
 10 2 2 12.49 0.83 0
 10 2 5 2.42 0.62 0
 10 2 6 154.65 2.95 0
 10 2 7 0.21 0.56 0
 10 2 8 61.22 2.06 0
 10 2 9 5.87 0.98 0
 10 2 10 10.58 1.2 0
 10 2 11 1.89 1.08 0
 10 2 12 59.79 2.47 0
 10 2 14 17.01 1.81 0
 10 2 15 9.25 1.67 0
 10 2 16 -0.36 1.1 0
 10 4 4 104.97 2.28 0
 10 4 5 17.54 1.12 0
 10 4 6 10.27 1.1 0
 10 4 7 11.46 1.17 0
 10 4 8 9.3 1.16 0
 10 4 9 1.17 0.81 0
 10 4 10 27.5 1.73 0
 10 4 12 0.24 1.13 0
 10 4 13 -0.57 0.98 0
 10 4 15 2.73 1.21 0
 10 4 16 4.77 1.46 0
 10 6 5 0.51 0.65 0
 10 6 6 14.44 1.32 0
 10 6 7 37.39 1.79 0
 10 6 8 0.28 0.75 0
 10 6 9 12.68 1.48 0
 10 6 10 12.05 1.43 0
 10 6 11 13.69 1.51 0
 10 6 12 1.33 1.05 0
 10 6 13 18.4 1.9 0
 10 6 14 4.14 1.3 0
 10 6 15 2.42 1.34 0
 11 -9 10 13.43 1.79 0
 11 -9 11 -0.14 1.17 0
 11 -9 12 4.12 1.57 0
 11 -7 9 39.62 2.09 0
 11 -7 10 -1.07 1.14 0
 11 -7 11 5.15 1.52 0
 11 -7 12 0.85 1.54 0
 11 -5 0 48.29 1.35 0
 11 -5 3 78.43 2 0
 11 -5 4 48.56 1.72 0
 11 -5 5 51.5 1.8 0
 11 -5 6 0.74 0.63 0
 11 -5 7 24.52 1.55 0
 11 -5 10 1.86 1.18 0
 11 -5 11 7.81 1.57 0
 11 -5 12 6.03 1.41 0
 11 -5 14 55.67 2.77 0
 11 -3 -2 95.7 1.37 0
 11 -3 -1 62.59 1.3 0
 11 -3 1 38.62 1.26 0
 11 -3 4 124.55 2.53 0
 11 -3 6 0.96 0.76 0
 11 -3 7 27.12 1.55 0
 11 -3 8 35.09 1.77 0
 11 -3 9 -0.36 0.75 0
 11 -3 10 0.98 0.99 0
 11 -3 11 1.08 1.07 0
 11 -3 12 40.05 2.24 0
 11 -3 13 1.01 1.04 0
 11 -3 14 17.3 1.9 0
 11 -1 -2 28.02 0.73 0
 11 -1 -1 2.62 0.41 0
 11 -1 0 0.87 0.38 0
 11 -1 1 35.95 1.14 0
 11 -1 2 185.33 2.62 0
 11 -1 5 11.68 1.05 0
 11 -1 7 1.81 0.8 0
 11 -1 8 26.85 1.54 0
 11 -1 9 3.21 0.99 0
 11 -1 10 7.66 1.21 0
 11 -1 11 9.01 1.4 0
 11 -1 12 2.95 1.31 0
 11 -1 13 0.17 0.98 0
 11 -1 14 17.77 1.94 0
 11 -1 15 22.92 1.99 0
 11 -1 16 0.5 1.24 0
 11 1 -2 28.49 0.82 0
 11 1 -1 2.06 0.39 0
 11 1 0 1.04 0.39 0
 11 1 1 36.21 1.17 0
 11 1 2 182.29 2.65 0
 11 1 5 10.99 0.97 0
 11 1 6 117.37 2.58 0
 11 1 7 1.19 0.7 0
 11 1 8 25.49 1.55 0
 11 1 11 8.54 1.21 0
 11 1 12 2.63 1.17 0
 11 1 13 1.88 1.18 0
 11 1 14 17.52 1.74 0
 11 1 15 25.8 2.13 0
 11 1 16 1.16 1.31 0
 11 3 0 230.38 2.84 0
 11 3 4 121.92 2.53 0
 11 3 6 0.72 0.74 0
 11 3 9 -0.69 0.83 0
 11 3 10 0.81 0.94 0
 11 3 11 -0.43 0.82 0
 11 3 12 40.87 2.26 0
 11 3 13 1.45 1.07 0
 11 3 15 29.17 2.19 0
 11 5 2 36.95 1.49 0
 11 5 3 78.44 2.13 0
 11 5 4 46.62 1.78 0
 11 5 6 0.72 0.72 0
 11 5 7 24.83 1.53 0
 11 5 9 49.56 2.22 0
 11 5 10 1.43 1.04 0
 11 5 11 7.47 1.38 0
 11 5 12 3.52 1.35 0
 11 5 15 6.56 1.74 0
 11 7 7 40.52 1.98 0
 11 7 8 0.58 0.89 0
 11 7 9 41.16 2.24 0
 11 7 10 0.49 1.04 0
 11 7 11 3.79 1.45 0
 11 7 12 -1.04 1.33 0
 11 7 13 75.71 3.04 0
 12 -10 9 42.55 2.44 0
 12 -8 9 1.23 1.31 0
 12 -8 10 9.16 1.57 0
 12 -8 11 94.04 3.32 0
 12 -8 12 9.51 1.71 0
 12 -6 1 10.51 0.94 0
 12 -6 2 0 0.63 0
 12 -6 3 5.69 0.84 0
 12 -6 4 2.73 0.85 0
 12 -6 5 2.84 0.8 0
 12 -6 6 0.58 0.78 0
 12 -6 7 27.6 1.75 0
 12 -6 8 0.29 1.1 0
 12 -6 9 3.33 1.16 0
 12 -6 10 8.05 1.57 0
 12 -6 11 42.61 2.41 0
 12 -6 12 0.96 1.24 0
 12 -6 13 45.56 2.66 0
 12 -4 0 1.23 0.49 0
 12 -4 3 55.71 1.78 0
 12 -4 4 13.15 1.17 0
 12 -4 5 41.86 1.8 0
 12 -4 8 0.24 0.98 0
 12 -4 9 1.66 1.04 0
 12 -4 10 2.24 1.07 0
 12 -4 12 2.55 1.16 0
 12 -4 13 4.34 1.51 0
 12 -4 14 28.26 2.3 0
 12 -2 -1 20.06 0.78 0
 12 -2 0 1.19 0.43 0
 12 -2 1 65.84 1.55 0
 12 -2 5 16.88 1.21 0
 12 -2 6 148.8 3.04 0
 12 -2 7 9.67 1.13 0
 12 -2 8 11.66 1.36 0
 12 -2 9 -0.34 0.78 0
 12 -2 11 -0.04 0.92 0
 12 -2 12 89.33 3.06 0
 12 -2 13 6.03 1.37 0
 12 -2 15 12.02 1.72 0
 12 0 -2 82.5 1.34 0
 12 0 4 52.73 1.69 0
 12 0 6 117.22 2.67 0
 12 0 8 34.84 1.8 0
 12 0 10 122.69 3.21 0
 12 0 12 245.79 4.96 0
 12 2 -1 20.04 0.9 0
 12 2 0 1.62 0.51 0
 12 2 3 15.86 1.05 0
 12 2 4 36.16 1.49 0
 12 2 5 18.59 1.26 0
 12 2 6 138.38 2.91 0
 12 2 7 9.09 1.2 0
 12 2 8 10.07 1.19 0
 12 2 9 -0.23 0.79 0
 12 2 11 0.1 1.08 0
 12 2 12 86.69 2.95 0
 12 2 13 5.58 1.4 0
 12 2 14 -1.55 1.18 0
 12 2 15 11.17 1.65 0
 12 4 1 57.35 1.68 0
 12 4 2 6.42 0.9 0
 12 4 5 43.32 1.77 0
 12 4 6 32.18 1.69 0
 12 4 7 67.18 2.33 0
 12 4 8 -0.35 0.86 0
 12 4 9 2.3 1.03 0
 12 4 10 0.49 0.97 0
 12 4 12 1.83 1.38 0
 12 4 13 2.93 1.21 0
 12 4 14 30.69 2.23 0
 12 6 5 2.4 0.9 0
 12 6 6 1.17 1.01 0
 12 6 8 -0.37 1 0
 12 6 9 1.82 1.11 0
 12 6 10 10.02 1.59 0
 12 6 11 39.03 2.29 0
 12 6 12 0.31 1.21 0
 12 6 13 37.61 2.47 0
 13 -9 5 72.99 2.56 0
 13 -9 6 15.84 1.65 0
 13 -9 7 16.2 1.72 0
 13 -9 8 20.07 1.9 0
 13 -7 1 3.97 0.78 0
 13 -7 2 0.53 0.66 0
 13 -7 3 47.63 1.85 0
 13 -7 4 3.33 0.97 0
 13 -7 5 35.56 1.83 0
 13 -7 6 1.2 1.03 0
 13 -7 8 8.75 1.39 0
 13 -7 9 9.73 1.55 0
 13 -7 10 12.68 1.78 0
 13 -7 11 23.35 2.23 0
 13 -5 1 7.41 0.86 0
 13 -5 2 35.66 1.49 0
 13 -5 4 52.06 1.96 0
 13 -5 6 9.77 1.34 0
 13 -5 7 12.71 1.5 0
 13 -5 9 27.85 2 0
 13 -5 10 28.4 2.11 0
 13 -5 11 5.55 1.35 0
 13 -5 12 21.35 2.09 0
 13 -5 13 23.64 2.14 0
 13 -3 0 132.31 2.11 0
 13 -3 2 10.55 0.91 0
 13 -3 3 16.09 1.12 0
 13 -3 4 233.29 3.6 0
 13 -3 5 -0.2 0.64 0
 13 -3 6 19.12 1.41 0
 13 -3 7 22.1 1.6 0
 13 -3 8 60.34 2.3 0
 13 -3 9 1.65 1.17 0
 13 -3 10 3.83 1.33 0
 13 -3 11 37.36 2.23 0
 13 -3 12 37.26 2.25 0
 13 -3 14 -0.45 1.15 0
 13 -1 -1 1.27 0.42 0
 13 -1 0 13.37 0.81 0
 13 -1 3 0.8 0.53 0
 13 -1 4 47.82 1.7 0
 13 -1 5 17.26 1.29 0
 13 -1 7 3.1 0.93 0
 13 -1 8 3.45 0.96 0
 13 -1 9 19.42 1.63 0
 13 -1 10 33.23 2 0
 13 -1 11 3.54 1.34 0
 13 -1 12 16.75 1.88 0
 13 -1 13 7.01 1.54 0
 13 -1 14 6.69 1.44 0
 13 1 -1 1.12 0.41 0
 13 1 0 13.08 0.85 0
 13 1 2 18.03 1.07 0
 13 1 3 0.46 0.58 0
 13 1 4 46.42 1.68 0
 13 1 6 64.91 2.15 0
 13 1 7 2.36 0.82 0
 13 1 8 4.57 1.08 0
 13 1 9 19.35 1.7 0
 13 1 10 37.05 2.04 0
 13 1 11 3.21 1.25 0
 13 1 12 18.09 1.77 0
 13 1 13 9.08 1.46 0
 13 1 14 6.09 1.47 0
 13 3 1 0.04 0.53 0
 13 3 2 9.74 0.95 0
 13 3 3 16.12 1.14 0
 13 3 5 -0.17 0.64 0
 13 3 6 18.71 1.44 0
 13 3 7 21.89 1.61 0
 13 3 8 59.99 2.31 0
 13 3 9 1.22 1.17 0
 13 3 10 3.88 1.35 0
 13 3 11 34.69 2.19 0
 13 3 12 35.53 2.22 0
 13 3 13 -0.71 1.2 0
 13 5 3 57.81 2.01 0
 13 5 4 51.4 2 0
 13 5 6 7.9 1.23 0
 13 5 8 17.9 1.69 0
 13 5 9 25.81 1.94 0
 13 5 10 25.14 2.02 0
 13 5 11 6.33 1.46 0
 13 5 12 21.84 2.1 0
 13 5 13 22 2.08 0
 13 7 9 10.04 1.55 0
 13 7 11 20.06 1.98 0
 14 -10 6 27.32 2 0
 14 -8 4 -0.17 0.84 0
 14 -8 5 1.66 1.07 0
 14 -8 6 3.2 1.12 0
 14 -8 7 27.14 2.04 0
 14 -8 8 0.04 1.09 0
 14 -6 3 19.63 1.37 0
 14 -6 4 25.1 1.59 0
 14 -6 5 2.61 1.11 0
 14 -6 7 3.02 1.28 0
 14 -6 8 3.9 1.28 0
 14 -6 9 -0.62 1.2 0
 14 -6 10 30.2 2.21 0
 14 -6 11 0.99 1.24 0
 14 -4 2 9 0.95 0
 14 -4 3 25.7 1.35 0
 14 -4 4 1.03 0.84 0
 14 -4 5 38.66 1.78 0
 14 -4 6 33.57 1.81 0
 14 -4 7 70.56 2.47 0
 14 -4 8 0.61 0.96 0
 14 -4 9 6.07 1.26 0
 14 -4 10 31.32 2.09 0
 14 -4 11 64.95 2.74 0
 14 -2 2 -0.68 0.5 0
 14 -2 3 8.51 0.98 0
 14 -2 4 3.49 0.89 0
 14 -2 5 119.21 2.74 0
 14 -2 6 1.69 0.81 0
 14 -2 10 18.71 1.78 0
 14 -2 11 26.59 1.99 0
 14 -2 12 12.37 1.6 0
 14 -2 13 2.51 1.38 0
 14 0 6 0.59 0.74 0
 14 0 8 45.97 2.12 0
 14 0 12 -0.48 1.07 0
 14 2 3 9.77 1.05 0
 14 2 4 2.54 0.85 0
 14 2 5 116.62 2.77 0
 14 2 6 1.94 0.9 0
 14 2 7 34.15 1.87 0
 14 2 8 0.08 0.89 0
 14 2 9 44.04 2.23 0
 14 2 10 20.16 1.89 0
 14 2 13 0.74 1.19 0
 14 4 2 6.54 0.97 0
 14 4 3 23.28 1.46 0
 14 4 5 35.7 1.81 0
 14 4 8 0.6 1.09 0
 14 4 9 6.06 1.29 0
 14 4 10 29.01 2.05 0
 14 4 11 66.8 2.79 0
 14 6 6 37.05 1.99 0
 14 6 7 1.16 1.21 0
 14 6 8 4.93 1.43 0
 14 6 9 -0.67 1 0
 14 6 10 29.03 2.24 0
 15 -7 5 0.39 1.07 0
 15 -7 7 22.5 1.86 0
 15 -7 8 7.72 1.47 0
 15 -7 9 -0.73 1.14 0
 15 -5 4 46.61 1.86 0
 15 -5 5 12.39 1.36 0
 15 -5 6 10.06 1.36 0
 15 -5 7 0.91 1.1 0
 15 -5 8 4.26 1.13 0
 15 -5 9 0.22 1.1 0
 15 -5 10 0.29 1.22 0
 15 -3 3 3.44 0.84 0
 15 -3 4 38.65 1.69 0
 15 -3 5 20.75 1.48 0
 15 -3 6 12.43 1.39 0
 15 -3 7 13.99 1.5 0
 15 -3 8 4.57 1.18 0
 15 -3 9 -0.36 1.16 0
 15 -3 10 8.84 1.49 0
 15 -3 11 0.42 1.08 0
 15 -1 2 186.94 3.03 0
 15 -1 3 -0.13 0.6 0
 15 -1 4 30.35 1.51 0
 15 -1 5 3.41 0.89 0
 15 -1 6 5.49 1.01 0
 15 -1 7 -0.08 1.02 0
 15 -1 8 1.11 1.09 0
 15 -1 9 2.18 1.25 0
 15 -1 10 0.13 1.01 0
 15 -1 11 1.01 1.25 0
 15 -1 12 18.22 1.99 0
 15 1 1 5.89 0.81 0
 15 1 2 182.42 3.01 0
 15 1 3 -0.22 0.64 0
 15 1 4 31.51 1.59 0
 15 1 5 2.58 0.84 0
 15 1 6 6.62 1.15 0
 15 1 7 0.69 0.88 0
 15 1 8 -0.25 0.98 0
 15 1 10 -0.91 1.02 0
 15 1 11 0.51 1.38 0
 15 1 12 17.29 1.94 0
 15 3 2 14.46 1.18 0
 15 3 3 1.47 0.83 0
 15 3 4 36.65 1.75 0
 15 3 5 20.69 1.53 0
 15 3 6 11.96 1.43 0
 15 3 7 14.61 1.59 0
 15 3 8 3.51 1.19 0
 15 3 9 -1.02 1.02 0
 15 3 10 6.39 1.32 0
 15 3 11 1.37 1.2 0
 15 5 6 8.53 1.42 0
 15 5 7 1.79 1.11 0
 15 5 8 4.17 1.29 0
 15 5 10 0.09 1.21 0
 16 -6 7 13.7 1.6 0
 16 -6 8 9.24 1.41 0
 16 -4 5 3 1.05 0
 16 -4 7 2.39 1.04 0
 16 -4 8 -0.02 0.95 0
 16 -4 9 -0.77 1.12 0
 16 -2 4 1.64 0.81 0
 16 -2 6 9.72 1.22 0
 16 -2 7 -0.03 1.04 0
 16 -2 8 0.27 1.12 0
 16 -2 10 5.1 1.3 0
 16 0 4 3.47 0.92 0
 16 0 6 0.23 0.88 0
 16 0 8 20.66 1.78 0
 16 0 10 1.03 1.34 0
 16 2 3 -0.3 0.66 0
 16 2 4 2.23 0.96 0
 16 2 5 11.83 1.34 0
 16 2 7 1.64 0.95 0
 16 2 8 0.71 1.13 0
 16 2 9 27.15 1.99 0
 16 2 10 4.44 1.28 0
 16 4 4 7.96 1.17 0
 16 4 5 3.2 1.1 0
 16 4 7 1.62 1.18 0
 16 4 8 -0.01 1.24 0
 16 4 9 -0.99 1.01 0
 17 -3 7 23.32 1.77 0
 17 -3 8 2.71 1.11 0
 17 -1 6 0.66 0.9 0
 17 -1 7 5.29 1.12 0
 17 -1 8 2.62 1.24 0
 17 1 5 16.21 1.5 0
 17 1 6 0.94 1.05 0
 17 1 7 5.21 1.28 0
 17 1 8 2.52 1.19 0
 17 1 9 6.49 1.43 0
 17 3 5 16.38 1.55 0
 17 3 6 -0.15 1.07 0
 17 3 7 22.19 1.8 0
 17 3 8 2.92 1.24 0
 -19 -1 5 2.78 1.91 0
 -18 -4 3 1.73 2.09 0
 -18 -4 4 1.07 1.77 0
 -18 -4 5 5.69 1.96 0
 -18 -4 6 7.81 2.14 0
 -18 -2 5 2.06 1.95 0
 -18 -2 6 20.03 2.61 0
 -18 -2 7 0.01 1.67 0
 -18 -2 8 0.55 1.83 0
 -18 0 6 20.71 2.48 0
 -18 0 8 13.95 2.08 0
 -18 2 7 -0.72 1.4 0
 -17 -7 -1 1.52 1.79 0
 -17 -7 1 3.71 2.21 0
 -17 -7 2 0.7 2.11 0
 -17 -7 3 3.79 2.18 0
 -17 -7 4 0.55 1.72 0
 -17 -7 5 2.01 2.08 0
 -17 -5 2 3.71 1.98 0
 -17 -5 4 4.26 2.05 0
 -17 -5 5 -0.1 1.9 0
 -17 -5 6 6.05 1.96 0
 -17 -5 8 10.29 2.3 0
 -17 -3 4 22.58 2.54 0
 -17 -3 5 3.64 1.7 0
 -17 -3 7 27.02 2.71 0
 -17 -3 8 11.53 1.99 0
 -17 -3 9 6.11 2.14 0
 -17 -3 10 22.59 2.68 0
 -17 -1 6 11.44 2.01 0
 -17 -1 7 -0.3 1.4 0
 -17 -1 8 10.39 2 0
 -17 -1 9 -0.06 1.64 0
 -17 -1 10 1.78 1.55 0
 -17 -1 11 -0.28 1.47 0
 -17 1 7 -1.61 1.44 0
 -17 1 9 1.31 1.38 0
 -16 -8 -4 1.85 1.76 0
 -16 -8 -3 2.16 1.8 0
 -16 -8 -2 1.24 1.85 0
 -16 -8 0 1.52 2.05 0
 -16 -8 1 -0.5 1.68 0
 -16 -8 3 87.66 3.93 0
 -16 -8 5 24.64 2.93 0
 -16 -8 6 0.66 2.13 0
 -16 -6 1 -0.41 1.84 0
 -16 -6 2 0.5 1.6 0
 -16 -6 4 1.41 1.75 0
 -16 -6 5 13.32 2.42 0
 -16 -6 6 8.9 2.08 0
 -16 -6 7 -2.25 1.55 0
 -16 -6 8 7.07 1.96 0
 -16 -6 9 4.92 2 0
 -16 -4 4 -1.01 1.58 0
 -16 -4 5 33.81 2.73 0
 -16 -4 6 60.28 3.22 0
 -16 -4 7 29.33 2.71 0
 -16 -4 9 9.19 1.94 0
 -16 -4 10 42.97 3.06 0
 -16 -4 11 25.92 2.79 0
 -16 -2 6 25.49 2.44 0
 -16 -2 7 7.38 1.89 0
 -16 -2 8 20.39 2.32 0
 -16 -2 9 3.38 1.65 0
 -16 -2 10 52.9 2.98 0
 -16 -2 11 2.86 1.71 0
 -16 -2 12 5.83 1.88 0
 -16 0 8 82.13 3.22 0
 -16 2 7 6.6 1.52 0
 -16 2 8 20.2 2.11 0
 -16 2 9 3.21 1.21 0
 -15 -9 -6 0.48 1.59 0
 -15 -9 -5 3.03 1.67 0
 -15 -9 -2 -0.38 1.53 0
 -15 -9 -1 35.41 2.85 0
 -15 -9 1 5.74 1.93 0
 -15 -9 2 1.36 2.02 0
 -15 -9 4 8.35 2.04 0
 -15 -9 5 7.87 1.98 0
 -15 -9 6 5.13 2.22 0
 -15 -9 7 0.64 1.75 0
 -15 -7 0 0.25 1.77 0
 -15 -7 1 108.24 4 0
 -15 -7 2 2.34 1.85 0
 -15 -7 3 97.38 3.82 0
 -15 -7 5 20.95 2.52 0
 -15 -7 6 2.2 1.73 0
 -15 -7 8 7.04 2.24 0
 -15 -7 9 18.75 2.64 0
 -15 -7 10 1.15 1.95 0
 -15 -5 3 26.5 2.45 0
 -15 -5 4 0.43 1.46 0
 -15 -5 5 0.07 1.48 0
 -15 -5 6 1.05 1.53 0
 -15 -5 7 15.34 2 0
 -15 -5 8 4.09 1.82 0
 -15 -5 9 -0.12 1.75 0
 -15 -5 12 5.08 2.04 0
 -15 -3 5 3.17 1.37 0
 -15 -3 6 -0.53 1.64 0
 -15 -3 7 1.84 1.42 0
 -15 -3 8 15.37 2 0
 -15 -3 9 2.57 1.79 0
 -15 -3 10 1.98 1.71 0
 -15 -3 11 6.01 1.95 0
 -15 -3 12 32.04 2.62 0
 -15 -3 13 10.2 2.04 0
 -15 -1 7 3.45 1.36 0
 -15 -1 8 3.29 1.4 0
 -15 -1 9 1.81 1.53 0
 -15 -1 10 -0.75 1.37 0
 -15 -1 11 0.45 1.46 0
 -15 -1 12 1.61 1.39 0
 -15 -1 13 -0.13 1.46 0
 -15 1 7 1.93 1.24 0
 -15 1 8 3.39 1.48 0
 -15 1 9 1.09 1.42 0
 -15 1 10 0.55 1.26 0
 -14 -10 -5 4.61 1.74 0
 -14 -10 -4 0.5 1.55 0
 -14 -10 -3 0.37 1.61 0
 -14 -10 -2 32.97 2.64 0
 -14 -10 -1 0.56 1.61 0
 -14 -10 0 7.24 1.91 0
 -14 -10 3 9.41 2.19 0
 -14 -10 4 0.82 1.89 0
 -14 -10 5 1.35 1.77 0
 -14 -10 7 6.28 2.39 0
 -14 -8 -2 -0.38 1.69 0
 -14 -8 -1 -0.49 1.37 0
 -14 -8 2 2.92 1.61 0
 -14 -8 3 29.58 2.65 0
 -14 -8 4 4.88 1.67 0
 -14 -8 5 32.05 2.77 0
 -14 -8 6 0.71 1.53 0
 -14 -8 7 31.31 2.81 0
 -14 -8 8 5.97 2.19 0
 -14 -8 9 38.54 3.12 0
 -14 -8 11 0.97 2.17 0
 -14 -6 2 8.9 1.75 0
 -14 -6 3 11.87 1.78 0
 -14 -6 4 41.61 2.69 0
 -14 -6 5 34.51 2.63 0
 -14 -6 6 5.63 1.94 0
 -14 -6 7 2.45 1.77 0
 -14 -6 8 8.37 1.85 0
 -14 -6 9 26.04 2.56 0
 -14 -6 10 40.08 2.95 0
 -14 -6 11 6.83 1.88 0
 -14 -6 12 16.06 2.42 0
 -14 -6 13 2.72 1.76 0
 -14 -4 5 9.3 1.77 0
 -14 -4 6 9.35 1.81 0
 -14 -4 7 5.74 1.57 0
 -14 -4 8 2.59 1.47 0
 -14 -4 10 61.7 3.06 0
 -14 -4 11 72.4 3.31 0
 -14 -4 12 82.45 3.5 0
 -14 -4 13 3.35 1.58 0
 -14 -4 14 1.84 1.56 0
 -14 -2 6 -0.35 1.37 0
 -14 -2 9 21.72 2.11 0
 -14 -2 10 22.33 2.2 0
 -14 -2 11 10.53 1.82 0
 -14 -2 12 2.15 1.53 0
 -14 -2 13 -0.22 1.33 0
 -14 -2 14 0.6 1.36 0
 -14 0 8 249.92 5 0
 -14 0 10 1.55 1.2 0
 -14 2 8 25.58 1.88 0
 -14 2 9 26.97 1.83 0
 -13 -11 -2 -0.16 1.47 0
 -13 -11 0 -0.32 1.58 0
 -13 -11 2 9.38 2.13 0
 -13 -11 3 2.94 1.69 0
 -13 -11 4 4.05 1.81 0
 -13 -11 5 5.25 1.82 0
 -13 -11 7 3.05 2.26 0
 -13 -9 -6 13.45 1.9 0
 -13 -9 -5 76.14 3.11 0
 -13 -9 -3 24.99 2.3 0
 -13 -9 -2 10.58 1.72 0
 -13 -9 -1 5.38 1.73 0
 -13 -9 0 6.87 1.86 0
 -13 -9 2 2.9 1.75 0
 -13 -9 3 42.9 2.83 0
 -13 -9 5 -0.26 1.6 0
 -13 -9 6 8.39 1.97 0
 -13 -9 7 14.91 2.39 0
 -13 -9 8 1.63 1.64 0
 -13 -9 9 1.66 1.74 0
 -13 -9 10 3.08 2.15 0
 -13 -7 2 0.96 1.32 0
 -13 -7 5 18.1 2.22 0
 -13 -7 6 27.32 2.37 0
 -13 -7 7 93.95 3.62 0
 -13 -7 8 0.93 1.47 0
 -13 -7 9 7.31 1.76 0
 -13 -7 10 11.12 2.02 0
 -13 -7 11 31.06 2.81 0
 -13 -7 12 14.49 2.21 0
 -13 -7 13 21.34 2.65 0
 -13 -5 5 1.23 1.21 0
 -13 -5 6 8.4 1.75 0
 -13 -5 7 3.19 1.34 0
 -13 -5 8 13.13 1.96 0
 -13 -5 11 9.99 1.95 0
 -13 -5 14 7.36 1.88 0
 -13 -5 15 -1.42 1.62 0
 -13 -3 6 1.76 1.18 0
 -13 -3 7 51.6 2.52 0
 -13 -3 9 10.76 1.78 0
 -13 -3 10 12.23 1.8 0
 -13 -3 12 12.22 1.87 0
 -13 -3 13 1.42 1.62 0
 -13 -3 14 -0.58 1.31 0
 -13 -3 15 11.59 1.94 0
 -13 -3 16 0.23 1.4 0
 -13 -1 8 46.89 2.32 0
 -13 -1 9 2.32 1.23 0
 -13 -1 10 4.2 1.24 0
 -13 -1 11 8.1 1.5 0
 -13 -1 12 2.34 1.4 0
 -13 -1 13 -0.65 1.3 0
 -13 1 8 44.74 2.17 0
 -13 1 9 1.44 1.05 0
 -13 1 10 3.12 1.19 0
 -13 1 11 8.38 1.24 0
 -12 -12 -2 74.1 3.14 0
 -12 -12 -1 4.38 1.54 0
 -12 -12 0 1.4 1.5 0
 -12 -12 1 5.52 1.88 0
 -12 -12 4 7.8 1.91 0
 -12 -12 5 14.55 2.16 0
 -12 -12 6 22.23 2.77 0
 -12 -12 7 19.19 2.39 0
 -12 -10 -5 128.6 3.55 0
 -12 -10 -4 -0.84 1.24 0
 -12 -10 -2 23.6 2.19 0
 -12 -10 0 6.62 1.76 0
 -12 -10 2 18.1 2.23 0
 -12 -10 3 5.99 1.82 0
 -12 -10 4 7.27 1.99 0
 -12 -10 6 3.79 1.6 0
 -12 -10 8 -0.83 1.53 0
 -12 -10 9 4.43 2.1 0
 -12 -10 10 1.54 1.89 0
 -12 -8 -2 6.57 1.52 0
 -12 -8 0 1.95 1.39 0
 -12 -8 1 54.6 2.73 0
 -12 -8 2 26.07 2.22 0
 -12 -8 3 33.38 2.35 0
 -12 -8 4 -0.81 1.28 0
 -12 -8 5 25.51 2.35 0
 -12 -8 6 23.17 2.33 0
 -12 -8 7 15.24 2.16 0
 -12 -8 10 -1.05 1.78 0
 -12 -8 11 15.98 2.36 0
 -12 -8 12 10.08 1.96 0
 -12 -8 13 0.64 1.61 0
 -12 -6 2 19.06 1.91 0
 -12 -6 3 25.2 2.02 0
 -12 -6 4 5.52 1.49 0
 -12 -6 5 2.56 1.23 0
 -12 -6 6 20.97 1.97 0
 -12 -6 7 9.56 1.74 0
 -12 -6 8 41.61 2.59 0
 -12 -6 9 4.78 1.43 0
 -12 -6 10 6.92 1.92 0
 -12 -6 11 21.16 2.33 0
 -12 -6 12 3.13 1.82 0
 -12 -6 13 1 1.61 0
 -12 -6 14 14.96 2.08 0
 -12 -6 15 1.47 1.77 0
 -12 -4 5 49.71 2.37 0
 -12 -4 6 57.41 2.52 0
 -12 -4 7 67.08 2.74 0
 -12 -4 8 -0.64 1.16 0
 -12 -4 9 6.81 1.51 0
 -12 -4 10 0.74 1.29 0
 -12 -4 11 1.62 1.37 0
 -12 -4 12 28.32 2.31 0
 -12 -4 14 -0.25 1.57 0
 -12 -4 15 1.33 1.47 0
 -12 -4 16 62.12 3.05 0
 -12 -2 6 7.01 1.14 0
 -12 -2 7 99.46 2.97 0
 -12 -2 8 -0.25 0.92 0
 -12 -2 9 7.87 1.45 0
 -12 -2 10 0.02 1.01 0
 -12 -2 11 15.2 1.79 0
 -12 -2 12 12.65 1.67 0
 -12 -2 13 8.4 1.56 0
 -12 -2 14 12.21 1.79 0
 -12 -2 15 0.82 1.32 0
 -12 0 8 21.43 1.64 0
 -12 0 10 31.38 1.92 0
 -12 2 8 -0.09 0.76 0
 -12 2 9 9.51 1.22 0
 -12 4 8 -0.33 0.39 0
 -11 -13 0 2.87 1.63 0
 -11 -13 1 30.21 2.52 0
 -11 -13 2 0.16 1.46 0
 -11 -13 4 29.28 2.68 0
 -11 -13 5 0.11 1.71 0
 -11 -13 6 6.61 1.86 0
 -11 -11 -3 4.11 1.35 0
 -11 -11 -1 2.19 1.37 0
 -11 -11 1 33.74 2.45 0
 -11 -11 2 15.74 1.96 0
 -11 -11 3 1.93 1.6 0
 -11 -11 4 -0.26 1.61 0
 -11 -11 5 0.45 1.65 0
 -11 -11 8 0.78 1.91 0
 -11 -11 9 2.01 1.72 0
 -11 -9 -7 23.26 1.95 0
 -11 -9 -5 14.46 1.76 0
 -11 -9 -4 4.11 1.47 0
 -11 -9 -3 21.12 2 0
 -11 -9 -2 6.6 1.53 0
 -11 -9 1 0 1.14 0
 -11 -9 2 1.82 1.44 0
 -11 -9 4 5.04 1.43 0
 -11 -9 6 2.3 1.44 0
 -11 -9 7 4.74 1.53 0
 -11 -9 8 6.15 1.85 0
 -11 -9 9 12.36 2.23 0
 -11 -9 11 31.7 2.77 0
 -11 -9 13 6.41 2.07 0
 -11 -7 1 6.55 1.44 0
 -11 -7 2 19.97 1.82 0
 -11 -7 3 -0.34 0.95 0
 -11 -7 4 45.71 2.39 0
 -11 -7 6 0.9 1.08 0
 -11 -7 7 -0.2 1.18 0
 -11 -7 9 33.38 2.44 0
 -11 -7 10 46.11 2.79 0
 -11 -7 11 1.44 1.56 0
 -11 -7 12 1.3 1.64 0
 -11 -7 13 4.65 1.67 0
 -11 -7 14 15.76 2.34 0
 -11 -7 15 7.71 1.9 0
 -11 -5 4 3.83 1.07 0
 -11 -5 5 4.18 1.16 0
 -11 -5 6 5.85 1.31 0
 -11 -5 7 0.37 0.93 0
 -11 -5 8 2.26 1.14 0
 -11 -5 9 2.05 1.4 0
 -11 -5 11 53.24 2.69 0
 -11 -5 14 2.73 1.51 0
 -11 -3 6 3.9 0.99 0
 -11 -3 7 -0.15 1.03 0
 -11 -3 8 17.08 1.6 0
 -11 -3 9 48.31 2.3 0
 -11 -3 10 19.74 1.8 0
 -11 -3 11 74.39 2.84 0
 -11 -3 12 128.22 3.55 0
 -11 -3 13 2.22 1.38 0
 -11 -3 14 1.58 1.32 0
 -11 -3 15 93.91 3.2 0
 -11 -3 16 65.63 2.87 0
 -11 -3 17 1.47 1.42 0
 -11 -1 7 3.52 1.07 0
 -11 -1 8 37.2 1.85 0
 -11 -1 9 47.82 2.09 0
 -11 -1 10 77.94 2.55 0
 -11 -1 12 3.19 1.11 0
 -11 -1 13 14.32 1.72 0
 -11 -1 14 0.51 1.06 0
 -11 1 9 50.41 1.94 0
 -11 1 10 77.54 2.3 0
 -11 1 11 6.86 1.13 0
 -10 -12 -2 -0.13 1.26 0
 -10 -12 -1 -0.64 1.23 0
 -10 -12 0 0.53 1.39 0
 -10 -12 1 17.63 2.04 0
 -10 -12 3 10.08 1.89 0
 -10 -12 4 0.45 1.61 0
 -10 -12 5 11.23 1.98 0
 -10 -12 6 21.63 2.4 0
 -10 -12 8 0.62 1.73 0
 -10 -12 9 10.42 2.31 0
 -10 -12 10 46.54 3.21 0
 -10 -10 -5 101.36 2.92 0
 -10 -10 -4 7.97 1.43 0
 -10 -10 -3 0.64 1.13 0
 -10 -10 -2 19.31 1.86 0
 -10 -10 2 4.44 1.39 0
 -10 -10 4 1.13 1.53 0
 -10 -10 6 -0.11 1.32 0
 -10 -10 7 20.11 2.29 0
 -10 -10 8 1.53 1.53 0
 -10 -10 9 0.25 1.45 0
 -10 -10 10 8.97 2.17 0
 -10 -10 11 13.11 2.21 0
 -10 -10 12 -1.56 1.44 0
 -10 -10 13 -0.98 1.63 0
 -10 -8 -2 9.97 1.39 0
 -10 -8 -1 0.3 1.08 0
 -10 -8 0 -0.38 1.04 0
 -10 -8 1 1.63 0.99 0
 -10 -8 2 9.11 1.47 0
 -10 -8 3 108.88 3.22 0
 -10 -8 4 2.07 1.08 0
 -10 -8 5 3.69 1.22 0
 -10 -8 6 45.95 2.46 0
 -10 -8 7 87.88 3.19 0
 -10 -8 9 0.53 1.34 0
 -10 -8 10 19.15 2.25 0
 -10 -8 11 81.95 3.43 0
 -10 -8 12 29.66 2.55 0
 -10 -8 13 -0.65 1.68 0
 -10 -8 14 0.04 1.7 0
 -10 -8 15 62.65 3.36 0
 -10 -6 2 59.51 2.3 0
 -10 -6 3 227.39 4.26 0
 -10 -6 5 17.52 1.65 0
 -10 -6 6 14.76 1.62 0
 -10 -6 7 115.15 3.3 0
 -10 -6 8 11.68 1.57 0
 -10 -6 9 22.76 2.01 0
 -10 -6 10 22.63 2.06 0
 -10 -6 11 51.88 2.72 0
 -10 -6 12 1.4 1.29 0
 -10 -6 13 11.99 1.81 0
 -10 -6 14 1.31 1.68 0
 -10 -6 15 28.84 2.46 0
 -10 -6 16 -0.47 1.41 0
 -10 -4 5 50.62 2.06 0
 -10 -4 6 5.55 1 0
 -10 -4 9 57.56 2.42 0
 -10 -4 10 32.87 2.04 0
 -10 -4 11 65.46 2.69 0
 -10 -4 12 1.37 1.1 0
 -10 -4 15 51.21 2.65 0
 -10 -4 16 10.89 1.77 0
 -10 -4 17 11.44 1.77 0
 -10 -4 18 32.9 2.49 0
 -10 -2 6 1.4 0.72 0
 -10 -2 7 24.99 1.55 0
 -10 -2 8 12.38 1.33 0
 -10 -2 9 44.48 2 0
 -10 -2 10 1.84 1.11 0
 -10 -2 11 63.81 2.39 0
 -10 -2 12 5.83 1.22 0
 -10 -2 13 5.6 1.25 0
 -10 -2 14 0.68 1.18 0
 -10 -2 15 38.85 2.2 0
 -10 -2 16 24.37 1.89 0
 -10 0 10 21.46 1.47 0
 -9 -13 0 2.34 1.27 0
 -9 -13 1 4.2 1.41 0
 -9 -13 2 -0.24 1.23 0
 -9 -13 3 -0.45 1.39 0
 -9 -13 4 9.59 1.84 0
 -9 -13 5 7.25 1.81 0
 -9 -13 7 8.05 1.97 0
 -9 -13 9 0.6 1.97 0
 -9 -11 -3 22.54 1.81 0
 -9 -11 -1 50.1 2.37 0
 -9 -11 0 14.06 1.73 0
 -9 -11 1 5.17 1.33 0
 -9 -11 2 20.82 1.97 0
 -9 -11 3 47.66 2.57 0
 -9 -11 5 6.45 1.71 0
 -9 -11 6 11.12 1.84 0
 -9 -11 7 25.86 2.42 0
 -9 -11 8 4.95 1.75 0
 -9 -11 10 6.14 1.76 0
 -9 -11 12 2.09 1.81 0
 -9 -9 -7 21.35 1.65 0
 -9 -9 -5 72.65 2.4 0
 -9 -9 -4 2.72 1.01 0
 -9 -9 -3 24.95 1.68 0
 -9 -9 -2 1.87 1.06 0
 -9 -9 -1 14.46 1.52 0
 -9 -9 0 0.62 1.03 0
 -9 -9 1 65.93 2.5 0
 -9 -9 3 1.09 1.13 0
 -9 -9 4 1.4 1.07 0
 -9 -9 5 120.22 3.5 0
 -9 -9 6 2.96 1.22 0
 -9 -9 7 8.11 1.6 0
 -9 -9 9 142.76 4.1 0
 -9 -9 10 -0.28 1.38 0
 -9 -9 13 5.39 1.7 0
 -9 -9 14 0.15 1.6 0
 -9 -7 0 4.81 1.06 0
 -9 -7 1 55.96 2.15 0
 -9 -7 2 1.78 0.85 0
 -9 -7 3 85.31 2.64 0
 -9 -7 4 0.53 0.97 0
 -9 -7 5 120.15 3.2 0
 -9 -7 6 10.72 1.4 0
 -9 -7 7 96.21 3.06 0
 -9 -7 8 28.89 2.06 0
 -9 -7 9 143.18 3.8 0
 -9 -7 10 6.4 1.41 0
 -9 -7 11 194.45 4.54 0
 -9 -7 13 7.4 1.64 0
 -9 -7 14 12.48 2.06 0
 -9 -7 15 62.55 3.15 0
 -9 -7 16 -1.51 1.67 0
 -9 -5 3 2.55 0.83 0
 -9 -5 4 19.09 1.43 0
 -9 -5 6 61.17 2.21 0
 -9 -5 7 7.85 1.19 0
 -9 -5 8 3.44 1.06 0
 -9 -5 9 1.28 1.15 0
 -9 -5 10 0.87 1.23 0
 -9 -5 11 7.65 1.52 0
 -9 -5 12 5.24 1.39 0
 -9 -5 13 5.19 1.42 0
 -9 -5 14 0.23 1.19 0
 -9 -5 15 5.75 1.45 0
 -9 -5 16 25.19 2.34 0
 -9 -5 18 4.41 1.5 0
 -9 -3 6 32.88 1.6 0
 -9 -3 7 99.51 2.59 0
 -9 -3 8 8.95 1.19 0
 -9 -3 9 10.78 1.3 0
 -9 -3 10 3.72 1 0
 -9 -3 11 7.61 1.4 0
 -9 -3 13 2.72 1.29 0
 -9 -3 14 4.16 1.26 0
 -9 -3 16 76.95 2.89 0
 -9 -3 18 58.03 2.68 0
 -9 -1 9 27.17 1.55 0
 -9 -1 10 580.43 5.88 0
 -9 -1 11 1.57 0.84 0
 -9 -1 12 14.96 1.44 0
 -9 -1 14 147.84 3.23 0
 -9 -1 15 8.14 1.24 0
 -9 1 7 12.25 1.08 0
 -9 1 8 86.99 2.09 0
 -9 1 12 14.78 1.17 0
 -9 3 8 7.96 0.85 0
 -9 3 9 10.22 0.87 0
 -8 -14 2 0.73 1.47 0
 -8 -14 3 54.48 2.68 0
 -8 -14 4 47.07 2.67 0
 -8 -14 5 1.3 1.52 0
 -8 -14 6 0.85 1.48 0
 -8 -14 7 38.6 2.8 0
 -8 -12 -2 17.53 1.72 0
 -8 -12 -1 -0.51 1.11 0
 -8 -12 0 19.46 1.8 0
 -8 -12 1 61.33 2.56 0
 -8 -12 3 60.36 2.73 0
 -8 -12 5 -0.42 1.29 0
 -8 -12 6 24.48 2.29 0
 -8 -12 7 16.68 2.11 0
 -8 -12 8 5.93 1.8 0
 -8 -12 9 9.29 1.9 0
 -8 -12 10 -0.9 1.44 0
 -8 -12 11 10.94 2.25 0
 -8 -10 -5 1.26 0.92 0
 -8 -10 -3 2.57 1 0
 -8 -10 -2 49.08 2.05 0
 -8 -10 -1 0.82 0.95 0
 -8 -10 0 7.41 1.24 0
 -8 -10 2 69.89 2.61 0
 -8 -10 3 22.11 1.87 0
 -8 -10 6 52.44 2.58 0
 -8 -10 7 0.2 1.29 0
 -8 -10 8 0.59 1.3 0
 -8 -10 9 3.66 1.59 0
 -8 -10 10 9.58 1.7 0
 -8 -10 11 46.88 2.88 0
 -8 -10 12 2.33 1.75 0
 -8 -10 14 2.15 1.65 0
 -8 -8 -2 19.18 1.41 0
 -8 -8 -1 2.66 0.83 0
 -8 -8 0 13.87 1.32 0
 -8 -8 1 4.46 0.91 0
 -8 -8 2 0.38 0.8 0
 -8 -8 3 56.08 2.25 0
 -8 -8 5 100.75 2.95 0
 -8 -8 6 8.54 1.44 0
 -8 -8 7 22.01 1.83 0
 -8 -8 8 1.13 1.24 0
 -8 -8 10 17.89 2.03 0
 -8 -8 12 9.29 1.8 0
 -8 -8 13 2.76 1.39 0
 -8 -8 14 -0.66 1.33 0
 -8 -8 15 23.9 2.53 0
 -8 -8 16 5.23 1.94 0
 -8 -6 4 23.36 1.51 0
 -8 -6 6 48.91 2.05 0
 -8 -6 8 70.27 2.52 0
 -8 -6 10 5.23 1.24 0
 -8 -6 11 31.95 2.12 0
 -8 -6 12 6.27 1.34 0
 -8 -6 13 15.32 1.93 0
 -8 -6 14 6.96 1.58 0
 -8 -6 16 2.62 1.72 0
 -8 -6 17 7.77 1.77 0
 -8 -6 18 12.92 1.92 0
 -8 -4 8 57.64 2.11 0
 -8 -4 9 0.82 0.89 0
 -8 -4 11 2.06 0.96 0
 -8 -4 12 -0.87 0.91 0
 -8 -4 13 0.31 1.17 0
 -8 -4 14 2.87 1.38 0
 -8 -4 16 -0.92 1.24 0
 -8 -4 17 -0.82 1.2 0
 -8 -4 18 0.99 1.24 0
 -8 -2 6 2.85 0.71 0
 -8 -2 11 7.42 1.05 0
 -8 -2 12 3.19 0.95 0
 -8 -2 13 28.49 1.72 0
 -8 -2 14 3.53 1.19 0
 -8 -2 15 39.8 2.1 0
 -8 -2 16 -0.72 1.02 0
 -8 -2 17 10.36 1.37 0
 -8 0 8 136.23 2.57 0
 -8 0 12 2.66 0.85 0
 -8 0 14 2.9 0.82 0
 -8 2 7 21.04 1.05 0
 -8 2 8 55.88 1.51 0
 -8 2 9 39.45 1.34 0
 -8 2 10 19.4 1.07 0
 -8 2 11 6.75 0.8 0
 -7 -13 0 43.68 2.17 0
 -7 -13 1 16.07 1.81 0
 -7 -13 2 3.56 1.31 0
 -7 -13 3 27.67 2.17 0
 -7 -13 4 11.48 1.65 0
 -7 -13 5 5.96 1.74 0
 -7 -13 6 8.51 1.63 0
 -7 -13 7 0.37 1.54 0
 -7 -13 8 0.21 1.72 0
 -7 -13 9 3.64 1.85 0
 -7 -13 10 4.09 1.95 0
 -7 -11 -3 44.13 1.86 0
 -7 -11 -2 2.81 0.96 0
 -7 -11 -1 109.23 2.83 0
 -7 -11 1 90.89 2.8 0
 -7 -11 3 56.5 2.47 0
 -7 -11 4 82.25 2.95 0
 -7 -11 5 31.7 2.24 0
 -7 -11 6 12.88 1.63 0
 -7 -11 7 97.4 3.34 0
 -7 -11 8 15.28 2.06 0
 -7 -11 9 64.49 3.04 0
 -7 -11 10 0.1 1.36 0
 -7 -11 11 25.09 2.51 0
 -7 -11 12 5.09 1.74 0
 -7 -11 13 34.66 2.87 0
 -7 -9 -2 5.19 0.99 0
 -7 -9 0 1.33 0.87 0
 -7 -9 2 5.15 1.09 0
 -7 -9 3 43.01 2 0
 -7 -9 4 0.23 0.89 0
 -7 -9 6 10.72 1.6 0
 -7 -9 7 33.8 2.08 0
 -7 -9 8 17 1.81 0
 -7 -9 9 114.87 3.51 0
 -7 -9 10 -0.5 1.3 0
 -7 -9 11 2.74 1.38 0
 -7 -9 12 19.43 2.22 0
 -7 -9 13 74.63 3.3 0
 -7 -9 14 13.78 1.99 0
 -7 -9 16 1.99 1.64 0
 -7 -7 4 3.74 0.99 0
 -7 -7 5 12.25 1.31 0
 -7 -7 6 1.2 0.87 0
 -7 -7 7 41.29 2.01 0
 -7 -7 8 -0.86 0.78 0
 -7 -7 9 1.84 0.95 0
 -7 -7 10 0.4 1.24 0
 -7 -7 11 123.36 3.47 0
 -7 -7 12 0.95 1.12 0
 -7 -7 13 1.67 1.46 0
 -7 -7 14 1.34 1.5 0
 -7 -7 15 136.62 4.03 0
 -7 -7 16 0.11 1.64 0
 -7 -7 17 18.01 2.08 0
 -7 -5 2 226.74 3.41 0
 -7 -5 3 1.1 0.62 0
 -7 -5 7 -0.07 0.78 0
 -7 -5 8 18.24 1.42 0
 -7 -5 10 10.41 1.4 0
 -7 -5 11 -0.68 0.79 0
 -7 -5 12 8.98 1.32 0
 -7 -5 13 2.36 1.11 0
 -7 -5 15 0.82 1.38 0
 -7 -5 16 21.29 2.04 0
 -7 -5 17 19.15 2.16 0
 -7 -3 4 20.86 1.11 0
 -7 -3 5 103.17 2.26 0
 -7 -3 6 6.72 0.89 0
 -7 -3 10 -0.61 0.68 0
 -7 -3 11 32.41 1.71 0
 -7 -3 13 0.27 0.99 0
 -7 -3 14 -0.08 0.87 0
 -7 -3 15 32.34 1.98 0
 -7 -3 16 2.09 1.33 0
 -7 -3 17 0.72 1.16 0
 -7 -1 6 2.09 0.64 0
 -7 -1 7 -0.23 0.44 0
 -7 -1 9 0.81 0.61 0
 -7 -1 12 12.4 1.19 0
 -7 -1 13 0.94 0.87 0
 -7 -1 14 236.05 3.98 0
 -7 -1 15 0.39 0.93 0
 -7 1 7 0.18 0.48 0
 -7 1 8 150.27 2.42 0
 -7 1 10 155.56 2.61 0
 -7 1 11 0.52 0.54 0
 -7 3 7 14.19 0.78 0
 -7 5 7 0.05 0.29 0
 -6 -14 2 -0.11 1.09 0
 -6 -14 3 1.1 1.29 0
 -6 -14 4 1.63 1.46 0
 -6 -14 5 31.61 2.3 0
 -6 -14 8 1.4 1.75 0
 -6 -14 9 -0.02 1.57 0
 -6 -12 -1 -0.68 0.84 0
 -6 -12 0 0.48 1.04 0
 -6 -12 1 12.6 1.52 0
 -6 -12 2 3.95 1.29 0
 -6 -12 3 34.1 2.1 0
 -6 -12 4 -0.98 1.09 0
 -6 -12 5 5.33 1.37 0
 -6 -12 6 8.4 1.7 0
 -6 -12 7 47.7 2.63 0
 -6 -12 8 -0.01 1.38 0
 -6 -12 9 7.21 1.81 0
 -6 -12 10 9.04 2.02 0
 -6 -12 11 -0.49 1.77 0
 -6 -12 12 -0.3 1.64 0
 -6 -12 13 3.35 1.74 0
 -6 -10 0 -0.6 0.78 0
 -6 -10 1 17.42 1.44 0
 -6 -10 2 9.8 1.29 0
 -6 -10 3 123.23 3.07 0
 -6 -10 7 67.1 2.69 0
 -6 -10 8 4.63 1.49 0
 -6 -10 10 46.17 2.61 0
 -6 -10 11 17.76 2.08 0
 -6 -10 12 1.31 1.54 0
 -6 -10 13 0.24 1.63 0
 -6 -10 14 20.32 2.25 0
 -6 -10 15 30.95 2.71 0
 -6 -8 -6 3.39 0.73 0
 -6 -8 -5 68.01 1.79 0
 -6 -8 -2 63.96 1.86 0
 -6 -8 3 5.47 0.9 0
 -6 -8 4 0.4 0.66 0
 -6 -8 6 5.12 1.11 0
 -6 -8 7 1.59 1.05 0
 -6 -8 8 1.53 1.13 0
 -6 -8 9 159.39 3.74 0
 -6 -8 10 14.56 1.71 0
 -6 -8 11 99.53 3.24 0
 -6 -8 12 0.76 1.41 0
 -6 -8 13 19.83 2.14 0
 -6 -8 14 3.63 1.77 0
 -6 -8 16 1.15 1.54 0
 -6 -6 0 91.3 2.05 0
 -6 -6 2 -0.41 0.56 0
 -6 -6 3 16.11 1.19 0
 -6 -6 7 48.94 1.96 0
 -6 -6 8 3.88 0.91 0
 -6 -6 9 10.82 1.29 0
 -6 -6 10 5.15 1.12 0
 -6 -6 11 1.18 1.02 0
 -6 -6 12 12.15 1.49 0
 -6 -6 13 0.3 1.23 0
 -6 -6 14 6.71 1.38 0
 -6 -6 15 0.19 1.47 0
 -6 -6 16 4.31 1.43 0
 -6 -4 3 50.21 1.56 0
 -6 -4 4 16.2 1.05 0
 -6 -4 5 184.99 2.97 0
 -6 -4 6 638.65 5.52 0
 -6 -4 9 35.77 1.64 0
 -6 -4 10 142.87 3.06 0
 -6 -4 11 52.54 2.08 0
 -6 -4 12 -0.31 0.76 0
 -6 -4 13 36.84 1.98 0
 -6 -4 14 94.72 2.92 0
 -6 -4 15 22.04 1.9 0
 -6 -4 16 3.52 1.28 0
 -6 -4 17 34.24 2.21 0
 -6 -2 5 0.63 0.43 0
 -6 -2 6 56.9 1.57 0
 -6 -2 7 10.71 0.94 0
 -6 -2 8 179.28 2.95 0
 -6 -2 12 1.92 0.92 0
 -6 -2 13 5.13 0.98 0
 -6 -2 14 7.47 1.18 0
 -6 0 6 261.17 2.88 0
 -6 0 8 174.61 2.6 0
 -6 0 10 916.78 5.98 0
 -6 0 14 365.82 4.34 0
 -6 2 6 55.81 1.21 0
 -6 2 7 10.76 0.68 0
 -6 2 9 2.97 0.52 0
 -6 2 10 54.69 1.33 0
 -6 2 11 8.37 0.72 0
 -6 4 7 139.46 1.57 0
 -6 4 8 32.83 0.77 0
 -6 4 9 34.47 0.75 0
 -5 -15 5 2.22 1.37 0
 -5 -15 6 22.77 2.29 0
 -5 -13 0 67.89 2.25 0
 -5 -13 1 20.02 1.65 0
 -5 -13 2 5.32 1.22 0
 -5 -13 3 13.2 1.54 0
 -5 -13 4 33.18 2.15 0
 -5 -13 5 0.24 1.14 0
 -5 -13 6 1.03 1.47 0
 -5 -13 8 2.43 1.74 0
 -5 -13 10 1.17 1.44 0
 -5 -13 11 3.15 1.63 0
 -5 -11 -1 17.45 1.34 0
 -5 -11 1 81.79 2.42 0
 -5 -11 4 100.8 2.9 0
 -5 -11 5 10.32 1.41 0
 -5 -11 6 85.83 2.87 0
 -5 -11 8 26.63 2.12 0
 -5 -11 9 6.42 1.56 0
 -5 -11 10 50.3 2.78 0
 -5 -11 11 42.76 2.68 0
 -5 -11 12 1.24 1.74 0
 -5 -11 14 2.03 1.9 0
 -5 -9 -5 97.08 2.05 0
 -5 -9 -3 0.76 0.67 0
 -5 -9 -2 2.59 0.68 0
 -5 -9 -1 64.6 1.89 0
 -5 -9 3 1.2 0.82 0
 -5 -9 4 0.84 0.86 0
 -5 -9 5 37.49 1.87 0
 -5 -9 6 8.23 1.29 0
 -5 -9 8 8.15 1.41 0
 -5 -9 9 31.31 2.04 0
 -5 -9 10 -0.19 1.05 0
 -5 -9 11 54.46 2.67 0
 -5 -9 12 21.25 2.1 0
 -5 -9 13 4.52 1.5 0
 -5 -9 14 14.49 2.14 0
 -5 -9 15 5.02 1.88 0
 -5 -7 0 182.04 2.84 0
 -5 -7 1 53.57 1.66 0
 -5 -7 2 4.36 0.77 0
 -5 -7 3 31.47 1.44 0
 -5 -7 6 6.73 1 0
 -5 -7 7 3.6 0.88 0
 -5 -7 8 9.99 1.19 0
 -5 -7 9 345.74 5.14 0
 -5 -7 10 1.38 1.04 0
 -5 -7 11 9.72 1.5 0
 -5 -7 13 103.11 3.26 0
 -5 -7 15 -0.03 1.2 0
 -5 -7 16 3.65 1.56 0
 -5 -5 3 38.33 1.36 0
 -5 -5 4 0.87 0.48 0
 -5 -5 5 19.61 1.15 0
 -5 -5 6 91.67 2.23 0
 -5 -5 9 2.01 0.79 0
 -5 -5 10 3.15 0.85 0
 -5 -5 11 4 1.07 0
 -5 -5 13 0.91 0.97 0
 -5 -5 14 1.22 1.18 0
 -5 -5 15 -0.35 1.02 0
 -5 -5 16 18.92 1.94 0
 -5 -3 3 123.4 2.06 0
 -5 -3 4 46.71 1.33 0
 -5 -3 5 565.06 4.53 0
 -5 -3 6 66.19 1.71 0
 -5 -3 7 -0.16 0.59 0
 -5 -3 12 10.05 1.19 0
 -5 -3 13 33.37 1.75 0
 -5 -3 15 3.84 1.21 0
 -5 -1 5 131.72 2.04 0
 -5 -1 6 447.95 3.71 0
 -5 -1 7 19.14 0.95 0
 -5 -1 8 9.14 0.83 0
 -5 -1 9 25.4 1.2 0
 -5 -1 10 348.87 3.88 0
 -5 -1 13 1.84 0.78 0
 -5 -1 14 17.94 1.36 0
 -5 -1 15 2.55 0.96 0
 -5 1 6 441 3.18 0
 -5 1 7 18.54 0.82 0
 -5 1 9 24.92 0.99 0
 -5 1 10 349.64 3.33 0
 -5 1 11 3.99 0.61 0
 -5 1 12 34.61 1.24 0
 -5 1 13 1.13 0.54 0
 -5 3 8 23.14 0.71 0
 -5 3 9 152.28 1.69 0
 -5 3 10 -0.15 0.29 0
 -5 3 11 0.85 0.3 0
 -5 5 6 96.85 0.83 0
 -4 -14 5 9.53 1.63 0
 -4 -14 6 2.38 1.52 0
 -4 -14 7 1.85 1.47 0
 -4 -14 8 19.85 2.28 0
 -4 -14 9 2.43 1.74 0
 -4 -12 -1 -0.59 0.68 0
 -4 -12 0 109.72 2.56 0
 -4 -12 2 47.93 2.03 0
 -4 -12 3 -0.84 0.81 0
 -4 -12 4 75.11 2.59 0
 -4 -12 5 0.8 1.17 0
 -4 -12 8 5.67 1.41 0
 -4 -12 10 58.62 2.95 0
 -4 -12 11 -1.16 1.53 0
 -4 -12 12 7.86 1.87 0
 -4 -10 -4 -0.22 0.55 0
 -4 -10 -3 62.17 1.64 0
 -4 -10 -1 4.28 0.87 0
 -4 -10 2 11.84 1.19 0
 -4 -10 3 -0.01 0.7 0
 -4 -10 4 28.32 1.65 0
 -4 -10 5 15.73 1.48 0
 -4 -10 6 27.87 1.8 0
 -4 -10 7 30.65 1.92 0
 -4 -10 8 0.66 1 0
 -4 -10 9 109.94 3.31 0
 -4 -10 11 1.09 1.49 0
 -4 -10 12 6.65 1.5 0
 -4 -10 13 63.26 3.06 0
 -4 -8 -6 9.86 0.73 0
 -4 -8 -4 180.76 2.47 0
 -4 -8 -3 187.13 2.56 0
 -4 -8 -1 76.36 1.81 0
 -4 -8 0 94.13 2.04 0
 -4 -8 1 333.95 3.9 0
 -4 -8 6 33.91 1.7 0
 -4 -8 7 1.26 0.9 0
 -4 -8 8 12.34 1.38 0
 -4 -8 9 4.22 1.01 0
 -4 -8 10 56.65 2.36 0
 -4 -8 11 60.76 2.59 0
 -4 -8 12 0.92 1.23 0
 -4 -8 13 0.57 1.16 0
 -4 -8 14 38.73 2.49 0
 -4 -8 15 152.52 4.13 0
 -4 -6 -2 8.92 0.69 0
 -4 -6 -1 31.96 1.1 0
 -4 -6 0 47.04 1.35 0
 -4 -6 1 294.17 3.26 0
 -4 -6 2 119.92 2.19 0
 -4 -6 3 48.97 1.51 0
 -4 -6 4 3.12 0.68 0
 -4 -6 8 10.85 1.17 0
 -4 -6 10 9.82 1.2 0
 -4 -6 11 31.14 1.82 0
 -4 -6 12 53.59 2.29 0
 -4 -6 13 16.7 1.74 0
 -4 -6 14 1.33 1.06 0
 -4 -6 15 49.85 2.51 0
 -4 -4 2 8.58 0.71 0
 -4 -4 4 4.56 0.64 0
 -4 -4 5 312.35 3.44 0
 -4 -4 7 1.08 0.62 0
 -4 -4 8 29.23 1.37 0
 -4 -4 11 13.91 1.24 0
 -4 -4 12 -0.25 0.85 0
 -4 -4 13 -0.21 0.76 0
 -4 -4 14 17.81 1.58 0
 -4 -4 15 3.33 1.17 0
 -4 -2 3 51.8 1.21 0
 -4 -2 4 68.72 1.43 0
 -4 -2 5 767.07 4.67 0
 -4 -2 6 52.1 1.36 0
 -4 -2 7 130.26 2.21 0
 -4 -2 9 68.76 1.78 0
 -4 -2 10 31.64 1.35 0
 -4 -2 13 7.05 1.04 0
 -4 -2 14 65.73 2.14 0
 -4 -2 15 37.28 1.79 0
 -4 0 6 63.8 1.33 0
 -4 0 12 63.4 1.71 0
 -4 4 6 36.49 0.54 0
 -3 -13 1 1.4 0.97 0
 -3 -13 2 13.03 1.41 0
 -3 -13 3 9.05 1.35 0
 -3 -13 4 1.13 1.11 0
 -3 -13 5 -0.66 1.01 0
 -3 -13 6 11.9 1.59 0
 -3 -13 7 13.99 1.8 0
 -3 -13 8 1.33 1.49 0
 -3 -13 9 9.53 1.69 0
 -3 -11 -2 8.12 0.9 0
 -3 -11 1 9.26 1.14 0
 -3 -11 2 3.51 0.89 0
 -3 -11 3 71.94 2.27 0
 -3 -11 4 13.73 1.44 0
 -3 -11 5 -0.15 0.97 0
 -3 -11 6 0.35 0.94 0
 -3 -11 8 0.44 1.12 0
 -3 -11 9 44.53 2.45 0
 -3 -11 10 17.3 2.03 0
 -3 -11 11 -0.38 1.17 0
 -3 -11 12 -0.52 1.26 0
 -3 -9 -4 0.83 0.47 0
 -3 -9 -3 6.42 0.71 0
 -3 -9 -2 24.36 1.08 0
 -3 -9 -1 78.35 1.79 0
 -3 -9 0 30.19 1.28 0
 -3 -9 1 140.52 2.71 0
 -3 -9 5 0.41 0.78 0
 -3 -9 7 81.31 2.53 0
 -3 -9 8 3.72 1.06 0
 -3 -9 9 176.17 3.82 0
 -3 -9 10 14.21 1.7 0
 -3 -9 11 12.96 1.67 0
 -3 -9 12 9.63 1.6 0
 -3 -7 -7 38.64 0.9 0
 -3 -7 -6 19.96 0.75 0
 -3 -7 -5 56.02 1.14 0
 -3 -7 -4 48.87 1.13 0
 -3 -7 -3 137.66 1.97 0
 -3 -7 0 8.8 0.77 0
 -3 -7 1 243.79 3 0
 -3 -7 2 75.84 1.81 0
 -3 -7 3 43.83 1.5 0
 -3 -7 4 27.19 1.27 0
 -3 -7 8 28.57 1.55 0
 -3 -7 9 327.09 4.77 0
 -3 -7 10 15.6 1.51 0
 -3 -7 11 34.75 1.96 0
 -3 -7 13 228.49 4.78 0
 -3 -5 -1 92.79 1.54 0
 -3 -5 0 132.7 1.86 0
 -3 -5 1 5.61 0.63 0
 -3 -5 2 65.8 1.47 0
 -3 -5 3 460.9 3.88 0
 -3 -5 4 133.26 2.25 0
 -3 -5 5 14.29 0.97 0
 -3 -5 6 45.09 1.53 0
 -3 -5 7 254.22 3.53 0
 -3 -5 10 0.01 0.61 0
 -3 -5 11 19.78 1.45 0
 -3 -5 12 -0.11 0.82 0
 -3 -5 14 11.57 1.48 0
 -3 -3 2 1336.73 5.36 0
 -3 -3 3 11.83 0.7 0
 -3 -3 4 921.77 4.94 0
 -3 -3 6 344.84 3.42 0
 -3 -3 7 18.4 1 0
 -3 -3 8 802.71 5.63 0
 -3 -3 9 8.38 0.93 0
 -3 -3 12 112.86 2.6 0
 -3 -3 13 57.05 2.04 0
 -3 -3 14 -0.13 0.76 0
 -3 -1 3 571.3 3.11 0
 -3 -1 4 15.06 0.66 0
 -3 -1 5 -0.08 0.31 0
 -3 -1 6 4.8 0.55 0
 -3 -1 7 185.37 2.28 0
 -3 -1 8 166.61 2.34 0
 -3 -1 10 520.23 4.38 0
 -3 -1 11 61.62 1.69 0
 -3 1 4 15.36 0.53 0
 -3 1 5 0.16 0.28 0
 -3 1 6 5.3 0.44 0
 -3 1 7 186.93 1.91 0
 -3 1 8 162.62 1.89 0
 -3 1 9 31.63 0.97 0
 -3 1 10 532.08 3.75 0
 -3 3 5 7.63 0.28 0
 -3 3 6 333.23 1.55 0
 -3 3 7 18 0.44 0
 -2 -12 1 70.83 2.05 0
 -2 -12 2 28.02 1.55 0
 -2 -12 3 21.15 1.57 0
 -2 -12 5 25.87 1.81 0
 -2 -12 6 135.27 3.4 0
 -2 -12 7 2.23 1.37 0
 -2 -12 8 38.88 2.29 0
 -2 -10 -3 180.82 2.27 0
 -2 -10 -2 0.18 0.48 0
 -2 -10 -1 0.43 0.57 0
 -2 -10 0 0.42 0.66 0
 -2 -10 4 37.96 1.74 0
 -2 -10 5 97.84 2.59 0
 -2 -10 6 56.55 2.17 0
 -2 -10 7 88.4 2.71 0
 -2 -10 8 13.94 1.57 0
 -2 -10 9 38.8 2.17 0
 -2 -10 10 57.94 2.57 0
 -2 -10 11 28.2 2.11 0
 -2 -8 -5 229.77 1.89 0
 -2 -8 -4 50.37 1.05 0
 -2 -8 -3 42.96 1.07 0
 -2 -8 -2 0.81 0.46 0
 -2 -8 -1 109.28 1.91 0
 -2 -8 1 54.48 1.51 0
 -2 -8 3 26.65 1.29 0
 -2 -8 6 10.93 1.12 0
 -2 -8 8 21.63 1.5 0
 -2 -8 9 106.67 2.87 0
 -2 -8 12 13.88 1.68 0
 -2 -6 -6 95.7 1.19 0
 -2 -6 -5 16.34 0.59 0
 -2 -6 -4 49.15 0.93 0
 -2 -6 -3 39.03 0.9 0
 -2 -6 -2 177.77 1.94 0
 -2 -6 -1 54.22 1.16 0
 -2 -6 0 37.93 1.07 0
 -2 -6 1 0.71 0.4 0
 -2 -6 2 7.26 0.69 0
 -2 -6 3 10.69 0.83 0
 -2 -6 4 46.96 1.43 0
 -2 -6 5 72.51 1.84 0
 -2 -6 6 -0.07 0.6 0
 -2 -6 10 12.23 1.24 0
 -2 -6 13 31.67 1.86 0
 -2 -4 -1 3.87 0.45 0
 -2 -4 0 11.35 0.59 0
 -2 -4 1 743.66 3.86 0
 -2 -4 2 362.82 2.92 0
 -2 -4 3 0.81 0.35 0
 -2 -4 4 1.83 0.52 0
 -2 -4 5 745.16 4.86 0
 -2 -4 6 71.96 1.67 0
 -2 -4 7 28.99 1.21 0
 -2 -4 8 2.15 0.6 0
 -2 -4 12 9.62 1.11 0
 -2 -2 2 2339.05 5.89 0
 -2 -2 3 284.73 2.29 0
 -2 -2 4 130.5 1.73 0
 -2 -2 5 1361.06 5.61 0
 -2 -2 6 158.1 2.09 0
 -2 -2 8 91.52 1.87 0
 -2 -2 9 591.59 4.67 0
 -2 -2 10 20.75 1.13 0
 -2 0 4 22.44 0.62 0
 -2 0 6 0.88 0.32 0
 -2 0 8 78.29 1.47 0
 -2 0 10 32.29 1.12 0
 -2 2 4 124.1 0.88 0
 -2 2 5 1301.41 3.11 0
 -1 -11 -1 33.74 1.25 0
 -1 -11 0 78.11 1.87 0
 -1 -11 2 3.71 0.86 0
 -1 -11 3 -0.61 0.66 0
 -1 -11 5 9.72 1.32 0
 -1 -11 6 43.32 2.04 0
 -1 -11 7 49.36 2.24 0
 -1 -11 8 78.34 2.74 0
 -1 -9 -4 24.59 0.69 0
 -1 -9 -3 12.48 0.66 0
 -1 -9 -2 98.61 1.66 0
 -1 -9 -1 43.67 1.23 0
 -1 -9 6 16.62 1.3 0
 -1 -9 7 54.04 2.09 0
 -1 -9 8 18.1 1.5 0
 -1 -7 -5 145 1.07 0
 -1 -7 -4 8.09 0.44 0
 -1 -7 -3 295.75 2.19 0
 -1 -7 -2 0.57 0.34 0
 -1 -7 -1 55.88 1.19 0
 -1 -7 0 11.38 0.71 0
 -1 -7 1 876.08 5.04 0
 -1 -7 4 11.18 0.93 0
 -1 -7 5 492.6 4.68 0
 -1 -7 8 12.26 1.2 0
 -1 -7 9 9.64 1.15 0
 -1 -7 10 58.07 2.17 0
 -1 -7 11 16.11 1.52 0
 -1 -5 -5 102.25 0.94 0
 -1 -5 -4 3.08 0.28 0
 -1 -5 -3 58.66 0.86 0
 -1 -5 -2 323.55 2.11 0
 -1 -5 -1 390.87 2.51 0
 -1 -5 0 215.22 2.03 0
 -1 -5 2 361.69 3.02 0
 -1 -5 3 761.12 4.58 0
 -1 -5 4 531.05 4.07 0
 -1 -5 5 26.82 1.09 0
 -1 -5 6 103.7 2.08 0
 -1 -5 7 412.89 4.21 0
 -1 -5 10 9.81 1.06 0
 -1 -5 11 28.71 1.59 0
 -1 -5 12 71.4 2.3 0
 -1 -3 -1 149.81 1.23 0
 -1 -3 1 1144.93 4 0
 -1 -3 2 313.64 2.32 0
 -1 -3 3 291.36 2.46 0
 -1 -3 4 746.75 4.11 0
 -1 -3 5 931.37 4.91 0
 -1 -3 6 171.2 2.28 0
 -1 -3 7 10.65 0.75 0
 -1 -3 8 943.92 5.87 0
 -1 -3 9 438 4.26 0
 -1 -1 1 39.17 0.61 0
 -1 -1 2 846.63 2.82 0
 -1 -1 3 0.66 0.23 0
 -1 -1 4 1357.46 4.51 0
 -1 -1 5 137.25 1.65 0
 -1 -1 6 569 3.47 0
 -1 -1 8 0.27 0.43 0
 -1 -1 9 22.42 1 0
 -1 -1 10 2.12 0.6 0
 -1 1 6 568.56 2.73 0
 -1 1 7 11.08 0.51 0
 0 -10 0 40.86 1.3 0
 0 -10 1 271.48 3.35 0
 0 -10 4 10.81 1.09 0
 0 -10 6 2.81 0.98 0
 0 -10 7 107.01 2.82 0
 0 -8 -3 103.08 1.29 0
 0 -8 -2 4.37 0.51 0
 0 -8 -1 855.42 4.43 0
 0 -8 0 32.67 1.06 0
 0 -8 7 3.62 0.97 0
 0 -8 9 3.39 0.91 0
 0 -6 -4 38.48 0.5 0
 0 -6 -3 2.55 0.28 0
 0 -6 -2 1.73 0.29 0
 0 -6 -1 179.56 1.78 0
 0 -6 0 13.07 0.63 0
 0 -6 1 181.28 2.13 0
 0 -6 2 2.19 0.43 0
 0 -6 3 2.41 0.55 0
 0 -6 5 6.27 0.71 0
 0 -6 6 11.87 0.96 0
 0 -6 10 24.95 1.46 0
 0 -4 -2 94.55 0.9 0
 0 -4 -1 62.67 0.85 0
 0 -4 0 655.07 2.93 0
 0 -4 1 63.94 1.08 0
 0 -4 3 240.32 2.38 0
 0 -4 4 815.41 4.56 0
 0 -4 5 36.52 1.12 0
 0 -4 8 319.87 3.67 0
 0 -4 9 7.22 0.88 0
 0 -2 0 4137.72 5.03 0
 0 -2 1 194.1 1.34 0
 0 -2 2 722.92 2.94 0
 0 -2 3 28.77 0.72 0
 0 -2 4 280.9 2.27 0
 0 -2 5 121.36 1.68 0
 0 -2 6 457.37 3.38 0
 0 -2 8 54.38 1.41 0
 0 0 2 1472.5 2.76 0
 0 0 4 9865.23 10.31 0
 1 -9 3 11.57 1 0
 1 -7 1 56.66 1.3 0
 1 -7 4 8.89 0.83 0
 1 -7 5 150.48 2.65 0
 1 -5 -1 19.49 0.55 0
 1 -5 0 221.46 1.91 0
 1 -5 1 401.34 2.79 0
 1 -5 2 332.32 2.77 0
 1 -5 4 3.66 0.57 0
 1 -5 5 107.25 1.95 0
 1 -5 6 314.36 3.48 0
 1 -5 7 149.52 2.55 0
 1 -3 0 490.08 2.11 0
 1 -3 1 147.85 1.36 0
 1 -3 3 169.46 1.81 0
 1 -3 4 124.37 1.71 0
 1 -3 5 1.98 0.4 0
 -18 -4 5 8.36 2.18 0
 -18 -2 7 -0.14 1.65 0
 -18 0 8 11.8 2.1 0
 -18 2 7 -1.58 1.67 0
 -18 2 8 -0.17 1.83 0
 -18 4 6 8.33 2.01 0
 -18 4 7 -0.91 1.59 0
 -17 -7 3 2.7 2.08 0
 -17 -7 4 0.84 1.77 0
 -17 -7 5 1.15 1.67 0
 -17 -5 5 -0.6 1.5 0
 -17 -5 6 4.66 1.84 0
 -17 -5 8 10.83 2.53 0
 -17 -3 6 7.55 2.29 0
 -17 -3 8 11.89 2.27 0
 -17 -3 9 7.45 2.16 0
 -17 -3 10 24.2 2.91 0
 -17 -1 7 -0.42 1.59 0
 -17 -1 8 13.28 2.43 0
 -17 -1 9 1.37 1.64 0
 -17 -1 10 1.02 1.79 0
 -17 1 7 -0.75 1.37 0
 -17 1 8 10.67 1.93 0
 -17 1 9 2.23 1.64 0
 -17 1 10 0.42 1.67 0
 -17 1 11 -1.03 1.63 0
 -17 3 7 26.93 2.58 0
 -17 3 8 14.1 1.99 0
 -17 3 9 8.41 1.92 0
 -17 3 10 23.06 2.77 0
 -17 5 6 6.81 1.66 0
 -16 -8 3 90.91 3.88 0
 -16 -8 4 6.12 2.14 0
 -16 -8 5 22.68 2.68 0
 -16 -8 6 2.41 1.87 0
 -16 -8 7 10.89 2.17 0
 -16 -6 6 12.66 2.36 0
 -16 -6 7 -0.55 1.83 0
 -16 -6 8 6.09 1.89 0
 -16 -6 9 4.56 1.87 0
 -16 -4 6 63.58 3.42 0
 -16 -4 7 32.5 2.89 0
 -16 -4 8 5.8 1.74 0
 -16 -4 10 52.33 3.36 0
 -16 -4 11 28 3.04 0
 -16 -2 7 4.72 1.77 0
 -16 -2 9 3.36 1.64 0
 -16 -2 10 50.28 3.28 0
 -16 -2 12 4.58 1.98 0
 -16 0 8 81.55 3.51 0
 -16 0 10 10.96 1.92 0
 -16 0 12 -0.57 1.52 0
 -16 2 9 1.06 1.67 0
 -16 2 10 49.25 3 0
 -16 2 11 3.31 1.64 0
 -16 2 12 5.19 1.75 0
 -16 4 8 6.19 1.69 0
 -16 4 9 12.76 1.88 0
 -16 4 10 47.89 2.75 0
 -15 -9 1 7.15 1.97 0
 -15 -9 2 0.85 1.49 0
 -15 -9 3 62.2 3.23 0
 -15 -9 4 8.8 2.17 0
 -15 -9 5 8.6 2 0
 -15 -9 6 5.71 1.79 0
 -15 -9 7 2.09 1.74 0
 -15 -7 6 2.13 1.8 0
 -15 -7 8 7.6 1.92 0
 -15 -7 10 0.44 1.89 0
 -15 -5 6 -0.3 1.74 0
 -15 -5 7 19.86 2.34 0
 -15 -5 8 3.94 1.83 0
 -15 -5 9 -0.37 1.6 0
 -15 -5 10 16.47 2.39 0
 -15 -5 11 23.6 2.86 0
 -15 -5 12 5.68 1.93 0
 -15 -3 7 0.72 1.55 0
 -15 -3 9 0.41 1.63 0
 -15 -3 10 2.7 1.89 0
 -15 -3 13 9.8 2.4 0
 -15 -1 8 1.13 1.35 0
 -15 -1 9 0.3 1.38 0
 -15 -1 10 -0.88 1.37 0
 -15 -1 12 -0.48 1.66 0
 -15 -1 14 0.69 2.04 0
 -15 1 8 2.99 1.64 0
 -15 1 9 -0.17 1.55 0
 -15 1 10 -0.55 1.37 0
 -15 1 11 -1.11 1.29 0
 -15 1 12 1.42 1.56 0
 -15 1 13 -1.53 1.56 0
 -15 1 14 1.1 1.83 0
 -15 3 8 16.65 2.01 0
 -15 3 9 0.68 1.2 0
 -15 3 10 1.71 1.6 0
 -15 3 11 6.44 1.57 0
 -15 3 12 31.98 2.48 0
 -15 3 13 8.37 1.7 0
 -14 -10 0 8.67 1.72 0
 -14 -10 1 11.51 1.9 0
 -14 -10 2 0.99 1.34 0
 -14 -10 3 8.15 1.85 0
 -14 -10 4 3.16 1.72 0
 -14 -10 6 3.32 1.69 0
 -14 -10 8 2.11 1.85 0
 -14 -8 3 28.32 2.52 0
 -14 -8 5 32.57 2.67 0
 -14 -8 6 1.27 1.78 0
 -14 -8 7 29.72 2.74 0
 -14 -8 9 38.12 2.92 0
 -14 -8 10 5.36 1.79 0
 -14 -8 11 2.94 1.8 0
 -14 -6 5 31.14 2.51 0
 -14 -6 6 4.55 1.78 0
 -14 -6 7 1.23 1.4 0
 -14 -6 8 10.01 2.08 0
 -14 -6 9 27.37 2.66 0
 -14 -6 10 39.62 3.01 0
 -14 -6 11 5.57 2.16 0
 -14 -6 12 9.82 2.04 0
 -14 -6 13 2.76 1.99 0
 -14 -4 7 5.48 1.65 0
 -14 -4 9 10.89 1.82 0
 -14 -4 11 69.63 3.57 0
 -14 -4 12 81.47 3.74 0
 -14 -4 13 3.92 2.1 0
 -14 -4 14 1.88 1.77 0
 -14 -2 7 3.45 1.61 0
 -14 -2 8 23.47 2.34 0
 -14 -2 10 22.15 2.42 0
 -14 -2 11 8.88 2.03 0
 -14 -2 12 1.92 1.56 0
 -14 -2 13 1.52 1.55 0
 -14 -2 14 -0.58 1.49 0
 -14 -2 15 3.76 1.94 0
 -14 0 10 1.95 1.64 0
 -14 0 12 54.59 3.04 0
 -14 0 14 7.22 1.79 0
 -14 2 8 25.61 2.15 0
 -14 2 9 22.88 2.15 0
 -14 2 10 20.1 2.16 0
 -14 2 12 0.96 1.45 0
 -14 2 13 0.14 1.43 0
 -14 2 14 1.36 1.35 0
 -14 2 15 5.16 1.79 0
 -14 4 7 6.79 1.45 0
 -14 4 8 3.83 1.34 0
 -14 4 10 57.33 2.67 0
 -13 -11 2 9.3 1.79 0
 -13 -11 3 3 1.54 0
 -13 -11 4 2.83 1.52 0
 -13 -11 5 6.35 1.67 0
 -13 -11 7 3.17 1.59 0
 -13 -11 8 5.34 1.83 0
 -13 -9 2 3.57 1.57 0
 -13 -9 3 40.27 2.57 0
 -13 -9 4 11.26 1.8 0
 -13 -9 5 -0.72 1.31 0
 -13 -9 6 6.54 1.74 0
 -13 -9 8 3.23 1.75 0
 -13 -9 9 1.86 1.7 0
 -13 -9 10 1.09 1.77 0
 -13 -9 11 1.2 1.89 0
 -13 -7 5 19.02 2.08 0
 -13 -7 6 29 2.43 0
 -13 -7 7 88.35 3.53 0
 -13 -7 8 0.12 1.44 0
 -13 -7 9 7.75 2.05 0
 -13 -7 12 15.46 2.48 0
 -13 -7 13 23.43 2.73 0
 -13 -5 7 2.09 1.47 0
 -13 -5 9 -0.16 1.23 0
 -13 -5 10 3.8 1.84 0
 -13 -5 11 9.45 1.9 0
 -13 -5 12 32.3 2.8 0
 -13 -5 13 7.07 2.01 0
 -13 -5 14 9.66 2.08 0
 -13 -3 8 3.19 1.33 0
 -13 -3 9 10.15 1.76 0
 -13 -3 10 12.84 2 0
 -13 -3 11 67.84 3.33 0
 -13 -3 14 0.56 1.52 0
 -13 -3 15 15.4 2.41 0
 -13 -1 8 44.25 2.5 0
 -13 -1 9 2.34 1.24 0
 -13 -1 10 4.68 1.42 0
 -13 -1 11 5.38 1.59 0
 -13 -1 12 1.42 1.56 0
 -13 -1 13 0.6 1.61 0
 -13 -1 14 6.99 1.88 0
 -13 -1 15 -0.54 1.58 0
 -13 -1 16 1.27 1.67 0
 -13 1 8 47.46 2.47 0
 -13 1 9 2.43 1.41 0
 -13 1 10 3.88 1.29 0
 -13 1 12 2.36 1.34 0
 -13 1 13 -0.33 1.3 0
 -13 1 14 9.14 1.91 0
 -13 1 15 0.99 1.63 0
 -13 1 16 -0.27 1.36 0
 -13 3 8 1.3 1.08 0
 -13 3 10 11 1.53 0
 -13 3 11 67.41 2.85 0
 -13 3 12 11.8 1.75 0
 -13 3 13 -1.92 1.09 0
 -13 3 14 0.07 1.35 0
 -13 3 15 12.37 1.76 0
 -13 5 7 1.66 1.09 0
 -13 5 8 16.25 1.5 0
 -13 5 9 -0.61 0.72 0
 -12 -10 0 6.16 1.34 0
 -12 -10 1 1.28 1.3 0
 -12 -10 2 19.57 1.98 0
 -12 -10 3 6.25 1.51 0
 -12 -10 4 5.27 1.46 0
 -12 -10 6 3.24 1.52 0
 -12 -10 7 10.83 1.93 0
 -12 -10 9 3.98 1.89 0
 -12 -10 10 2.74 1.82 0
 -12 -10 11 -0.37 1.67 0
 -12 -8 3 32.42 2.28 0
 -12 -8 4 -1.43 1.3 0
 -12 -8 5 26.12 2.16 0
 -12 -8 6 20.94 2.12 0
 -12 -8 7 11.48 2 0
 -12 -8 8 25.31 2.41 0
 -12 -8 10 -1.62 1.35 0
 -12 -8 12 10.2 2.24 0
 -12 -8 13 -0.89 1.65 0
 -12 -6 5 2.59 1.17 0
 -12 -6 6 20.38 1.98 0
 -12 -6 7 8.62 1.76 0
 -12 -6 8 40.54 2.56 0
 -12 -6 9 4.24 1.57 0
 -12 -6 10 5.8 1.63 0
 -12 -6 11 20.03 2.36 0
 -12 -6 13 0.45 1.75 0
 -12 -6 14 14.24 2.15 0
 -12 -6 15 0.72 2.1 0
 -12 -4 7 68.03 2.8 0
 -12 -4 8 -0.02 1.07 0
 -12 -4 9 5.76 1.48 0
 -12 -4 10 -0.36 1.45 0
 -12 -4 11 2.42 1.64 0
 -12 -4 12 27.15 2.45 0
 -12 -4 13 10.65 1.89 0
 -12 -4 14 0.15 1.83 0
 -12 -4 15 1.6 1.59 0
 -12 -4 16 58.98 3.44 0
 -12 -2 9 7.35 1.38 0
 -12 -2 10 0.54 1.22 0
 -12 -2 11 16.26 2.11 0
 -12 -2 13 9.13 1.9 0
 -12 -2 15 -1.35 1.33 0
 -12 -2 16 8.78 1.87 0
 -12 0 12 4.73 1.43 0
 -12 0 14 1.88 1.6 0
 -12 2 9 9.39 1.52 0
 -12 2 10 -1.39 1.11 0
 -12 2 11 15.24 1.81 0
 -12 2 13 6.26 1.5 0
 -12 2 15 0.9 1.27 0
 -12 2 16 10.6 1.86 0
 -12 2 17 0.96 1.54 0
 -12 4 8 0.66 0.87 0
 -12 4 9 6.53 1.32 0
 -12 4 10 -0.7 0.94 0
 -12 4 11 1.72 1.05 0
 -12 4 12 29.62 1.91 0
 -11 -11 3 1.97 1.32 0
 -11 -11 4 1 1.18 0
 -11 -11 5 0.81 1.31 0
 -11 -11 7 3.63 1.43 0
 -11 -11 9 4.14 1.78 0
 -11 -11 10 16.3 2.11 0
 -11 -9 2 1.43 1.05 0
 -11 -9 3 2.44 1.16 0
 -11 -9 4 2.9 1.4 0
 -11 -9 5 11.86 1.79 0
 -11 -9 6 2.86 1.39 0
 -11 -9 7 4.52 1.42 0
 -11 -9 8 5.35 1.46 0
 -11 -9 9 13.12 1.87 0
 -11 -9 10 0.92 1.46 0
 -11 -9 11 28.95 2.58 0
 -11 -9 12 -0.16 1.6 0
 -11 -7 4 45.96 2.36 0
 -11 -7 6 1.91 1.37 0
 -11 -7 7 0.75 1.14 0
 -11 -7 8 32.44 2.33 0
 -11 -7 9 30.75 2.38 0
 -11 -7 10 46.73 2.81 0
 -11 -7 11 2.39 1.39 0
 -11 -7 12 0.41 1.5 0
 -11 -7 13 5.29 1.89 0
 -11 -7 14 13.56 2.1 0
 -11 -7 15 8.15 2.02 0
 -11 -5 6 5.3 1.28 0
 -11 -5 9 0.63 1.4 0
 -11 -5 10 31.93 2.38 0
 -11 -5 11 53.27 2.81 0
 -11 -5 12 39.54 2.68 0
 -11 -5 13 13.56 2 0
 -11 -5 16 37.66 2.97 0
 -11 -3 7 0.56 1.08 0
 -11 -3 8 19.06 1.73 0
 -11 -3 9 44.44 2.32 0
 -11 -3 11 80.55 3.23 0
 -11 -3 12 128.63 3.94 0
 -11 -3 13 2.98 1.36 0
 -11 -3 14 1.36 1.42 0
 -11 -3 15 98.42 3.84 0
 -11 -3 16 67.5 3.45 0
 -11 -3 17 4.21 1.74 0
 -11 -1 8 35.39 2.04 0
 -11 -1 10 77.69 2.96 0
 -11 -1 11 5.78 1.29 0
 -11 -1 12 3.57 1.32 0
 -11 -1 13 14.13 2.01 0
 -11 -1 14 -1.07 1.47 0
 -11 -1 15 10.95 1.94 0
 -11 -1 16 0.35 1.51 0
 -11 1 8 35.91 1.91 0
 -11 1 9 48.22 2.21 0
 -11 1 11 5.43 1.41 0
 -11 1 12 5.72 1.32 0
 -11 1 13 12.8 1.86 0
 -11 1 14 1.52 1.37 0
 -11 1 15 13.85 1.79 0
 -11 1 16 0.78 1.29 0
 -11 1 17 1.39 1.38 0
 -11 1 18 13.17 2 0
 -11 3 8 15.77 1.45 0
 -11 3 10 19.3 1.69 0
 -11 3 11 79.5 2.75 0
 -11 3 13 3.57 1.34 0
 -11 3 14 -0.75 1.06 0
 -11 3 15 95.58 3.14 0
 -11 5 7 -0.31 0.74 0
 -11 5 9 3.33 0.91 0
 -10 -12 7 2.63 1.47 0
 -10 -12 8 -0.62 1.21 0
 -10 -12 9 7.94 1.81 0
 -10 -12 10 49.25 2.85 0
 -10 -10 0 2.54 1.08 0
 -10 -10 1 13.33 1.52 0
 -10 -10 2 3.59 1.24 0
 -10 -10 3 5.19 1.33 0
 -10 -10 4 1.71 1.28 0
 -10 -10 5 1.95 1.27 0
 -10 -10 6 -0.82 1.19 0
 -10 -10 8 1.53 1.33 0
 -10 -10 9 0.48 1.21 0
 -10 -10 10 7.37 1.6 0
 -10 -10 12 1.47 1.63 0
 -10 -8 4 2.22 0.98 0
 -10 -8 5 3.06 1.22 0
 -10 -8 6 46.75 2.42 0
 -10 -8 8 8.93 1.52 0
 -10 -8 9 -0.25 1.34 0
 -10 -8 11 83.41 3.37 0
 -10 -8 12 28.78 2.5 0
 -10 -8 14 0.78 1.67 0
 -10 -6 5 15.95 1.62 0
 -10 -6 6 14.26 1.6 0
 -10 -6 8 10.08 1.51 0
 -10 -6 9 21.45 1.92 0
 -10 -6 10 21.16 2.07 0
 -10 -6 11 51.48 2.73 0
 -10 -6 12 0.68 1.47 0
 -10 -6 13 10.69 1.75 0
 -10 -6 14 0.34 1.82 0
 -10 -6 15 31.67 2.66 0
 -10 -6 16 -0.42 1.6 0
 -10 -4 6 5.6 1.02 0
 -10 -4 8 8.63 1.38 0
 -10 -4 9 58.71 2.55 0
 -10 -4 10 34.26 2.18 0
 -10 -4 11 66.29 2.87 0
 -10 -4 13 21.63 2.25 0
 -10 -4 14 15.62 1.93 0
 -10 -4 15 51.09 3.01 0
 -10 -4 16 9.74 1.88 0
 -10 -4 17 13.12 2.22 0
 -10 -2 7 23.16 1.61 0
 -10 -2 8 11.72 1.44 0
 -10 -2 9 41.61 2.13 0
 -10 -2 14 0.3 1.18 0
 -10 -2 16 26.41 2.48 0
 -10 0 8 49.56 2.07 0
 -10 0 10 21.12 1.71 0
 -10 0 12 34.33 2.14 0
 -10 0 14 29.78 2.26 0
 -10 0 16 45.57 2.69 0
 -10 0 18 0.63 1.47 0
 -10 2 9 44.44 2.03 0
 -10 2 10 1.79 0.9 0
 -10 2 11 69.32 2.53 0
 -10 2 12 4.69 1.14 0
 -10 2 13 4.62 1.33 0
 -10 2 14 1.77 1.13 0
 -10 2 16 25.51 2.11 0
 -10 2 17 0.77 1.44 0
 -10 2 18 29.76 2.31 0
 -10 4 8 10.64 1.19 0
 -10 4 9 62.27 2.13 0
 -10 4 10 34.45 1.77 0
 -10 4 11 69.82 2.32 0
 -10 4 12 1.32 1 0
 -10 4 13 24.67 1.57 0
 -9 -11 2 17.66 1.57 0
 -9 -11 3 49.33 2.22 0
 -9 -11 4 10.41 1.44 0
 -9 -11 5 6.63 1.4 0
 -9 -11 6 11.2 1.45 0
 -9 -11 7 25.67 2.04 0
 -9 -11 8 5.54 1.46 0
 -9 -11 9 26.61 2.25 0
 -9 -11 10 5.34 1.72 0
 -9 -11 12 -0.52 1.38 0
 -9 -9 1 62.93 2.26 0
 -9 -9 2 3.12 1.06 0
 -9 -9 3 0.41 0.87 0
 -9 -9 4 0.84 0.99 0
 -9 -9 5 116.86 3.24 0
 -9 -9 7 6.02 1.29 0
 -9 -9 10 0.53 1.47 0
 -9 -9 11 104.82 3.67 0
 -9 -9 12 4.04 1.72 0
 -9 -9 13 4.07 1.78 0
 -9 -9 14 0.32 1.69 0
 -9 -9 15 48.51 3.11 0
 -9 -7 8 29.1 2.01 0
 -9 -7 10 5.62 1.44 0
 -9 -7 12 7.69 1.82 0
 -9 -7 13 9.83 1.9 0
 -9 -7 14 9.96 1.82 0
 -9 -7 15 64.58 3.25 0
 -9 -7 16 -0.42 1.56 0
 -9 -5 6 60.75 2.23 0
 -9 -5 7 7.72 1.22 0
 -9 -5 8 2.8 1.13 0
 -9 -5 10 -0.44 1 0
 -9 -5 11 8.17 1.35 0
 -9 -5 12 6.75 1.53 0
 -9 -5 13 5.14 1.53 0
 -9 -5 14 0.31 1.33 0
 -9 -5 15 4.18 1.65 0
 -9 -5 16 22.21 2.48 0
 -9 -5 17 26.64 2.56 0
 -9 -3 6 33.5 1.64 0
 -9 -3 7 98.65 2.73 0
 -9 -3 8 7.54 1.26 0
 -9 -3 9 11.46 1.35 0
 -9 -3 10 2.36 1.07 0
 -9 -3 11 7.84 1.54 0
 -9 -3 12 40.93 2.36 0
 -9 -3 13 4.23 1.38 0
 -9 -3 14 3.68 1.32 0
 -9 -3 15 2.82 1.5 0
 -9 -3 17 0.15 1.37 0
 -9 -3 18 59.34 3.25 0
 -9 -1 8 87.75 2.53 0
 -9 -1 9 24.7 1.6 0
 -9 -1 10 578.26 6.77 0
 -9 -1 11 -0.01 0.89 0
 -9 -1 12 14.95 1.71 0
 -9 -1 14 150.69 3.98 0
 -9 -1 15 6.1 1.55 0
 -9 -1 16 39.03 2.58 0
 -9 -1 17 10.64 1.91 0
 -9 -1 18 -0.56 1.31 0
 -9 -1 19 7.71 1.95 0
 -9 1 9 26.94 1.61 0
 -9 1 11 -0.97 0.73 0
 -9 1 12 15.85 1.57 0
 -9 1 13 22.39 1.8 0
 -9 1 15 6.62 1.58 0
 -9 1 16 40.8 2.45 0
 -9 1 17 10.02 1.79 0
 -9 1 18 -0.39 1.49 0
 -9 1 19 7.14 1.75 0
 -9 3 10 3.42 0.86 0
 -9 3 11 6.73 1.13 0
 -9 3 12 37.79 1.92 0
 -9 3 13 4.18 1.1 0
 -9 3 14 2.84 1.15 0
 -9 3 15 6.01 1.31 0
 -9 3 16 77.37 2.88 0
 -9 5 7 8.97 0.92 0
 -8 -12 7 14.08 1.75 0
 -8 -12 8 3.48 1.36 0
 -8 -12 9 9.45 1.69 0
 -8 -12 12 0.36 1.52 0
 -8 -10 0 7.33 1.04 0
 -8 -10 1 27.73 1.55 0
 -8 -10 2 71.44 2.3 0
 -8 -10 5 0.8 1.04 0
 -8 -10 6 53.53 2.33 0
 -8 -10 7 -0.25 1.15 0
 -8 -10 8 0.4 1.22 0
 -8 -10 10 8.87 1.53 0
 -8 -10 12 2.03 1.63 0
 -8 -10 13 19.58 2.25 0
 -8 -10 14 2.46 1.54 0
 -8 -8 3 52.59 2.03 0
 -8 -8 4 -0.11 0.79 0
 -8 -8 5 95.66 2.78 0
 -8 -8 8 0.34 0.92 0
 -8 -8 9 102.92 3.22 0
 -8 -8 10 17.92 1.92 0
 -8 -8 11 -0.42 1.3 0
 -8 -8 13 4.81 1.52 0
 -8 -8 14 -0.01 1.35 0
 -8 -8 15 22.01 2.35 0
 -8 -6 5 3.53 0.93 0
 -8 -6 6 47.26 1.97 0
 -8 -6 8 68.21 2.51 0
 -8 -6 9 64.66 2.57 0
 -8 -6 11 31.88 2.08 0
 -8 -6 12 6.25 1.64 0
 -8 -6 13 15.89 1.96 0
 -8 -6 14 5.31 1.48 0
 -8 -6 17 8.04 1.84 0
 -8 -4 8 53.73 2.17 0
 -8 -4 9 0.8 0.98 0
 -8 -4 10 12.35 1.43 0
 -8 -4 11 0.96 1.04 0
 -8 -4 12 -1.08 1.16 0
 -8 -4 13 0 1.06 0
 -8 -4 14 3.01 1.36 0
 -8 -4 15 11.19 1.92 0
 -8 -4 16 1.26 1.44 0
 -8 -4 17 0.01 1.4 0
 -8 -4 18 -1.15 1.78 0
 -8 -2 9 40.04 1.88 0
 -8 -2 10 20.62 1.63 0
 -8 -2 11 6.32 1.14 0
 -8 -2 12 2.29 0.95 0
 -8 -2 13 28.03 1.96 0
 -8 -2 14 3.49 1.25 0
 -8 -2 15 42.12 2.55 0
 -8 -2 16 -1.11 1.26 0
 -8 -2 17 8.25 1.67 0
 -8 -2 19 46.32 2.98 0
 -8 0 10 239.99 4.26 0
 -8 0 12 3.93 1.1 0
 -8 0 14 2.38 1.23 0
 -8 0 16 11.58 1.83 0
 -8 0 18 8.13 1.63 0
 -8 2 7 21.38 1.27 0
 -8 2 10 18.75 1.37 0
 -8 2 11 6.3 1.01 0
 -8 2 12 3.7 1 0
 -8 2 13 27.62 1.75 0
 -8 2 14 2.5 1.19 0
 -8 2 15 37.63 2.1 0
 -8 2 16 -0.52 1.07 0
 -8 2 17 8.16 1.55 0
 -8 2 19 42.88 2.44 0
 -8 4 7 155.96 2.74 0
 -8 4 8 57.26 1.76 0
 -8 4 11 0.98 0.71 0
 -8 4 12 -0.82 0.61 0
 -8 4 13 0.74 0.73 0
 -8 4 14 4.34 0.96 0
 -7 -11 3 52.35 1.96 0
 -7 -11 5 33.26 1.83 0
 -7 -11 6 15.12 1.55 0
 -7 -11 7 90.47 2.87 0
 -7 -11 8 14.18 1.7 0
 -7 -11 9 64.55 2.67 0
 -7 -11 10 0.21 1.18 0
 -7 -11 11 24.86 2.16 0
 -7 -11 12 3.21 1.42 0
 -7 -11 13 34.91 2.55 0
 -7 -11 14 11.92 1.87 0
 -7 -9 4 1.06 0.87 0
 -7 -9 5 25.42 1.61 0
 -7 -9 6 11.45 1.39 0
 -7 -9 7 35.49 1.93 0
 -7 -9 8 19.05 1.67 0
 -7 -9 9 110.55 3.24 0
 -7 -9 10 -0.03 1.01 0
 -7 -9 13 73.13 3.2 0
 -7 -9 14 15.17 2.21 0
 -7 -9 15 52.27 2.97 0
 -7 -7 6 0.77 0.71 0
 -7 -7 7 42.96 1.95 0
 -7 -7 8 0.02 0.93 0
 -7 -7 9 3.07 0.99 0
 -7 -7 10 0.28 0.99 0
 -7 -7 11 117.7 3.48 0
 -7 -7 12 -0.27 1.1 0
 -7 -7 14 0.9 1.26 0
 -7 -7 15 132.34 4.08 0
 -7 -5 7 0.48 0.7 0
 -7 -5 8 18.33 1.39 0
 -7 -5 9 1.14 0.81 0
 -7 -5 10 10.42 1.3 0
 -7 -5 11 -1.1 0.91 0
 -7 -5 13 2.02 1.22 0
 -7 -5 14 18.2 1.97 0
 -7 -5 15 0.24 1.45 0
 -7 -5 16 20.47 2.27 0
 -7 -5 18 68.55 3.34 0
 -7 -3 6 5.69 0.85 0
 -7 -3 10 -0.51 0.69 0
 -7 -3 11 29.71 1.82 0
 -7 -3 12 17.63 1.59 0
 -7 -3 14 1.21 1.32 0
 -7 -3 16 3.52 1.68 0
 -7 -3 17 0.45 1.26 0
 -7 -3 19 40.03 2.82 0
 -7 -1 7 0.13 0.71 0
 -7 -1 11 0.2 0.85 0
 -7 -1 13 0.65 1 0
 -7 -1 15 -1.1 1.11 0
 -7 -1 16 31.5 2.25 0
 -7 -1 18 22.28 2.22 0
 -7 -1 19 0.83 1.58 0
 -7 1 7 -0.09 0.48 0
 -7 1 8 147.23 2.92 0
 -7 1 11 0.53 0.85 0
 -7 1 12 13.67 1.35 0
 -7 1 14 228.82 4.37 0
 -7 1 15 0.08 1.16 0
 -7 1 16 32.92 2.13 0
 -7 1 17 0.89 1.13 0
 -7 1 18 18.77 1.97 0
 -7 1 19 0.23 1.43 0
 -7 1 20 1.24 1.37 0
 -7 3 6 5.07 0.67 0
 -7 3 7 14.39 0.97 0
 -7 3 8 51.92 1.67 0
 -7 3 9 11.04 1.04 0
 -7 3 12 15.64 1.29 0
 -7 3 13 -0.25 0.72 0
 -7 3 14 0.04 0.81 0
 -7 3 16 4.5 1.16 0
 -7 3 17 2.04 1.05 0
 -7 3 18 57.03 2.35 0
 -7 5 6 0.81 0.44 0
 -7 5 7 0.13 0.42 0
 -7 5 8 18.21 0.97 0
 -7 5 9 0.6 0.51 0
 -7 5 10 10.01 0.86 0
 -6 -12 7 46.46 2.06 0
 -6 -12 8 -0.85 0.97 0
 -6 -12 9 5.96 1.35 0
 -6 -12 10 7.19 1.51 0
 -6 -12 11 0.39 1.32 0
 -6 -12 12 0.33 1.48 0
 -6 -12 13 2.92 1.55 0
 -6 -10 0 0.38 0.62 0
 -6 -10 1 19.83 1.24 0
 -6 -10 4 2.31 0.9 0
 -6 -10 5 6.87 1.12 0
 -6 -10 6 24.7 1.63 0
 -6 -10 7 66.05 2.36 0
 -6 -10 8 4.55 1.15 0
 -6 -10 11 18.11 1.89 0
 -6 -10 12 -0.44 1.29 0
 -6 -10 13 -1.08 1.19 0
 -6 -8 1 137.15 2.58 0
 -6 -8 2 21.7 1.26 0
 -6 -8 3 6.13 0.86 0
 -6 -8 6 6.77 0.98 0
 -6 -8 7 1.09 0.95 0
 -6 -8 8 2.38 0.99 0
 -6 -8 9 153 3.54 0
 -6 -8 10 16.66 1.61 0
 -6 -8 11 102.1 3.21 0
 -6 -8 12 0.76 1.16 0
 -6 -8 14 3.72 1.64 0
 -6 -8 15 70.95 3.26 0
 -6 -8 16 1.04 1.47 0
 -6 -8 17 4.82 1.64 0
 -6 -6 3 16 1.1 0
 -6 -6 4 71.96 1.99 0
 -6 -6 5 54.13 1.86 0
 -6 -6 8 4.19 0.97 0
 -6 -6 10 4.72 0.99 0
 -6 -6 11 2.2 1.11 0
 -6 -6 12 12.24 1.61 0
 -6 -6 13 0.77 1.06 0
 -6 -6 16 2.66 1.37 0
 -6 -6 17 8.6 1.79 0
 -6 -6 18 6.79 1.79 0
 -6 -4 5 182.59 3.03 0
 -6 -4 6 652.57 5.76 0
 -6 -4 11 53.54 2.25 0
 -6 -4 12 0.09 0.8 0
 -6 -4 13 36.07 2.19 0
 -6 -4 14 96.54 3.22 0
 -6 -4 15 17.01 1.89 0
 -6 -4 16 3.69 1.61 0
 -6 -4 17 32.5 2.55 0
 -6 -4 18 96.14 3.69 0
 -6 -4 19 19.54 2.34 0
 -6 -2 6 57.74 1.7 0
 -6 -2 7 11.44 0.98 0
 -6 -2 10 51.51 1.98 0
 -6 -2 11 9.16 1.21 0
 -6 -2 13 6.26 1.34 0
 -6 -2 14 6.69 1.26 0
 -6 -2 15 9.51 1.55 0
 -6 -2 16 40.02 2.41 0
 -6 -2 17 5 1.69 0
 -6 -2 18 33.69 2.48 0
 -6 -2 19 10.57 1.87 0
 -6 -2 20 -0.84 1.74 0
 -6 0 6 256.81 3.28 0
 -6 0 8 174.07 3.05 0
 -6 0 14 362.62 5.43 0
 -6 0 20 7.73 1.91 0
 -6 2 7 9.96 0.87 0
 -6 2 8 176.38 2.85 0
 -6 2 9 2.32 0.62 0
 -6 2 12 2.18 0.9 0
 -6 2 13 6.23 1.02 0
 -6 2 14 7.02 1.13 0
 -6 2 15 9.58 1.38 0
 -6 2 17 5.38 1.23 0
 -6 2 18 34.27 2.13 0
 -6 4 6 635.93 4.29 0
 -6 4 7 139.37 2.26 0
 -6 4 8 32.29 1.19 0
 -6 4 9 34.72 1.29 0
 -6 4 10 147.74 2.57 0
 -6 4 13 36.69 1.57 0
 -6 4 14 97.59 2.44 0
 -6 6 5 56.75 1.11 0
 -5 -11 5 11.31 1.21 0
 -5 -11 6 80.63 2.36 0
 -5 -11 7 1.79 0.88 0
 -5 -11 8 25.53 1.76 0
 -5 -11 9 4.77 1.27 0
 -5 -11 10 50.94 2.38 0
 -5 -11 11 44.17 2.38 0
 -5 -11 13 45.05 2.62 0
 -5 -11 14 1.81 1.34 0
 -5 -11 15 13.27 2.05 0
 -5 -9 -2 3.4 0.6 0
 -5 -9 -1 68.06 1.55 0
 -5 -9 0 14.98 0.95 0
 -5 -9 1 6.83 0.82 0
 -5 -9 2 0.98 0.56 0
 -5 -9 3 0.79 0.66 0
 -5 -9 6 8.16 1.14 0
 -5 -9 7 10.21 1.21 0
 -5 -9 8 8.18 1.14 0
 -5 -9 9 34.3 1.93 0
 -5 -9 10 1.47 1.03 0
 -5 -9 12 19.26 1.95 0
 -5 -9 13 3.24 1.27 0
 -5 -9 14 16.85 2.12 0
 -5 -9 15 5.87 1.58 0
 -5 -9 16 1.87 1.64 0
 -5 -7 1 51.6 1.5 0
 -5 -7 2 3.9 0.66 0
 -5 -7 4 43.06 1.58 0
 -5 -7 5 363.5 4.37 0
 -5 -7 9 340.78 4.99 0
 -5 -7 10 2.78 1.15 0
 -5 -7 11 9.8 1.4 0
 -5 -7 12 5.93 1.41 0
 -5 -7 13 102.7 3.33 0
 -5 -7 14 7.79 1.68 0
 -5 -7 15 0.27 1.3 0
 -5 -7 16 2.69 1.39 0
 -5 -7 17 58.68 3.04 0
 -5 -7 18 -0.72 1.63 0
 -5 -5 3 39.07 1.33 0
 -5 -5 4 0.17 0.54 0
 -5 -5 5 18.91 1.1 0
 -5 -5 9 1.69 0.73 0
 -5 -5 10 2 0.95 0
 -5 -5 11 4.31 1 0
 -5 -5 12 1.91 0.99 0
 -5 -5 13 2.19 1.27 0
 -5 -5 14 -0.72 1.17 0
 -5 -5 15 0.11 1.23 0
 -5 -5 17 13.1 2 0
 -5 -5 18 41.15 2.78 0
 -5 -5 19 8.11 1.91 0
 -5 -3 5 552.08 4.64 0
 -5 -3 6 67.3 1.82 0
 -5 -3 7 0.76 0.67 0
 -5 -3 10 0.48 0.65 0
 -5 -3 11 0.02 0.72 0
 -5 -3 12 9.7 1.38 0
 -5 -3 13 32.34 1.89 0
 -5 -3 14 0.57 1.08 0
 -5 -3 16 1.38 1.19 0
 -5 -3 17 -0.06 1.17 0
 -5 -3 18 5.39 1.56 0
 -5 -3 19 31.92 2.53 0
 -5 -3 20 6.01 1.99 0
 -5 -1 5 129.89 2.16 0
 -5 -1 6 450.92 4.15 0
 -5 -1 7 18.46 1.11 0
 -5 -1 8 9.03 0.94 0
 -5 -1 9 24.95 1.37 0
 -5 -1 13 1.12 0.83 0
 -5 -1 14 19.29 1.64 0
 -5 -1 15 2.88 1.16 0
 -5 -1 16 2.46 1.37 0
 -5 -1 17 1.2 1.16 0
 -5 -1 18 -0.42 1.22 0
 -5 -1 19 7.17 1.78 0
 -5 1 6 444.37 3.82 0
 -5 1 7 18.14 1.03 0
 -5 1 8 9.24 0.9 0
 -5 1 9 25.58 1.27 0
 -5 1 12 34.22 1.67 0
 -5 1 14 18.9 1.51 0
 -5 1 15 3.08 1.02 0
 -5 1 16 3.62 1.25 0
 -5 1 17 1.89 1.18 0
 -5 1 18 0.92 1.09 0
 -5 3 5 561.99 3.75 0
 -5 3 6 69.45 1.45 0
 -5 3 7 0.68 0.48 0
 -5 3 8 23.21 1.05 0
 -5 3 9 157.76 2.6 0
 -5 3 10 0.31 0.5 0
 -5 3 13 29.92 1.5 0
 -5 3 14 1.03 0.91 0
 -5 3 15 3.62 0.94 0
 -5 3 16 0.05 1 0
 -5 3 17 1.62 0.99 0
 -5 5 9 0.81 0.44 0
 -5 5 10 1.98 0.5 0
 -5 5 11 4.3 0.65 0
 -5 5 14 0.16 0.34 0
 -4 -12 7 14.19 1.41 0
 -4 -12 8 5.04 1.13 0
 -4 -12 9 21.81 1.68 0
 -4 -12 10 56.19 2.39 0
 -4 -12 11 -0.41 1.04 0
 -4 -12 12 8.45 1.61 0
 -4 -12 13 0.9 1.38 0
 -4 -10 1 29.1 1.09 0
 -4 -10 2 12.22 0.9 0
 -4 -10 3 0.51 0.62 0
 -4 -10 4 26.99 1.31 0
 -4 -10 6 27.75 1.49 0
 -4 -10 7 29.67 1.61 0
 -4 -10 8 0.69 0.79 0
 -4 -10 9 104.07 2.89 0
 -4 -10 10 0.43 0.93 0
 -4 -10 11 1.55 1.22 0
 -4 -10 14 15.14 1.86 0
 -4 -10 15 37.14 2.55 0
 -4 -10 16 3.1 1.75 0
 -4 -8 -1 73.72 1.49 0
 -4 -8 0 96.53 1.8 0
 -4 -8 1 331.52 3.32 0
 -4 -8 2 66.82 1.63 0
 -4 -8 4 13.63 1.04 0
 -4 -8 5 213.41 3.34 0
 -4 -8 9 4.8 1.03 0
 -4 -8 10 55.29 2.26 0
 -4 -8 11 60.24 2.46 0
 -4 -8 12 -0.11 0.94 0
 -4 -8 13 1.09 1.24 0
 -4 -8 14 38.45 2.47 0
 -4 -8 15 151.28 4.15 0
 -4 -8 16 7.4 1.87 0
 -4 -8 17 24.9 2.39 0
 -4 -6 2 112.56 1.96 0
 -4 -6 3 49.69 1.42 0
 -4 -6 4 3.63 0.61 0
 -4 -6 5 194.17 3 0
 -4 -6 6 18.96 1.19 0
 -4 -6 9 24.25 1.44 0
 -4 -6 10 8.11 1.12 0
 -4 -6 11 32.52 1.86 0
 -4 -6 12 55.52 2.36 0
 -4 -6 13 15.79 1.63 0
 -4 -6 14 1.52 1.06 0
 -4 -6 17 62.82 3.07 0
 -4 -6 18 69.62 3.19 0
 -4 -4 3 10.48 0.77 0
 -4 -4 4 4.5 0.56 0
 -4 -4 5 305.15 3.46 0
 -4 -4 6 36.95 1.36 0
 -4 -4 7 1.35 0.6 0
 -4 -4 8 28.2 1.39 0
 -4 -4 10 3.25 0.79 0
 -4 -4 11 11.42 1.28 0
 -4 -4 12 0.1 0.72 0
 -4 -4 13 -0.08 0.78 0
 -4 -4 14 17.7 1.67 0
 -4 -4 15 2.56 1.14 0
 -4 -4 16 19.3 1.91 0
 -4 -4 17 48.24 2.61 0
 -4 -4 18 149.98 4.2 0
 -4 -4 19 31.07 2.54 0
 -4 -2 4 67.09 1.48 0
 -4 -2 5 757.03 4.92 0
 -4 -2 6 50.52 1.47 0
 -4 -2 8 43.81 1.54 0
 -4 -2 12 -0 0.68 0
 -4 -2 13 6.72 1.2 0
 -4 -2 14 67.92 2.51 0
 -4 -2 15 38.25 2.12 0
 -4 -2 16 56.39 2.59 0
 -4 -2 17 61.68 2.78 0
 -4 -2 18 3.59 1.43 0
 -4 -2 19 1.13 1.48 0
 -4 0 6 63.61 1.5 0
 -4 0 8 1.06 0.5 0
 -4 0 14 319.26 4.87 0
 -4 0 16 281.13 5.23 0
 -4 0 18 37.53 2.33 0
 -4 2 5 755.75 4.15 0
 -4 2 6 52.7 1.26 0
 -4 2 7 130.22 2.06 0
 -4 2 8 44.41 1.34 0
 -4 2 9 66.75 1.69 0
 -4 2 10 32.05 1.33 0
 -4 2 13 6.72 0.97 0
 -4 2 14 64.88 2.19 0
 -4 2 15 37.7 1.87 0
 -4 2 16 57.42 2.27 0
 -4 4 7 1.1 0.38 0
 -4 4 8 29.35 1 0
 -4 4 9 82.2 1.64 0
 -4 4 10 3.97 0.64 0
 -4 4 11 12.44 0.88 0
 -4 4 13 0.57 0.69 0
 -4 4 14 15.77 1.2 0
 -4 6 3 48.94 0.64 0
 -4 6 4 2.87 0.21 0
 -4 6 5 185.44 1.16 0
 -4 6 6 18.72 0.47 0
 -4 6 7 1.6 0.27 0
 -4 6 8 10.36 0.5 0
 -4 6 9 23.3 0.72 0
 -3 -11 4 12.3 0.98 0
 -3 -11 6 0.88 0.72 0
 -3 -11 7 97.47 2.45 0
 -3 -11 8 0.58 0.87 0
 -3 -11 9 46.15 2.04 0
 -3 -11 10 14.08 1.58 0
 -3 -11 11 0.44 1.2 0
 -3 -11 12 0.42 1.16 0
 -3 -11 13 0.64 1.14 0
 -3 -9 0 28.83 0.9 0
 -3 -9 3 44.42 1.38 0
 -3 -9 4 13.62 1.01 0
 -3 -9 5 -0.43 0.55 0
 -3 -9 7 76.57 2.16 0
 -3 -9 8 3.1 0.98 0
 -3 -9 9 183.07 3.71 0
 -3 -9 10 15.79 1.49 0
 -3 -9 11 12.84 1.56 0
 -3 -9 14 0.88 1.39 0
 -3 -9 16 1.69 1.44 0
 -3 -7 1 246.46 2.59 0
 -3 -7 2 78.48 1.64 0
 -3 -7 3 45.12 1.33 0
 -3 -7 4 26.2 1.14 0
 -3 -7 5 9.54 0.91 0
 -3 -7 6 23.26 1.26 0
 -3 -7 9 328.22 4.59 0
 -3 -7 10 14.26 1.42 0
 -3 -7 11 38.43 1.91 0
 -3 -7 12 68.61 2.58 0
 -3 -7 14 4.85 1.41 0
 -3 -7 16 21.38 2.15 0
 -3 -7 17 63.89 3.08 0
 -3 -5 2 65.96 1.36 0
 -3 -5 3 454 3.65 0
 -3 -5 4 130.33 2.13 0
 -3 -5 5 14.82 0.91 0
 -3 -5 6 44.16 1.46 0
 -3 -5 7 244.53 3.45 0
 -3 -5 10 0.08 0.66 0
 -3 -5 11 18.47 1.43 0
 -3 -5 12 0.65 0.87 0
 -3 -5 13 34.8 2.02 0
 -3 -5 15 0.59 1.02 0
 -3 -5 16 1.27 1.28 0
 -3 -5 17 4.91 1.69 0
 -3 -5 18 16.56 2.06 0
 -3 -3 3 12.02 0.71 0
 -3 -3 4 934.66 5.08 0
 -3 -3 5 8.28 0.73 0
 -3 -3 6 341 3.53 0
 -3 -3 8 794.16 5.97 0
 -3 -3 9 7.85 0.96 0
 -3 -3 12 111.23 2.84 0
 -3 -3 13 55.13 2.23 0
 -3 -3 14 0.93 1.03 0
 -3 -3 15 0.26 1.02 0
 -3 -3 16 9.59 1.49 0
 -3 -3 17 56.56 2.68 0
 -3 -3 18 4.32 1.46 0
 -3 -1 4 14.8 0.73 0
 -3 -1 5 0.39 0.41 0
 -3 -1 6 5.37 0.66 0
 -3 -1 7 188.41 2.63 0
 -3 -1 8 166.52 2.66 0
 -3 -1 9 34.49 1.35 0
 -3 -1 12 0 0.59 0
 -3 -1 15 15.49 1.63 0
 -3 -1 16 31.97 2.04 0
 -3 -1 17 24.03 1.98 0
 -3 1 4 15.39 0.67 0
 -3 1 5 -0.04 0.36 0
 -3 1 7 187.59 2.45 0
 -3 1 8 165.03 2.46 0
 -3 1 10 526.54 4.79 0
 -3 1 13 36.42 1.69 0
 -3 1 14 353.72 4.9 0
 -3 1 15 16.95 1.52 0
 -3 1 16 28.82 1.85 0
 -3 3 5 8.63 0.49 0
 -3 3 6 340.43 2.65 0
 -3 3 7 17.41 0.77 0
 -3 3 8 792.54 4.68 0
 -3 3 9 8.01 0.72 0
 -3 3 10 2.63 0.58 0
 -3 3 13 54.8 1.81 0
 -3 3 14 -0.06 0.64 0
 -3 5 3 445.53 1.53 0
 -3 5 4 127.06 0.93 0
 -3 5 5 13.58 0.4 0
 -3 5 7 244.83 1.99 0
 -3 5 10 0.39 0.41 0
 -3 5 11 18.06 0.89 0
 -2 -12 8 37.68 1.74 0
 -2 -10 2 4.28 0.57 0
 -2 -10 3 154.03 2.28 0
 -2 -10 4 36.74 1.3 0
 -2 -10 5 99 2.12 0
 -2 -10 7 87.97 2.29 0
 -2 -10 8 13.12 1.29 0
 -2 -10 9 37.42 1.82 0
 -2 -10 10 61.28 2.31 0
 -2 -10 11 30.62 1.91 0
 -2 -10 12 -0.44 1 0
 -2 -8 -2 0.17 0.2 0
 -2 -8 2 21.83 0.89 0
 -2 -8 3 29.49 1.09 0
 -2 -8 4 25.07 1.08 0
 -2 -8 5 44.81 1.47 0
 -2 -8 6 12.14 1.01 0
 -2 -8 8 21.47 1.39 0
 -2 -8 9 104.48 2.65 0
 -2 -8 11 1.22 1.1 0
 -2 -8 12 13.57 1.59 0
 -2 -6 -1 54.55 0.92 0
 -2 -6 0 37.56 0.85 0
 -2 -6 1 0.79 0.34 0
 -2 -6 2 7.7 0.57 0
 -2 -6 3 11 0.72 0
 -2 -6 5 73.51 1.71 0
 -2 -6 7 7.68 0.95 0
 -2 -6 11 3.28 1.02 0
 -2 -6 12 19.35 1.53 0
 -2 -6 13 33.2 2.03 0
 -2 -6 14 35.89 2.08 0
 -2 -6 15 20.74 1.98 0
 -2 -6 16 14.59 1.82 0
 -2 -4 1 760.14 3.52 0
 -2 -4 2 363.26 2.7 0
 -2 -4 4 1.67 0.4 0
 -2 -4 5 725.31 4.73 0
 -2 -4 6 71.52 1.68 0
 -2 -4 12 7.56 1.05 0
 -2 -4 13 156.49 3.51 0
 -2 -4 14 59.69 2.48 0
 -2 -4 16 13.31 1.77 0
 -2 -4 17 3.76 1.39 0
 -2 -2 2 2343.88 5.91 0
 -2 -2 3 279.34 2.31 0
 -2 -2 4 131.57 1.84 0
 -2 -2 5 1366.15 5.99 0
 -2 -2 6 152.93 2.23 0
 -2 -2 7 5.37 0.65 0
 -2 -2 8 90.27 1.97 0
 -2 -2 9 595.16 5.17 0
 -2 -2 12 5.49 0.9 0
 -2 -2 15 55.34 2.36 0
 -2 -2 17 3.5 1.39 0
 -2 0 6 0.6 0.4 0
 -2 0 8 78.24 1.71 0
 -2 0 12 25.41 1.37 0
 -2 0 14 2.88 0.95 0
 -2 0 16 108.4 3.08 0
 -2 2 4 125.76 1.34 0
 -2 2 5 1349.46 4.75 0
 -2 2 6 156.86 1.84 0
 -2 2 7 5.11 0.55 0
 -2 2 8 89.89 1.71 0
 -2 2 9 586.75 4.41 0
 -2 2 10 20.8 1.04 0
 -2 2 11 31.07 1.36 0
 -2 2 13 155.69 2.92 0
 -2 2 14 49.38 1.87 0
 -2 4 4 1.54 0.19 0
 -2 4 5 730.48 2.76 0
 -2 4 8 2.17 0.41 0
 -2 4 9 399.07 3.24 0
 -2 4 10 58.06 1.4 0
 -2 4 11 98.6 1.92 0
 -1 -11 5 9.39 0.9 0
 -1 -11 7 46 1.69 0
 -1 -11 8 77.06 2.28 0
 -1 -9 0 6.13 0.34 0
 -1 -9 2 73.47 1.37 0
 -1 -9 5 84.13 1.87 0
 -1 -9 6 14.4 1.05 0
 -1 -9 8 18.4 1.33 0
 -1 -9 9 7.29 1.11 0
 -1 -9 11 0.31 0.98 0
 -1 -9 12 14.37 1.62 0
 -1 -9 13 21.21 1.93 0
 -1 -7 0 10.82 0.46 0
 -1 -7 1 852.84 3.76 0
 -1 -7 3 89.85 1.61 0
 -1 -7 4 10.81 0.79 0
 -1 -7 5 484.29 4.14 0
 -1 -7 6 8.34 0.86 0
 -1 -7 7 247.15 3.47 0
 -1 -7 9 8.51 1.04 0
 -1 -7 10 56.43 2.04 0
 -1 -7 12 15.07 1.44 0
 -1 -7 14 21.67 1.86 0
 -1 -5 -1 380.58 1.78 0
 -1 -5 0 215.35 1.59 0
 -1 -5 2 346.72 2.55 0
 -1 -5 3 752.25 4.11 0
 -1 -5 4 540.12 3.81 0
 -1 -5 5 28.38 1.06 0
 -1 -5 7 417.49 4.15 0
 -1 -5 8 531.32 4.98 0
 -1 -5 10 10 1.13 0
 -1 -5 11 27.85 1.52 0
 -1 -5 12 73.06 2.44 0
 -1 -5 13 131.86 3.27 0
 -1 -5 14 6.32 1.2 0
 -1 -3 1 1125.06 3.51 0
 -1 -3 2 300.97 2.14 0
 -1 -3 3 295.34 2.38 0
 -1 -3 4 745.54 4.09 0
 -1 -3 5 912.53 4.93 0
 -1 -3 6 179.32 2.44 0
 -1 -3 7 10.19 0.8 0
 -1 -3 8 946.25 6.18 0
 -1 -3 9 442.12 4.55 0
 -1 -3 11 22.03 1.29 0
 -1 -3 12 303.5 4.47 0
 -1 -3 13 40.17 1.86 0
 -1 -3 15 37.9 2.06 0
 -1 -1 2 852.9 3 0
 -1 -1 3 0.43 0.24 0
 -1 -1 4 1332.27 4.89 0
 -1 -1 5 138.91 1.81 0
 -1 -1 6 573.29 3.92 0
 -1 -1 7 12.04 0.8 0
 -1 -1 8 0.32 0.42 0
 -1 -1 9 22.69 1.16 0
 -1 -1 12 0.59 0.71 0
 -1 -1 13 5.92 0.97 0
 -1 -1 14 53.53 2.12 0
 -1 1 3 0.58 0.19 0
 -1 1 4 1349.68 4.26 0
 -1 1 5 136.57 1.62 0
 -1 1 6 576.76 3.55 0
 -1 1 8 0.36 0.36 0
 -1 1 10 2.13 0.59 0
 -1 1 11 32.88 1.39 0
 -1 1 13 5.12 0.9 0
 -1 3 6 172.32 1.71 0
 -1 3 7 9.84 0.56 0
 -1 3 8 956.45 4.8 0
 -1 3 9 438.76 3.55 0
 -1 3 10 24.67 1.06 0
 0 -8 2 4.32 0.47 0
 0 -8 3 102.94 1.67 0
 0 -8 4 5.17 0.64 0
 0 -8 5 346.83 3.52 0
 0 -8 6 -0.04 0.52 0
 0 -8 10 2.5 0.81 0
 0 -8 11 5.97 1.23 0
 0 -6 0 12.32 0.38 0
 0 -6 1 176.56 1.55 0
 0 -6 2 2.14 0.33 0
 0 -6 3 2.3 0.39 0
 0 -6 4 39.13 1.11 0
 0 -6 5 6.59 0.69 0
 0 -6 6 12.64 0.91 0
 0 -6 7 6.99 0.84 0
 0 -6 11 14.85 1.28 0
 0 -4 0 659.78 2.1 0
 0 -4 1 63.48 0.88 0
 0 -4 2 92.94 1.22 0
 0 -4 3 240.8 2.19 0
 0 -4 4 829.04 4.34 0
 0 -4 5 35.89 1.06 0
 0 -4 7 55.35 1.53 0
 0 -4 11 6.15 1.01 0
 0 -4 12 5.07 1.06 0
 0 -4 13 20.35 1.59 0
 0 -2 1 196.38 1.22 0
 0 -2 2 732.93 2.82 0
 0 -2 4 282.55 2.34 0
 0 -2 6 449.09 3.54 0
 0 -2 7 8.95 0.74 0
 0 -2 13 210.93 3.83 0
 0 0 2 1502.63 3.24 0
 0 0 4 9809.93 11.89 0
 0 0 6 1729.2 6.29 0
 0 0 8 406 3.64 0
 0 0 10 77.45 1.9 0
 0 2 4 270.87 1.69 0
 0 2 5 116.96 1.32 0
 0 2 6 443.88 2.84 0
 0 2 7 9.22 0.58 0
 0 2 8 52.99 1.26 0
 1 -7 4 9.31 0.69 0
 1 -7 5 152.38 2.28 0
 1 -7 6 16.31 0.97 0
 1 -7 7 243.38 3.25 0
 1 -5 2 316.5 2.16 0
 1 -5 3 60.14 1.12 0
 1 -5 4 3.06 0.46 0
 1 -5 5 103.32 1.78 0
 1 -5 6 316.06 3.3 0
 1 -5 7 145.83 2.45 0
 1 -5 8 217.5 3.15 0
 1 -5 11 26.69 1.5 0
 1 -3 1 151.02 1.13 0
 1 -3 2 1.59 0.3 0
 1 -3 3 168.52 1.7 0
 1 -3 4 123.81 1.66 0
 1 -3 5 2.47 0.44 0
 1 -3 6 79.57 1.62 0
 1 -3 7 3.41 0.53 0
 1 -3 8 19.61 1.04 0
 1 -3 9 144.22 2.58 0
 1 -1 2 16.23 0.45 0
 1 -1 3 -0.11 0.27 0
 1 -1 4 4.04 0.37 0
 1 -1 5 32.29 0.92 0
 1 -1 6 26.76 0.92 0
 1 -1 7 6.32 0.55 0
 1 -1 9 59.2 1.62 0
 1 -1 10 33.75 1.38 0
 -19 -3 2 0.19 2.23 0
 -19 -3 3 1.84 2.28 0
 -19 -3 4 5.15 2.32 0
 -19 -1 -1 -0.79 2.05 0
 -19 -1 0 4.67 2.2 0
 -19 -1 3 -1.45 2.12 0
 -19 -1 4 41.08 3.83 0
 -19 -1 5 2.97 2.43 0
 -19 1 -3 2.99 2.31 0
 -19 1 -2 57.37 3.82 0
 -19 1 -1 -0.56 2.13 0
 -19 1 0 5.86 2.54 0
 -19 1 1 3.51 2.62 0
 -19 1 3 0.23 2.71 0
 -19 1 4 40.76 3.98 0
 -19 1 5 5.81 2.95 0
 -19 3 -1 10.44 2.96 0
 -19 3 0 1.35 2.5 0
 -19 3 1 2.82 2.51 0
 -19 3 2 0.51 2.68 0
 -18 -6 2 -0.91 1.69 0
 -18 -6 3 1.88 1.89 0
 -18 -4 0 7.31 2.09 0
 -18 -4 1 -0.71 1.87 0
 -18 -4 3 0.73 2.02 0
 -18 -4 4 3.44 2.35 0
 -18 -4 5 6.55 2.59 0
 -18 -4 6 9.87 2.76 0
 -18 -2 -1 9.16 2.22 0
 -18 -2 0 3.71 2.07 0
 -18 -2 1 0.48 1.95 0
 -18 -2 2 1.4 2 0
 -18 -2 3 -0.94 2.17 0
 -18 -2 4 16.37 2.74 0
 -18 -2 5 3.32 2.23 0
 -18 -2 6 21.93 3.17 0
 -18 -2 7 0.01 2.23 0
 -18 -2 8 0.87 2.77 0
 -18 0 -2 58.11 3.57 0
 -18 0 4 8.89 2.41 0
 -18 0 6 16.37 2.79 0
 -18 0 8 14.43 2.89 0
 -18 2 -3 1.59 2.25 0
 -18 2 -2 4.65 2.42 0
 -18 2 -1 10.69 2.7 0
 -18 2 0 0.72 2.19 0
 -18 2 1 0.97 2.22 0
 -18 2 3 1.35 2.34 0
 -18 2 4 20.2 3.22 0
 -18 2 5 3.01 2.38 0
 -18 2 6 21.51 3.02 0
 -18 2 7 0.08 2.32 0
 -18 2 8 -0.63 2.34 0
 -18 4 -3 0.67 2.26 0
 -18 4 -2 4.23 2.62 0
 -18 4 -1 4.35 2.47 0
 -18 4 0 4.07 2.42 0
 -18 4 2 0.64 2.38 0
 -18 4 3 0.53 2.58 0
 -18 4 4 1.63 2.34 0
 -18 4 5 7.11 2.59 0
 -18 4 6 8.2 2.78 0
 -18 6 0 17.48 3.1 0
 -18 6 1 7.48 2.81 0
 -18 6 2 -0.14 2.76 0
 -17 -7 3 -0.17 1.75 0
 -17 -7 4 0.42 1.82 0
 -17 -7 5 2.25 2.25 0
 -17 -7 6 -0 2 0
 -17 -5 0 -0.6 1.6 0
 -17 -5 1 0.27 1.65 0
 -17 -5 2 1.98 1.85 0
 -17 -5 3 23.07 2.81 0
 -17 -5 4 4.3 2.04 0
 -17 -5 6 6.88 2.46 0
 -17 -3 -2 8.66 1.91 0
 -17 -3 -1 1.18 1.81 0
 -17 -3 0 25.22 2.64 0
 -17 -3 1 0.02 1.72 0
 -17 -3 2 5.33 2.21 0
 -17 -3 3 13.03 2.46 0
 -17 -3 4 17.2 2.67 0
 -17 -3 7 25.99 3.23 0
 -17 -3 8 15.8 2.69 0
 -17 -3 9 10.06 2.82 0
 -17 -3 10 24.27 3.35 0
 -17 -1 -3 1.54 1.79 0
 -17 -1 -2 3.83 1.97 0
 -17 -1 -1 5.3 1.89 0
 -17 -1 2 10.11 2.3 0
 -17 -1 4 1.07 2.14 0
 -17 -1 7 0.79 2.42 0
 -17 -1 8 12.83 2.94 0
 -17 -1 10 0.93 2.44 0
 -17 1 -5 13.03 2.21 0
 -17 1 -4 -1.09 1.81 0
 -17 1 -3 0.41 1.8 0
 -17 1 -1 3.87 2.02 0
 -17 1 0 6.29 2.22 0
 -17 1 1 0.83 1.96 0
 -17 1 2 7.78 2.26 0
 -17 1 3 -0.86 2.26 0
 -17 1 6 15.41 2.64 0
 -17 1 7 0.16 2.14 0
 -17 1 8 11.86 2.58 0
 -17 1 10 -0.67 2.4 0
 -17 3 -6 -1.01 1.96 0
 -17 3 -5 11.77 2.43 0
 -17 3 -4 0.86 2.06 0
 -17 3 -3 0.97 2.04 0
 -17 3 -2 9.94 2.25 0
 -17 3 -1 -0.35 2.03 0
 -17 3 0 25.83 3.22 0
 -17 3 1 -0.66 1.95 0
 -17 3 2 4.01 2.59 0
 -17 3 4 17.54 2.68 0
 -17 3 5 2.03 2.25 0
 -17 3 7 30.29 3.56 0
 -17 3 9 9.72 2.64 0
 -17 3 10 22.83 3.43 0
 -17 5 -7 1.95 2.29 0
 -17 5 -5 0.94 2.32 0
 -17 5 -4 18.72 2.7 0
 -17 5 -3 4.59 2.63 0
 -17 5 0 0.23 2.5 0
 -17 5 2 0.27 2.53 0
 -17 5 4 3.75 2.35 0
 -17 5 5 0.46 2.3 0
 -17 5 6 4.95 2.78 0
 -17 5 8 12.23 2.97 0
 -17 7 -2 -2.08 2.72 0
 -17 7 -1 -0.89 2.65 0
 -17 7 1 2.15 2.61 0
 -17 7 2 1.56 2.3 0
 -17 7 3 -0.3 2.52 0
 -17 7 4 -1.86 2.62 0
 -17 7 5 3.79 2.74 0
 -16 -6 0 0.6 1.51 0
 -16 -6 1 0.12 1.64 0
 -16 -6 2 0.42 1.65 0
 -16 -6 3 20.03 2.53 0
 -16 -6 4 -0.83 1.71 0
 -16 -6 5 19.59 2.64 0
 -16 -6 7 -1.05 2.07 0
 -16 -6 9 3.34 2.28 0
 -16 -4 -1 8.15 1.85 0
 -16 -4 1 9.93 2.03 0
 -16 -4 2 7.16 1.89 0
 -16 -4 3 8.12 2.06 0
 -16 -4 4 2.35 2.1 0
 -16 -4 8 4.53 2.16 0
 -16 -4 9 13.14 2.78 0
 -16 -4 10 52.48 3.73 0
 -16 -4 11 29.42 3.42 0
 -16 -2 -3 -0.54 1.5 0
 -16 -2 -2 0.77 1.7 0
 -16 -2 0 2.67 1.68 0
 -16 -2 1 2.19 1.68 0
 -16 -2 2 7.29 2.02 0
 -16 -2 3 1 1.74 0
 -16 -2 4 78.87 3.79 0
 -16 -2 5 4.42 2.26 0
 -16 -2 6 26.48 2.94 0
 -16 -2 7 6.77 2.15 0
 -16 -2 8 17.8 2.62 0
 -16 -2 9 1.37 2.06 0
 -16 -2 11 4.28 2.53 0
 -16 0 -4 1.9 1.73 0
 -16 0 2 124.93 4.34 0
 -16 0 4 219.83 5.61 0
 -16 0 8 84.66 4.11 0
 -16 0 10 15.48 2.86 0
 -16 0 12 0.1 2.59 0
 -16 2 -6 9.25 1.98 0
 -16 2 -4 0.68 1.71 0
 -16 2 -3 1.07 1.88 0
 -16 2 -2 1.13 1.69 0
 -16 2 0 2.72 1.83 0
 -16 2 1 1.31 2.17 0
 -16 2 2 8.46 2.14 0
 -16 2 4 81.32 4.01 0
 -16 2 5 5.63 2.55 0
 -16 2 7 7.63 2.28 0
 -16 2 9 3.41 2.23 0
 -16 2 10 52.45 3.79 0
 -16 2 11 4.53 2.55 0
 -16 2 12 3.59 2.51 0
 -16 4 -5 4.44 2.2 0
 -16 4 -4 11.23 2.27 0
 -16 4 -2 10.21 2.33 0
 -16 4 -1 9.64 2.44 0
 -16 4 0 11.38 2.42 0
 -16 4 1 9.19 2.27 0
 -16 4 2 9.45 2.28 0
 -16 4 4 2.11 2.35 0
 -16 4 7 31.59 3.38 0
 -16 4 8 6.3 2.49 0
 -16 4 9 9.58 2.53 0
 -16 4 11 28.29 3.37 0
 -16 6 -1 1.23 2.2 0
 -16 6 0 1.17 2.1 0
 -16 6 1 0.68 2.33 0
 -16 6 2 -0.02 2.38 0
 -16 6 5 16.43 2.99 0
 -16 6 7 -1.33 2.59 0
 -16 6 8 4.75 2.68 0
 -16 6 9 6.9 2.71 0
 -16 6 10 1.94 2.56 0
 -16 8 1 0.23 2.42 0
 -16 8 3 90.18 4.63 0
 -16 8 4 5.49 2.88 0
 -16 8 5 24.26 3.14 0
 -16 8 6 -0.81 2.59 0
 -15 -7 0 -0.39 1.52 0
 -15 -7 1 111.82 3.49 0
 -15 -7 2 0.01 1.65 0
 -15 -7 3 99.42 3.57 0
 -15 -7 5 20.44 2.34 0
 -15 -7 6 5.05 2.18 0
 -15 -7 7 22.04 2.82 0
 -15 -7 8 8.56 2.58 0
 -15 -5 0 19.15 2.19 0
 -15 -5 1 11.63 1.94 0
 -15 -5 2 0.59 1.78 0
 -15 -5 4 0.93 1.79 0
 -15 -5 6 -1.02 1.76 0
 -15 -5 7 14.98 2.35 0
 -15 -5 8 3.13 2.3 0
 -15 -5 9 -0.06 1.92 0
 -15 -5 10 14.47 2.52 0
 -15 -5 11 25.54 3.11 0
 -15 -5 12 3.8 2.53 0
 -15 -3 -3 1.98 1.37 0
 -15 -3 -2 14.17 1.87 0
 -15 -3 -1 17.01 2.05 0
 -15 -3 0 0.14 1.38 0
 -15 -3 1 0.66 1.68 0
 -15 -3 2 20.77 2.38 0
 -15 -3 4 35.09 2.78 0
 -15 -3 7 1.74 1.74 0
 -15 -3 8 16.43 2.39 0
 -15 -3 9 -0.04 1.9 0
 -15 -3 10 1.85 2.09 0
 -15 -3 11 4.89 2.23 0
 -15 -3 13 11.98 2.61 0
 -15 -1 -5 4.07 1.58 0
 -15 -1 -4 34.41 2.42 0
 -15 -1 -3 -1.05 1.33 0
 -15 -1 -2 186.88 4.42 0
 -15 -1 -1 6.76 1.69 0
 -15 -1 1 -0.09 1.56 0
 -15 -1 2 150.48 4.42 0
 -15 -1 4 58.74 3.31 0
 -15 -1 5 -0.6 1.71 0
 -15 -1 6 7.35 2.11 0
 -15 -1 7 0.39 1.87 0
 -15 -1 9 1.63 2.01 0
 -15 -1 10 0.83 2.3 0
 -15 -1 12 -0.41 2.19 0
 -15 -1 13 -0.39 2.5 0
 -15 -1 14 0.19 2.54 0
 -15 1 -5 2.54 1.65 0
 -15 1 -4 28.97 2.52 0
 -15 1 -3 -0.74 1.55 0
 -15 1 -2 184.66 4.66 0
 -15 1 -1 6.15 1.74 0
 -15 1 0 4.53 1.8 0
 -15 1 1 0.93 1.85 0
 -15 1 2 152.23 4.58 0
 -15 1 4 58.96 3.43 0
 -15 1 5 -0.89 1.65 0
 -15 1 6 5.59 1.94 0
 -15 1 7 3.01 2.22 0
 -15 1 9 1.33 2.19 0
 -15 1 10 0.19 1.9 0
 -15 1 11 -0.13 1.96 0
 -15 1 12 1.2 2.15 0
 -15 1 14 0.66 2.2 0
 -15 3 -8 3.15 1.72 0
 -15 3 -7 13.93 2.12 0
 -15 3 -5 24.11 2.61 0
 -15 3 -4 39.89 2.86 0
 -15 3 -2 14.88 2.06 0
 -15 3 -1 19.09 2.38 0
 -15 3 3 6.44 1.96 0
 -15 3 4 36.38 3.15 0
 -15 3 5 5.49 2.1 0
 -15 3 6 1.09 2.18 0
 -15 3 7 0.33 1.89 0
 -15 3 8 17.03 2.59 0
 -15 3 13 9.59 2.52 0
 -15 5 -1 0.56 2.13 0
 -15 5 0 20.77 2.52 0
 -15 5 3 26.18 2.89 0
 -15 5 4 1.11 2.12 0
 -15 5 5 0.64 1.88 0
 -15 5 6 1.6 2.38 0
 -15 5 7 14.55 2.7 0
 -15 5 8 3.77 2.16 0
 -15 5 9 -1.66 2.01 0
 -15 5 10 17.01 2.75 0
 -15 7 2 0.59 2.36 0
 -15 7 4 2.42 2.05 0
 -15 7 6 1.64 2.14 0
 -15 7 7 24.67 3.17 0
 -15 7 8 6.17 2.68 0
 -15 7 9 19.34 2.98 0
 -15 7 10 0.5 2.23 0
 -15 9 5 7.65 2.72 0
 -15 9 7 1.27 2.54 0
 -14 -6 0 23.55 2.08 0
 -14 -6 2 8.75 1.77 0
 -14 -6 3 10.6 1.82 0
 -14 -6 4 41.36 2.68 0
 -14 -6 5 32.42 2.61 0
 -14 -6 7 -0.45 1.91 0
 -14 -6 9 28.82 2.99 0
 -14 -6 10 38.7 3.29 0
 -14 -6 11 5.32 2.63 0
 -14 -4 -3 23.09 1.86 0
 -14 -4 -2 9.18 1.51 0
 -14 -4 -1 29.51 2.13 0
 -14 -4 0 3.05 1.41 0
 -14 -4 1 4.2 1.42 0
 -14 -4 2 8.41 1.72 0
 -14 -4 3 14.07 2.04 0
 -14 -4 5 11.07 1.9 0
 -14 -4 6 10 2.1 0
 -14 -4 7 5.68 1.84 0
 -14 -4 10 57.92 3.52 0
 -14 -4 12 80.1 3.99 0
 -14 -4 13 3.36 2.16 0
 -14 -4 14 2.75 2.58 0
 -14 -2 -5 117.18 3.07 0
 -14 -2 -4 3.37 1.32 0
 -14 -2 -3 7.14 1.48 0
 -14 -2 -2 -0.92 1.16 0
 -14 -2 -1 137.73 3.62 0
 -14 -2 0 0.59 1.33 0
 -14 -2 1 0.73 1.37 0
 -14 -2 4 23.76 2.35 0
 -14 -2 6 0.93 1.54 0
 -14 -2 7 6.01 1.86 0
 -14 -2 8 24.35 2.71 0
 -14 -2 11 9.14 2.22 0
 -14 -2 12 2.97 2.36 0
 -14 -2 13 1.76 2.22 0
 -14 -2 14 2.35 2.09 0
 -14 -2 15 5.74 2.27 0
 -14 0 -4 78.27 2.97 0
 -14 0 2 21.13 2.29 0
 -14 0 4 191.8 4.85 0
 -14 0 6 10.24 2.06 0
 -14 0 8 241.37 5.65 0
 -14 0 10 0.65 2.09 0
 -14 2 -8 1.36 1.51 0
 -14 2 -7 38.2 2.48 0
 -14 2 -6 3.43 1.55 0
 -14 2 -5 116.3 3.6 0
 -14 2 -4 4.24 1.68 0
 -14 2 -3 7.7 1.77 0
 -14 2 -2 -0.12 1.52 0
 -14 2 -1 140.32 4 0
 -14 2 0 0.15 1.39 0
 -14 2 1 0.77 1.39 0
 -14 2 2 12.58 2 0
 -14 2 3 77.82 3.44 0
 -14 2 4 20.34 2.25 0
 -14 2 5 24.54 2.58 0
 -14 2 6 0.68 1.63 0
 -14 2 8 26.49 2.84 0
 -14 2 10 21.71 2.58 0
 -14 2 11 8.55 2.2 0
 -14 2 12 0.78 2.11 0
 -14 2 13 0.39 2.21 0
 -14 2 15 4.28 2.38 0
 -14 4 0 4.03 1.79 0
 -14 4 1 2.61 1.57 0
 -14 4 2 10 1.91 0
 -14 4 3 12.03 2.13 0
 -14 4 5 7.62 1.91 0
 -14 4 6 10.42 2.15 0
 -14 4 7 4.36 2.22 0
 -14 4 8 4.02 2.33 0
 -14 4 9 9.47 2.52 0
 -14 4 10 59.6 3.72 0
 -14 4 11 71.1 3.98 0
 -14 4 12 78.26 3.96 0
 -14 4 13 3.53 2.16 0
 -14 4 14 1.81 2.05 0
 -14 6 4 41.72 3.23 0
 -14 6 5 31.58 3.01 0
 -14 6 6 4.9 2.17 0
 -14 6 7 -0.26 1.84 0
 -14 6 8 10.53 2.4 0
 -14 6 10 39.05 3.5 0
 -14 6 11 8.26 2.55 0
 -14 6 12 13.63 2.49 0
 -14 8 4 5.39 2.22 0
 -14 8 6 -0.47 2.01 0
 -14 8 7 30.29 3.28 0
 -14 8 8 4.95 2.48 0
 -14 8 10 4.7 2.38 0
 -14 8 11 1.81 2.27 0
 -14 10 6 2.68 2.31 0
 -14 10 8 1.3 2.33 0
 -13 -7 -1 5.64 1.32 0
 -13 -7 0 6.03 1.42 0
 -13 -7 1 113.31 3.17 0
 -13 -7 2 1.57 1.42 0
 -13 -7 3 151.33 3.85 0
 -13 -7 4 12.3 1.83 0
 -13 -7 5 18.76 2.23 0
 -13 -7 6 29.27 2.54 0
 -13 -7 7 92.64 3.66 0
 -13 -7 8 0.48 2.12 0
 -13 -5 -3 59.96 2.19 0
 -13 -5 -2 34.61 1.92 0
 -13 -5 -1 6.25 1.31 0
 -13 -5 1 53.93 2.53 0
 -13 -5 3 4.91 1.5 0
 -13 -5 5 0.23 1.52 0
 -13 -5 6 5.79 1.67 0
 -13 -5 8 14.23 2.06 0
 -13 -5 12 37.48 3.16 0
 -13 -3 -3 15.72 1.61 0
 -13 -3 -2 9.49 1.44 0
 -13 -3 0 128.21 3.38 0
 -13 -3 1 0.06 1.2 0
 -13 -3 2 47.72 2.48 0
 -13 -3 3 1.75 1.27 0
 -13 -3 4 -0.8 1.4 0
 -13 -3 5 31.53 2.45 0
 -13 -3 6 2.23 1.45 0
 -13 -3 7 49.51 2.9 0
 -13 -3 8 3.65 1.72 0
 -13 -3 9 12.29 2.04 0
 -13 -3 10 14.83 2.37 0
 -13 -3 12 15.95 2.38 0
 -13 -3 13 -0.75 2.06 0
 -13 -3 14 1.56 2.26 0
 -13 -1 -6 67.3 2.42 0
 -13 -1 -4 50.59 2.28 0
 -13 -1 -3 0.2 1.22 0
 -13 -1 -1 13.09 1.64 0
 -13 -1 0 14.27 1.76 0
 -13 -1 1 2.34 1.27 0
 -13 -1 2 211.98 4.5 0
 -13 -1 3 1.88 1.33 0
 -13 -1 5 7.38 1.65 0
 -13 -1 7 4.4 1.67 0
 -13 -1 8 47.84 2.96 0
 -13 -1 9 3.37 1.81 0
 -13 -1 10 2.08 1.94 0
 -13 -1 11 9.01 2.08 0
 -13 -1 12 2.71 1.88 0
 -13 -1 13 0.29 1.85 0
 -13 -1 15 0.13 2.01 0
 -13 -1 16 2.09 2.32 0
 -13 1 -8 3.12 1.32 0
 -13 1 -5 19.91 1.89 0
 -13 1 -2 20.35 1.98 0
 -13 1 -1 12.79 1.65 0
 -13 1 1 0.66 1.43 0
 -13 1 2 204.61 4.54 0
 -13 1 3 2.65 1.53 0
 -13 1 4 69.25 3.11 0
 -13 1 5 8.58 1.87 0
 -13 1 6 40.54 2.74 0
 -13 1 7 5.28 1.87 0
 -13 1 10 4.81 1.95 0
 -13 1 11 7.95 2.26 0
 -13 1 12 1.32 2.15 0
 -13 1 13 0.21 1.79 0
 -13 1 14 8.45 2.45 0
 -13 1 15 1.51 1.93 0
 -13 3 0 129.04 3.78 0
 -13 3 1 1.23 1.37 0
 -13 3 2 47.65 2.64 0
 -13 3 3 2.94 1.47 0
 -13 3 4 -0.74 1.37 0
 -13 3 5 29.55 2.53 0
 -13 3 7 49.08 2.99 0
 -13 3 8 3.18 1.8 0
 -13 3 10 12.58 2.24 0
 -13 3 11 68.1 3.54 0
 -13 3 12 12 2.28 0
 -13 3 15 11.89 2.56 0
 -13 3 16 0.75 2.29 0
 -13 5 3 4.98 1.67 0
 -13 5 4 -0.9 1.66 0
 -13 5 5 -0.94 1.4 0
 -13 5 6 7.11 1.79 0
 -13 5 7 3.09 1.78 0
 -13 5 8 13.63 2.39 0
 -13 5 9 0.75 1.92 0
 -13 5 11 8.47 2.16 0
 -13 5 12 33.15 3.1 0
 -13 5 13 6.38 2.37 0
 -13 5 14 10.54 2.38 0
 -13 5 15 0.79 2 0
 -13 7 4 15.52 2.59 0
 -13 7 5 15.69 2.33 0
 -13 7 6 30.43 2.97 0
 -13 7 7 91.04 3.95 0
 -13 7 8 -0.14 2.11 0
 -13 7 10 13.33 2.56 0
 -13 9 5 -0.56 1.92 0
 -13 9 7 16.13 2.5 0
 -13 9 8 1.77 2.28 0
 -13 9 9 3.77 2.16 0
 -13 9 10 3.32 2.41 0
 -13 9 11 -0.75 2.25 0
 -13 11 6 28.94 3.24 0
 -12 -6 -1 9.6 1.32 0
 -12 -6 0 0.46 1.06 0
 -12 -6 3 24.72 2.08 0
 -12 -6 5 1.8 1.49 0
 -12 -6 6 17.77 2.11 0
 -12 -6 9 6.29 2.05 0
 -12 -6 10 5.99 1.98 0
 -12 -4 -1 58.38 2.25 0
 -12 -4 1 79.37 2.64 0
 -12 -4 2 39.37 2.17 0
 -12 -4 3 80.93 2.84 0
 -12 -4 5 51.61 2.65 0
 -12 -4 6 58.95 2.8 0
 -12 -4 7 68.05 3.02 0
 -12 -4 8 -0.08 1.57 0
 -12 -4 9 6.4 1.94 0
 -12 -4 10 1.22 1.91 0
 -12 -4 11 3.45 1.83 0
 -12 -4 12 28.18 2.82 0
 -12 -4 14 -1.34 1.91 0
 -12 -2 -1 63.32 2.43 0
 -12 -2 0 0.94 0.99 0
 -12 -2 2 0.28 1.1 0
 -12 -2 4 5.12 1.42 0
 -12 -2 5 1.8 1.36 0
 -12 -2 7 105.99 3.48 0
 -12 -2 8 -0.62 1.22 0
 -12 -2 9 9.79 1.99 0
 -12 -2 10 1.27 1.51 0
 -12 -2 12 11.94 2.33 0
 -12 -2 13 8.63 2.34 0
 -12 -2 14 11.12 2.38 0
 -12 -2 15 0.32 2.13 0
 -12 -2 16 12.72 2.42 0
 -12 0 -2 17.55 1.61 0
 -12 0 0 19.97 1.73 0
 -12 0 2 80.46 2.86 0
 -12 0 4 2.82 1.24 0
 -12 0 6 23.16 2.17 0
 -12 0 8 21.89 2.22 0
 -12 0 12 4.68 2.08 0
 -12 0 14 1.24 1.96 0
 -12 0 16 14.8 2.44 0
 -12 2 0 1.2 1.12 0
 -12 2 3 133.31 3.65 0
 -12 2 4 5.5 1.39 0
 -12 2 5 1.66 1.44 0
 -12 2 7 103.71 3.61 0
 -12 2 8 0.67 1.49 0
 -12 2 9 9.1 1.77 0
 -12 2 10 0.05 1.66 0
 -12 2 11 17.68 2.23 0
 -12 2 13 8.84 1.98 0
 -12 2 16 11.99 2.33 0
 -12 2 17 2.28 1.83 0
 -12 4 3 79.98 3.12 0
 -12 4 4 5.57 1.56 0
 -12 4 5 55.18 2.81 0
 -12 4 6 59.97 2.93 0
 -12 4 7 65.67 3.2 0
 -12 4 8 -0.38 1.58 0
 -12 4 9 5.55 1.77 0
 -12 4 10 -0.74 1.85 0
 -12 4 11 4.97 1.92 0
 -12 4 12 27.35 2.81 0
 -12 4 14 1.31 1.84 0
 -12 4 16 64.78 3.54 0
 -12 6 7 9.79 1.89 0
 -12 6 9 5.63 1.91 0
 -12 6 10 7.83 2 0
 -12 6 11 21.5 2.54 0
 -12 6 12 3.57 1.87 0
 -12 6 13 1.17 2 0
 -12 6 14 14.73 2.31 0
 -12 8 6 24.03 2.7 0
 -12 8 7 12.88 2.31 0
 -12 8 9 24.52 2.95 0
 -12 8 10 -0.38 1.85 0
 -12 8 11 14.24 2.42 0
 -12 8 12 8.75 2.39 0
 -12 10 7 8.84 2.31 0
 -12 10 8 0.8 2.04 0
 -12 10 9 1.56 2.28 0
 -12 10 10 0.5 2.23 0
 -12 10 11 -1.82 1.99 0
 -12 12 7 18.2 2.89 0
 -11 -7 -1 67.77 2.19 0
 -11 -7 0 2.05 1.04 0
 -11 -7 1 6.64 1.22 0
 -11 -7 3 -0.77 1.17 0
 -11 -7 4 46.14 2.38 0
 -11 -7 5 33.94 2.28 0
 -11 -5 -4 49.49 1.66 0
 -11 -5 -3 80.14 2.12 0
 -11 -5 1 116.4 2.94 0
 -11 -5 2 135.6 3.28 0
 -11 -5 3 3.59 1.16 0
 -11 -5 4 3.45 1.2 0
 -11 -5 5 4.18 1.24 0
 -11 -5 6 5.81 1.59 0
 -11 -5 7 0.08 1.17 0
 -11 -5 8 1.49 1.48 0
 -11 -5 9 2.93 1.73 0
 -11 -5 10 33.58 2.56 0
 -11 -3 -5 2.41 0.87 0
 -11 -3 -4 120.28 2.53 0
 -11 -3 -2 6.98 1.11 0
 -11 -3 3 80.75 2.7 0
 -11 -3 4 28.47 1.93 0
 -11 -3 5 6.13 1.42 0
 -11 -3 6 4.02 1.45 0
 -11 -3 8 17.36 2.11 0
 -11 -3 9 48.67 2.7 0
 -11 -3 10 23.76 2.32 0
 -11 -3 11 75.99 3.34 0
 -11 -3 13 2.35 1.94 0
 -11 -3 14 0.3 2.01 0
 -11 -1 -7 2.02 0.92 0
 -11 -1 -6 122.43 2.62 0
 -11 -1 -5 11.72 1.33 0
 -11 -1 -4 10.42 1.24 0
 -11 -1 3 49.27 2.26 0
 -11 -1 4 52.52 2.37 0
 -11 -1 5 34.69 2.08 0
 -11 -1 6 56.22 2.52 0
 -11 -1 7 6.25 1.47 0
 -11 -1 9 48.72 2.58 0
 -11 -1 10 79.85 3.21 0
 -11 -1 11 7.46 1.75 0
 -11 -1 12 4.24 1.87 0
 -11 -1 13 16.33 2.33 0
 -11 -1 14 2.09 1.71 0
 -11 -1 16 1.25 1.9 0
 -11 1 2 28.52 1.9 0
 -11 1 3 49.18 2.29 0
 -11 1 4 52.34 2.37 0
 -11 1 5 34.01 2.15 0
 -11 1 6 56.17 2.55 0
 -11 1 7 4.08 1.48 0
 -11 1 8 38.83 2.41 0
 -11 1 10 77.49 3.13 0
 -11 1 12 4 1.9 0
 -11 1 14 1.46 1.69 0
 -11 1 16 -0.58 1.82 0
 -11 1 17 0.25 1.73 0
 -11 3 3 76.48 2.74 0
 -11 3 4 27.83 2.01 0
 -11 3 6 4.17 1.36 0
 -11 3 7 0.97 1.38 0
 -11 3 8 17.64 2.02 0
 -11 3 9 46.52 2.76 0
 -11 3 10 22.4 2.28 0
 -11 3 11 77.14 3.29 0
 -11 3 12 133.6 4.03 0
 -11 3 15 96.7 3.76 0
 -11 5 5 3.97 1.59 0
 -11 5 6 5.86 1.44 0
 -11 5 7 1.56 1.59 0
 -11 5 9 2.98 1.57 0
 -11 5 10 34.34 2.73 0
 -11 5 12 43.05 2.83 0
 -11 5 13 14.21 2.17 0
 -11 5 14 3.89 1.99 0
 -11 7 6 1.65 1.73 0
 -11 7 7 -1.05 1.3 0
 -11 7 10 46.27 3.13 0
 -11 7 11 3.85 2 0
 -11 7 12 1.36 1.73 0
 -11 7 13 4.95 1.95 0
 -11 9 7 6.19 2.1 0
 -11 9 8 7.48 2.12 0
 -11 9 9 14.32 2.42 0
 -11 9 10 1.57 2.05 0
 -11 11 7 1.77 2.07 0
 -11 11 8 0.21 2.13 0
 -11 11 9 4.13 2.16 0
 -11 11 10 18.87 2.65 0
 -10 -6 -3 1.84 0.76 0
 -10 -6 -2 97.88 2.18 0
 -10 -6 2 63.25 2.27 0
 -10 -6 3 221.76 4.13 0
 -10 -6 4 92.42 2.82 0
 -10 -6 5 17.46 1.71 0
 -10 -6 6 13.81 1.65 0
 -10 -6 7 117.64 3.4 0
 -10 -6 8 12.25 1.86 0
 -10 -4 -4 108.18 2.13 0
 -10 -4 -1 0.24 0.85 0
 -10 -4 0 19.92 1.48 0
 -10 -4 4 45.53 2.14 0
 -10 -4 5 46.57 2.19 0
 -10 -4 7 18.83 1.82 0
 -10 -4 8 10.47 1.72 0
 -10 -4 9 60.15 2.75 0
 -10 -4 10 31.83 2.42 0
 -10 -4 12 0.63 1.54 0
 -10 -2 -7 1.24 0.73 0
 -10 -2 -6 156.07 2.7 0
 -10 -2 -4 21.67 1.35 0
 -10 -2 -3 6.47 1 0
 -10 -2 -1 17.05 1.41 0
 -10 -2 0 19.25 1.41 0
 -10 -2 1 1.27 0.96 0
 -10 -2 5 59.6 2.33 0
 -10 -2 6 0.94 0.98 0
 -10 -2 7 23.88 1.87 0
 -10 -2 8 13.95 1.74 0
 -10 -2 9 43.24 2.43 0
 -10 -2 10 2.63 1.27 0
 -10 -2 12 6.19 1.6 0
 -10 -2 13 6.26 1.67 0
 -10 -2 14 0.81 1.51 0
 -10 0 -2 225.43 3.75 0
 -10 0 0 15.61 1.42 0
 -10 0 8 51.49 2.45 0
 -10 0 12 36.41 2.49 0
 -10 0 14 31.76 2.54 0
 -10 0 16 46.06 2.86 0
 -10 2 5 58.4 2.35 0
 -10 2 6 0.89 1.02 0
 -10 2 7 23.46 1.95 0
 -10 2 10 2.02 1.42 0
 -10 2 12 4.05 1.71 0
 -10 2 13 6.17 1.83 0
 -10 2 14 0.62 1.59 0
 -10 2 15 40.45 2.79 0
 -10 2 16 24.17 2.37 0
 -10 2 17 -0.34 1.41 0
 -10 4 5 49.26 2.29 0
 -10 4 6 5.64 1.24 0
 -10 4 7 18.43 1.9 0
 -10 4 8 10.97 1.64 0
 -10 4 11 73.33 3.04 0
 -10 4 13 24.22 2.36 0
 -10 6 6 14.08 1.91 0
 -10 6 7 116.82 3.51 0
 -10 6 8 11.78 1.89 0
 -10 6 9 21.59 2.17 0
 -10 6 10 25.1 2.42 0
 -10 6 12 1.57 1.53 0
 -10 6 13 11.22 1.93 0
 -10 8 7 91.96 3.42 0
 -10 8 8 7.55 1.93 0
 -10 8 9 0.57 1.53 0
 -10 8 10 21.15 2.39 0
 -10 10 8 1.82 1.77 0
 -10 10 9 1.05 1.74 0
 -10 10 10 6.67 1.98 0
 -10 12 8 -1.36 1.84 0
 -9 -7 2 1.47 0.99 0
 -9 -7 4 0.42 1.16 0
 -9 -5 -5 0.91 0.53 0
 -9 -5 -4 1.38 0.62 0
 -9 -5 -3 -0.23 0.64 0
 -9 -5 -1 2.43 0.81 0
 -9 -5 1 14.26 1.27 0
 -9 -5 4 21.5 1.55 0
 -9 -5 5 8.27 1.2 0
 -9 -5 7 9.11 1.32 0
 -9 -5 9 1.76 1.33 0
 -9 -5 10 -1.17 1.3 0
 -9 -5 11 7.44 1.68 0
 -9 -3 -6 21.17 0.99 0
 -9 -3 -5 27.94 1.16 0
 -9 -3 -4 38.95 1.36 0
 -9 -3 -3 42.73 1.49 0
 -9 -3 -2 0.4 0.68 0
 -9 -3 -1 17.51 1.22 0
 -9 -3 0 -0.54 0.73 0
 -9 -3 1 1 0.72 0
 -9 -3 7 104.62 2.98 0
 -9 -3 8 8.51 1.48 0
 -9 -3 9 10.78 1.47 0
 -9 -3 10 3.68 1.47 0
 -9 -3 11 8.1 1.57 0
 -9 -3 13 3.55 1.45 0
 -9 -3 14 0.91 1.51 0
 -9 -1 -8 12.22 0.97 0
 -9 -1 -7 47.54 1.47 0
 -9 -1 -6 54.64 1.58 0
 -9 -1 -5 -0.27 0.63 0
 -9 -1 -4 82.02 1.97 0
 -9 -1 -3 37.56 1.46 0
 -9 -1 -2 32.8 1.49 0
 -9 -1 0 72.64 2.05 0
 -9 -1 1 11.97 1.24 0
 -9 -1 2 182.78 3.42 0
 -9 -1 8 88.21 2.78 0
 -9 -1 9 24.43 1.89 0
 -9 -1 10 579.17 6.99 0
 -9 -1 11 -0.5 1.15 0
 -9 -1 12 14.43 1.78 0
 -9 -1 13 21.94 2.13 0
 -9 -1 14 147.01 3.97 0
 -9 -1 16 41.66 2.69 0
 -9 1 1 13.27 1.23 0
 -9 1 2 185.12 3.44 0
 -9 1 3 7.6 1.11 0
 -9 1 7 12.52 1.53 0
 -9 1 8 89.7 2.81 0
 -9 1 9 26.02 1.89 0
 -9 1 10 568.39 6.87 0
 -9 1 11 0.89 1.21 0
 -9 1 13 21.47 2.17 0
 -9 1 14 148.84 3.94 0
 -9 1 15 5.48 1.61 0
 -9 3 7 101.12 2.92 0
 -9 3 8 8.53 1.46 0
 -9 3 11 6.8 1.59 0
 -9 3 12 39.48 2.41 0
 -9 3 14 1.14 1.44 0
 -9 3 15 5.41 1.55 0
 -9 5 6 65.47 2.55 0
 -9 5 7 9.43 1.42 0
 -9 5 9 2.52 1.28 0
 -9 5 11 7.04 1.64 0
 -9 5 12 7.69 1.71 0
 -9 5 13 5.94 1.67 0
 -9 7 7 93.25 3.18 0
 -9 7 8 30.06 2.22 0
 -9 7 9 144.83 3.81 0
 -9 7 10 5.31 1.58 0
 -9 7 11 200.53 4.5 0
 -9 7 12 7.16 1.69 0
 -9 9 8 14.97 2.05 0
 -9 9 9 145.45 3.98 0
 -9 9 10 1.9 1.7 0
 -9 11 8 3.09 1.87 0
 -8 -6 -2 8.94 0.94 0
 -8 -6 1 108.21 2.37 0
 -8 -6 6 51.23 2.19 0
 -8 -6 7 179.01 3.76 0
 -8 -4 -6 39.78 0.89 0
 -8 -4 -5 8.28 0.7 0
 -8 -4 -4 134.05 2.1 0
 -8 -4 -3 265.69 3 0
 -8 -4 -2 357.83 3.61 0
 -8 -4 -1 10.61 0.98 0
 -8 -4 0 191.47 3.02 0
 -8 -4 1 636.24 5.4 0
 -8 -4 2 1159.54 7.46 0
 -8 -4 3 251.68 3.82 0
 -8 -4 7 149.3 3.33 0
 -8 -4 8 58.11 2.35 0
 -8 -4 10 13.35 1.65 0
 -8 -4 11 2.47 1.22 0
 -8 -4 12 0.67 1.34 0
 -8 -2 -5 19.11 1 0
 -8 -2 -3 1.25 0.64 0
 -8 -2 -2 23.93 1.21 0
 -8 -2 -1 2.53 0.75 0
 -8 -2 0 8.64 0.99 0
 -8 -2 2 197.72 3.27 0
 -8 -2 3 53.46 1.86 0
 -8 -2 4 105.28 2.53 0
 -8 -2 5 0.21 0.79 0
 -8 -2 8 59.19 2.27 0
 -8 -2 10 21.35 1.74 0
 -8 -2 11 5.11 1.43 0
 -8 -2 14 4.51 1.51 0
 -8 0 0 63.52 1.79 0
 -8 0 2 198.5 3.21 0
 -8 0 4 354.94 4.54 0
 -8 0 10 241.86 4.5 0
 -8 0 12 4.12 1.31 0
 -8 0 14 1.86 1.47 0
 -8 0 16 14.38 1.94 0
 -8 2 5 -0.06 0.74 0
 -8 2 9 38.78 2.02 0
 -8 2 10 20.26 1.71 0
 -8 2 11 7.01 1.3 0
 -8 2 12 2.54 1.26 0
 -8 2 13 27.94 2.12 0
 -8 2 14 3.09 1.5 0
 -8 4 10 13.78 1.61 0
 -8 4 12 0.15 1.14 0
 -8 4 13 0.87 1.19 0
 -8 6 8 70.36 2.57 0
 -8 6 9 68.27 2.62 0
 -8 6 11 33.27 2.19 0
 -8 6 12 7.5 1.49 0
 -8 8 8 0.46 1.36 0
 -8 8 9 106.9 3.24 0
 -8 8 10 16.7 2.01 0
 -8 10 9 4.49 1.63 0
 -8 12 8 4.16 1.62 0
 -7 -5 -3 76.05 1.48 0
 -7 -5 -2 173.2 2.35 0
 -7 -5 0 27.81 1.25 0
 -7 -5 2 235.41 3.42 0
 -7 -5 3 1.39 0.78 0
 -7 -5 9 1.85 1.2 0
 -7 -3 -6 27 0.75 0
 -7 -3 -5 333.01 2.61 0
 -7 -3 -4 216.88 2.35 0
 -7 -3 -3 471.55 3.56 0
 -7 -3 -2 36.17 1.19 0
 -7 -3 -1 139.93 2.29 0
 -7 -3 0 245.17 3.05 0
 -7 -3 1 701.43 5.19 0
 -7 -3 2 57.04 1.71 0
 -7 -3 4 20.53 1.31 0
 -7 -3 5 104.66 2.46 0
 -7 -3 6 5.23 1.07 0
 -7 -3 10 -0.47 0.86 0
 -7 -3 11 32.48 1.97 0
 -7 -3 12 17.38 1.8 0
 -7 -1 -2 446.43 3.75 0
 -7 -1 -1 27.41 1.15 0
 -7 -1 0 138.82 2.4 0
 -7 -1 1 135.18 2.48 0
 -7 -1 3 -0.15 0.51 0
 -7 -1 4 66.62 1.92 0
 -7 -1 5 27.84 1.48 0
 -7 -1 7 0.39 0.74 0
 -7 -1 13 0.53 1.23 0
 -7 -1 14 235.01 4.56 0
 -7 1 3 -0.11 0.54 0
 -7 1 4 66.2 1.92 0
 -7 1 5 29.41 1.48 0
 -7 1 6 2.57 0.93 0
 -7 1 7 0.17 0.72 0
 -7 1 11 -0.36 1 0
 -7 1 12 12.96 1.6 0
 -7 1 13 0.7 1.11 0
 -7 1 14 235.25 4.44 0
 -7 1 15 0.7 1.23 0
 -7 3 5 102.94 2.45 0
 -7 3 6 5.61 0.95 0
 -7 3 7 13.21 1.38 0
 -7 3 11 29.06 1.76 0
 -7 3 13 -0.57 1.07 0
 -7 3 14 0.23 1.1 0
 -7 5 10 10.36 1.38 0
 -7 5 11 0.52 1.13 0
 -7 5 12 9.81 1.42 0
 -7 7 8 -0.08 0.94 0
 -7 7 9 3.55 1.22 0
 -7 7 10 0.21 1.15 0
 -7 7 11 121.83 3.12 0
 -7 9 9 114.69 3.22 0
 -6 -4 -5 18.75 0.56 0
 -6 -4 -4 -0.05 0.34 0
 -6 -4 -3 25.85 0.86 0
 -6 -4 -2 31.84 1.01 0
 -6 -4 -1 0.34 0.48 0
 -6 -4 1 120.63 2.2 0
 -6 -4 2 676 5.07 0
 -6 -4 4 17.66 1.18 0
 -6 -4 5 189.31 3.23 0
 -6 -4 6 645.93 5.81 0
 -6 -4 9 32.97 1.76 0
 -6 -4 10 143.43 3.22 0
 -6 -2 -7 293.12 1.95 0
 -6 -2 -6 73.37 1.26 0
 -6 -2 -5 0.36 0.38 0
 -6 -2 -3 493.92 3.35 0
 -6 -2 -2 155.28 2.11 0
 -6 -2 -1 123.45 1.97 0
 -6 -2 0 67.41 1.52 0
 -6 -2 1 106.38 2.09 0
 -6 -2 2 486.61 4.19 0
 -6 -2 3 79.46 1.85 0
 -6 -2 5 0.74 0.61 0
 -6 -2 6 56.68 1.81 0
 -6 -2 7 11.55 1.16 0
 -6 -2 8 176.27 3.39 0
 -6 -2 11 8.45 1.21 0
 -6 -2 12 2.56 1.16 0
 -6 -2 13 4.82 1.28 0
 -6 0 2 5.62 0.7 0
 -6 0 4 114.19 2.32 0
 -6 0 6 266.54 3.61 0
 -6 0 14 362.77 5.1 0
 -6 2 4 66.36 1.75 0
 -6 2 6 56.22 1.76 0
 -6 2 7 11.43 1.12 0
 -6 2 8 185.13 3.27 0
 -6 2 13 5.2 1.16 0
 -6 4 6 655.34 5.73 0
 -6 4 8 31.61 1.63 0
 -6 4 9 34.37 1.7 0
 -6 4 13 39.29 1.81 0
 -6 8 9 152.87 3.27 0
 -5 -5 0 115.74 1.97 0
 -5 -5 1 175.16 2.46 0
 -5 -5 2 270.4 3.16 0
 -5 -5 4 0.89 0.69 0
 -5 -5 6 94.59 2.34 0
 -5 -3 -5 260.05 1.46 0
 -5 -3 -4 -0.19 0.27 0
 -5 -3 -3 19.57 0.66 0
 -5 -3 -2 48.41 1.02 0
 -5 -3 -1 698.49 3.88 0
 -5 -3 0 95.27 1.63 0
 -5 -3 1 651.78 4.27 0
 -5 -3 2 620.3 4.39 0
 -5 -3 4 47.05 1.5 0
 -5 -3 8 23.15 1.39 0
 -5 -1 -2 1003.85 4.49 0
 -5 -1 -1 701.3 3.9 0
 -5 -1 0 404.54 3.19 0
 -5 -1 1 58.54 1.4 0
 -5 -1 2 323.42 3.14 0
 -5 -1 3 205.22 2.69 0
 -5 -1 4 123.41 2.24 0
 -5 -1 5 133.09 2.4 0
 -5 -1 6 455.97 4.3 0
 -5 -1 7 19.17 1.19 0
 -5 -1 8 9.9 1.07 0
 -5 -1 12 31.6 1.7 0
 -5 -1 13 0.9 1.08 0
 -5 1 3 197.6 2.54 0
 -5 1 4 124.83 2.18 0
 -5 1 6 454.32 4.25 0
 -5 1 7 19.07 1.17 0
 -5 1 9 24.79 1.39 0
 -5 1 10 349.71 4.18 0
 -5 1 14 19.6 1.47 0
 -5 3 6 66.82 1.76 0
 -5 3 8 22.53 1.33 0
 -5 3 9 156.46 2.87 0
 -5 3 10 -0.23 0.67 0
 -5 3 11 -0.09 0.72 0
 -5 5 9 1.8 0.85 0
 -5 5 11 3.84 0.92 0
 -5 7 8 10.28 1.22 0
 -4 -4 -1 85.46 1.33 0
 -4 -4 1 820.14 4.49 0
 -4 -4 3 10.81 0.82 0
 -4 -4 4 4.81 0.7 0
 -4 -4 5 310.39 3.5 0
 -4 -2 -5 194.71 1.21 0
 -4 -2 -4 22.12 0.54 0
 -4 -2 -3 675.1 2.81 0
 -4 -2 -2 41.77 0.9 0
 -4 -2 0 224.43 2.16 0
 -4 -2 1 1952.98 6.42 0
 -4 -2 3 52.26 1.35 0
 -4 -2 4 69.81 1.56 0
 -4 -2 5 776.82 5.1 0
 -4 -2 7 130.89 2.49 0
 -4 -2 8 45.9 1.6 0
 -4 -2 9 68.67 1.93 0
 -4 -2 10 30.57 1.53 0
 -4 0 4 827.68 4.84 0
 -4 0 6 62.09 1.53 0
 -4 0 8 1.61 0.62 0
 -4 0 10 137.24 2.65 0
 -4 2 5 758.02 4.76 0
 -4 2 6 54.13 1.45 0
 -4 2 7 130.72 2.25 0
 -4 2 8 45.26 1.45 0
 -4 2 9 65.7 1.73 0
 -4 2 10 30.05 1.34 0
 -4 2 12 0.64 0.73 0
 -4 2 13 7.34 0.99 0
 -4 4 7 1.48 0.61 0
 -4 4 9 85.23 1.97 0
 -4 4 10 3.71 0.79 0
 -4 4 11 13.07 1.06 0
 -4 4 12 1.12 0.65 0
 -4 4 13 -0.93 0.37 0
 -4 6 8 10.72 1.01 0
 -4 6 10 9.4 1.04 0
 -3 -3 -2 29.24 0.62 0
 -3 -3 -1 8.64 0.51 0
 -3 -3 0 341.2 2.4 0
 -3 -3 1 634.02 3.49 0
 -3 -3 2 1365.71 5.45 0
 -3 -3 3 12.1 0.81 0
 -3 -3 4 939.59 5.07 0
 -3 -3 5 7.71 0.77 0
 -3 -3 6 343.43 3.47 0
 -3 -3 7 17.03 1.07 0
 -3 -1 -1 518.95 2.43 0
 -3 -1 0 3009.12 6.33 0
 -3 -1 1 287.34 2.19 0
 -3 -1 2 34.88 0.93 0
 -3 -1 3 570.35 3.49 0
 -3 -1 5 -0.21 0.41 0
 -3 -1 8 163.63 2.56 0
 -3 -1 10 522.62 4.62 0
 -3 1 3 565.42 3.36 0
 -3 1 4 15.38 0.84 0
 -3 1 5 0.28 0.49 0
 -3 1 7 186.06 2.44 0
 -3 1 8 162.79 2.38 0
 -3 1 9 33.77 1.25 0
 -3 1 10 523.07 4.36 0
 -3 1 11 60.28 1.63 0
 -3 3 6 332.26 3.04 0
 -3 3 7 18.51 0.92 0
 -3 3 8 784.29 4.89 0
 -3 3 9 8.09 0.8 0
 -3 3 10 3.78 0.68 0
 -3 3 11 7.64 0.85 0
 -3 3 12 112.84 2.14 0
 -3 5 7 246.27 2.94 0
 -3 5 8 62.59 1.54 0
 -3 5 9 127.65 2.22 0
 -3 7 8 29.39 1.29 0
 -2 -2 -1 550.55 2.08 0
 -2 -2 0 633.52 2.59 0
 -2 -2 1 1069.24 3.8 0
 -2 -2 2 2351.09 6.08 0
 -2 -2 3 286.65 2.36 0
 -2 -2 4 131.72 1.76 0
 -2 -2 5 1332.77 5.63 0
 -2 -2 6 160.54 2.19 0
 -2 -2 7 5.3 0.67 0
 -2 0 2 645.59 2.91 0
 -2 0 6 0.47 0.45 0
 -2 0 8 79.57 1.6 0
 -2 0 10 32.17 1.21 0
 -2 2 4 129.04 1.59 0
 -2 2 5 1318.38 4.96 0
 -2 2 6 154.25 1.89 0
 -2 2 7 5.11 0.59 0
 -2 2 8 86.31 1.54 0
 -2 2 9 588.67 3.91 0
 -2 2 10 21.15 0.96 0
 -2 2 11 27.84 1.04 0
 -2 4 7 28.32 0.96 0
 -2 4 11 101.67 1.72 0
 -2 6 9 68.54 1.45 0
 -1 -1 0 1975.72 3.16 0
 -1 -1 2 858.99 2.99 0
 -1 -1 4 1318.77 4.45 0
 -1 -1 5 141.6 1.71 0
 -1 -1 6 573.73 3.46 0
 -1 1 4 1312.66 3.95 0
 -1 1 5 136.73 1.47 0
 -1 1 6 564.4 3.03 0
 -1 1 7 10.86 0.6 0
 -1 1 8 0.14 0.35 0
 -1 1 9 21.71 0.83 0
 -1 3 9 430.5 2.77 0
 -1 3 10 26.11 0.8 0
 -1 5 8 516.07 3.07 0
 0 0 4 9845.53 9.55 0
 0 2 6 436.76 2.02 0
 0 2 7 9.13 0.41 0
 0 4 6 3.39 0.34 0
 0 4 7 54.24 0.83 0
 0 4 8 309.26 1.59 0
 0 6 7 6.35 0.49 0
 0 6 8 -0.1 0.27 0
 -19 -3 0 2.04 1.69 0
 -19 -3 1 4.46 1.88 0
 -19 -3 2 1.23 1.94 0
 -19 -3 3 0.32 1.9 0
 -19 -1 -1 -0.4 1.69 0
 -19 -1 0 5.71 1.96 0
 -19 -1 1 7.43 2.09 0
 -19 -1 2 59.72 3.23 0
 -19 -1 3 -0.14 1.91 0
 -19 -1 4 38.97 2.92 0
 -19 -1 5 3.31 1.99 0
 -19 1 2 62.19 3.31 0
 -19 1 3 0.17 1.61 0
 -19 1 4 34.91 2.83 0
 -19 1 5 3.67 1.73 0
 -18 -6 -1 0.38 1.49 0
 -18 -6 0 15.2 2.22 0
 -18 -6 1 8.5 1.94 0
 -18 -6 2 -1.95 1.88 0
 -18 -6 3 1.13 2.01 0
 -18 -4 -5 37.48 2.62 0
 -18 -4 -4 35.99 2.63 0
 -18 -4 -3 -0.98 1.58 0
 -18 -4 -2 3.54 1.63 0
 -18 -4 -1 5.54 1.77 0
 -18 -4 0 4.78 1.93 0
 -18 -4 1 -2.1 1.36 0
 -18 -4 2 1.06 1.56 0
 -18 -4 3 -0.05 1.46 0
 -18 -4 4 2.37 1.66 0
 -18 -4 5 4.14 1.96 0
 -18 -4 6 6.34 2.03 0
 -18 -4 7 0.66 1.88 0
 -18 -2 -5 23.99 2.28 0
 -18 -2 -4 8.28 1.64 0
 -18 -2 -3 0.85 1.72 0
 -18 -2 -2 4.34 1.82 0
 -18 -2 -1 8.91 1.99 0
 -18 -2 0 2.88 1.53 0
 -18 -2 3 0.67 1.81 0
 -18 -2 4 16.73 2.18 0
 -18 -2 5 -0.39 1.59 0
 -18 -2 6 18.83 2.22 0
 -18 -2 7 0.37 1.53 0
 -18 -2 8 1.63 1.6 0
 -18 0 -2 53.38 2.91 0
 -18 0 0 1.63 1.65 0
 -18 0 2 13.34 1.92 0
 -18 0 4 6.61 1.91 0
 -18 0 6 17 2.15 0
 -18 0 8 15.27 2.04 0
 -18 2 3 1.74 1.84 0
 -18 2 5 1.85 1.82 0
 -18 2 7 -2.17 1.66 0
 -18 2 8 -1.04 1.44 0
 -17 -7 -4 7.1 1.58 0
 -17 -7 -3 18.54 2.23 0
 -17 -7 -2 0.65 1.5 0
 -17 -7 0 0.56 1.46 0
 -17 -7 1 1.93 1.9 0
 -17 -7 2 0.18 1.61 0
 -17 -7 3 0.45 1.63 0
 -17 -7 4 -1.16 1.82 0
 -17 -7 6 -0.64 1.97 0
 -17 -5 -6 20.24 2.14 0
 -17 -5 -5 -0.72 1.44 0
 -17 -5 -4 14.57 1.9 0
 -17 -5 -3 6.59 1.61 0
 -17 -5 -2 1.81 1.57 0
 -17 -5 -1 12.44 1.99 0
 -17 -5 0 0.4 1.4 0
 -17 -5 1 1.31 1.75 0
 -17 -5 2 2.15 1.57 0
 -17 -5 3 25.18 2.5 0
 -17 -5 4 2.26 1.8 0
 -17 -5 5 1.18 1.6 0
 -17 -5 6 6.9 2.09 0
 -17 -5 7 29.67 2.74 0
 -17 -5 8 9.29 2.17 0
 -17 -5 9 -1.02 1.56 0
 -17 -3 -6 0.14 1.5 0
 -17 -3 -5 14.17 1.94 0
 -17 -3 -4 0.96 1.57 0
 -17 -3 -3 1.91 1.41 0
 -17 -3 -2 9.14 1.67 0
 -17 -3 -1 1.11 1.47 0
 -17 -3 0 22.7 2.32 0
 -17 -3 1 0.55 1.61 0
 -17 -3 2 6.27 1.88 0
 -17 -3 3 10.83 2.02 0
 -17 -3 5 2 1.52 0
 -17 -3 6 8.3 1.82 0
 -17 -3 7 30.14 2.6 0
 -17 -3 8 12.82 1.95 0
 -17 -3 10 22.55 2.53 0
 -17 -1 -4 0.77 1.58 0
 -17 -1 -3 0.86 1.35 0
 -17 -1 -1 4.5 1.49 0
 -17 -1 0 3.63 1.71 0
 -17 -1 1 0.79 1.33 0
 -17 -1 2 9.36 1.73 0
 -17 -1 3 1.57 1.41 0
 -17 -1 4 1.89 1.44 0
 -17 -1 5 1.35 1.6 0
 -17 -1 6 14.77 2.16 0
 -17 -1 7 1.19 1.72 0
 -17 -1 8 14.36 2.07 0
 -17 -1 9 2.91 1.56 0
 -17 -1 10 1.83 1.5 0
 -17 -1 11 -0.41 1.3 0
 -17 1 -1 4.41 1.52 0
 -17 1 0 5.81 1.77 0
 -17 1 1 -0.3 1.4 0
 -17 1 2 7.12 1.69 0
 -17 1 3 0.56 1.57 0
 -17 1 4 1.38 1.56 0
 -17 1 5 1.17 1.57 0
 -17 1 6 13.58 1.89 0
 -17 1 7 -1.25 1.39 0
 -17 1 9 1.87 1.45 0
 -17 1 10 2.06 1.4 0
 -17 1 11 -1.36 1.31 0
 -16 -8 -4 3.85 1.43 0
 -16 -8 -3 1.92 1.44 0
 -16 -8 -2 -0.21 1.46 0
 -16 -8 -1 25.56 2.42 0
 -16 -8 0 1.71 1.6 0
 -16 -8 1 1.45 1.68 0
 -16 -8 2 -1.26 1.48 0
 -16 -8 4 3.02 1.79 0
 -16 -8 5 25.05 2.67 0
 -16 -8 6 -1.18 1.91 0
 -16 -6 -6 0.98 1.26 0
 -16 -6 -5 2.69 1.47 0
 -16 -6 -4 1.3 1.44 0
 -16 -6 -2 0.76 1.38 0
 -16 -6 -1 1.77 1.37 0
 -16 -6 0 1.88 1.56 0
 -16 -6 1 -1.92 1.41 0
 -16 -6 2 1.38 1.77 0
 -16 -6 3 19.57 2.35 0
 -16 -6 4 -0.99 1.65 0
 -16 -6 6 8.04 1.86 0
 -16 -6 7 -1.08 1.59 0
 -16 -6 9 4.97 1.89 0
 -16 -6 10 5.66 1.86 0
 -16 -4 -7 1.53 1.24 0
 -16 -4 -6 9.58 1.62 0
 -16 -4 -5 2.51 1.27 0
 -16 -4 -4 9.08 1.58 0
 -16 -4 -3 3.93 1.6 0
 -16 -4 -2 11.21 1.63 0
 -16 -4 -1 7.01 1.53 0
 -16 -4 0 10.84 1.7 0
 -16 -4 1 8.8 1.83 0
 -16 -4 2 9.11 1.82 0
 -16 -4 3 7.41 1.78 0
 -16 -4 4 0.09 1.69 0
 -16 -4 6 64.87 3.11 0
 -16 -4 7 31.31 2.55 0
 -16 -4 8 6.56 1.79 0
 -16 -4 9 11.64 2 0
 -16 -4 11 31.35 2.65 0
 -16 -4 12 23 2.52 0
 -16 -2 -6 10.46 1.56 0
 -16 -2 -5 11.21 1.65 0
 -16 -2 -4 1.56 1.27 0
 -16 -2 -3 0.54 1.41 0
 -16 -2 -2 0.87 1.22 0
 -16 -2 -1 2.19 1.27 0
 -16 -2 0 2.84 1.48 0
 -16 -2 1 0.49 1.29 0
 -16 -2 2 8.94 1.8 0
 -16 -2 3 -0.66 1.49 0
 -16 -2 4 77.37 3.11 0
 -16 -2 5 3.57 1.58 0
 -16 -2 6 23.14 2.31 0
 -16 -2 7 6.88 1.58 0
 -16 -2 8 20.9 2.22 0
 -16 -2 9 1.67 1.63 0
 -16 -2 10 55.31 2.83 0
 -16 -2 11 3.84 1.67 0
 -16 -2 12 4.73 1.61 0
 -16 -2 13 -1.54 1.44 0
 -16 0 -4 3.35 1.43 0
 -16 0 0 43.56 2.52 0
 -16 0 4 229.11 4.78 0
 -16 0 6 0.31 1.53 0
 -16 0 8 81.7 3.18 0
 -16 0 10 16.62 2 0
 -16 0 12 1.18 1.31 0
 -16 2 0 2.44 1.58 0
 -16 2 1 2.34 1.42 0
 -16 2 2 5.94 1.48 0
 -16 2 3 0.95 1.54 0
 -16 2 4 82.46 3.14 0
 -16 2 5 6.73 1.76 0
 -16 2 6 26.27 2.23 0
 -16 2 7 5.85 1.73 0
 -16 2 9 3.6 1.63 0
 -16 2 10 51.83 2.59 0
 -16 2 11 2.94 1.44 0
 -15 -9 -4 8.08 1.6 0
 -15 -9 -2 1.2 1.55 0
 -15 -9 1 7.64 1.84 0
 -15 -9 2 -0.24 1.48 0
 -15 -9 3 61.37 3.26 0
 -15 -9 4 8.18 1.91 0
 -15 -9 5 9.14 2.11 0
 -15 -9 6 6.67 2.11 0
 -15 -9 7 2.91 1.93 0
 -15 -7 -5 -0.64 1.18 0
 -15 -7 -4 -0.24 1.17 0
 -15 -7 -3 160.75 3.97 0
 -15 -7 -2 3.49 1.57 0
 -15 -7 -1 55.44 2.77 0
 -15 -7 1 112.21 3.69 0
 -15 -7 2 1.35 1.49 0
 -15 -7 3 96.41 3.56 0
 -15 -7 4 2.8 1.53 0
 -15 -7 5 25.64 2.49 0
 -15 -7 6 4.29 1.69 0
 -15 -7 7 21.77 2.47 0
 -15 -7 10 1.66 1.82 0
 -15 -5 -7 -0.05 1.09 0
 -15 -5 -6 9.31 1.49 0
 -15 -5 -5 11.26 1.64 0
 -15 -5 -4 50.53 2.44 0
 -15 -5 -3 16.96 1.88 0
 -15 -5 -2 0.83 1.31 0
 -15 -5 -1 1.05 1.23 0
 -15 -5 1 12.68 1.9 0
 -15 -5 2 0.38 1.32 0
 -15 -5 3 26.72 2.29 0
 -15 -5 5 0.59 1.34 0
 -15 -5 6 0.58 1.7 0
 -15 -5 7 18.86 2.28 0
 -15 -5 8 4.44 1.74 0
 -15 -5 9 0.47 1.42 0
 -15 -5 10 16.6 2.1 0
 -15 -5 11 23.16 2.44 0
 -15 -5 12 4.39 1.58 0
 -15 -5 13 2.58 1.76 0
 -15 -3 -7 13.85 1.67 0
 -15 -3 -6 9.86 1.54 0
 -15 -3 -5 20.7 1.9 0
 -15 -3 -4 37.89 2.25 0
 -15 -3 -3 2.93 1.42 0
 -15 -3 -1 16.58 1.91 0
 -15 -3 0 0.21 1.09 0
 -15 -3 1 0.53 1.39 0
 -15 -3 2 19.17 1.94 0
 -15 -3 3 4.99 1.36 0
 -15 -3 4 35.77 2.35 0
 -15 -3 5 5.1 1.51 0
 -15 -3 6 -0.15 1.55 0
 -15 -3 7 0.23 1.53 0
 -15 -3 8 19.01 2.15 0
 -15 -3 9 2.29 1.42 0
 -15 -3 10 2.28 1.47 0
 -15 -3 11 8.39 1.71 0
 -15 -3 12 28.51 2.41 0
 -15 -3 13 9.63 1.77 0
 -15 -1 -6 7.24 1.38 0
 -15 -1 -5 4.14 1.28 0
 -15 -1 -4 31.25 2.16 0
 -15 -1 -2 187.15 4.1 0
 -15 -1 -1 6.68 1.32 0
 -15 -1 0 5.11 1.41 0
 -15 -1 1 -0.83 1.15 0
 -15 -1 3 7.55 1.67 0
 -15 -1 4 57.63 2.64 0
 -15 -1 5 -0.16 1.12 0
 -15 -1 6 7.08 1.44 0
 -15 -1 7 3.41 1.32 0
 -15 -1 9 0.32 1.41 0
 -15 -1 10 0.74 1.49 0
 -15 -1 11 -1 1.42 0
 -15 -1 12 0.54 1.24 0
 -15 -1 13 -0.57 1.33 0
 -15 1 -3 0.23 1.18 0
 -15 1 -2 184.68 4.12 0
 -15 1 -1 5.55 1.39 0
 -15 1 0 6.49 1.53 0
 -15 1 1 -1.04 1 0
 -15 1 2 148.69 3.76 0
 -15 1 3 6.01 1.39 0
 -15 1 4 58.83 2.62 0
 -15 1 5 0.34 1.23 0
 -15 1 6 5.96 1.6 0
 -15 1 7 1.74 1.44 0
 -15 1 8 2.81 1.27 0
 -15 1 9 0.23 1.4 0
 -15 1 10 0.02 1.39 0
 -15 1 11 -1.35 1.16 0
 -15 1 12 0.4 1.31 0
 -15 3 3 4.56 1.33 0
 -15 3 4 36.87 2.3 0
 -15 3 5 5.62 1.48 0
 -15 3 6 1.03 1.26 0
 -15 3 7 2.49 1.41 0
 -15 3 8 16.16 1.76 0
 -15 3 9 0.26 1.34 0
 -14 -10 -4 -0.27 1.37 0
 -14 -10 -3 1.49 1.57 0
 -14 -10 -1 -0.25 1.5 0
 -14 -10 0 8.84 1.73 0
 -14 -10 1 13.87 2.14 0
 -14 -10 2 1.4 1.56 0
 -14 -10 3 10.46 1.97 0
 -14 -10 6 3.69 1.91 0
 -14 -10 7 2.86 1.96 0
 -14 -10 8 2.23 1.84 0
 -14 -8 -5 3.94 1.31 0
 -14 -8 -2 0.88 1.37 0
 -14 -8 -1 1.25 1.27 0
 -14 -8 1 9.83 1.9 0
 -14 -8 4 6 1.91 0
 -14 -8 5 29.76 2.56 0
 -14 -8 7 34.03 2.69 0
 -14 -8 10 2.57 1.64 0
 -14 -8 11 2.57 1.69 0
 -14 -6 -7 1.87 1.13 0
 -14 -6 -5 1.9 1.16 0
 -14 -6 -4 26.42 1.97 0
 -14 -6 -3 19.13 1.89 0
 -14 -6 -2 14.81 1.83 0
 -14 -6 -1 1.24 1.19 0
 -14 -6 0 22.18 2.11 0
 -14 -6 1 10.99 1.79 0
 -14 -6 2 9.34 1.59 0
 -14 -6 3 12.09 1.66 0
 -14 -6 4 41.23 2.53 0
 -14 -6 5 29.92 2.33 0
 -14 -6 6 5.39 1.77 0
 -14 -6 7 1.97 1.66 0
 -14 -6 8 8.74 1.87 0
 -14 -6 9 27.6 2.47 0
 -14 -6 10 41.76 2.73 0
 -14 -6 11 7.97 1.86 0
 -14 -6 12 12.67 1.9 0
 -14 -6 13 0.22 1.68 0
 -14 -4 -8 -0.62 1.05 0
 -14 -4 -7 66.37 2.43 0
 -14 -4 -6 30 1.96 0
 -14 -4 -5 35.7 2.02 0
 -14 -4 -4 0.92 1.13 0
 -14 -4 -3 23.52 1.86 0
 -14 -4 -2 8.13 1.38 0
 -14 -4 0 2.29 1.33 0
 -14 -4 1 2.47 1.14 0
 -14 -4 2 9.56 1.62 0
 -14 -4 3 11.67 1.71 0
 -14 -4 4 0.28 1.22 0
 -14 -4 5 9.4 1.52 0
 -14 -4 6 8.77 1.54 0
 -14 -4 7 8.06 1.56 0
 -14 -4 9 9.96 1.82 0
 -14 -4 11 74.25 3.07 0
 -14 -4 12 82.46 3.15 0
 -14 -4 13 4.12 1.56 0
 -14 -4 14 3.27 1.42 0
 -14 -2 -7 37.92 1.99 0
 -14 -2 -5 117.15 3.1 0
 -14 -2 -4 4.15 1.16 0
 -14 -2 -3 8.48 1.4 0
 -14 -2 -2 0.48 1.02 0
 -14 -2 -1 137.83 3.41 0
 -14 -2 0 0.4 1.11 0
 -14 -2 1 0.39 0.98 0
 -14 -2 2 11.8 1.57 0
 -14 -2 3 79.17 2.81 0
 -14 -2 5 26.98 2.03 0
 -14 -2 6 -0.17 1.02 0
 -14 -2 7 5.15 1.3 0
 -14 -2 8 24.88 2.1 0
 -14 -2 9 23.76 2.02 0
 -14 -2 10 22.31 2.03 0
 -14 -2 11 8.55 1.69 0
 -14 -2 12 3.1 1.31 0
 -14 -2 13 1.46 1.35 0
 -14 0 -4 77.54 2.71 0
 -14 0 -2 5.08 1.16 0
 -14 0 2 19.41 1.68 0
 -14 0 6 8.77 1.54 0
 -14 0 10 2.4 1.37 0
 -14 0 12 58.42 2.52 0
 -14 2 -2 0.43 1.03 0
 -14 2 -1 136.25 3.44 0
 -14 2 0 0.3 1.02 0
 -14 2 1 1.04 1.08 0
 -14 2 2 14.71 1.81 0
 -14 2 3 79.03 2.77 0
 -14 2 5 25.92 1.93 0
 -14 2 6 0.35 1.23 0
 -14 2 7 4.82 1.44 0
 -14 2 8 26.15 2.03 0
 -14 2 9 26.17 1.95 0
 -14 2 10 20.06 1.84 0
 -14 2 11 8.44 1.46 0
 -14 2 12 1.29 1.14 0
 -13 -11 -4 4.49 1.45 0
 -13 -11 -2 -0.15 1.45 0
 -13 -11 -1 6.87 1.7 0
 -13 -11 0 0.09 1.57 0
 -13 -11 3 2.57 1.83 0
 -13 -11 4 2.57 1.61 0
 -13 -11 5 3.99 2.02 0
 -13 -11 6 30.44 2.76 0
 -13 -11 7 3.89 1.96 0
 -13 -9 -5 74.65 2.74 0
 -13 -9 -4 8.92 1.62 0
 -13 -9 -3 26.06 2.07 0
 -13 -9 -2 11.81 1.62 0
 -13 -9 -1 3.93 1.52 0
 -13 -9 0 7.64 1.55 0
 -13 -9 1 61.17 2.82 0
 -13 -9 2 4.75 1.49 0
 -13 -9 4 10.09 1.86 0
 -13 -9 5 -0.75 1.37 0
 -13 -9 7 14.87 2.24 0
 -13 -9 8 3.3 1.67 0
 -13 -9 9 3.93 1.82 0
 -13 -9 10 3.47 1.64 0
 -13 -9 11 -1.55 1.43 0
 -13 -7 -6 0.9 1.1 0
 -13 -7 -5 34.26 2 0
 -13 -7 -4 3.35 1.22 0
 -13 -7 -3 47.36 2.37 0
 -13 -7 -2 1.58 1.27 0
 -13 -7 -1 3.95 1.26 0
 -13 -7 0 4.43 1.27 0
 -13 -7 1 115.71 3.42 0
 -13 -7 3 144.33 3.82 0
 -13 -7 6 28.81 2.33 0
 -13 -7 8 1.45 1.5 0
 -13 -7 9 7.46 1.72 0
 -13 -7 10 13.42 1.84 0
 -13 -7 11 31.72 2.58 0
 -13 -7 12 14.51 2.02 0
 -13 -7 14 2.21 1.73 0
 -13 -5 -7 12.07 1.48 0
 -13 -5 -6 9.95 1.39 0
 -13 -5 -5 53.48 2.2 0
 -13 -5 -4 51.68 2.27 0
 -13 -5 -3 63.23 2.46 0
 -13 -5 -2 38.47 2.06 0
 -13 -5 -1 7.01 1.25 0
 -13 -5 0 24.01 1.88 0
 -13 -5 1 53.63 2.4 0
 -13 -5 2 27.1 2 0
 -13 -5 3 6.4 1.27 0
 -13 -5 4 -0.39 0.97 0
 -13 -5 5 0.92 1.35 0
 -13 -5 6 7.4 1.44 0
 -13 -5 7 1.29 1.25 0
 -13 -5 8 15.67 1.95 0
 -13 -5 9 -0.42 1.17 0
 -13 -5 10 4.05 1.52 0
 -13 -5 11 10.6 1.79 0
 -13 -5 14 9.41 1.78 0
 -13 -3 -8 58.36 2.15 0
 -13 -3 -7 24.95 1.7 0
 -13 -3 -6 20.75 1.65 0
 -13 -3 -5 0.43 0.96 0
 -13 -3 -4 242.59 4.35 0
 -13 -3 -3 15.96 1.59 0
 -13 -3 -2 8.06 1.25 0
 -13 -3 -1 -0.14 0.86 0
 -13 -3 0 129.77 3.25 0
 -13 -3 1 0.45 0.93 0
 -13 -3 3 2.11 1.21 0
 -13 -3 5 29.79 1.97 0
 -13 -3 6 1.48 1.08 0
 -13 -3 8 3.33 1.19 0
 -13 -3 9 13.19 1.75 0
 -13 -3 10 12.48 1.77 0
 -13 -3 12 15.95 1.96 0
 -13 -3 13 -0.72 1.32 0
 -13 -3 14 0.92 1.28 0
 -13 -1 -6 65.85 2.32 0
 -13 -1 -5 19.49 1.63 0
 -13 -1 -4 49.11 2.13 0
 -13 -1 -3 -0.11 0.79 0
 -13 -1 -2 19.98 1.6 0
 -13 -1 -1 14.16 1.46 0
 -13 -1 0 12.85 1.42 0
 -13 -1 1 1.72 1.09 0
 -13 -1 2 204.03 3.89 0
 -13 -1 4 71.18 2.54 0
 -13 -1 5 7.61 1.38 0
 -13 -1 7 5.11 1.25 0
 -13 -1 8 45.44 2.22 0
 -13 -1 9 0.93 1.04 0
 -13 -1 10 5.22 1.24 0
 -13 -1 11 7.46 1.36 0
 -13 -1 13 0.07 1.19 0
 -13 1 -4 49.05 2.12 0
 -13 1 -3 -0.49 0.8 0
 -13 1 -2 17.7 1.57 0
 -13 1 -1 13.68 1.49 0
 -13 1 1 1.52 0.88 0
 -13 1 3 1.29 0.99 0
 -13 1 4 68.96 2.45 0
 -13 1 6 39.97 2 0
 -13 1 7 4.04 1.17 0
 -13 1 8 47.72 2.15 0
 -13 1 9 2.48 1.16 0
 -13 1 10 4.47 1.26 0
 -13 1 11 6.37 1.32 0
 -13 1 12 2.96 1.24 0
 -13 3 0 131.92 3.23 0
 -13 3 2 47.03 2.12 0
 -13 3 3 1.8 1.09 0
 -13 3 4 0.91 1.05 0
 -13 3 5 30.32 1.86 0
 -13 3 7 51.96 2.23 0
 -13 3 8 3.24 1.06 0
 -13 3 9 12.33 1.43 0
 -13 3 10 14.4 1.64 0
 -13 3 11 69.08 2.43 0
 -12 -12 -3 1.1 1.45 0
 -12 -12 0 0.34 1.43 0
 -12 -12 2 64.74 3.13 0
 -12 -12 3 4.49 1.97 0
 -12 -12 4 8.8 1.94 0
 -12 -12 5 11.84 2.21 0
 -12 -12 6 23.15 2.59 0
 -12 -12 7 15.04 2.38 0
 -12 -10 -5 126.96 3.31 0
 -12 -10 -4 0.74 1.3 0
 -12 -10 -3 -0.55 1.32 0
 -12 -10 -2 20.95 2.07 0
 -12 -10 -1 29.53 2.2 0
 -12 -10 0 6.62 1.56 0
 -12 -10 2 20 2.23 0
 -12 -10 3 6.12 1.56 0
 -12 -10 5 13 1.86 0
 -12 -10 6 3.58 1.68 0
 -12 -10 7 10 1.86 0
 -12 -10 8 1.37 1.5 0
 -12 -10 9 2.51 1.86 0
 -12 -10 10 1.53 1.82 0
 -12 -10 11 0.01 1.77 0
 -12 -8 -6 19.35 1.69 0
 -12 -8 -5 23.58 1.8 0
 -12 -8 -4 0.55 1.08 0
 -12 -8 -3 36.47 2.15 0
 -12 -8 -2 6.19 1.45 0
 -12 -8 -1 5.48 1.29 0
 -12 -8 1 58.53 2.6 0
 -12 -8 2 21.1 1.97 0
 -12 -8 3 32.37 2.23 0
 -12 -8 5 24.45 2.18 0
 -12 -8 6 23.9 2.21 0
 -12 -8 8 25.29 2.29 0
 -12 -8 9 22.08 2.27 0
 -12 -8 10 0.42 1.66 0
 -12 -8 11 15.04 2.13 0
 -12 -8 12 11.99 1.96 0
 -12 -8 13 1.01 1.64 0
 -12 -8 14 1.47 1.52 0
 -12 -6 -7 27.16 1.68 0
 -12 -6 -6 0.33 1.04 0
 -12 -6 -4 2.14 1.05 0
 -12 -6 -3 5.79 1.27 0
 -12 -6 -2 -0.79 0.89 0
 -12 -6 -1 7.92 1.38 0
 -12 -6 0 -0.48 1.11 0
 -12 -6 1 6.44 1.29 0
 -12 -6 2 19.1 1.74 0
 -12 -6 3 22.55 1.81 0
 -12 -6 4 6.36 1.47 0
 -12 -6 5 2.99 1.13 0
 -12 -6 6 21.41 1.92 0
 -12 -6 9 4.84 1.63 0
 -12 -6 10 5.29 1.6 0
 -12 -6 11 20.78 2.11 0
 -12 -6 13 0.52 1.48 0
 -12 -6 14 13.01 1.88 0
 -12 -6 15 1.95 1.55 0
 -12 -4 -8 -1.27 0.86 0
 -12 -4 -7 68.38 2.15 0
 -12 -4 -6 31.22 1.71 0
 -12 -4 -5 44.11 1.96 0
 -12 -4 -4 15.48 1.42 0
 -12 -4 -3 56.86 2.17 0
 -12 -4 -2 6.96 1.2 0
 -12 -4 -1 60.09 2.25 0
 -12 -4 1 85.32 2.65 0
 -12 -4 2 40.88 2.02 0
 -12 -4 3 81.45 2.63 0
 -12 -4 4 4.64 1.25 0
 -12 -4 5 52.18 2.26 0
 -12 -4 6 59.94 2.43 0
 -12 -4 8 1.25 1.12 0
 -12 -4 9 5.84 1.48 0
 -12 -4 10 0.35 1.19 0
 -12 -4 11 3.64 1.48 0
 -12 -4 12 25.94 2.08 0
 -12 -4 13 10.92 1.69 0
 -12 -4 14 1.01 1.36 0
 -12 -2 -8 10.91 1.31 0
 -12 -2 -7 9.22 1.18 0
 -12 -2 -6 139.42 2.97 0
 -12 -2 -4 34.95 1.73 0
 -12 -2 -3 17.44 1.4 0
 -12 -2 -2 2.92 1.03 0
 -12 -2 -1 65.04 2.22 0
 -12 -2 0 0.72 0.79 0
 -12 -2 1 18.69 1.47 0
 -12 -2 2 -0.53 0.89 0
 -12 -2 3 137.2 3.15 0
 -12 -2 4 5.87 1.24 0
 -12 -2 6 5.65 1.24 0
 -12 -2 7 105.57 2.92 0
 -12 -2 8 0.27 0.96 0
 -12 -2 9 9.79 1.49 0
 -12 -2 10 -0.72 1.07 0
 -12 -2 11 14.1 1.63 0
 -12 -2 12 14.42 1.73 0
 -12 -2 13 8.99 1.43 0
 -12 -2 14 9.57 1.51 0
 -12 0 -6 116.71 2.76 0
 -12 0 -4 58.54 2.08 0
 -12 0 -2 16.75 1.42 0
 -12 0 0 21 1.49 0
 -12 0 2 76.55 2.36 0
 -12 0 4 2.59 1.05 0
 -12 0 8 21.34 1.64 0
 -12 0 10 31.45 1.8 0
 -12 0 12 4.84 1.22 0
 -12 2 -2 3.19 1.03 0
 -12 2 0 1.52 0.92 0
 -12 2 1 19.76 1.48 0
 -12 2 2 0.89 0.96 0
 -12 2 3 137.12 3.05 0
 -12 2 4 5.11 1.14 0
 -12 2 5 1.62 0.86 0
 -12 2 6 7.46 1.1 0
 -12 2 9 9.63 1.31 0
 -12 2 10 0.12 1.02 0
 -12 2 12 11.96 1.4 0
 -12 4 5 50.48 2.09 0
 -12 4 6 56.27 2.18 0
 -12 4 7 66.89 2.3 0
 -11 -13 -3 6.69 1.58 0
 -11 -13 -2 2.66 1.5 0
 -11 -13 -1 0.85 1.36 0
 -11 -13 0 1.85 1.55 0
 -11 -13 1 32.68 2.62 0
 -11 -13 2 0.07 1.68 0
 -11 -13 3 30.34 2.68 0
 -11 -13 4 28.15 2.62 0
 -11 -13 5 -1.77 1.65 0
 -11 -11 -4 21.23 1.91 0
 -11 -11 -3 4.92 1.52 0
 -11 -11 -2 41.55 2.41 0
 -11 -11 0 0.93 1.3 0
 -11 -11 1 34.57 2.4 0
 -11 -11 3 4 1.79 0
 -11 -11 4 -0.27 1.43 0
 -11 -11 5 -0.92 1.64 0
 -11 -11 6 -0.87 1.52 0
 -11 -11 7 2.2 1.78 0
 -11 -11 9 2.33 1.77 0
 -11 -9 -5 13.6 1.61 0
 -11 -9 -4 2.78 1.22 0
 -11 -9 -3 24.39 1.81 0
 -11 -9 -2 5.48 1.4 0
 -11 -9 -1 42.86 2.2 0
 -11 -9 0 -0.48 1.29 0
 -11 -9 1 -0.04 1.06 0
 -11 -9 2 0.69 1.3 0
 -11 -9 3 2.81 1.39 0
 -11 -9 4 3.53 1.29 0
 -11 -9 5 11.86 1.79 0
 -11 -9 6 0.26 1.54 0
 -11 -9 7 6.62 1.79 0
 -11 -9 8 6.5 1.57 0
 -11 -9 9 14.62 2.12 0
 -11 -9 10 3.35 1.64 0
 -11 -9 11 33.95 2.54 0
 -11 -9 12 -0.81 1.61 0
 -11 -9 13 6.18 1.76 0
 -11 -9 14 0.54 1.55 0
 -11 -7 -7 43.29 1.82 0
 -11 -7 -6 -0.82 0.88 0
 -11 -7 -5 70.76 2.33 0
 -11 -7 -4 0.19 0.96 0
 -11 -7 -2 4.59 1.15 0
 -11 -7 -1 69.65 2.48 0
 -11 -7 0 1.4 0.96 0
 -11 -7 1 5.17 1.17 0
 -11 -7 2 18.06 1.65 0
 -11 -7 3 0.73 1.02 0
 -11 -7 6 2.73 1.3 0
 -11 -7 7 0.07 1.32 0
 -11 -7 9 31.34 2.23 0
 -11 -7 11 3.06 1.52 0
 -11 -7 13 3.84 1.59 0
 -11 -7 14 14.48 1.94 0
 -11 -7 15 7.83 1.76 0
 -11 -5 -8 10.21 1.19 0
 -11 -5 -7 25.96 1.46 0
 -11 -5 -6 0.32 0.86 0
 -11 -5 -4 50.38 1.94 0
 -11 -5 -2 39.83 1.84 0
 -11 -5 -1 20.05 1.5 0
 -11 -5 0 49.17 2.02 0
 -11 -5 1 115.51 2.87 0
 -11 -5 2 135.73 3.11 0
 -11 -5 3 3.86 0.95 0
 -11 -5 5 4.33 1.2 0
 -11 -5 6 5.77 1.27 0
 -11 -5 7 0.82 1.16 0
 -11 -5 8 3.19 1.17 0
 -11 -5 9 1.34 1.2 0
 -11 -5 10 35.53 2.1 0
 -11 -5 11 55.76 2.49 0
 -11 -5 12 45.79 2.41 0
 -11 -5 13 15.54 1.85 0
 -11 -5 14 1.96 1.35 0
 -11 -5 15 21.73 2.05 0
 -11 -3 -8 35.48 1.56 0
 -11 -3 -7 25.62 1.41 0
 -11 -3 -6 0.74 0.81 0
 -11 -3 -5 2.72 0.89 0
 -11 -3 -4 120.73 2.66 0
 -11 -3 -2 6.59 0.96 0
 -11 -3 -1 39 1.73 0
 -11 -3 0 230 3.89 0
 -11 -3 1 62.06 2.1 0
 -11 -3 2 98.23 2.58 0
 -11 -3 3 78.93 2.35 0
 -11 -3 4 29.59 1.68 0
 -11 -3 5 7.14 1.04 0
 -11 -3 6 4.5 1.09 0
 -11 -3 7 1.63 0.98 0
 -11 -3 9 47.04 2.1 0
 -11 -3 12 133.57 3.24 0
 -11 -3 13 1.51 1.17 0
 -11 -3 14 1.5 1.22 0
 -11 -1 -7 2.6 0.85 0
 -11 -1 -6 118.75 2.61 0
 -11 -1 -5 10.32 1.17 0
 -11 -1 3 47.51 1.84 0
 -11 -1 5 36.03 1.75 0
 -11 -1 6 54.31 2.02 0
 -11 -1 7 6.09 1.16 0
 -11 -1 10 80.79 2.46 0
 -11 -1 11 5.86 1.16 0
 -11 -1 12 3.83 1.17 0
 -11 -1 13 15.5 1.51 0
 -11 1 -5 12.52 1.28 0
 -11 1 -4 11.39 1.2 0
 -11 1 -3 0.51 0.82 0
 -11 1 6 55.55 1.99 0
 -11 1 7 5.4 0.98 0
 -11 1 8 39.04 1.76 0
 -11 1 9 47.56 1.89 0
 -11 1 10 78.67 2.3 0
 -11 1 11 5.7 1.03 0
 -11 1 12 4.65 1.04 0
 -11 3 -1 39.76 1.78 0
 -11 3 0 226.64 3.83 0
 -11 3 2 96.78 2.49 0
 -11 3 6 4.35 0.9 0
 -11 3 7 0.06 0.78 0
 -11 3 8 16.73 1.41 0
 -11 3 9 47.66 1.9 0
 -11 3 10 22.12 1.5 0
 -11 3 11 80.59 2.27 0
 -10 -14 -2 -1.81 1.29 0
 -10 -14 -1 25.7 2.35 0
 -10 -12 -3 17.53 1.94 0
 -10 -12 -2 0.06 1.41 0
 -10 -12 -1 0.4 1.44 0
 -10 -12 0 0.28 1.42 0
 -10 -12 1 16.41 2 0
 -10 -12 2 2.56 1.49 0
 -10 -12 3 10.69 1.93 0
 -10 -12 4 0.85 1.59 0
 -10 -12 5 12.1 2.11 0
 -10 -12 6 19.81 2.39 0
 -10 -12 7 5.21 2.03 0
 -10 -12 8 -1.08 1.48 0
 -10 -12 9 10.13 2.17 0
 -10 -12 10 49.39 3.1 0
 -10 -10 -5 105.62 2.8 0
 -10 -10 -4 6.84 1.28 0
 -10 -10 -3 -0.14 1.03 0
 -10 -10 -2 20.75 1.83 0
 -10 -10 -1 73.73 2.74 0
 -10 -10 0 2.53 1.19 0
 -10 -10 1 12.08 1.68 0
 -10 -10 3 5.55 1.6 0
 -10 -10 4 0.92 1.18 0
 -10 -10 7 20.18 2.17 0
 -10 -10 9 0.84 1.57 0
 -10 -10 11 12.24 2.04 0
 -10 -10 12 0.01 1.45 0
 -10 -10 13 2.85 1.79 0
 -10 -8 -5 15.62 1.45 0
 -10 -8 -4 2.77 0.96 0
 -10 -8 -3 23.15 1.6 0
 -10 -8 0 -0.74 1.02 0
 -10 -8 1 1.84 1.01 0
 -10 -8 2 11.34 1.5 0
 -10 -8 3 103.49 2.99 0
 -10 -8 4 2.47 1.07 0
 -10 -8 5 1.62 1.3 0
 -10 -8 6 48.74 2.39 0
 -10 -8 8 6.78 1.44 0
 -10 -8 9 1.53 1.5 0
 -10 -8 12 29.41 2.34 0
 -10 -8 14 1.01 1.43 0
 -10 -6 -7 36.44 1.58 0
 -10 -6 -6 15.89 1.3 0
 -10 -6 -5 0.56 0.8 0
 -10 -6 -4 7.2 1.06 0
 -10 -6 -3 1.17 0.84 0
 -10 -6 -2 102.24 2.55 0
 -10 -6 1 8.5 1.14 0
 -10 -6 3 231.41 4.13 0
 -10 -6 4 91.7 2.67 0
 -10 -6 6 12.81 1.52 0
 -10 -6 7 119.72 3.1 0
 -10 -6 8 9.52 1.35 0
 -10 -6 9 22.03 1.8 0
 -10 -6 10 22.18 1.86 0
 -10 -6 12 1.21 1.24 0
 -10 -6 13 11.39 1.55 0
 -10 -6 14 0.8 1.25 0
 -10 -6 15 31.22 2.15 0
 -10 -4 4 46.51 1.86 0
 -10 -4 5 48.85 1.95 0
 -10 -4 6 5.63 1.06 0
 -10 -4 7 16.54 1.42 0
 -10 -4 8 9.61 1.21 0
 -10 -4 10 33.08 1.87 0
 -10 -4 11 73.03 2.51 0
 -10 -4 13 21.94 1.79 0
 -10 -2 7 23.31 1.47 0
 -10 -2 8 12.98 1.34 0
 -10 -2 9 46.19 1.93 0
 -10 -2 10 1.63 0.87 0
 -10 -2 12 6.54 1.13 0
 -10 -2 13 4.84 1.13 0
 -10 0 12 34.11 1.63 0
 -9 -13 -3 16.22 1.93 0
 -9 -13 -2 -0.55 1.38 0
 -9 -13 0 0.38 1.33 0
 -9 -13 1 2.53 1.71 0
 -9 -13 2 -1.19 1.59 0
 -9 -13 3 -0.76 1.52 0
 -9 -13 4 11.29 1.97 0
 -9 -13 5 8.94 1.8 0
 -9 -13 6 3.32 1.66 0
 -9 -13 7 11.38 2.02 0
 -9 -13 8 10.8 2.29 0
 -9 -11 -3 22.98 1.86 0
 -9 -11 -2 5.63 1.33 0
 -9 -11 -1 51.68 2.45 0
 -9 -11 1 4.29 1.34 0
 -9 -11 2 18.8 1.97 0
 -9 -11 4 11.47 1.87 0
 -9 -11 5 6.11 1.53 0
 -9 -11 6 9.24 1.71 0
 -9 -11 7 26.28 2.37 0
 -9 -11 8 5.64 1.66 0
 -9 -11 9 26.73 2.44 0
 -9 -11 10 4.99 1.85 0
 -9 -11 12 -1.25 1.41 0
 -9 -11 13 0.83 1.82 0
 -9 -9 -6 27.72 1.6 0
 -9 -9 -5 76.89 2.25 0
 -9 -9 -4 1.93 1.03 0
 -9 -9 -2 3.2 1.16 0
 -9 -9 -1 15.24 1.51 0
 -9 -9 0 0.02 1.09 0
 -9 -9 1 64.01 2.43 0
 -9 -9 2 2.82 1.2 0
 -9 -9 3 1.65 1.1 0
 -9 -9 4 -0.41 0.98 0
 -9 -9 6 2.83 1.23 0
 -9 -9 8 13.04 1.81 0
 -9 -9 9 145.4 3.83 0
 -9 -9 10 0.85 1.47 0
 -9 -9 12 6.53 1.56 0
 -9 -9 13 3.41 1.57 0
 -9 -9 14 1.39 1.57 0
 -9 -9 15 52.83 2.79 0
 -9 -7 -4 8.88 1.07 0
 -9 -7 -2 24.01 1.48 0
 -9 -7 -1 80.9 2.31 0
 -9 -7 0 6.31 1.03 0
 -9 -7 1 55.46 2.05 0
 -9 -7 2 1.08 0.93 0
 -9 -7 3 88.41 2.55 0
 -9 -7 4 -0.08 0.73 0
 -9 -7 5 120.48 3.02 0
 -9 -7 6 12.21 1.49 0
 -9 -7 8 31.65 1.95 0
 -9 -7 9 143.89 3.49 0
 -9 -7 10 5.29 1.23 0
 -9 -7 14 12.18 1.67 0
 -9 -7 15 62.5 2.63 0
 -9 -5 -7 0.97 0.65 0
 -9 -5 5 7.84 1.02 0
 -9 -5 7 9.23 1.15 0
 -9 -5 8 3.42 1 0
 -9 -5 9 2.09 0.91 0
 -9 -5 10 -0.39 0.87 0
 -9 -5 11 8.45 1.38 0
 -9 -5 14 -0.11 1.15 0
 -9 -3 -9 25.23 1.13 0
 -9 -3 -8 4.54 0.74 0
 -9 -3 -6 21.1 1.13 0
 -9 -3 -4 37.97 1.44 0
 -9 -3 -1 17.77 1.15 0
 -9 -3 0 0.02 0.57 0
 -9 -3 1 0.57 0.69 0
 -9 -3 3 87.65 2.16 0
 -9 -3 10 4.42 1 0
 -9 -3 11 8.32 1.22 0
 -9 -3 12 41.15 1.85 0
 -9 -3 14 4.13 1.11 0
 -9 -1 -7 49.37 1.54 0
 -9 -1 -5 0.06 0.52 0
 -9 -1 -4 78.88 1.9 0
 -9 -1 -3 38.37 1.42 0
 -9 -1 -2 33.32 1.33 0
 -9 -1 -1 0.56 0.64 0
 -9 -1 1 12.31 0.98 0
 -9 -1 2 183.42 2.95 0
 -9 -1 5 8.36 0.98 0
 -9 -1 6 337.41 4.11 0
 -9 -1 12 16.54 1.32 0
 -9 -1 13 21.83 1.45 0
 -9 1 -5 -0.15 0.64 0
 -9 1 -4 77.28 1.93 0
 -9 1 -3 39.34 1.48 0
 -9 1 -1 0.72 0.51 0
 -9 1 0 73.62 1.87 0
 -9 1 1 12.93 0.98 0
 -9 1 2 178.4 2.87 0
 -9 1 3 8.35 0.93 0
 -9 1 4 151.99 2.76 0
 -9 1 6 330.82 3.93 0
 -9 1 7 11.17 1.07 0
 -9 1 8 89.31 2.12 0
 -9 1 9 24.51 1.32 0
 -9 3 0 0.5 0.67 0
 -9 3 1 0.1 0.59 0
 -9 3 2 37.4 1.47 0
 -9 3 3 87.89 2.09 0
 -9 3 4 0.59 0.64 0
 -9 3 5 2.77 0.7 0
 -9 3 6 33.36 1.42 0
 -9 3 7 97.73 2.18 0
 -9 3 8 8.34 0.95 0
 -9 3 9 11.28 1.07 0
 -9 3 10 3.52 0.77 0
 -9 3 11 6.39 0.87 0
 -8 -14 -2 2.53 1.45 0
 -8 -14 -1 -0.24 1.41 0
 -8 -14 0 0.65 1.57 0
 -8 -14 3 51.96 2.95 0
 -8 -14 5 1.72 1.64 0
 -8 -14 6 1.08 1.61 0
 -8 -12 -4 30.44 1.98 0
 -8 -12 -3 7.95 1.4 0
 -8 -12 -2 19.91 1.86 0
 -8 -12 1 60.03 2.69 0
 -8 -12 2 56.97 2.73 0
 -8 -12 3 56.65 2.78 0
 -8 -12 4 0.71 1.54 0
 -8 -12 5 -0.05 1.36 0
 -8 -12 6 25.62 2.33 0
 -8 -12 8 4.3 1.58 0
 -8 -12 10 -0.69 1.54 0
 -8 -12 11 10.03 1.91 0
 -8 -10 -6 3.93 1 0
 -8 -10 -3 1.77 1.09 0
 -8 -10 -2 49.59 2.13 0
 -8 -10 -1 -0.37 1.01 0
 -8 -10 0 7.54 1.25 0
 -8 -10 1 28.8 1.92 0
 -8 -10 3 22.16 1.84 0
 -8 -10 5 1.77 1.15 0
 -8 -10 6 53.69 2.57 0
 -8 -10 7 1.33 1.31 0
 -8 -10 8 0.66 1.26 0
 -8 -10 9 5.09 1.66 0
 -8 -10 10 8.78 1.82 0
 -8 -10 11 48.98 2.76 0
 -8 -10 12 1.39 1.62 0
 -8 -10 14 5.11 1.63 0
 -8 -10 15 7.02 1.85 0
 -8 -8 -4 1.73 0.84 0
 -8 -8 -3 11.57 1.21 0
 -8 -8 -2 20.45 1.41 0
 -8 -8 -1 1.88 0.83 0
 -8 -8 0 13.2 1.32 0
 -8 -8 1 6.09 1.04 0
 -8 -8 2 0.56 0.78 0
 -8 -8 3 55.37 2.15 0
 -8 -8 4 0.46 1 0
 -8 -8 5 100.05 2.8 0
 -8 -8 7 21.83 1.76 0
 -8 -8 8 -0.11 1 0
 -8 -8 10 16.38 1.79 0
 -8 -8 11 -0.19 1.34 0
 -8 -8 12 7.67 1.53 0
 -8 -8 13 5.27 1.4 0
 -8 -8 14 2.48 1.39 0
 -8 -8 15 22.65 2.12 0
 -8 -6 -8 9.51 0.87 0
 -8 -6 -6 28.17 1.24 0
 -8 -6 -5 14.51 1.09 0
 -8 -6 -4 32.05 1.36 0
 -8 -6 5 2.41 0.77 0
 -8 -6 10 3.74 1.01 0
 -8 -6 11 31.62 1.89 0
 -8 -6 12 7.7 1.31 0
 -8 -6 13 13.48 1.6 0
 -8 -6 14 6.85 1.41 0
 -8 -4 -9 2.94 0.6 0
 -8 -4 -8 2.16 0.59 0
 -8 -4 -7 19.28 1.01 0
 -8 -4 -4 130.34 2.42 0
 -8 -4 -3 266.5 3.34 0
 -8 -4 -2 354.62 3.83 0
 -8 -4 -1 11.29 0.96 0
 -8 -4 0 190.57 2.98 0
 -8 -4 1 642.54 5.26 0
 -8 -4 2 1115.8 6.97 0
 -8 -4 3 242.82 3.45 0
 -8 -4 4 9.63 1.01 0
 -8 -4 10 15.22 1.31 0
 -8 -4 11 1.98 0.84 0
 -8 -4 12 0.38 0.85 0
 -8 -4 13 -0.44 0.9 0
 -8 -4 14 3.7 1.06 0
 -8 -2 -8 2.99 0.6 0
 -8 -2 -7 91.2 1.91 0
 -8 -2 -6 5.23 0.68 0
 -8 -2 -4 2.17 0.64 0
 -8 -2 -3 0.7 0.49 0
 -8 -2 -1 3 0.63 0
 -8 -2 1 50.66 1.51 0
 -8 -2 4 99.09 2.1 0
 -8 -2 5 0.64 0.53 0
 -8 -2 7 22.56 1.27 0
 -8 -2 8 61.67 1.82 0
 -8 -2 13 28.25 1.52 0
 -8 -2 14 3.26 0.94 0
 -8 0 -6 149.57 2.41 0
 -8 0 -4 68.25 1.66 0
 -8 0 -2 426.91 3.93 0
 -8 0 2 200.6 2.84 0
 -8 0 4 352.64 3.75 0
 -8 0 6 303.63 3.57 0
 -8 0 8 134.96 2.48 0
 -8 0 10 242.15 3.32 0
 -8 0 12 3.76 0.79 0
 -8 2 -3 1.01 0.53 0
 -8 2 -2 23.48 1.13 0
 -8 2 -1 2.53 0.59 0
 -8 2 1 50.68 1.49 0
 -8 2 2 197.45 2.82 0
 -8 2 3 51.77 1.49 0
 -8 2 4 104.86 2.1 0
 -8 2 5 0.92 0.51 0
 -8 2 6 3.85 0.64 0
 -8 2 7 21.72 1.12 0
 -8 2 8 63.38 1.67 0
 -8 2 9 38.63 1.37 0
 -8 2 12 2.8 0.65 0
 -8 4 4 9.17 0.91 0
 -8 4 5 113.86 2.21 0
 -7 -15 -1 9.05 1.81 0
 -7 -15 0 5.56 1.63 0
 -7 -15 2 -1.12 1.48 0
 -7 -15 3 37.09 2.76 0
 -7 -15 4 12.47 2.12 0
 -7 -13 -4 41.5 2.19 0
 -7 -13 -3 24.12 1.96 0
 -7 -13 -2 8.56 1.53 0
 -7 -13 -1 2.31 1.29 0
 -7 -13 0 42.91 2.43 0
 -7 -13 1 17.69 1.88 0
 -7 -13 2 1.84 1.34 0
 -7 -13 4 12.14 1.78 0
 -7 -13 6 6.41 1.61 0
 -7 -13 7 -0.89 1.58 0
 -7 -13 8 0.1 1.42 0
 -7 -13 9 3.62 1.82 0
 -7 -13 10 4.58 1.86 0
 -7 -13 11 -1.4 1.55 0
 -7 -11 -5 132.69 2.91 0
 -7 -11 -4 139.7 3.05 0
 -7 -11 -3 43.93 2.03 0
 -7 -11 -2 4.16 1.2 0
 -7 -11 -1 109.97 2.95 0
 -7 -11 0 172.07 3.69 0
 -7 -11 1 90.53 2.88 0
 -7 -11 2 18.06 1.77 0
 -7 -11 4 85.33 2.96 0
 -7 -11 5 33.48 2.22 0
 -7 -11 6 14.12 1.87 0
 -7 -11 7 97.65 3.32 0
 -7 -11 8 15.27 1.98 0
 -7 -11 9 69.86 3.03 0
 -7 -11 12 6.17 1.95 0
 -7 -9 -5 141.04 2.79 0
 -7 -9 -4 11.89 1.24 0
 -7 -9 -3 5.76 1.04 0
 -7 -9 -2 7.42 1.11 0
 -7 -9 -1 132.96 2.88 0
 -7 -9 1 12.5 1.39 0
 -7 -9 2 5.98 1.06 0
 -7 -9 3 44.95 2.01 0
 -7 -9 4 -0.06 0.89 0
 -7 -9 5 23.75 1.77 0
 -7 -9 6 11.32 1.44 0
 -7 -9 8 21.12 1.85 0
 -7 -9 10 0.11 1.1 0
 -7 -9 11 5.12 1.55 0
 -7 -9 12 18 2.06 0
 -7 -9 13 76.75 2.99 0
 -7 -9 14 13.38 1.83 0
 -7 -9 15 49.93 2.6 0
 -7 -7 -7 244.46 3 0
 -7 -7 4 4.2 0.84 0
 -7 -7 5 11.4 1.21 0
 -7 -7 6 -0.11 0.71 0
 -7 -7 7 44.47 1.94 0
 -7 -7 8 -0.41 0.74 0
 -7 -7 9 2.4 0.96 0
 -7 -7 10 0.14 0.98 0
 -7 -7 11 125.4 3.15 0
 -7 -7 12 0.92 1.15 0
 -7 -7 13 1.29 1.17 0
 -7 -7 14 0.14 1.09 0
 -7 -7 15 140.91 3.42 0
 -7 -5 -8 0.05 0.46 0
 -7 -5 -7 1.55 0.55 0
 -7 -5 -6 -0.24 0.52 0
 -7 -5 -5 106.92 2.08 0
 -7 -5 -4 119.81 2.25 0
 -7 -5 -2 177.89 2.69 0
 -7 -5 -1 31.16 1.29 0
 -7 -5 0 27.73 1.25 0
 -7 -5 1 121.03 2.36 0
 -7 -5 2 234.36 3.25 0
 -7 -5 3 1.11 0.64 0
 -7 -5 4 42.61 1.56 0
 -7 -5 5 4.51 0.85 0
 -7 -5 9 2.08 0.77 0
 -7 -5 10 8.89 1.13 0
 -7 -5 11 -0.18 0.75 0
 -7 -5 13 0.73 0.95 0
 -7 -5 14 18.62 1.6 0
 -7 -5 15 0.75 1 0
 -7 -3 -8 0.93 0.47 0
 -7 -3 -7 18.37 0.88 0
 -7 -3 -5 329.33 3.21 0
 -7 -3 -4 222.63 2.72 0
 -7 -3 -3 477.7 3.92 0
 -7 -3 -2 35.95 1.21 0
 -7 -3 0 255.53 3.04 0
 -7 -3 1 704.67 4.94 0
 -7 -3 4 20.08 1.08 0
 -7 -3 5 106.39 2.17 0
 -7 -3 6 5.65 0.81 0
 -7 -3 7 14.18 1.06 0
 -7 -3 8 55.65 1.71 0
 -7 -3 9 11.46 1.05 0
 -7 -3 14 1.24 0.88 0
 -7 -1 -7 1.21 0.49 0
 -7 -1 -6 676.28 4.41 0
 -7 -1 -5 70.35 1.55 0
 -7 -1 -4 29.54 1.07 0
 -7 -1 -2 468.96 3.81 0
 -7 -1 -1 26.49 1.07 0
 -7 -1 4 66.8 1.58 0
 -7 -1 5 28.88 1.16 0
 -7 -1 7 -0.19 0.47 0
 -7 -1 8 142.17 2.4 0
 -7 -1 10 155.23 2.64 0
 -7 -1 11 0.18 0.6 0
 -7 -1 12 13.01 1.02 0
 -7 -1 13 0.65 0.64 0
 -7 1 -4 30.71 1.11 0
 -7 1 -3 58.77 1.46 0
 -7 1 -2 455.52 3.81 0
 -7 1 3 0.11 0.38 0
 -7 1 5 28.15 1.09 0
 -7 1 6 2.62 0.61 0
 -7 1 7 0.36 0.53 0
 -7 1 8 148.79 2.36 0
 -7 1 9 1.04 0.57 0
 -7 1 11 0.13 0.51 0
 -7 1 12 12.75 0.84 0
 -7 3 1 698.7 4.88 0
 -7 3 2 58.52 1.51 0
 -7 3 3 11.42 0.82 0
 -7 3 4 20.78 0.98 0
 -7 3 5 104.25 1.96 0
 -7 3 6 6.55 0.75 0
 -7 3 7 13.54 0.89 0
 -7 3 8 55.94 1.44 0
 -7 3 9 10.23 0.81 0
 -7 3 10 -0.12 0.44 0
 -6 -14 -3 2.74 1.29 0
 -6 -14 -2 -0.43 1.32 0
 -6 -14 -1 25.58 2.17 0
 -6 -14 0 38.56 2.41 0
 -6 -14 1 22.44 2.26 0
 -6 -14 2 0.28 1.4 0
 -6 -14 3 -1.14 1.5 0
 -6 -14 4 4 1.78 0
 -6 -14 5 29.46 2.51 0
 -6 -14 6 7.96 2.03 0
 -6 -14 7 15.91 2.13 0
 -6 -14 9 1.3 1.76 0
 -6 -12 -5 5.25 1.17 0
 -6 -12 -3 7.19 1.34 0
 -6 -12 -2 0.83 1.14 0
 -6 -12 -1 -0.21 1.16 0
 -6 -12 0 1.17 1.14 0
 -6 -12 3 33.06 2.14 0
 -6 -12 7 47.54 2.62 0
 -6 -12 8 1.01 1.37 0
 -6 -12 9 7.54 1.68 0
 -6 -12 11 0.46 1.78 0
 -6 -12 12 1.18 1.48 0
 -6 -12 13 1.5 1.54 0
 -6 -10 -6 3.15 0.86 0
 -6 -10 -5 22.76 1.4 0
 -6 -10 -4 -0.06 0.86 0
 -6 -10 -3 2.27 0.93 0
 -6 -10 -2 2.25 0.98 0
 -6 -10 -1 26.75 1.62 0
 -6 -10 0 1.14 0.85 0
 -6 -10 1 19.79 1.56 0
 -6 -10 8 4.01 1.29 0
 -6 -10 9 77.21 2.84 0
 -6 -10 10 44.58 2.43 0
 -6 -10 11 19.5 2.08 0
 -6 -10 12 0.22 1.47 0
 -6 -10 13 -0.26 1.5 0
 -6 -10 14 20 2.2 0
 -6 -10 15 34.19 2.35 0
 -6 -8 -6 3.82 0.74 0
 -6 -8 -5 61.73 1.7 0
 -6 -8 -4 50.38 1.64 0
 -6 -8 8 0.52 0.84 0
 -6 -8 9 154.13 3.38 0
 -6 -8 10 17.18 1.63 0
 -6 -8 11 101.08 2.98 0
 -6 -8 12 1.79 1.12 0
 -6 -8 13 24.25 1.99 0
 -6 -8 14 1.88 1.4 0
 -6 -8 15 77.38 2.79 0
 -6 -6 -8 17.99 0.83 0
 -6 -6 -7 220.35 2.56 0
 -6 -6 -6 43.75 1.26 0
 -6 -6 -4 6.68 0.74 0
 -6 -6 -3 272.75 3.18 0
 -6 -6 -2 147.41 2.51 0
 -6 -6 -1 33.87 1.29 0
 -6 -6 1 386.57 4.06 0
 -6 -6 2 0.13 0.56 0
 -6 -6 4 68.83 1.91 0
 -6 -6 10 4.91 1.07 0
 -6 -6 11 1.41 0.98 0
 -6 -6 12 10.95 1.35 0
 -6 -6 13 -0.16 0.89 0
 -6 -6 14 7.75 1.32 0
 -6 -6 15 0.78 1.08 0
 -6 -4 -9 30.91 0.83 0
 -6 -4 -7 24.1 0.89 0
 -6 -4 -6 15.04 0.8 0
 -6 -4 -5 19.09 0.86 0
 -6 -4 -3 26.96 1.03 0
 -6 -4 -2 30.86 1.09 0
 -6 -4 -1 -0.09 0.37 0
 -6 -4 0 122.73 2.12 0
 -6 -4 1 125.47 2.17 0
 -6 -4 4 17.61 1.01 0
 -6 -4 5 186.46 2.78 0
 -6 -4 6 648.74 5.13 0
 -6 -4 7 140.9 2.58 0
 -6 -4 8 34.24 1.4 0
 -6 -4 9 33.64 1.45 0
 -6 -4 13 38.29 1.68 0
 -6 -4 14 100.96 2.41 0
 -6 -2 -7 296.8 2.63 0
 -6 -2 -3 516.8 3.66 0
 -6 -2 -2 150.62 2.09 0
 -6 -2 -1 119.46 1.9 0
 -6 -2 5 0.83 0.5 0
 -6 -2 6 55.53 1.44 0
 -6 -2 7 11.66 0.84 0
 -6 -2 8 181.6 2.64 0
 -6 -2 9 3.07 0.67 0
 -6 -2 10 55.26 1.56 0
 -6 -2 12 2.82 0.71 0
 -6 -2 13 6.11 0.84 0
 -6 0 -4 413.29 3.25 0
 -6 0 -2 36.34 1.06 0
 -6 0 2 5.17 0.59 0
 -6 0 6 265.83 2.82 0
 -6 0 8 173.58 2.41 0
 -6 0 10 921.81 5.26 0
 -6 0 12 26.8 1.04 0
 -6 2 -2 154.13 2.17 0
 -6 2 5 0.59 0.41 0
 -6 2 7 10.21 0.7 0
 -6 2 8 177.93 2.28 0
 -6 2 9 2.84 0.51 0
 -6 2 10 55.28 1.25 0
 -6 2 11 8.03 0.64 0
 -5 -15 -3 1.34 1.39 0
 -5 -15 -2 46.07 2.5 0
 -5 -15 -1 3.38 1.6 0
 -5 -15 0 2.13 1.38 0
 -5 -15 1 28.9 2.45 0
 -5 -15 2 15.23 2 0
 -5 -15 3 13.91 2.18 0
 -5 -15 4 10.95 1.99 0
 -5 -15 5 0.81 1.65 0
 -5 -15 7 10.8 2.03 0
 -5 -13 -4 22.8 1.77 0
 -5 -13 -2 71.25 2.61 0
 -5 -13 -1 14.48 1.8 0
 -5 -13 10 -0.11 1.76 0
 -5 -13 11 1.96 1.58 0
 -5 -13 12 0.44 1.87 0
 -5 -11 -6 23.11 1.44 0
 -5 -11 -4 6.75 1.08 0
 -5 -11 -3 2.78 0.94 0
 -5 -11 -2 2.47 1.03 0
 -5 -11 11 43.12 2.46 0
 -5 -11 12 1.62 1.35 0
 -5 -11 13 46.86 2.73 0
 -5 -11 14 1.71 1.47 0
 -5 -11 15 12.67 1.96 0
 -5 -9 -7 28.28 1.2 0
 -5 -9 -6 3.15 0.77 0
 -5 -9 12 20.88 1.96 0
 -5 -9 13 5.26 1.36 0
 -5 -9 15 3.86 1.48 0
 -5 -7 -7 63.22 1.38 0
 -5 -7 -6 186.16 2.47 0
 -5 -7 -5 109.17 2.07 0
 -5 -7 -4 27.28 1.13 0
 -5 -7 -3 27.72 1.19 0
 -5 -7 -2 105.31 2.21 0
 -5 -7 -1 54.09 1.56 0
 -5 -7 12 6.78 1.16 0
 -5 -7 15 0.18 1.05 0
 -5 -5 -8 228.25 2.03 0
 -5 -5 -6 86.31 1.48 0
 -5 -5 -5 26.58 0.94 0
 -5 -5 -3 0.29 0.41 0
 -5 -5 -1 47.45 1.29 0
 -5 -5 0 113.81 2.01 0
 -5 -5 1 176.86 2.49 0
 -5 -5 8 14.49 1.11 0
 -5 -5 13 2.46 0.95 0
 -5 -5 14 1.09 0.94 0
 -5 -5 15 0.83 0.91 0
 -5 -3 -8 144.85 1.53 0
 -5 -3 -7 370.09 2.54 0
 -5 -3 -6 2.76 0.43 0
 -5 -3 -5 269.85 2.4 0
 -5 -3 -4 -0.03 0.33 0
 -5 -3 -1 702.91 4.06 0
 -5 -3 0 100.09 1.68 0
 -5 -3 1 635.61 4.03 0
 -5 -3 5 558.35 4.12 0
 -5 -3 6 66.41 1.54 0
 -5 -3 7 0.29 0.53 0
 -5 -3 8 23.14 1.08 0
 -5 -3 9 156.53 2.56 0
 -5 -3 10 0.54 0.55 0
 -5 -3 11 -0.09 0.58 0
 -5 -3 12 11.77 1.03 0
 -5 -3 13 33.08 1.39 0
 -5 -1 -6 736.09 3.72 0
 -5 -1 -5 236.6 2.18 0
 -5 -1 -4 236.63 2.22 0
 -5 -1 -3 74.12 1.34 0
 -5 -1 -2 1036.63 4.6 0
 -5 -1 -1 720.04 3.89 0
 -5 -1 0 410.53 2.97 0
 -5 -1 1 57.65 1.2 0
 -5 -1 2 316.24 2.68 0
 -5 -1 3 198.11 2.17 0
 -5 -1 7 18.15 0.85 0
 -5 -1 8 9.22 0.73 0
 -5 -1 9 24.54 1 0
 -5 -1 10 363.82 3.3 0
 -5 -1 11 4.28 0.63 0
 -5 -1 13 0.76 0.49 0
 -5 1 -4 241.65 2.37 0
 -5 1 -3 71.84 1.35 0
 -5 1 -2 1028.63 4.72 0
 -5 1 -1 716.51 3.93 0
 -5 1 0 409.18 3 0
 -5 1 1 56.96 1.22 0
 -5 1 2 309.58 2.6 0
 -5 1 3 201.79 2.15 0
 -5 1 4 125.5 1.7 0
 -5 1 8 9.76 0.64 0
 -5 1 9 24.62 0.87 0
 -5 1 10 362.34 2.86 0
 -5 1 11 3.76 0.5 0
 -5 1 12 33.77 0.9 0
 -5 3 7 0.16 0.34 0
 -5 3 8 23.51 0.8 0
 -4 -16 -2 8.55 1.77 0
 -4 -16 0 28.44 2.35 0
 -4 -16 1 1.48 1.57 0
 -4 -14 -3 0.24 1.12 0
 -4 -12 -5 2.81 1 0
 -4 -12 -4 52.13 2 0
 -4 -12 13 2.71 1.48 0
 -4 -12 14 4.91 1.69 0
 -4 -10 14 16.78 1.97 0
 -4 -10 15 35.93 2.36 0
 -4 -8 -6 8.6 0.8 0
 -4 -8 -5 24.11 1.09 0
 -4 -8 -4 175.39 2.64 0
 -4 -8 13 -0.41 1.06 0
 -4 -8 14 37.16 2.04 0
 -4 -8 15 150.42 3.42 0
 -4 -6 -8 57.54 1.14 0
 -4 -6 -7 245.77 2.24 0
 -4 -6 -6 77.76 1.43 0
 -4 -6 -5 10.65 0.71 0
 -4 -6 -4 52.09 1.25 0
 -4 -6 -3 239.92 2.66 0
 -4 -6 12 56.05 1.98 0
 -4 -6 13 15.92 1.44 0
 -4 -6 14 2.46 0.97 0
 -4 -6 15 51.14 2.01 0
 -4 -4 -8 188.14 1.41 0
 -4 -4 -7 0.56 0.31 0
 -4 -4 -6 18.97 0.66 0
 -4 -4 -5 92.15 1.37 0
 -4 -4 -4 0.1 0.3 0
 -4 -4 -3 228.98 2.2 0
 -4 -4 -2 8.56 0.6 0
 -4 -4 0 27.05 0.89 0
 -4 -4 10 4.59 0.79 0
 -4 -4 11 12.76 1.04 0
 -4 -4 12 0.57 0.7 0
 -4 -2 -7 8.55 0.44 0
 -4 -2 -6 0.67 0.27 0
 -4 -2 -5 199.09 1.76 0
 -4 -2 -4 22.51 0.68 0
 -4 -2 -3 692.88 3.35 0
 -4 -2 -1 78.38 1.28 0
 -4 -2 0 222.96 2.06 0
 -4 -2 1 1974.78 6.05 0
 -4 -2 2 0.17 0.39 0
 -4 -2 7 126.73 1.87 0
 -4 -2 8 43.27 1.19 0
 -4 -2 9 66.99 1.46 0
 -4 -2 10 31.17 1.11 0
 -4 -2 11 108.74 1.92 0
 -4 -2 12 0.33 0.52 0
 -4 -2 13 6.71 0.73 0
 -4 0 -4 255.54 2.08 0
 -4 0 -2 55.47 1.06 0
 -4 0 0 2387.4 6.17 0
 -4 0 2 96.84 1.36 0
 -4 0 4 838.3 3.85 0
 -4 0 10 136.55 1.74 0
 -4 0 12 62.77 1.25 0
 -4 2 -1 80.53 1.33 0
 -4 2 0 221.57 2.09 0
 -4 2 1 1984.13 5.95 0
 -4 2 3 53.71 1.1 0
 -4 2 4 68.91 1.14 0
 -4 2 5 771.16 3.59 0
 -4 2 6 55.69 1.02 0
 -3 -13 -5 4.46 1.11 0
 -3 -11 -6 7.69 1 0
 -3 -11 15 3.18 1.48 0
 -3 -9 -6 3.48 0.68 0
 -3 -9 15 44.86 2.34 0
 -3 -7 -7 37.72 0.98 0
 -3 -7 -6 19.68 0.84 0
 -3 -7 14 4.14 1.17 0
 -3 -7 15 75.75 2.45 0
 -3 -5 -7 18.03 0.57 0
 -3 -5 -6 18.91 0.65 0
 -3 -5 -5 106.32 1.48 0
 -3 -5 -4 367.1 2.68 0
 -3 -5 14 13.12 1.21 0
 -3 -3 -7 376.66 1.63 0
 -3 -3 -6 26.44 0.59 0
 -3 -3 -5 74.01 0.99 0
 -3 -3 -4 364.14 2.18 0
 -3 -3 -3 1396.65 4.37 0
 -3 -3 -2 28.83 0.75 0
 -3 -3 -1 7.74 0.53 0
 -3 -3 10 3.14 0.58 0
 -3 -3 11 8.38 0.81 0
 -3 -3 14 0.78 0.57 0
 -3 -1 -4 773.09 2.88 0
 -3 -1 -3 539.39 2.48 0
 -3 -1 -2 679.09 2.8 0
 -3 -1 -1 531.7 2.51 0
 -3 -1 0 2992.97 6 0
 -3 -1 1 286.8 1.95 0
 -3 -1 3 572.54 2.89 0
 -3 -1 4 15.91 0.61 0
 -3 -1 5 0.25 0.3 0
 -3 -1 9 33.68 0.93 0
 -3 -1 10 523.05 3.33 0
 -3 -1 12 0.52 0.38 0
 -3 1 -2 670.79 2.97 0
 -3 1 -1 543.68 2.67 0
 -3 1 0 2981.83 6.03 0
 -3 1 1 281.55 1.88 0
 -3 1 3 580.33 2.69 0
 -3 1 4 16.2 0.55 0
 -3 1 5 0.12 0.24 0
 -3 1 6 4.73 0.39 0
 -3 1 7 192.77 1.63 0
 -3 1 8 166.28 1.5 0
 -2 -10 -7 5.83 0.77 0
 -2 -8 -7 0.92 0.45 0
 -2 -6 -8 223.29 1.44 0
 -2 -6 -6 91.87 1.38 0
 -2 -6 15 18.36 1.46 0
 -2 -4 -6 0.98 0.23 0
 -2 -4 -5 42.38 0.75 0
 -2 -2 -5 49.85 0.59 0
 -2 -2 -4 388.5 1.68 0
 -2 -2 -3 0.61 0.2 0
 -2 -2 -2 468.82 2.06 0
 -2 -2 10 20.03 0.82 0
 -2 -2 11 29.15 0.96 0
 -2 -2 12 6.32 0.63 0
 -2 -2 13 156.49 2.06 0
 -2 0 0 5781.03 6.62 0
 -2 0 2 649.34 2.31 0
 -2 0 6 0.8 0.24 0
 -2 0 8 81.12 1.08 0
 -2 2 4 131 1.13 0
 -2 2 5 1339.6 3.25 0
 -1 -7 -8 19.75 0.63 0
 -1 -5 -7 145.47 1.11 0
 -1 -3 -5 2.35 0.21 0
 -1 -1 11 33.06 0.8 0
 -1 -1 12 1.4 0.34 0
 -1 1 1 38.04 0.46 0
 -1 1 2 845.46 1.89 0
 -1 1 3 0.78 0.13 0
 -1 1 4 1328.59 2.31 0
 -1 1 5 137.71 0.79 0
 -1 1 6 572.51 1.54 0
 0 -6 -8 0.24 0.23 0
 0 0 10 74.63 0.77 0
 -4 4 6 37.7 0.53 0
 -4 4 7 0.99 0.16 0
 -4 4 8 31.66 0.5 0
 -4 4 9 85.74 0.81 0
 -3 1 6 4.98 0.22 0
 -3 1 7 188.92 1.3 0
 -3 1 8 162.39 1.36 0
 -3 1 10 523.65 2.91 0
 -3 1 11 60.86 1.14 0
 -3 1 12 0.66 0.33 0
 -3 1 13 37.64 0.99 0
 -3 3 5 8.45 0.27 0
 -3 3 6 335.65 1.54 0
 -3 3 7 17.59 0.43 0
 -3 3 8 781.48 2.85 0
 -3 3 10 3.13 0.36 0
 -3 3 11 6.75 0.45 0
 -3 3 12 114.75 1.51 0
 -3 5 9 130.11 1.5 0
 -3 5 10 -0.01 0.26 0
 -3 5 11 16.64 0.63 0
 -3 7 9 332.01 2.69 0
 -3 7 10 12.89 0.66 0
 -2 0 4 22.75 0.41 0
 -2 0 6 0.28 0.19 0
 -2 0 10 31.22 0.91 0
 -2 0 14 2.62 0.56 0
 -2 2 4 132.33 0.87 0
 -2 2 5 1338.06 3.06 0
 -2 2 6 157.98 1.25 0
 -2 2 7 6.02 0.35 0
 -2 2 10 21.41 0.74 0
 -2 2 12 6.08 0.56 0
 -2 2 14 51.05 1.29 0
 -2 4 9 399.52 2.74 0
 -2 4 10 55.82 1.12 0
 -2 4 11 96.44 1.55 0
 -2 4 12 8.61 0.61 0
 -2 4 13 161.14 2.15 0
 -2 6 8 67.03 1.31 0
 -2 6 9 67.38 1.37 0
 -2 6 10 12.02 0.68 0
 -2 6 11 3.85 0.51 0
 -1 -1 3 0.56 0.15 0
 -1 -1 4 1344.32 3.7 0
 -1 -1 5 141.65 1.41 0
 -1 -1 6 572.65 2.98 0
 -1 -1 9 22.51 0.85 0
 -1 -1 10 2.57 0.45 0
 -1 -1 11 34.55 1.12 0
 -1 -1 12 0.98 0.47 0
 -1 -1 13 4.92 0.66 0
 -1 -1 15 25.86 1.24 0
 -1 1 3 0.5 0.12 0
 -1 1 4 1323.36 3.06 0
 -1 1 5 135.71 1.19 0
 -1 1 6 564.05 2.66 0
 -1 1 7 11.41 0.48 0
 -1 1 9 21.43 0.76 0
 -1 1 10 2.63 0.42 0
 -1 1 11 34.46 1.07 0
 -1 1 12 0.6 0.41 0
 -1 1 13 4.28 0.66 0
 -1 1 14 53.78 1.49 0
 -1 1 16 58.72 1.68 0
 -1 3 6 177.64 1.6 0
 -1 3 9 429.86 3.05 0
 -1 3 10 25.36 0.88 0
 -1 3 11 24.12 0.91 0
 -1 3 12 301.57 3.04 0
 -1 3 13 40.59 1.25 0
 -1 3 14 48.8 1.38 0
 -1 5 8 526.77 3.45 0
 -1 5 9 277.47 2.65 0
 -1 5 10 9.73 0.68 0
 -1 5 11 29.67 1.03 0
 -1 5 13 141.52 2.28 0
 -1 7 9 8.09 0.74 0
 -1 7 11 19.29 0.96 0
 -1 7 12 14.29 0.91 0
 0 -2 4 281.55 2.06 0
 0 -2 5 116.49 1.46 0
 0 -2 6 450.04 3.03 0
 0 -2 8 52.1 1.23 0
 0 -2 9 152.58 2.22 0
 0 -2 10 7.27 0.73 0
 0 -2 11 11.19 0.85 0
 0 -2 12 6.4 0.8 0
 0 -2 14 2.32 0.69 0
 0 -2 15 0.41 0.68 0
 0 -2 16 7.45 1.09 0
 0 0 2 1495.33 2.71 0
 0 0 4 9862.48 10.06 0
 0 0 6 1718.08 5.29 0
 0 0 10 75.02 1.59 0
 0 0 12 67.16 1.64 0
 0 0 16 4.3 0.92 0
 0 2 5 116.22 1.27 0
 0 2 6 451.07 2.67 0
 0 2 9 150.34 2 0
 0 2 10 7.69 0.66 0
 0 2 11 10.65 0.79 0
 0 2 12 6.47 0.74 0
 0 2 13 208.6 2.91 0
 0 4 7 52.93 1.12 0
 0 4 8 317.92 2.77 0
 0 4 9 7.48 0.64 0
 0 4 10 13.7 0.81 0
 0 4 12 4.76 0.66 0
 0 4 13 20.86 1.08 0
 0 4 15 13 1.05 0
 0 6 9 34.73 1.13 0
 0 6 10 25.08 1.06 0
 0 6 11 14.97 0.93 0
 0 8 12 19.03 1.15 0
 0 8 13 6.21 0.91 0
 0 10 10 13.42 1.15 0
 0 10 11 39.42 1.56 0
 1 -3 4 124.05 1.61 0
 1 -3 7 3.59 0.49 0
 1 -3 8 18.58 0.89 0
 1 -3 10 0.26 0.48 0
 1 -3 13 151.75 2.83 0
 1 -3 15 45 1.79 0
 1 -1 0 2018.45 2.73 0
 1 -1 1 7.92 0.28 0
 1 -1 3 0.24 0.22 0
 1 -1 4 4.5 0.41 0
 1 -1 5 31.05 0.79 0
 1 -1 6 26.4 0.8 0
 1 -1 8 8.01 0.61 0
 1 -1 9 55.82 1.38 0
 1 -1 10 34.9 1.2 0
 1 -1 11 0.2 0.46 0
 1 -1 12 36.43 1.35 0
 1 -1 14 1.93 0.78 0
 1 -1 15 3.8 0.79 0
 1 -1 16 189.98 3.36 0
 1 -1 17 -0.22 0.85 0
 1 -1 18 70.57 2.18 0
 1 1 3 0.01 0.19 0
 1 1 5 31.17 0.77 0
 1 1 6 27.08 0.79 0
 1 1 8 7.55 0.55 0
 1 1 9 59.44 1.37 0
 1 1 10 34.64 1.16 0
 1 1 11 0.19 0.44 0
 1 1 12 36.15 1.34 0
 1 1 15 3.64 0.8 0
 1 1 16 183.28 3.25 0
 1 1 17 0.24 0.7 0
 1 1 18 71.01 2.17 0
 1 3 8 19.7 0.84 0
 1 3 9 152.09 2.22 0
 1 3 10 0.39 0.44 0
 1 3 11 1.93 0.5 0
 1 3 12 45.59 1.44 0
 1 3 15 47.03 1.67 0
 1 3 17 12.62 1.24 0
 1 5 8 221.11 2.63 0
 1 5 9 2.61 0.52 0
 1 5 10 18.86 0.98 0
 1 5 11 23.86 1.13 0
 1 5 14 24.72 1.34 0
 1 5 15 10.3 1.11 0
 1 7 9 79.57 1.86 0
 1 7 12 26.82 1.34 0
 1 7 13 41.53 1.59 0
 1 9 10 4.18 0.84 0
 1 9 11 15.37 1.17 0
 1 9 12 16.36 1.26 0
 1 9 13 7.32 1 0
 1 11 10 47.82 1.93 0
 1 11 11 27.41 1.57 0
 2 -4 3 29.63 0.87 0
 2 -4 7 97.21 1.88 0
 2 -4 8 739.2 5.2 0
 2 -4 9 331.21 3.7 0
 2 -4 12 186.97 3.19 0
 2 -4 13 192.51 3.47 0
 2 -4 14 184.73 3.49 0
 2 -4 15 44.09 1.9 0
 2 -2 0 636.15 2.2 0
 2 -2 1 560.26 2.39 0
 2 -2 2 483.69 2.5 0
 2 -2 3 0.6 0.29 0
 2 -2 4 390.49 2.74 0
 2 -2 5 48.75 1.07 0
 2 -2 8 -0.1 0.33 0
 2 -2 10 37.28 1.33 0
 2 -2 13 0.98 0.59 0
 2 -2 14 60.63 1.98 0
 2 -2 15 6.03 1.1 0
 2 -2 16 30.22 1.64 0
 2 -2 18 0.87 0.87 0
 2 0 0 5804.58 5.38 0
 2 0 4 4906.05 8.73 0
 2 0 6 715.19 3.96 0
 2 0 8 692.82 4.49 0
 2 0 10 133.7 2.3 0
 2 0 14 12.45 1.14 0
 2 0 16 230.5 3.86 0
 2 0 18 32.05 1.77 0
 2 2 4 389.44 2.57 0
 2 2 5 52.04 1.06 0
 2 2 8 -0.08 0.31 0
 2 2 9 11.07 0.79 0
 2 2 10 38.99 1.28 0
 2 2 11 2.85 0.62 0
 2 2 14 58.16 1.85 0
 2 2 15 4.45 0.87 0
 2 2 16 29.41 1.57 0
 2 2 17 36.09 1.72 0
 2 2 18 -0.16 0.79 0
 2 4 7 95.63 1.75 0
 2 4 8 742.72 4.76 0
 2 4 9 332.84 3.41 0
 2 4 10 193 2.81 0
 2 4 11 0.19 0.52 0
 2 4 14 185.95 3.21 0
 2 4 15 42.37 1.74 0
 2 4 17 8.64 1.15 0
 2 6 8 230.49 3 0
 2 6 9 43 1.42 0
 2 6 13 40.29 1.62 0
 2 6 14 22.38 1.39 0
 2 6 15 71.9 2.15 0
 2 6 16 12.93 1.32 0
 2 8 10 3.18 0.71 0
 2 8 11 17.61 1.21 0
 2 8 12 6.88 1.04 0
 2 8 13 13.2 1.28 0
 2 8 14 3.11 0.91 0
 2 10 10 3.71 0.92 0
 2 10 11 14.35 1.36 0
 2 10 12 27.56 1.59 0
 2 10 13 -0.3 0.91 0
 2 12 10 15.29 1.55 0
 2 12 11 0.09 0.83 0
 3 -5 5 108.11 1.94 0
 3 -5 7 17.89 0.98 0
 3 -5 10 65.99 1.93 0
 3 -5 11 -0.26 0.68 0
 3 -5 12 4.72 0.91 0
 3 -5 13 33.4 1.72 0
 3 -3 0 344.83 2.04 0
 3 -3 1 8.3 0.47 0
 3 -3 3 1431.53 5.34 0
 3 -3 7 382.23 3.61 0
 3 -3 8 239.47 3.06 0
 3 -3 9 84.96 1.93 0
 3 -3 12 40.5 1.64 0
 3 -3 13 2.62 0.92 0
 3 -3 14 0.4 0.85 0
 3 -3 15 32.51 1.75 0
 3 -3 16 43.74 2.01 0
 3 -3 17 -0.13 0.91 0
 3 -3 18 -0.6 0.9 0
 3 -1 -1 277.71 1.19 0
 3 -1 0 2990.32 4.81 0
 3 -1 1 544.4 2.42 0
 3 -1 2 679.64 3.03 0
 3 -1 3 543.95 3 0
 3 -1 4 797.7 3.94 0
 3 -1 5 24.11 0.79 0
 3 -1 8 28.25 1.07 0
 3 -1 9 1.89 0.48 0
 3 -1 10 53.36 1.59 0
 3 -1 13 9.69 1.07 0
 3 -1 14 34.09 1.63 0
 3 -1 15 4.97 1.08 0
 3 -1 17 9.4 1.23 0
 3 -1 18 5.27 1.12 0
 3 -1 19 1.43 0.96 0
 3 1 2 687.1 3.04 0
 3 1 4 783.65 3.81 0
 3 1 5 22.94 0.79 0
 3 1 8 27.84 1.04 0
 3 1 10 58.87 1.62 0
 3 1 13 9.52 1.03 0
 3 1 14 34.51 1.62 0
 3 1 15 4.16 0.91 0
 3 1 16 87.69 2.51 0
 3 1 17 10.59 1.36 0
 3 1 18 5.67 1.14 0
 3 1 19 1.79 1.15 0
 3 3 7 390.43 3.44 0
 3 3 8 243.36 2.92 0
 3 3 9 85.73 1.86 0
 3 3 10 41.72 1.44 0
 3 3 13 2.68 0.73 0
 3 3 14 0.38 0.68 0
 3 3 15 30.87 1.62 0
 3 3 16 44.89 1.92 0
 3 3 17 1.08 1 0
 3 3 18 -0.64 0.93 0
 3 5 9 133.87 2.48 0
 3 5 12 4.73 0.86 0
 3 5 13 32.14 1.54 0
 3 5 14 -0.04 0.79 0
 3 5 15 0.83 0.82 0
 3 5 16 13.06 1.34 0
 3 5 17 22.9 1.62 0
 3 7 10 4.44 0.78 0
 3 7 11 36.8 1.59 0
 3 7 12 1.27 0.75 0
 3 7 13 0.15 0.81 0
 3 7 14 1.17 0.95 0
 3 7 15 3.25 1.05 0
 3 7 16 1.62 0.94 0
 3 9 10 0.41 0.8 0
 3 9 11 25.9 1.52 0
 3 9 12 0.01 0.88 0
 3 9 13 0.05 0.95 0
 3 9 14 1.1 1.01 0
 3 11 10 5.31 1.09 0
 3 11 11 50.19 2.11 0
 3 11 12 46.18 2.06 0
 3 11 13 0.42 1.09 0
 3 13 10 1.91 1.08 0
 3 13 11 6.3 1.26 0
 4 -6 9 112.34 2.5 0
 4 -6 10 13 1.17 0
 4 -6 11 31.72 1.64 0
 4 -4 1 87 1.35 0
 4 -4 2 9.72 0.6 0
 4 -4 3 237.53 2.48 0
 4 -4 4 0.57 0.33 0
 4 -4 5 90.36 1.76 0
 4 -4 6 18.5 0.93 0
 4 -4 7 0.82 0.41 0
 4 -4 10 50.87 1.76 0
 4 -4 11 -0.41 0.64 0
 4 -4 12 229.47 3.9 0
 4 -4 13 137.72 3.07 0
 4 -4 14 261.51 4.46 0
 4 -4 15 43.26 2.06 0
 4 -4 16 12.41 1.51 0
 4 -4 17 34.36 2.04 0
 4 -2 -2 0.24 0.13 0
 4 -2 -1 1934.74 4.01 0
 4 -2 0 224.98 1.65 0
 4 -2 1 77.29 1.11 0
 4 -2 2 40.5 0.92 0
 4 -2 3 691.61 3.79 0
 4 -2 4 23.06 0.82 0
 4 -2 7 9.32 0.73 0
 4 -2 8 66.15 1.69 0
 4 -2 9 1.97 0.53 0
 4 -2 12 12.02 1.16 0
 4 -2 14 194.49 3.69 0
 4 -2 15 1.41 0.85 0
 4 -2 16 76.79 2.58 0
 4 -2 17 8.67 1.32 0
 4 -2 18 10.86 1.51 0
 4 -2 19 0.92 1.15 0
 4 -2 20 37.82 2.12 0
 4 0 0 2376.99 4.91 0
 4 0 2 56.72 1.01 0
 4 0 4 260.29 2.43 0
 4 0 8 95.35 1.94 0
 4 0 10 4.25 0.69 0
 4 0 12 0.82 0.66 0
 4 0 14 24.28 1.54 0
 4 0 16 204.8 4.06 0
 4 0 20 96.03 2.91 0
 4 2 7 8.21 0.72 0
 4 2 8 65.84 1.63 0
 4 2 12 13.18 1.16 0
 4 2 13 24.75 1.41 0
 4 2 14 196.15 3.62 0
 4 2 15 -0.43 0.69 0
 4 2 16 77.47 2.5 0
 4 2 17 7.26 1.24 0
 4 2 18 8.48 1.28 0
 4 2 19 1.02 1.13 0
 4 4 6 19.31 0.92 0
 4 4 7 0.11 0.37 0
 4 4 8 187.31 2.78 0
 4 4 9 22 1.17 0
 4 4 11 0.66 0.74 0
 4 4 12 220.87 3.63 0
 4 4 14 253.52 4.16 0
 4 4 15 39.92 1.92 0
 4 4 16 13.14 1.47 0
 4 4 17 33.8 1.94 0
 4 4 18 76.1 2.58 0
 4 6 10 14.29 1.12 0
 4 6 11 34.06 1.59 0
 4 6 13 108.46 2.72 0
 4 6 14 16.34 1.46 0
 4 6 15 23.84 1.7 0
 4 6 16 30.98 1.82 0
 4 6 17 2.05 1.01 0
 4 8 10 10.73 1.21 0
 4 8 11 3.84 0.89 0
 4 8 12 14.38 1.4 0
 4 8 14 -0.46 0.82 0
 4 8 15 45.7 2.08 0
 4 8 16 20.33 1.69 0
 4 10 11 55.42 2.18 0
 4 10 12 20.8 1.66 0
 4 10 13 22 1.75 0
 4 10 14 13.58 1.59 0
 4 12 10 2.47 1.15 0
 4 12 11 1.1 1.06 0
 4 12 12 -0.69 0.94 0
 4 14 9 6.31 1.51 0
 4 14 10 5.13 1.3 0
 5 -5 2 6.1 0.58 0
 5 -5 3 0.54 0.35 0
 5 -5 4 0.45 0.37 0
 5 -5 5 25.22 1.09 0
 5 -5 6 84.29 1.9 0
 5 -5 9 32.89 1.49 0
 5 -5 10 0.19 0.68 0
 5 -5 11 15 1.29 0
 5 -5 12 118.57 2.92 0
 5 -5 13 57.11 2.26 0
 5 -5 14 11.15 1.34 0
 5 -5 15 0.55 1.13 0
 5 -3 -1 632.29 2.75 0
 5 -3 0 99.81 1.31 0
 5 -3 1 718.05 3.63 0
 5 -3 2 48.11 1.08 0
 5 -3 4 0.11 0.32 0
 5 -3 5 264.34 2.95 0
 5 -3 6 2.59 0.5 0
 5 -3 7 378.69 3.91 0
 5 -3 8 138.75 2.54 0
 5 -3 11 240.56 3.83 0
 5 -3 13 64.53 2.26 0
 5 -3 14 50.32 2.15 0
 5 -3 16 5.41 1.18 0
 5 -3 17 35.13 2.09 0
 5 -3 18 8.57 1.54 0
 5 -3 19 16.6 1.76 0
 5 -1 -3 194.73 0.92 0
 5 -1 -2 307.7 1.52 0
 5 -1 -1 57.37 0.83 0
 5 -1 0 406.4 2.33 0
 5 -1 1 721.26 3.42 0
 5 -1 2 1021.98 4.41 0
 5 -1 3 72.01 1.35 0
 5 -1 4 240.45 2.52 0
 5 -1 7 240.41 3 0
 5 -1 8 0.34 0.54 0
 5 -1 13 -0.3 0.65 0
 5 -1 14 60.67 2.23 0
 5 -1 15 53.09 2.17 0
 5 -1 16 9.81 1.35 0
 5 -1 17 -0.13 1.15 0
 5 -1 18 58.87 2.5 0
 5 -1 19 18.22 1.82 0
 5 -1 20 9.05 1.54 0
 5 1 1 724.75 3.54 0
 5 1 2 1047.44 4.54 0
 5 1 3 72.29 1.32 0
 5 1 7 242.56 3.01 0
 5 1 8 0.33 0.42 0
 5 1 11 144.78 2.86 0
 5 1 12 9.29 1.14 0
 5 1 13 -0.57 0.74 0
 5 1 14 61 2.2 0
 5 1 15 54.66 2.22 0
 5 1 16 7.75 1.24 0
 5 1 17 -0.11 1.01 0
 5 1 18 57.91 2.43 0
 5 1 19 18.05 1.81 0
 5 1 20 11.12 1.58 0
 5 3 6 2.64 0.51 0
 5 3 7 368.67 3.74 0
 5 3 8 140.93 2.52 0
 5 3 11 242.19 3.76 0
 5 3 12 54.29 1.97 0
 5 3 13 58.49 2.11 0
 5 3 14 51.6 2.05 0
 5 3 15 65.53 2.38 0
 5 3 16 7.8 1.27 0
 5 3 17 34.28 2 0
 5 3 18 8.32 1.46 0
 5 3 19 16.77 1.72 0
 5 5 10 0.32 0.73 0
 5 5 11 15.64 1.27 0
 5 5 12 118.69 2.81 0
 5 5 13 58.9 2.17 0
 5 5 14 9.22 1.18 0
 5 5 15 -0.51 0.85 0
 5 5 16 20.83 1.7 0
 5 5 17 25.58 1.85 0
 5 5 18 1.1 1.16 0
 5 7 8 31.78 1.54 0
 5 7 9 21.92 1.35 0
 5 7 10 24.75 1.49 0
 5 7 11 1.54 0.78 0
 5 7 12 22.81 1.61 0
 5 7 14 3.43 1.04 0
 5 7 15 1.75 1.01 0
 5 7 16 2.74 1.24 0
 5 7 17 17.28 1.76 0
 5 9 9 6.46 1.21 0
 5 9 10 1.51 0.89 0
 5 9 11 0.79 0.88 0
 5 9 12 18.86 1.63 0
 5 9 13 7.67 1.24 0
 5 9 14 -0.86 1.11 0
 5 9 15 -0.53 0.91 0
 5 11 10 9.18 1.32 0
 5 11 11 9 1.49 0
 5 11 12 73.36 2.65 0
 5 11 13 9.48 1.52 0
 5 11 14 0.84 1.19 0
 5 13 9 19.9 1.89 0
 5 13 10 47.44 2.41 0
 5 13 11 14.68 1.75 0
 6 -6 4 5.79 0.67 0
 6 -6 7 226.73 3.46 0
 6 -6 8 18.56 1.22 0
 6 -6 9 90.14 2.38 0
 6 -6 11 115.18 2.87 0
 6 -6 12 4.52 1.12 0
 6 -6 14 9.18 1.32 0
 6 -4 0 125.55 1.61 0
 6 -4 1 0.61 0.31 0
 6 -4 2 31.54 1 0
 6 -4 3 26.69 0.99 0
 6 -4 4 0.25 0.45 0
 6 -4 6 15.4 0.98 0
 6 -4 9 33.14 1.53 0
 6 -4 10 7.09 1.01 0
 6 -4 12 25.87 1.62 0
 6 -4 13 3.34 1.11 0
 6 -4 14 29.72 1.87 0
 6 -4 15 14.61 1.65 0
 6 -4 16 0.69 1.09 0
 6 -4 17 5.1 1.28 0
 6 -4 18 17.8 1.9 0
 6 -2 -3 77.13 0.69 0
 6 -2 -2 473.6 2.15 0
 6 -2 -1 106.17 1.25 0
 6 -2 0 67.81 1.15 0
 6 -2 1 119.57 1.58 0
 6 -2 2 155.22 1.97 0
 6 -2 3 499.33 3.66 0
 6 -2 4 41.44 1.21 0
 6 -2 5 0.11 0.46 0
 6 -2 6 72.27 1.73 0
 6 -2 7 292.3 3.53 0
 6 -2 10 10.98 1.07 0
 6 -2 11 72.91 2.22 0
 6 -2 12 103.51 2.69 0
 6 -2 13 2.61 0.93 0
 6 -2 14 47.01 2.1 0
 6 -2 15 18.25 1.66 0
 6 -2 16 2.65 1.25 0
 6 -2 17 0.49 1.08 0
 6 -2 18 9 1.53 0
 6 0 -2 5.63 0.36 0
 6 0 0 385.42 2.53 0
 6 0 2 34.37 0.95 0
 6 0 4 422.86 3.52 0
 6 0 8 462.82 4.56 0
 6 0 10 2.76 0.77 0
 6 0 12 322.95 4.63 0
 6 0 14 92.53 2.74 0
 6 0 16 -0.69 0.88 0
 6 2 3 520.18 3.82 0
 6 2 10 11.59 1.08 0
 6 2 11 70.25 2.16 0
 6 2 12 101.07 2.64 0
 6 2 13 2.78 0.89 0
 6 2 14 45.66 2.07 0
 6 2 15 17.59 1.68 0
 6 2 16 1.97 1.17 0
 6 2 17 0.43 0.98 0
 6 2 18 5.92 1.45 0
 6 2 19 -0.15 1.02 0
 6 4 6 13.4 0.9 0
 6 4 9 31.29 1.44 0
 6 4 11 4.86 0.88 0
 6 4 12 24.37 1.56 0
 6 4 13 3.86 1.1 0
 6 4 14 29.59 1.81 0
 6 4 15 14.75 1.59 0
 6 4 16 -0.55 1.15 0
 6 4 17 4.44 1.3 0
 6 4 18 18.85 1.87 0
 6 4 19 2.6 1.18 0
 6 6 8 16.96 1.18 0
 6 6 9 87.83 2.34 0
 6 6 10 1.95 0.81 0
 6 6 11 114.82 2.86 0
 6 6 12 3.02 1.11 0
 6 6 13 115.71 3.06 0
 6 6 14 11.99 1.56 0
 6 6 15 1.82 1.19 0
 6 6 16 3.04 1.26 0
 6 6 17 11.94 1.68 0
 6 6 18 3.07 1.32 0
 6 8 8 65.16 2.22 0
 6 8 9 146.65 3.19 0
 6 8 10 10.46 1.31 0
 6 8 11 106.09 2.88 0
 6 8 12 20.31 1.7 0
 6 8 13 176.44 3.81 0
 6 8 14 4.35 1.27 0
 6 8 15 -0.56 1.21 0
 6 8 16 17.24 1.8 0
 6 8 17 8.67 1.46 0
 6 10 9 0.54 0.87 0
 6 10 10 12.01 1.49 0
 6 10 11 1.55 1.03 0
 6 10 12 4.87 1.33 0
 6 10 13 15.82 1.78 0
 6 10 14 2.27 1.18 0
 6 10 15 38.32 2.23 0
 6 12 9 1.32 1.33 0
 6 12 10 0.24 1.23 0
 6 12 11 -0.26 1.17 0
 6 12 12 30.66 2.12 0
 6 14 9 -1.17 1.36 0
 7 -7 8 9.97 1.18 0
 7 -7 9 14.79 1.35 0
 7 -5 1 31.24 1.02 0
 7 -5 2 175.48 2.41 0
 7 -5 3 74.9 1.69 0
 7 -5 4 122.82 2.29 0
 7 -5 7 1.93 0.68 0
 7 -5 8 0.09 0.72 0
 7 -5 9 8.83 1.07 0
 7 -5 10 1.2 0.74 0
 7 -5 11 0.49 0.87 0
 7 -5 13 3.15 1.02 0
 7 -5 14 26.32 1.94 0
 7 -5 15 17.25 1.77 0
 7 -5 16 5.28 1.29 0
 7 -5 17 0.09 1.17 0
 7 -3 -2 58.05 0.95 0
 7 -3 -1 710.52 3.41 0
 7 -3 0 250.69 2.28 0
 7 -3 1 140.73 1.89 0
 7 -3 3 480.79 3.89 0
 7 -3 4 220 2.82 0
 7 -3 5 333.3 3.65 0
 7 -3 6 27.22 1.27 0
 7 -3 9 99.73 2.47 0
 7 -3 10 4.78 0.9 0
 7 -3 11 8.23 1.13 0
 7 -3 12 1.81 0.81 0
 7 -3 13 0.51 0.92 0
 7 -3 14 81.96 2.79 0
 7 -3 15 9.59 1.53 0
 7 -3 17 1.55 1.14 0
 7 -1 -4 67.77 0.67 0
 7 -1 -3 0.08 0.17 0
 7 -1 -2 67.72 1.01 0
 7 -1 -1 134.52 1.54 0
 7 -1 0 135.93 1.67 0
 7 -1 2 457.46 3.43 0
 7 -1 3 56.75 1.35 0
 7 -1 5 71.66 1.69 0
 7 -1 6 673.01 5.22 0
 7 -1 7 0.51 0.65 0
 7 -1 10 118.21 2.73 0
 7 -1 11 26.66 1.54 0
 7 -1 12 44.94 1.97 0
 7 -1 13 -0.06 1.03 0
 7 -1 14 -0.37 0.81 0
 7 -1 15 30.1 2.01 0
 7 -1 17 0.91 1.28 0
 7 -1 18 25.08 2.1 0
 7 -1 19 21.7 2.06 0
 7 1 0 138.88 1.78 0
 7 1 1 25.54 0.87 0
 7 1 2 461.91 3.51 0
 7 1 4 30.71 1.11 0
 7 1 5 69.07 1.68 0
 7 1 6 672.74 5.24 0
 7 1 7 0.56 0.6 0
 7 1 9 16.57 1.18 0
 7 1 10 115.59 2.65 0
 7 1 12 43.72 1.91 0
 7 1 13 0.22 0.82 0
 7 1 14 0.33 0.97 0
 7 1 16 28.24 1.99 0
 7 1 17 2.62 1.22 0
 7 1 18 22.7 2.04 0
 7 1 19 21.66 2 0
 7 3 4 228.3 2.98 0
 7 3 5 341.57 3.69 0
 7 3 9 98.51 2.45 0
 7 3 10 5.27 0.88 0
 7 3 12 1.79 0.93 0
 7 3 13 0.91 0.83 0
 7 3 14 81.8 2.74 0
 7 3 15 10.4 1.45 0
 7 3 16 28.22 2 0
 7 3 17 2.98 1.37 0
 7 3 18 14.63 1.78 0
 7 5 7 1.73 0.61 0
 7 5 8 0.12 0.55 0
 7 5 10 2.23 0.96 0
 7 5 11 0.92 0.81 0
 7 5 12 28.56 1.75 0
 7 5 13 3.8 1.19 0
 7 5 14 24.87 1.84 0
 7 5 15 18.43 1.77 0
 7 5 16 4.76 1.31 0
 7 5 17 -0.3 1.3 0
 7 5 18 1.96 1.31 0
 7 7 7 259.6 4.08 0
 7 7 8 10.24 1.23 0
 7 7 9 16.08 1.38 0
 7 7 11 56.09 2.26 0
 7 7 12 2.56 1.07 0
 7 7 13 19.87 1.78 0
 7 7 14 7.19 1.49 0
 7 7 15 5.49 1.49 0
 7 7 16 1.64 1.37 0
 7 7 17 10.29 1.66 0
 7 9 8 4.95 1.06 0
 7 9 9 0.5 0.94 0
 7 9 10 10.03 1.44 0
 7 9 11 13.87 1.66 0
 7 9 12 9.15 1.62 0
 7 9 13 5.26 1.43 0
 7 9 14 4.96 1.48 0
 7 9 15 19.77 1.94 0
 7 11 9 2.07 1.17 0
 7 11 10 5.97 1.29 0
 7 11 11 -0.12 1.06 0
 7 11 12 3.89 1.31 0
 7 11 13 11.33 1.6 0
 7 13 8 3.94 1.39 0
 7 13 9 4.32 1.54 0
 8 -6 2 8.17 0.76 0
 8 -6 5 14.96 1.07 0
 8 -6 6 28.93 1.42 0
 8 -6 7 16.94 1.3 0
 8 -6 9 3.77 0.92 0
 8 -6 10 15.91 1.48 0
 8 -6 11 34.12 1.89 0
 8 -6 12 16.88 1.63 0
 8 -6 13 13.43 1.63 0
 8 -6 14 16.35 1.82 0
 8 -6 15 15.51 1.85 0
 8 -4 -1 633.37 3.52 0
 8 -4 0 193.38 2.22 0
 8 -4 1 9.52 0.69 0
 8 -4 2 359.56 3.41 0
 8 -4 3 262.08 3.14 0
 8 -4 4 128.78 2.37 0
 8 -4 8 1.98 0.71 0
 8 -4 9 3.61 0.98 0
 8 -4 10 49.44 2.03 0
 8 -4 11 0.72 0.8 0
 8 -4 12 0.09 0.91 0
 8 -4 13 18.2 1.7 0
 8 -4 14 9.79 1.64 0
 8 -4 15 3.19 1.28 0
 8 -4 16 1.17 1.2 0
 8 -4 17 33.54 2.32 0
 8 -2 -3 55.09 0.86 0
 8 -2 -2 200.69 1.78 0
 8 -2 0 8.11 0.58 0
 8 -2 1 2.54 0.44 0
 8 -2 2 22.8 0.95 0
 8 -2 3 0.7 0.42 0
 8 -2 4 1.81 0.52 0
 8 -2 5 19.35 1.08 0
 8 -2 8 2.59 0.78 0
 8 -2 9 1.31 0.68 0
 8 -2 10 69.29 2.24 0
 8 -2 12 12.85 1.47 0
 8 -2 13 20.58 1.71 0
 8 -2 15 103.38 3.21 0
 8 -2 16 13.28 1.8 0
 8 -2 18 -0.3 1.34 0
 8 0 -6 294.59 1.27 0
 8 0 -2 192.82 1.86 0
 8 0 0 63.54 1.29 0
 8 0 2 430.14 3.61 0
 8 0 8 58.35 1.89 0
 8 0 10 0.94 0.84 0
 8 0 14 1.9 1.28 0
 8 0 16 16.84 1.84 0
 8 0 18 10.11 1.74 0
 8 2 1 2.51 0.52 0
 8 2 2 21.82 0.95 0
 8 2 3 0.5 0.44 0
 8 2 4 2.75 0.62 0
 8 2 5 18.29 1.07 0
 8 2 8 2.28 0.65 0
 8 2 9 1.23 0.66 0
 8 2 10 69.43 2.21 0
 8 2 11 134.27 3.1 0
 8 2 12 12.72 1.39 0
 8 2 13 18.01 1.62 0
 8 2 14 16.76 1.67 0
 8 2 15 103.37 3.19 0
 8 2 16 12.12 1.66 0
 8 2 18 1.72 1.39 0
 8 4 8 1.04 0.64 0
 8 4 9 4.53 0.97 0
 8 4 10 51.83 2.04 0
 8 4 11 0.01 0.97 0
 8 4 12 0.27 0.86 0
 8 4 13 19.96 1.74 0
 8 4 14 9.04 1.52 0
 8 4 15 3.22 1.19 0
 8 4 16 0.43 1.35 0
 8 4 17 32.84 2.3 0
 8 4 18 0.35 1.41 0
 8 6 6 31.55 1.58 0
 8 6 7 16.08 1.24 0
 8 6 8 8.86 1.12 0
 8 6 9 3.01 1 0
 8 6 11 32.53 1.95 0
 8 6 12 19.57 1.75 0
 8 6 14 14.96 1.8 0
 8 6 16 27.18 2.13 0
 8 6 17 7.65 1.66 0
 8 8 7 6.59 1.11 0
 8 8 8 2.31 1.1 0
 8 8 9 -1.03 0.74 0
 8 8 11 14.79 1.71 0
 8 8 12 -0.48 1.01 0
 8 8 13 17.85 1.86 0
 8 8 14 -0.17 1.21 0
 8 8 15 8.91 1.7 0
 8 10 8 0.92 1 0
 8 10 9 46.23 2.32 0
 8 10 11 10.5 1.46 0
 8 10 12 16.66 1.91 0
 8 10 13 7.65 1.68 0
 8 12 8 0.18 1.42 0
 8 12 9 28.53 2.16 0
 8 12 10 5.06 1.58 0
 8 12 11 0.05 1.24 0
 9 -7 5 19.72 1.31 0
 9 -7 6 7.85 1.12 0
 9 -7 9 71.2 2.45 0
 9 -7 10 1.8 0.94 0
 9 -5 3 -0.07 0.51 0
 9 -5 5 0.93 0.66 0
 9 -5 6 52.52 1.82 0
 9 -5 7 0.57 0.63 0
 9 -5 8 10.23 1.24 0
 9 -5 9 0.44 0.78 0
 9 -5 10 52.51 2.22 0
 9 -5 11 1.78 1.15 0
 9 -5 12 2.64 1.11 0
 9 -5 13 10.11 1.43 0
 9 -5 14 95.2 3.2 0
 9 -5 15 38.38 2.32 0
 9 -5 16 31.87 2.23 0
 9 -3 -3 94.42 1.13 0
 9 -3 -2 35.14 0.84 0
 9 -3 -1 0.42 0.35 0
 9 -3 0 0.1 0.34 0
 9 -3 1 17.06 0.87 0
 9 -3 2 0.43 0.47 0
 9 -3 3 42.99 1.38 0
 9 -3 4 37.78 1.4 0
 9 -3 9 28.34 1.63 0
 9 -3 10 3.41 0.89 0
 9 -3 11 59.06 2.34 0
 9 -3 12 3.23 1.14 0
 9 -3 13 12.79 1.55 0
 9 -3 14 42.84 2.29 0
 9 -3 15 52.89 2.57 0
 9 -3 16 33.65 2.31 0
 9 -1 -3 8.21 0.46 0
 9 -1 -2 183.58 1.91 0
 9 -1 -1 11.84 0.64 0
 9 -1 0 75.53 1.5 0
 9 -1 1 0.4 0.46 0
 9 -1 2 33.16 1.15 0
 9 -1 3 39.21 1.31 0
 9 -1 4 78.89 1.88 0
 9 -1 7 48.82 1.74 0
 9 -1 8 10.87 1.1 0
 9 -1 9 1.14 0.7 0
 9 -1 10 30.89 1.7 0
 9 -1 11 29.82 1.76 0
 9 -1 13 -0.44 1.01 0
 9 -1 14 20.69 1.94 0
 9 -1 15 12.15 1.6 0
 9 -1 17 1.76 1.28 0
 9 1 -5 8.8 0.51 0
 9 1 -3 8.77 0.58 0
 9 1 -2 182.04 2.1 0
 9 1 -1 12.16 0.69 0
 9 1 0 73.63 1.53 0
 9 1 1 0.44 0.37 0
 9 1 3 39.15 1.34 0
 9 1 4 76.97 1.88 0
 9 1 7 49.3 1.79 0
 9 1 8 12.52 1.14 0
 9 1 9 0.49 0.69 0
 9 1 10 34.6 1.8 0
 9 1 11 28.54 1.7 0
 9 1 14 20.79 1.83 0
 9 1 15 11.8 1.67 0
 9 1 17 0.43 1.47 0
 9 3 1 17.27 0.96 0
 9 3 2 -0.08 0.49 0
 9 3 7 63.04 2.02 0
 9 3 8 4.07 0.84 0
 9 3 9 27.02 1.59 0
 9 3 10 2.65 0.86 0
 9 3 11 56.71 2.26 0
 9 3 12 2.86 1.02 0
 9 3 14 42.93 2.35 0
 9 3 15 49.44 2.56 0
 9 3 16 31.85 2.28 0
 9 3 17 26 2.18 0
 9 5 6 51.74 1.86 0
 9 5 8 10.22 1.27 0
 9 5 9 0.26 0.73 0
 9 5 10 52.96 2.25 0
 9 5 11 1.28 1.15 0
 9 5 12 2.26 1.09 0
 9 5 13 10.73 1.56 0
 9 5 14 98.15 3.22 0
 9 5 15 39.29 2.38 0
 9 5 16 30.84 2.31 0
 9 7 7 22 1.51 0
 9 7 8 9.79 1.37 0
 9 7 9 70.5 2.5 0
 9 7 10 1.56 1.09 0
 9 7 11 32.15 2.06 0
 9 7 12 4.24 1.37 0
 9 7 14 2.99 1.41 0
 9 7 15 8.43 1.54 0
 9 9 7 23.3 1.78 0
 9 9 8 -0.06 0.99 0
 9 9 9 6.73 1.43 0
 9 9 10 41.04 2.24 0
 9 9 12 2.41 1.33 0
 9 9 14 17.09 2.1 0
 9 11 7 -1.08 1.26 0
 9 11 8 29.49 2.14 0
 9 11 9 45.36 2.47 0
 9 11 10 2.11 1.44 0
 9 11 11 4 1.4 0
 9 13 7 6 1.65 0
 9 13 8 0.05 1.27 0
 10 -6 4 7.09 0.89 0
 10 -6 5 0.82 0.73 0
 10 -6 6 16.03 1.29 0
 10 -6 7 38.76 1.8 0
 10 -6 8 0.02 0.78 0
 10 -6 9 14.2 1.48 0
 10 -6 10 13.04 1.57 0
 10 -6 11 15.07 1.73 0
 10 -6 12 0.57 1.25 0
 10 -6 13 18 1.94 0
 10 -6 14 4.52 1.42 0
 10 -6 15 4.01 1.41 0
 10 -4 -1 13.63 0.7 0
 10 -4 0 19.7 0.88 0
 10 -4 2 138.86 2.4 0
 10 -4 6 9.61 1.11 0
 10 -4 7 12.49 1.19 0
 10 -4 8 9.31 1.23 0
 10 -4 9 1.49 1 0
 10 -4 12 0.82 1.02 0
 10 -4 13 0.58 1.33 0
 10 -4 16 7.19 1.54 0
 10 -2 -4 36.91 0.68 0
 10 -2 -3 5.73 0.43 0
 10 -2 -2 22.24 0.77 0
 10 -2 -1 0.87 0.4 0
 10 -2 0 19.75 0.88 0
 10 -2 1 14.6 0.87 0
 10 -2 2 11.87 0.88 0
 10 -2 3 6.06 0.82 0
 10 -2 7 0.35 0.62 0
 10 -2 8 62.32 2.18 0
 10 -2 9 6.61 1.12 0
 10 -2 10 9.17 1.35 0
 10 -2 11 3.28 1.01 0
 10 -2 12 63.08 2.55 0
 10 -2 13 14.25 1.67 0
 10 -2 14 21.83 1.98 0
 10 -2 15 9.94 1.56 0
 10 -2 17 18.89 2.18 0
 10 0 -4 119.71 1.51 0
 10 0 -2 0.93 0.36 0
 10 0 2 225.23 3 0
 10 0 6 507.29 5.25 0
 10 0 8 523.39 5.77 0
 10 0 10 83.05 2.63 0
 10 0 12 400.64 5.93 0
 10 0 14 3.32 1.22 0
 10 0 16 54.07 2.75 0
 10 2 -3 5.09 0.63 0
 10 2 -2 23.65 0.99 0
 10 2 1 17.15 0.97 0
 10 2 5 2.45 0.66 0
 10 2 6 153.88 3.12 0
 10 2 7 0.79 0.72 0
 10 2 9 7.04 1.21 0
 10 2 10 8.1 1.17 0
 10 2 11 3.02 1.04 0
 10 2 12 59.96 2.57 0
 10 2 13 12.15 1.69 0
 10 2 14 19.6 1.9 0
 10 2 15 8.82 1.53 0
 10 2 16 -0.9 1.16 0
 10 2 17 17.54 2.13 0
 10 4 4 107.39 2.45 0
 10 4 5 17.39 1.23 0
 10 4 7 10.52 1.13 0
 10 4 9 0.36 0.76 0
 10 4 10 29.38 1.83 0
 10 4 11 4.41 1.07 0
 10 4 12 1.38 1.05 0
 10 4 13 0.65 1.07 0
 10 4 14 40.54 2.38 0
 10 4 15 2.15 1.39 0
 10 4 16 7.21 1.76 0
 10 6 4 6.39 1.05 0
 10 6 5 1.09 0.92 0
 10 6 6 15.13 1.39 0
 10 6 7 35.41 1.85 0
 10 6 8 -0.69 0.77 0
 10 6 9 11.23 1.38 0
 10 6 12 1.38 1.15 0
 10 6 13 22.3 1.96 0
 10 6 14 5.49 1.6 0
 10 6 15 3.11 1.43 0
 10 8 5 15.35 1.57 0
 10 8 6 25.5 1.83 0
 10 8 7 229.55 4.45 0
 10 8 8 -0.08 0.92 0
 10 8 9 21.32 1.81 0
 10 8 10 7.55 1.6 0
 10 8 11 95.93 3.27 0
 10 8 12 1.48 1.25 0
 10 8 13 51.91 2.73 0
 10 8 14 4.57 1.38 0
 10 10 6 20.01 1.95 0
 10 10 7 77.51 2.97 0
 10 10 8 10.62 1.7 0
 10 10 9 -0.25 1.11 0
 10 10 11 28.94 2.33 0
 10 10 12 -0.06 1.23 0
 10 12 6 1.64 1.31 0
 10 12 7 1.21 1.34 0
 10 12 8 3.92 1.41 0
 11 -7 5 73.74 2.25 0
 11 -7 6 0.83 0.8 0
 11 -7 7 44.67 2.02 0
 11 -7 8 1.34 1.12 0
 11 -7 10 0.04 1 0
 11 -7 12 1.05 1.19 0
 11 -5 0 48.11 1.31 0
 11 -5 1 18.12 1.02 0
 11 -5 3 76.92 2 0
 11 -5 4 49.9 1.77 0
 11 -5 6 0.1 0.7 0
 11 -5 7 27.05 1.63 0
 11 -5 8 8.77 1.33 0
 11 -5 9 52.64 2.27 0
 11 -5 10 2.39 1.13 0
 11 -5 11 7.68 1.42 0
 11 -5 12 3.7 1.27 0
 11 -5 14 53.59 2.72 0
 11 -5 15 6.53 1.58 0
 11 -3 -2 96.25 1.56 0
 11 -3 -1 55.39 1.29 0
 11 -3 0 220.49 2.71 0
 11 -3 1 39.89 1.34 0
 11 -3 2 6.84 0.84 0
 11 -3 5 2.63 0.8 0
 11 -3 6 1.01 0.76 0
 11 -3 9 0.26 1.04 0
 11 -3 10 0.33 0.92 0
 11 -3 11 1.44 1.17 0
 11 -3 12 41.24 2.3 0
 11 -3 13 2.45 1.51 0
 11 -3 15 29.3 2.33 0
 11 -1 -4 53.82 1.06 0
 11 -1 -3 45.81 1.03 0
 11 -1 -2 29.02 0.95 0
 11 -1 -1 2.79 0.51 0
 11 -1 0 1.15 0.48 0
 11 -1 2 177.84 2.82 0
 11 -1 5 12.8 1.16 0
 11 -1 6 120.65 2.75 0
 11 -1 7 2.75 0.82 0
 11 -1 8 25.67 1.64 0
 11 -1 9 3.64 1.17 0
 11 -1 10 9.01 1.32 0
 11 -1 11 10.87 1.47 0
 11 -1 12 3.52 1.2 0
 11 -1 13 1.04 1.23 0
 11 -1 14 19.7 2.1 0
 11 -1 15 24.56 2.21 0
 11 -1 16 0.02 1.24 0
 11 1 -5 31.33 0.87 0
 11 1 -3 43.49 1.16 0
 11 1 -2 29.44 1.04 0
 11 1 -1 1.96 0.56 0
 11 1 0 1.14 0.51 0
 11 1 1 35.9 1.35 0
 11 1 4 12.5 1.11 0
 11 1 5 12.84 1.18 0
 11 1 7 1.61 0.81 0
 11 1 8 27.03 1.63 0
 11 1 9 3.26 0.96 0
 11 1 11 8.89 1.35 0
 11 1 12 2.79 1.22 0
 11 1 13 1.23 1.24 0
 11 1 14 20.61 2.06 0
 11 1 15 22.18 2.12 0
 11 1 16 0.1 1.54 0
 11 3 -2 95.46 2.01 0
 11 3 -1 57.97 1.62 0
 11 3 3 76.31 2.06 0
 11 3 4 121.14 2.65 0
 11 3 5 2.78 0.81 0
 11 3 6 0.62 0.78 0
 11 3 7 24.98 1.57 0
 11 3 9 1.13 0.89 0
 11 3 10 0.22 0.91 0
 11 3 12 40.38 2.37 0
 11 3 13 0.59 1.15 0
 11 3 14 16.57 1.95 0
 11 3 15 31.75 2.38 0
 11 3 16 1.11 1.32 0
 11 5 2 39.49 1.69 0
 11 5 3 81.87 2.32 0
 11 5 4 51.54 1.98 0
 11 5 5 53.15 2.04 0
 11 5 6 0.13 0.73 0
 11 5 7 26.17 1.68 0
 11 5 8 9.39 1.26 0
 11 5 9 52.75 2.37 0
 11 5 10 3.48 1.26 0
 11 5 12 6.21 1.51 0
 11 5 13 63.12 2.87 0
 11 5 14 48.52 2.63 0
 11 5 15 5.05 1.42 0
 11 7 4 -0.82 0.77 0
 11 7 5 72.06 2.49 0
 11 7 6 -0.03 0.81 0
 11 7 8 1.22 1 0
 11 7 9 41.29 2.24 0
 11 7 10 1.52 1.12 0
 11 7 11 4.68 1.42 0
 11 7 12 0.18 1.42 0
 11 7 13 73.57 3.1 0
 11 9 5 13.94 1.63 0
 11 9 6 0.28 1.02 0
 11 9 7 22.91 1.89 0
 11 9 8 1.71 1.12 0
 11 9 9 -0.11 1.03 0
 11 9 10 10.87 1.58 0
 11 9 11 -0.45 1.33 0
 11 9 12 4.19 1.72 0
 11 11 5 0.65 1.31 0
 11 11 6 8.15 1.74 0
 11 11 7 0.19 1.46 0
 11 11 8 17.06 2.08 0
 11 11 9 11.94 1.96 0
 12 -6 2 0.37 0.63 0
 12 -6 3 6.28 0.92 0
 12 -6 4 3.2 0.85 0
 12 -6 5 2.2 0.85 0
 12 -6 6 -0.21 0.92 0
 12 -6 7 25.39 1.73 0
 12 -6 8 -0.64 1.08 0
 12 -6 9 4.74 1.31 0
 12 -6 10 10.18 1.5 0
 12 -6 11 40.28 2.3 0
 12 -6 12 0.2 1.14 0
 12 -4 0 0.63 0.49 0
 12 -4 3 59.3 1.84 0
 12 -4 4 14.7 1.25 0
 12 -4 5 41.78 1.78 0
 12 -4 6 32.3 1.73 0
 12 -4 7 71.92 2.4 0
 12 -4 8 0.12 1.01 0
 12 -4 9 2.43 1.25 0
 12 -4 11 18.03 1.89 0
 12 -4 12 3.15 1.29 0
 12 -4 13 4.41 1.54 0
 12 -4 14 29.93 2.31 0
 12 -2 -2 -0.02 0.4 0
 12 -2 -1 18.28 0.9 0
 12 -2 0 1.3 0.53 0
 12 -2 3 17.39 1.19 0
 12 -2 4 35.18 1.58 0
 12 -2 5 18.5 1.38 0
 12 -2 6 144.46 3.11 0
 12 -2 7 10.68 1.3 0
 12 -2 9 0.57 1.11 0
 12 -2 11 -1.32 1.24 0
 12 -2 12 91.16 3.14 0
 12 -2 13 7.18 1.41 0
 12 -2 14 1.04 1.2 0
 12 -2 15 13.21 1.81 0
 12 0 -4 2.51 0.44 0
 12 0 0 19.27 1.07 0
 12 0 4 58.01 1.91 0
 12 0 6 116.33 2.84 0
 12 0 8 35.51 1.9 0
 12 0 10 124.33 3.36 0
 12 0 12 251.56 5.06 0
 12 0 14 1.86 1.51 0
 12 2 -5 2.42 0.48 0
 12 2 -4 6.3 0.67 0
 12 2 -3 136.68 2.24 0
 12 2 -2 -0.21 0.43 0
 12 2 -1 17.92 1.12 0
 12 2 2 3.19 0.71 0
 12 2 3 17.37 1.25 0
 12 2 4 38.24 1.71 0
 12 2 6 142.29 3.17 0
 12 2 8 9.34 1.42 0
 12 2 9 0.92 1.03 0
 12 2 10 102.47 3.14 0
 12 2 12 87.62 3.13 0
 12 2 13 6.3 1.74 0
 12 2 14 -0.46 1.17 0
 12 4 -1 79.8 2.07 0
 12 4 0 1.43 0.65 0
 12 4 1 57.29 1.88 0
 12 4 2 7.82 1.11 0
 12 4 4 14.16 1.31 0
 12 4 5 43.6 2 0
 12 4 6 30.7 1.77 0
 12 4 8 -0.32 0.89 0
 12 4 9 2.3 1.1 0
 12 4 10 1.41 1.34 0
 12 4 11 19.32 1.89 0
 12 4 12 2.75 1.25 0
 12 4 13 4.63 1.53 0
 12 6 1 7.64 1.09 0
 12 6 2 -0.36 0.77 0
 12 6 3 5.72 1.07 0
 12 6 4 2.53 0.96 0
 12 6 5 2.79 1.11 0
 12 6 6 -0.26 0.82 0
 12 6 7 27.01 1.89 0
 12 6 8 0.07 1.24 0
 12 6 9 2.89 1.43 0
 12 6 10 7.85 1.54 0
 12 6 11 39.75 2.42 0
 12 6 12 1.66 1.27 0
 12 6 13 40.97 2.54 0
 12 8 3 38.3 2.07 0
 12 8 4 -0.19 1.06 0
 12 8 6 21.61 1.81 0
 12 8 7 27.67 2.03 0
 12 8 8 5.05 1.43 0
 12 8 9 0.44 1.43 0
 12 8 10 11.43 1.87 0
 12 8 12 9.49 1.85 0
 12 10 4 -0.02 1.39 0
 12 10 5 124.91 3.63 0
 12 10 6 1.55 1.25 0
 12 10 7 52.84 2.71 0
 12 10 8 0.66 1.54 0
 12 10 9 42.13 2.67 0
 12 12 4 3.55 1.42 0
 12 12 5 26.34 2.41 0
 13 -7 7 6.6 1.31 0
 13 -7 8 7.11 1.44 0
 13 -7 9 10.43 1.61 0
 13 -7 10 11.78 1.56 0
 13 -7 11 17.47 1.98 0
 13 -5 1 6.84 0.84 0
 13 -5 2 36.6 1.5 0
 13 -5 3 61.31 1.94 0
 13 -5 4 52.79 1.94 0
 13 -5 5 52.54 2.06 0
 13 -5 6 9.49 1.33 0
 13 -5 7 8.49 1.38 0
 13 -5 8 15.12 1.62 0
 13 -5 10 27.88 2.06 0
 13 -5 11 5.72 1.34 0
 13 -5 12 23.63 2.1 0
 13 -5 13 24.91 2.29 0
 13 -3 -1 -0.03 0.48 0
 13 -3 2 10.44 1.05 0
 13 -3 4 245.21 3.92 0
 13 -3 5 -0.9 0.88 0
 13 -3 6 16.26 1.5 0
 13 -3 7 23.94 1.74 0
 13 -3 8 62.3 2.48 0
 13 -3 9 2.28 1.3 0
 13 -3 10 3 1.39 0
 13 -3 11 38.13 2.3 0
 13 -3 12 32.8 2.34 0
 13 -3 13 0.72 1.29 0
 13 -3 14 0.59 1.42 0
 13 -1 -2 214.97 2.64 0
 13 -1 -1 1.38 0.57 0
 13 -1 2 20.65 1.28 0
 13 -1 3 0.51 0.71 0
 13 -1 6 66.75 2.33 0
 13 -1 7 3.24 1 0
 13 -1 8 5.08 1.31 0
 13 -1 10 34.24 2.21 0
 13 -1 11 3.63 1.44 0
 13 -1 13 7.43 1.53 0
 13 -1 14 6.16 1.63 0
 13 1 -3 1.4 0.55 0
 13 1 -2 215.18 2.92 0
 13 1 1 12.55 1.09 0
 13 1 2 18.19 1.27 0
 13 1 3 0.4 0.66 0
 13 1 4 46.95 1.91 0
 13 1 5 17.93 1.44 0
 13 1 6 63.83 2.3 0
 13 1 7 1.87 1.13 0
 13 1 8 5.44 1.36 0
 13 1 9 19.01 1.85 0
 13 1 11 4.52 1.52 0
 13 1 12 19.62 1.98 0
 13 1 13 6.68 1.49 0
 13 3 -1 0.27 0.68 0
 13 3 1 0.17 0.81 0
 13 3 2 10.51 1.19 0
 13 3 3 16.41 1.36 0
 13 3 4 242.39 4.23 0
 13 3 5 -0.24 0.78 0
 13 3 7 25.95 1.88 0
 13 3 8 57.84 2.48 0
 13 3 9 0.39 1.02 0
 13 3 10 3 1.42 0
 13 3 12 36.33 2.44 0
 13 3 13 1.37 1.28 0
 13 3 14 0.06 1.6 0
 13 5 -2 28.02 1.5 0
 13 5 -1 51.92 1.91 0
 13 5 0 24.13 1.51 0
 13 5 1 5.66 1.05 0
 13 5 2 36.64 1.81 0
 13 5 3 58.7 2.22 0
 13 5 4 49.38 2.1 0
 13 5 5 52.05 2.23 0
 13 5 6 8.98 1.51 0
 13 5 7 8.39 1.34 0
 13 5 8 15.36 1.84 0
 13 5 9 29.15 2.12 0
 13 5 10 26.22 2.13 0
 13 5 11 5.1 1.6 0
 13 5 12 23.12 2.2 0
 13 5 13 23.2 2.28 0
 13 7 1 4.96 1.07 0
 13 7 2 1.19 0.9 0
 13 7 3 49.58 2.28 0
 13 7 4 3.12 1.16 0
 13 7 5 36.67 2.11 0
 13 7 6 0.88 1.13 0
 13 7 7 7.03 1.54 0
 13 7 9 9.33 1.69 0
 13 7 10 12.37 1.97 0
 13 7 11 22.03 2.23 0
 13 9 2 10.15 1.44 0
 13 9 3 24.07 2.03 0
 13 9 4 8.59 1.62 0
 13 9 5 73.32 2.89 0
 13 9 6 16.65 1.93 0
 13 9 8 18.11 2.09 0
 13 11 3 29.9 2.3 0
 13 11 4 5.7 1.55 0
 13 11 5 43.03 2.59 0
 14 -6 3 17.53 1.3 0
 14 -6 4 25.27 1.56 0
 14 -6 5 1.15 0.89 0
 14 -6 6 37.46 1.95 0
 14 -6 7 3.13 1.11 0
 14 -6 8 6.11 1.28 0
 14 -6 9 -1.04 1.23 0
 14 -6 10 28.79 2.12 0
 14 -6 11 2.44 1.41 0
 14 -4 1 26.49 1.28 0
 14 -4 2 8.92 1.05 0
 14 -4 3 25.65 1.48 0
 14 -4 4 -0.02 0.9 0
 14 -4 5 37.28 1.89 0
 14 -4 7 70.4 2.58 0
 14 -4 8 -0.13 1.01 0
 14 -4 12 16.67 2.03 0
 14 -2 2 -0.93 0.64 0
 14 -2 4 3.01 0.89 0
 14 -2 6 3.61 1.04 0
 14 -2 7 36.61 2.05 0
 14 -2 8 1 1.02 0
 14 -2 10 22.64 2.05 0
 14 -2 12 12.35 1.95 0
 14 -2 13 -0.29 1.31 0
 14 0 0 45.22 1.59 0
 14 0 2 5.75 0.89 0
 14 0 4 78.67 2.41 0
 14 0 6 1.21 0.97 0
 14 0 8 47.35 2.34 0
 14 0 10 7.9 1.43 0
 14 0 12 0.35 1.23 0
 14 2 -2 12.91 1.07 0
 14 2 -1 1.39 0.75 0
 14 2 0 0.11 0.74 0
 14 2 2 -1.44 0.82 0
 14 2 3 8.6 1.12 0
 14 2 4 3.19 1.13 0
 14 2 5 116.3 3.03 0
 14 2 6 2.11 1.05 0
 14 2 7 35.94 2.11 0
 14 2 8 0.75 1.29 0
 14 2 9 43.41 2.41 0
 14 2 10 22.35 2.07 0
 14 2 11 26.67 2.2 0
 14 2 12 9.93 1.66 0
 14 2 13 1.39 1.66 0
 14 4 -4 0.17 0.6 0
 14 4 -3 12.01 1.11 0
 14 4 -2 9.8 1.09 0
 14 4 -1 2.77 0.78 0
 14 4 1 29.58 1.66 0
 14 4 3 24.2 1.7 0
 14 4 4 1.05 1.08 0
 14 4 5 34.13 2.06 0
 14 4 6 31.9 2.08 0
 14 4 7 68.35 2.75 0
 14 4 8 -0.49 1.04 0
 14 4 10 30.88 2.31 0
 14 4 11 66.95 2.97 0
 14 4 12 15.64 2.1 0
 14 6 -3 11.35 1.35 0
 14 6 -2 7.4 1.13 0
 14 6 0 22.2 1.62 0
 14 6 1 0.75 0.96 0
 14 6 2 13.82 1.5 0
 14 6 3 18.89 1.7 0
 14 6 4 25.52 1.94 0
 14 6 5 1.36 1.28 0
 14 6 6 38.89 2.26 0
 14 6 7 2.03 1.23 0
 14 6 8 4.41 1.49 0
 14 6 9 -0.01 1.2 0
 14 6 11 0.93 1.53 0
 14 8 -1 8.64 1.36 0
 14 8 0 1.05 1.02 0
 14 8 1 1.59 1.04 0
 14 8 2 -0.99 0.93 0
 14 8 3 42.02 2.28 0
 14 8 4 -0.27 1.15 0
 14 8 5 3.04 1.47 0
 14 8 6 2.54 1.21 0
 14 8 7 23.93 2.2 0
 14 8 8 -0.13 1.19 0
 14 8 9 5.68 1.8 0
 14 10 1 -0.4 1.27 0
 14 10 3 0.6 1.19 0
 14 10 4 1.39 1.26 0
 14 10 5 4.87 1.57 0
 14 10 6 28.76 2.33 0
 15 -5 3 19.23 1.4 0
 15 -5 4 49.72 1.98 0
 15 -5 5 12.07 1.45 0
 15 -5 7 0.32 1.03 0
 15 -5 9 0.98 1.17 0
 15 -5 10 -0.49 1.34 0
 15 -3 1 19.47 1.29 0
 15 -3 2 15.67 1.25 0
 15 -3 3 3.11 1.01 0
 15 -3 4 36.55 1.84 0
 15 -3 5 22.57 1.68 0
 15 -3 6 11.38 1.46 0
 15 -3 8 2.93 1.35 0
 15 -3 9 -0.94 1.17 0
 15 -3 11 2.44 1.54 0
 15 -1 0 4.81 0.87 0
 15 -1 1 5.67 0.97 0
 15 -1 3 -0.73 0.75 0
 15 -1 4 30.31 1.78 0
 15 -1 5 1.96 0.99 0
 15 -1 6 6.53 1.19 0
 15 -1 7 0.77 1.06 0
 15 -1 8 -0.69 0.97 0
 15 -1 9 0.64 1.33 0
 15 -1 10 1.13 1.21 0
 15 -1 11 2.4 1.54 0
 15 -1 12 18.33 2.12 0
 15 1 -1 -0.26 0.67 0
 15 1 0 3.69 0.9 0
 15 1 1 6.31 1.07 0
 15 1 4 29.61 1.81 0
 15 1 6 4.68 1.32 0
 15 1 7 0.59 1 0
 15 1 9 0.11 1.31 0
 15 1 10 0.14 1.28 0
 15 1 11 0.39 1.26 0
 15 1 12 19.98 2.23 0
 15 3 -2 17.04 1.27 0
 15 3 -1 2.36 0.85 0
 15 3 1 17.57 1.48 0
 15 3 2 12.72 1.42 0
 15 3 3 2.22 1.06 0
 15 3 5 21.26 1.78 0
 15 3 7 15.88 1.98 0
 15 3 8 4.59 1.57 0
 15 3 9 1.08 1.49 0
 15 3 10 10.49 1.83 0
 15 3 11 0.96 1.32 0
 15 5 -3 24.09 1.45 0
 15 5 -2 0.53 0.85 0
 15 5 -1 8.94 1.24 0
 15 5 0 20.85 1.57 0
 15 5 1 2.1 0.99 0
 15 5 2 -0.02 0.92 0
 15 5 3 18.72 1.74 0
 15 5 4 52.74 2.41 0
 15 5 6 10.42 1.68 0
 15 5 7 0.54 1.43 0
 15 5 9 1.08 1.22 0
 15 5 10 1.17 1.46 0
 15 7 -4 1.16 0.93 0
 15 7 -3 97.89 2.77 0
 15 7 -2 2.02 1.1 0
 15 7 0 -0.08 0.94 0
 15 7 1 54.66 2.37 0
 15 7 2 2.63 1.37 0
 15 7 3 161.92 3.86 0
 15 7 4 -0.75 1.29 0
 15 7 6 10.54 1.66 0
 15 7 7 22.71 2.19 0
 15 7 8 7.15 1.73 0
 15 9 -3 59.04 2.49 0
 15 9 -2 1.09 1.17 0
 15 9 -1 4.38 1.32 0
 15 9 0 16.58 1.84 0
 15 9 1 29.98 2.19 0
 15 9 2 0.3 1.31 0
 15 9 3 43.81 2.48 0
 15 9 4 7.67 1.66 0
 15 9 5 3.25 1.65 0
 16 -6 8 9.39 1.44 0
 16 -4 5 4.28 1.13 0
 16 -4 6 12.49 1.56 0
 16 -4 7 3.23 1.26 0
 16 -4 8 0.48 1.1 0
 16 -4 9 -0.16 1.23 0
 16 -2 2 1.51 0.92 0
 16 -2 3 -0.24 0.82 0
 16 -2 4 3.07 1.12 0
 16 -2 7 0.99 1.07 0
 16 -2 8 1.8 1.33 0
 16 -2 9 29.43 2.15 0
 16 -2 10 5.78 1.45 0
 16 0 2 61.56 2.18 0
 16 0 4 3.09 1.05 0
 16 0 6 0.5 1.24 0
 16 0 8 18.3 1.93 0
 16 0 10 1.37 1.23 0
 16 2 0 1.35 0.87 0
 16 2 1 0.7 0.86 0
 16 2 2 0.27 1.01 0
 16 2 4 3.31 1.25 0
 16 2 5 9.41 1.42 0
 16 2 6 8.82 1.48 0
 16 2 7 3.19 1.28 0
 16 2 8 1.34 1.42 0
 16 2 9 32.39 2.31 0
 16 4 -1 7.54 1.12 0
 16 4 0 8.63 1.21 0
 16 4 1 7.56 1.2 0
 16 4 2 9.79 1.31 0
 16 4 3 4.93 1.34 0
 16 4 4 9.4 1.39 0
 16 4 6 10.23 1.61 0
 16 4 7 2.92 1.27 0
 16 4 8 -0.05 1.18 0
 16 4 9 -0.13 1.27 0
 16 6 -2 0.27 0.93 0
 16 6 -1 -0.18 0.97 0
 16 6 0 0.67 0.95 0
 16 6 1 1.49 1.14 0
 16 6 2 1.86 1.16 0
 16 6 3 -1.11 1.21 0
 16 6 4 0.51 1.11 0
 16 6 5 3.26 1.29 0
 16 6 6 0.7 1.2 0
 16 6 7 11.83 1.73 0
 16 8 -2 0.52 1.02 0
 16 8 -1 0.95 1.04 0
 16 8 0 1.47 1.21 0
 16 8 2 2.01 1.42 0
 16 8 3 1.12 1.32 0
 16 8 4 2.42 1.36 0
 16 8 5 -0.33 1.28 0
 17 -5 7 0.71 1.05 0
 17 -3 5 13.34 1.57 0
 17 -3 6 1.76 1.21 0
 17 -3 7 22.06 1.95 0
 17 -3 8 2.93 1.35 0
 17 -1 3 -0.14 0.87 0
 17 -1 4 0.26 0.95 0
 17 -1 5 14.62 1.63 0
 17 -1 6 0.36 1.05 0
 17 -1 7 3.43 1.39 0
 17 -1 9 8.56 1.68 0
 17 1 2 3.19 1.03 0
 17 1 3 -0.24 1.06 0
 17 1 4 0.8 1.06 0
 17 1 6 0.85 1.09 0
 17 1 7 4.7 1.46 0
 17 1 8 2.01 1.43 0
 17 3 1 0.34 0.91 0
 17 3 3 1.69 1.12 0
 17 3 4 1 1.07 0
 17 3 6 -0.34 1.3 0
 17 3 8 3.23 1.41 0
 17 5 0 0.13 1.06 0
 17 5 1 10.71 1.54 0
 17 5 2 0.6 1.23 0
 17 5 3 4.66 1.28 0
 17 5 4 11.39 1.67 0
 17 5 5 0.94 1.19 0
 17 5 6 19.05 2.06 0
 17 7 0 -0.13 1.04 0
 17 7 1 0.8 1.07 0
 17 7 2 -0.08 1.21 0
 17 7 3 21.74 2.1 0
 17 7 4 6.99 1.72 0
 18 -2 6 6.83 1.41 0
 18 0 6 5.55 1.34 0
 18 2 3 -0.31 1.13 0
 18 2 4 7.73 1.42 0
 18 2 5 24.95 2.02 0
 18 2 6 6.66 1.46 0
 18 4 2 3.98 1.15 0
 18 4 3 -1.3 0.98 0
 18 4 4 35.63 2.28 0
 18 4 5 35.63 2.36 0
 18 6 2 0.75 1.17 0
 -19 -3 0 -0 1.34 0
 -19 -3 1 4.65 1.47 0
 -19 -3 2 -0.98 1.41 0
 -19 -3 3 2.22 1.5 0
 -19 -3 4 3.11 1.59 0
 -19 -1 -2 53.15 2.91 0
 -19 -1 -1 -0.51 1.3 0
 -19 -1 0 3.43 1.38 0
 -19 -1 1 4.7 1.66 0
 -19 -1 2 61.13 2.94 0
 -19 -1 3 -1.38 1.19 0
 -19 -1 4 41.01 2.49 0
 -19 -1 5 4.59 1.5 0
 -19 -1 6 0.33 1.17 0
 -19 1 -2 53.57 2.9 0
 -19 1 -1 0.89 1.38 0
 -19 1 0 6.45 1.53 0
 -19 1 1 5.25 1.7 0
 -19 1 2 57.66 2.87 0
 -19 1 4 33.74 2.35 0
 -19 1 5 2.53 1.5 0
 -19 1 6 0.41 1.21 0
 -19 3 0 0.47 1.54 0
 -19 3 1 6.31 1.57 0
 -19 3 2 0.17 1.31 0
 -19 3 3 1.78 1.47 0
 -18 -6 1 7.07 1.7 0
 -18 -6 2 -1.26 1.49 0
 -18 -6 3 2.54 1.56 0
 -18 -6 4 0.53 1.43 0
 -18 -4 -4 35.92 2.56 0
 -18 -4 -2 4.09 1.45 0
 -18 -4 -1 4.02 1.53 0
 -18 -4 0 6.94 1.59 0
 -18 -4 1 -0.28 1.16 0
 -18 -4 3 0.17 1.38 0
 -18 -4 4 2.81 1.48 0
 -18 -4 6 6.45 1.55 0
 -18 -4 7 0.35 1.25 0
 -18 -2 -6 5.17 1.62 0
 -18 -2 -5 25.74 2.34 0
 -18 -2 -4 7.29 1.52 0
 -18 -2 -2 6.4 1.53 0
 -18 -2 -1 7.54 1.61 0
 -18 -2 1 -0.13 1.24 0
 -18 -2 2 0.74 1.25 0
 -18 -2 3 -0.73 1.31 0
 -18 -2 4 17.15 1.96 0
 -18 -2 5 0.24 1.13 0
 -18 -2 6 17.66 1.9 0
 -18 -2 7 -0.92 0.97 0
 -18 -2 8 -0.03 1.17 0
 -18 0 -6 5.77 1.74 0
 -18 0 -2 59.35 2.89 0
 -18 0 0 2.1 1.26 0
 -18 0 2 11.44 1.63 0
 -18 0 4 8.34 1.47 0
 -18 0 6 20.27 1.93 0
 -18 0 8 16.58 1.78 0
 -18 2 -4 9.3 1.82 0
 -18 2 -3 0.93 1.29 0
 -18 2 -2 6.91 1.79 0
 -18 2 -1 10.1 1.85 0
 -18 2 0 2.21 1.46 0
 -18 2 1 -0.14 1.14 0
 -18 2 2 0.26 1.25 0
 -18 2 3 2.06 1.41 0
 -18 2 4 18.2 1.93 0
 -18 2 5 0.41 1.32 0
 -18 2 6 18.96 1.89 0
 -18 2 7 -0.12 1.16 0
 -18 2 8 0.13 1 0
 -18 4 -4 37.91 2.61 0
 -18 4 -3 0.54 1.29 0
 -18 4 -2 3.89 1.55 0
 -18 4 -1 7.36 1.66 0
 -18 4 0 6.29 1.47 0
 -18 4 1 -0.04 1.39 0
 -18 4 3 0.94 1.16 0
 -18 4 4 2.63 1.35 0
 -18 4 5 6.15 1.48 0
 -18 4 6 8.73 1.65 0
 -18 4 7 2.54 1.33 0
 -18 4 8 -0.97 0.99 0
 -18 6 0 18.86 2.22 0
 -18 6 1 7.94 1.58 0
 -18 6 2 0.71 1.48 0
 -18 6 3 0.92 1.51 0
 -18 6 4 0.4 1.23 0
 -17 -7 6 0.03 1.39 0
 -17 -5 -6 18.08 2.18 0
 -17 -5 -4 18.72 2.16 0
 -17 -5 -3 5.98 1.77 0
 -17 -5 -2 1.85 1.33 0
 -17 -5 -1 9.75 1.65 0
 -17 -5 0 -0.01 1.22 0
 -17 -5 1 2.19 1.29 0
 -17 -5 2 1.29 1.48 0
 -17 -5 3 22.69 2.16 0
 -17 -5 4 1.57 1.37 0
 -17 -5 5 1.06 1.22 0
 -17 -5 6 6.74 1.51 0
 -17 -5 7 26.52 2.02 0
 -17 -3 -7 25.44 2.2 0
 -17 -3 -6 1.54 1.33 0
 -17 -3 -5 11.7 1.83 0
 -17 -3 -4 1.4 1.28 0
 -17 -3 -3 1.89 1.25 0
 -17 -3 -2 9.19 1.59 0
 -17 -3 -1 -0.55 1.38 0
 -17 -3 0 24.59 2.17 0
 -17 -3 1 0.17 1.11 0
 -17 -3 3 9.98 1.67 0
 -17 -3 4 22.53 2.04 0
 -17 -3 5 2.43 1.16 0
 -17 -3 6 5.46 1.4 0
 -17 -3 7 27.74 1.97 0
 -17 -3 8 13.56 1.63 0
 -17 -1 -9 5.99 1.47 0
 -17 -1 -8 3.17 1.43 0
 -17 -1 -7 3.6 1.38 0
 -17 -1 -6 1.01 1.46 0
 -17 -1 -4 -1.03 1.36 0
 -17 -1 -3 0.9 1.15 0
 -17 -1 -2 5.68 1.56 0
 -17 -1 -1 6.04 1.61 0
 -17 -1 1 -0.27 1.06 0
 -17 -1 2 9.48 1.65 0
 -17 -1 3 1.13 1.39 0
 -17 -1 4 2.89 1.31 0
 -17 -1 5 0.29 1.11 0
 -17 -1 6 13.27 1.57 0
 -17 -1 7 -0.17 1 0
 -17 1 -9 7.49 1.6 0
 -17 1 -8 2.51 1.26 0
 -17 1 -7 4.25 1.54 0
 -17 1 -6 2.3 1.26 0
 -17 1 -5 14.36 1.73 0
 -17 1 -4 -0.36 1.21 0
 -17 1 -3 -0.45 1.19 0
 -17 1 -2 3.97 1.48 0
 -17 1 -1 4.14 1.42 0
 -17 1 0 5.55 1.59 0
 -17 1 1 -0.09 1.03 0
 -17 1 3 -0.27 1.29 0
 -17 1 4 1.95 1.15 0
 -17 1 5 0.69 1.16 0
 -17 1 7 -1.68 1.02 0
 -17 1 8 13.33 1.61 0
 -17 3 -8 3.57 1.3 0
 -17 3 -7 23.5 2.18 0
 -17 3 -6 -0.72 1.23 0
 -17 3 -5 12.24 1.8 0
 -17 3 -3 1.92 1.21 0
 -17 3 -1 -0.08 1.14 0
 -17 3 0 23.43 2.02 0
 -17 3 2 4.26 1.32 0
 -17 3 4 20.31 1.99 0
 -17 3 5 2.91 1.21 0
 -17 3 6 7.05 1.4 0
 -17 3 7 26.7 1.98 0
 -17 3 8 14.93 1.64 0
 -17 5 -6 17.49 2.06 0
 -17 5 -5 0.09 1.2 0
 -17 5 -4 18.35 2.08 0
 -17 5 -2 2.52 1.59 0
 -17 5 0 0.17 1.15 0
 -17 5 1 0.51 1.26 0
 -17 5 2 1.75 1.17 0
 -17 5 3 23.02 2.04 0
 -17 5 4 4.3 1.38 0
 -17 5 5 0.07 1.16 0
 -17 5 6 6.6 1.52 0
 -17 5 7 28.7 2.02 0
 -17 5 8 8 1.38 0
 -17 7 -3 20.8 2.19 0
 -17 7 -2 -0.63 1.47 0
 -17 7 0 -1.34 1.25 0
 -17 7 1 4.03 1.43 0
 -17 7 2 -0.88 1.13 0
 -17 7 3 1.66 1.25 0
 -17 7 4 -0.66 1.13 0
 -17 7 6 -0.07 1.3 0
 -16 -6 -8 5.36 1.7 0
 -16 -6 8 6.73 1.37 0
 -16 -4 -9 0.31 1.32 0
 -16 -4 -8 -0.93 1.19 0
 -16 -4 -7 3.54 1.36 0
 -16 -4 -6 8.93 1.64 0
 -16 -4 -5 3.64 1.58 0
 -16 -4 -4 7.35 1.63 0
 -16 -4 -3 4.17 1.31 0
 -16 -4 -2 7.94 1.69 0
 -16 -4 -1 8.74 1.61 0
 -16 -4 0 8.8 1.61 0
 -16 -4 1 7.34 1.53 0
 -16 -4 2 6.68 1.4 0
 -16 -4 3 8.08 1.36 0
 -16 -4 4 0.89 1.09 0
 -16 -4 5 32.41 2.15 0
 -16 -4 6 62.52 2.6 0
 -16 -4 7 33.95 2.05 0
 -16 -4 8 4.34 1.09 0
 -16 -2 -10 5.54 1.48 0
 -16 -2 -9 28.79 2.16 0
 -16 -2 -8 -0.92 1.18 0
 -16 -2 -7 1.11 1.36 0
 -16 -2 -6 8.37 1.52 0
 -16 -2 -5 11.71 1.62 0
 -16 -2 -4 1.12 1.22 0
 -16 -2 -3 1.46 1.3 0
 -16 -2 -2 -0.69 1.08 0
 -16 -2 -1 0.12 1.01 0
 -16 -2 0 2.53 1.15 0
 -16 -2 1 1.09 1.33 0
 -16 -2 2 7.34 1.35 0
 -16 -2 3 -1.29 0.91 0
 -16 -2 4 72.61 2.75 0
 -16 -2 5 4.01 1.24 0
 -16 -2 6 22.65 1.84 0
 -16 -2 7 6.07 1.29 0
 -16 -2 8 17.34 1.63 0
 -16 -2 9 1.43 1.11 0
 -16 0 -10 0.39 1.14 0
 -16 0 -8 20.74 2.01 0
 -16 0 -6 0.36 1.1 0
 -16 0 -4 2.33 1.11 0
 -16 0 -2 60.13 2.63 0
 -16 0 2 128.22 3.53 0
 -16 0 6 0.99 0.96 0
 -16 0 8 78.37 2.63 0
 -16 2 -10 4.31 1.22 0
 -16 2 -8 1.89 1.21 0
 -16 2 -7 1.67 1.42 0
 -16 2 -5 8.84 1.61 0
 -16 2 -4 1.54 1.39 0
 -16 2 -3 0.45 1.05 0
 -16 2 -2 0.54 1.21 0
 -16 2 -1 1.36 1.26 0
 -16 2 0 3.06 1.18 0
 -16 2 1 2.63 1.28 0
 -16 2 2 8.67 1.35 0
 -16 2 3 -0.08 0.97 0
 -16 2 5 5.12 1.19 0
 -16 2 6 23.75 1.8 0
 -16 2 7 5.55 1.16 0
 -16 2 8 17.47 1.61 0
 -16 2 9 0.38 0.9 0
 -16 4 -9 -0.96 1.26 0
 -16 4 -7 2.25 1.37 0
 -16 4 -6 10.72 1.61 0
 -16 4 -5 2.51 1.24 0
 -16 4 -4 9.48 1.71 0
 -16 4 -3 4.15 1.26 0
 -16 4 -2 9.05 1.53 0
 -16 4 -1 7.14 1.43 0
 -16 4 0 8.74 1.43 0
 -16 4 2 7.99 1.42 0
 -16 4 3 9.03 1.59 0
 -16 4 4 0.91 1.31 0
 -16 4 6 59.32 2.5 0
 -16 4 7 30.29 1.97 0
 -16 4 8 6.21 1.22 0
 -16 4 9 13.51 1.59 0
 -16 6 -7 12.3 1.78 0
 -16 6 -6 -0.14 1.19 0
 -16 6 -5 2.03 1.38 0
 -16 6 -4 -1.04 1.32 0
 -16 6 -3 -0.18 1.11 0
 -16 6 -2 0.38 1.11 0
 -16 6 -1 2.47 1.25 0
 -16 6 0 1.42 1.28 0
 -16 6 1 -0.99 1.11 0
 -16 6 3 19.19 1.97 0
 -16 6 4 -0.05 1.08 0
 -16 6 5 18.57 1.88 0
 -16 6 6 10.56 1.6 0
 -16 6 7 1.32 1.27 0
 -16 6 8 6.83 1.26 0
 -16 6 9 3.37 1.12 0
 -16 8 -5 -1.69 1.4 0
 -16 8 -4 1.61 1.31 0
 -16 8 -3 1.16 1.4 0
 -16 8 -2 1.58 1.28 0
 -16 8 1 1.62 1.23 0
 -16 8 2 0.02 1.29 0
 -16 8 3 92.35 3.26 0
 -16 8 4 4.92 1.33 0
 -16 8 6 0.68 1.23 0
 -16 8 7 8.9 1.56 0
 -16 8 8 0.08 1.01 0
 -15 -5 -10 -0.15 1.07 0
 -15 -5 -9 1.75 1.24 0
 -15 -5 -8 4.46 1.35 0
 -15 -5 7 15.41 1.65 0
 -15 -3 -11 1.22 1.09 0
 -15 -3 -9 0.13 1.07 0
 -15 -3 -8 3.17 1.19 0
 -15 -3 -5 23.75 2.02 0
 -15 -3 -4 40.96 2.34 0
 -15 -3 -3 2.21 1.12 0
 -15 -3 -1 20.79 1.93 0
 -15 -3 1 2.13 1.06 0
 -15 -3 2 19.14 1.84 0
 -15 -3 3 5.36 1.34 0
 -15 -3 4 34.59 2.07 0
 -15 -3 5 3.11 1.07 0
 -15 -3 6 -0.42 0.83 0
 -15 -3 7 1.27 0.9 0
 -15 -3 8 15.69 1.53 0
 -15 -3 9 1.51 0.88 0
 -15 -1 -11 0.99 1.08 0
 -15 -1 -10 0.83 1.22 0
 -15 -1 -9 1.7 1.3 0
 -15 -1 -6 4.89 1.45 0
 -15 -1 -5 2.57 1.25 0
 -15 -1 -4 28.37 2.03 0
 -15 -1 -3 0.53 0.99 0
 -15 -1 -1 6.7 1.37 0
 -15 -1 0 6.36 1.36 0
 -15 -1 1 0.52 0.88 0
 -15 -1 3 4.67 1.31 0
 -15 -1 5 0.56 1.01 0
 -15 -1 6 5.39 1.2 0
 -15 -1 7 3.27 1.12 0
 -15 -1 8 3.51 1.07 0
 -15 -1 9 0.7 0.89 0
 -15 1 -11 0.88 1.19 0
 -15 1 -10 0.29 1 0
 -15 1 -9 2.11 1.16 0
 -15 1 -8 0.1 0.98 0
 -15 1 -7 0.62 1.19 0
 -15 1 -6 7.53 1.32 0
 -15 1 -5 2.84 1.08 0
 -15 1 -4 32.8 2.08 0
 -15 1 -3 -0.05 1.16 0
 -15 1 -2 189.15 4.18 0
 -15 1 -1 5.43 1.19 0
 -15 1 0 5.29 1.32 0
 -15 1 1 -0.03 0.88 0
 -15 1 2 148.04 3.62 0
 -15 1 3 5.59 1.32 0
 -15 1 4 54.28 2.31 0
 -15 1 5 0.48 1.07 0
 -15 1 6 4.05 1.16 0
 -15 1 7 2.02 0.92 0
 -15 1 8 2.53 1.01 0
 -15 1 9 0.28 0.79 0
 -15 3 -11 1.7 1.2 0
 -15 3 -10 8.95 1.41 0
 -15 3 -9 -1.33 0.95 0
 -15 3 -8 2.87 1.13 0
 -15 3 -7 14.43 1.79 0
 -15 3 -6 11.27 1.56 0
 -15 3 -4 39.12 2.3 0
 -15 3 -3 3.82 1.15 0
 -15 3 -1 20.87 1.87 0
 -15 3 0 0.19 0.92 0
 -15 3 3 6.47 1.35 0
 -15 3 4 37.06 2.08 0
 -15 3 5 5.14 1.22 0
 -15 3 6 -1.04 0.93 0
 -15 3 7 -0.4 0.92 0
 -15 3 8 16.38 1.52 0
 -15 3 9 1.17 0.94 0
 -15 5 -11 3.53 1.26 0
 -15 5 -10 -0.98 0.99 0
 -15 5 -9 0.84 1.12 0
 -15 5 -8 4.4 1.41 0
 -15 5 -7 1.73 1.14 0
 -15 5 -6 10.06 1.62 0
 -15 5 -5 10.21 1.6 0
 -15 5 -4 51.01 2.49 0
 -15 5 -3 16.62 1.84 0
 -15 5 -2 1 1.16 0
 -15 5 -1 3.08 1.3 0
 -15 5 0 21.18 1.92 0
 -15 5 1 11.02 1.51 0
 -15 5 2 1.03 0.98 0
 -15 5 3 23.78 1.84 0
 -15 5 4 3.14 1.24 0
 -15 5 5 0.14 0.95 0
 -15 5 6 0.42 0.93 0
 -15 5 7 18.14 1.66 0
 -15 5 8 2.01 0.99 0
 -15 5 9 1.18 0.95 0
 -15 7 -9 -0.06 1.31 0
 -15 7 -8 5.96 1.4 0
 -15 7 -7 23.32 2.08 0
 -15 7 -6 9.49 1.53 0
 -15 7 -5 -0.03 1.1 0
 -15 7 -4 0.82 1.44 0
 -15 7 -3 154.89 4 0
 -15 7 -2 2.04 1.18 0
 -15 7 1 109.81 3.4 0
 -15 7 2 2.96 1.46 0
 -15 7 4 1.2 1.05 0
 -15 7 5 25.68 2 0
 -15 7 6 3.51 1.31 0
 -15 7 8 8.26 1.4 0
 -15 7 9 18.14 1.63 0
 -15 9 -5 3.71 1.59 0
 -15 9 -4 7.46 1.51 0
 -15 9 -3 45.75 2.61 0
 -15 9 -2 -1.11 1.25 0
 -15 9 0 14.06 1.86 0
 -15 9 2 -1.08 1.07 0
 -15 9 3 56.98 2.68 0
 -15 9 4 8.25 1.55 0
 -15 9 5 8.97 1.5 0
 -15 9 6 5.01 1.45 0
 -15 9 7 4.42 1.35 0
 -15 9 8 0.4 1.02 0
 -14 -6 -11 1.88 1.17 0
 -14 -6 9 23.84 1.73 0
 -14 -4 -11 66.22 2.66 0
 -14 -4 -10 31.81 2.11 0
 -14 -4 -9 5.85 1.3 0
 -14 -4 -8 0.14 1.08 0
 -14 -4 7 5.59 1.1 0
 -14 -4 8 2.76 0.93 0
 -14 -4 9 12.47 1.37 0
 -14 -2 -12 10.09 1.4 0
 -14 -2 -11 26.23 1.9 0
 -14 -2 -10 21.92 1.83 0
 -14 -2 -8 0.4 0.98 0
 -14 -2 -7 36.06 2.18 0
 -14 -2 -6 3.41 1.1 0
 -14 -2 -5 115.09 3.3 0
 -14 -2 -2 -0.49 0.98 0
 -14 -2 -1 133.57 3.45 0
 -14 -2 0 0.98 1.07 0
 -14 -2 1 0.8 0.86 0
 -14 -2 2 14.73 1.52 0
 -14 -2 3 76.68 2.62 0
 -14 -2 4 19.9 1.57 0
 -14 -2 5 24.62 1.68 0
 -14 -2 6 0.76 0.91 0
 -14 -2 7 4.15 1.01 0
 -14 -2 8 23.32 1.56 0
 -14 -2 9 23.99 1.56 0
 -14 0 -12 -0.9 1.04 0
 -14 0 -10 7.02 1.23 0
 -14 0 -8 48.81 2.33 0
 -14 0 -6 1.08 1.18 0
 -14 0 -4 77.66 2.73 0
 -14 0 -2 5.95 1.26 0
 -14 0 0 44.5 2.09 0
 -14 0 2 20.44 1.56 0
 -14 0 4 186.27 3.71 0
 -14 0 8 250.7 4.17 0
 -14 2 -11 25.79 1.84 0
 -14 2 -10 19.86 1.76 0
 -14 2 -9 42.46 2.2 0
 -14 2 -8 1.13 0.99 0
 -14 2 -7 35 2.14 0
 -14 2 -6 2.26 1 0
 -14 2 -5 115.83 3.23 0
 -14 2 -4 3.81 1.06 0
 -14 2 -3 6.58 1.29 0
 -14 2 -2 -1.21 0.83 0
 -14 2 -1 136.85 3.42 0
 -14 2 0 0.56 1.03 0
 -14 2 1 0.68 0.82 0
 -14 2 2 13.5 1.44 0
 -14 2 4 22.33 1.68 0
 -14 2 5 23.39 1.62 0
 -14 2 6 -0.83 0.78 0
 -14 2 7 3.66 0.98 0
 -14 2 8 24.2 1.55 0
 -14 2 9 25.93 1.56 0
 -14 2 10 19.12 1.37 0
 -14 4 -11 65.27 2.5 0
 -14 4 -10 31.91 2.01 0
 -14 4 -9 5.7 1.37 0
 -14 4 -8 1.3 1.13 0
 -14 4 -7 66.49 2.64 0
 -14 4 -5 36.54 2.06 0
 -14 4 -4 0.42 0.97 0
 -14 4 -2 9.41 1.47 0
 -14 4 -1 27.97 1.91 0
 -14 4 0 2.98 1.01 0
 -14 4 1 3.8 1.18 0
 -14 4 2 7.86 1.24 0
 -14 4 3 14.67 1.54 0
 -14 4 4 1.32 0.93 0
 -14 4 5 10.66 1.4 0
 -14 4 7 7.17 1.12 0
 -14 4 8 4.09 0.99 0
 -14 4 9 12.64 1.31 0
 -14 4 10 57.14 2.07 0
 -14 6 -11 1.31 1.05 0
 -14 6 -10 30.27 2.03 0
 -14 6 -9 0.71 1.12 0
 -14 6 -7 1.38 1.03 0
 -14 6 -5 1.17 1.05 0
 -14 6 -4 26.46 1.95 0
 -14 6 -3 16.12 1.73 0
 -14 6 -2 16.09 1.74 0
 -14 6 -1 0.44 1.15 0
 -14 6 0 20.77 1.69 0
 -14 6 1 9.66 1.54 0
 -14 6 2 7.8 1.45 0
 -14 6 3 10.28 1.5 0
 -14 6 6 4.82 1.28 0
 -14 6 7 1.9 0.95 0
 -14 6 8 10.78 1.43 0
 -14 6 9 29.52 1.75 0
 -14 8 -9 4.96 1.28 0
 -14 8 -7 25.2 2.03 0
 -14 8 -6 3.72 1.48 0
 -14 8 -4 0.95 1.11 0
 -14 8 -3 44.68 2.48 0
 -14 8 -2 0.5 1.3 0
 -14 8 -1 0.24 1.32 0
 -14 8 0 0.21 1.07 0
 -14 8 1 9.74 1.64 0
 -14 8 3 27.11 2.02 0
 -14 8 5 30.11 2.02 0
 -14 8 6 -0.69 0.93 0
 -14 8 8 5.36 1.14 0
 -14 8 9 40.91 2.04 0
 -14 10 -6 25.71 2.19 0
 -14 10 -4 0.46 1.41 0
 -14 10 -3 1.59 1.19 0
 -14 10 -2 29.22 2.2 0
 -14 10 -1 1.02 1.16 0
 -14 10 0 8.1 1.57 0
 -14 10 1 14.04 1.76 0
 -14 10 2 0.97 1.44 0
 -14 10 4 1.76 1.14 0
 -14 10 5 -0.37 1.23 0
 -14 10 6 4.97 1.38 0
 -14 10 7 3.19 1.24 0
 -14 10 8 2.28 1.19 0
 -14 10 9 9.9 1.47 0
 -13 -5 -12 21.35 1.86 0
 -13 -5 -11 5.54 1.31 0
 -13 -5 9 0.57 0.81 0
 -13 -3 -12 33.53 1.97 0
 -13 -3 -10 3.6 1.07 0
 -13 -3 -9 2.01 1.21 0
 -13 -3 -8 58.08 2.49 0
 -13 -3 6 1.54 0.78 0
 -13 -3 8 2.76 0.92 0
 -13 -3 9 12.69 1.25 0
 -13 -1 -12 17.63 1.59 0
 -13 -1 -11 3.7 1.13 0
 -13 -1 -10 35.84 2 0
 -13 -1 -8 4.58 1.04 0
 -13 -1 -7 1.87 0.97 0
 -13 -1 -6 68.7 2.49 0
 -13 -1 -5 17.58 1.58 0
 -13 -1 -4 47.04 2.14 0
 -13 -1 -3 1.03 0.82 0
 -13 -1 -2 18.55 1.58 0
 -13 -1 -1 11.34 1.32 0
 -13 -1 2 215.94 3.98 0
 -13 -1 3 1.91 0.95 0
 -13 -1 4 70.59 2.27 0
 -13 -1 5 6.32 0.99 0
 -13 -1 6 41.52 1.78 0
 -13 -1 7 2.25 0.92 0
 -13 -1 9 1.2 0.78 0
 -13 -1 10 3.8 0.86 0
 -13 1 -12 18.47 1.65 0
 -13 1 -11 4.46 1.17 0
 -13 1 -10 35.24 1.97 0
 -13 1 -9 18.26 1.64 0
 -13 1 -8 4.32 1.17 0
 -13 1 -7 2.37 0.92 0
 -13 1 -6 64.15 2.42 0
 -13 1 -5 18.69 1.6 0
 -13 1 -2 18.5 1.51 0
 -13 1 -1 13.05 1.36 0
 -13 1 0 15.57 1.45 0
 -13 1 1 1.48 0.79 0
 -13 1 2 219.79 4.04 0
 -13 1 3 1.62 0.8 0
 -13 1 4 71.02 2.29 0
 -13 1 5 7.11 1.14 0
 -13 1 6 42.61 1.84 0
 -13 1 7 3.78 0.97 0
 -13 1 8 46.99 1.83 0
 -13 1 9 2.32 0.82 0
 -13 1 10 3.91 0.85 0
 -13 3 -11 31.51 1.86 0
 -13 3 -10 2.03 0.99 0
 -13 3 -9 1.84 0.99 0
 -13 3 -8 59.24 2.36 0
 -13 3 -7 23.28 1.73 0
 -13 3 -6 20.37 1.61 0
 -13 3 -5 0.05 0.83 0
 -13 3 -4 238.68 4.51 0
 -13 3 -2 8.14 1.19 0
 -13 3 -1 -0.59 0.73 0
 -13 3 0 130.33 3.19 0
 -13 3 3 1.22 0.82 0
 -13 3 4 0.64 0.8 0
 -13 3 5 28.34 1.65 0
 -13 3 6 0.82 0.73 0
 -13 3 8 2.75 0.94 0
 -13 3 9 12.61 1.22 0
 -13 3 10 12.81 1.16 0
 -13 5 -11 5.85 1.18 0
 -13 5 -10 25.56 1.83 0
 -13 5 -9 28.96 1.91 0
 -13 5 -8 17.97 1.68 0
 -13 5 -7 8.39 1.4 0
 -13 5 -6 8.2 1.38 0
 -13 5 -5 53.21 2.34 0
 -13 5 -4 51.85 2.31 0
 -13 5 -3 61.85 2.42 0
 -13 5 -2 37.71 1.92 0
 -13 5 -1 4.86 1.03 0
 -13 5 0 22.83 1.74 0
 -13 5 2 27.11 1.68 0
 -13 5 3 5.14 1.03 0
 -13 5 4 -1.15 0.89 0
 -13 5 5 0.84 0.95 0
 -13 5 6 7.89 1.27 0
 -13 5 7 1.65 0.82 0
 -13 5 8 12.3 1.33 0
 -13 5 9 -0.63 0.84 0
 -13 5 10 5.46 1.05 0
 -13 7 -11 17.16 1.69 0
 -13 7 -10 12.12 1.52 0
 -13 7 -9 8.79 1.31 0
 -13 7 -7 6.73 1.34 0
 -13 7 -6 -0.09 1.22 0
 -13 7 -4 3.98 1.09 0
 -13 7 -2 0.41 1.07 0
 -13 7 -1 4.78 1.3 0
 -13 7 0 6.66 1.21 0
 -13 7 1 117.81 3.27 0
 -13 7 2 0.96 1.05 0
 -13 7 3 151.13 3.6 0
 -13 7 4 13.21 1.48 0
 -13 7 5 17.18 1.63 0
 -13 7 6 31.59 1.91 0
 -13 7 7 89.32 2.71 0
 -13 7 8 1.97 0.95 0
 -13 7 9 7.15 1.13 0
 -13 7 10 14.93 1.4 0
 -13 9 -10 1.55 1.06 0
 -13 9 -9 12.8 1.59 0
 -13 9 -8 16.55 1.82 0
 -13 9 -6 17.63 1.9 0
 -13 9 -4 7.37 1.38 0
 -13 9 -3 27.54 2.1 0
 -13 9 -2 12.7 1.77 0
 -13 9 0 6.51 1.36 0
 -13 9 1 58.79 2.62 0
 -13 9 2 4.54 1.24 0
 -13 9 3 39.4 2.23 0
 -13 9 5 -0.22 0.98 0
 -13 9 6 9 1.39 0
 -13 9 7 13.19 1.6 0
 -13 9 8 1.95 0.97 0
 -13 9 9 3.91 1.07 0
 -13 11 -6 3.71 1.3 0
 -13 11 -5 43.18 2.43 0
 -13 11 -4 5.9 1.61 0
 -13 11 -3 32.33 2.23 0
 -13 11 -2 -0.92 1.12 0
 -13 11 -1 6.46 1.41 0
 -13 11 0 1.52 1.24 0
 -13 11 1 25.78 2.13 0
 -13 11 2 9.56 1.67 0
 -13 11 3 2.36 1.44 0
 -13 11 4 3.32 1.29 0
 -13 11 6 28.07 2.02 0
 -13 11 7 3.41 1.17 0
 -13 11 8 4.27 1.36 0
 -12 -4 -12 2.48 1.1 0
 -12 -4 -11 18.18 1.67 0
 -12 -4 9 4.14 0.89 0
 -12 -2 -12 85.39 2.59 0
 -12 -2 -11 0.75 0.9 0
 -12 -2 -9 0.09 0.94 0
 -12 -2 5 2.11 0.73 0
 -12 -2 6 7.04 0.96 0
 -12 -2 7 101.7 2.44 0
 -12 -2 8 0.45 0.65 0
 -12 -2 9 9.92 1.07 0
 -12 -2 10 -0.8 0.58 0
 -12 0 -12 244.59 4.25 0
 -12 0 -10 117.22 2.95 0
 -12 0 -6 116.93 2.93 0
 -12 0 -4 55.62 2.11 0
 -12 0 0 21.13 1.39 0
 -12 0 2 80.4 2.32 0
 -12 0 4 1.77 0.74 0
 -12 0 6 23.91 1.39 0
 -12 0 8 23.11 1.34 0
 -12 2 -12 84.25 2.48 0
 -12 2 -11 0.02 0.8 0
 -12 2 -10 103.4 2.81 0
 -12 2 -9 0.42 0.85 0
 -12 2 -6 148.28 3.3 0
 -12 2 -5 18.13 1.47 0
 -12 2 -4 38.31 1.88 0
 -12 2 -3 16.29 1.35 0
 -12 2 -2 3.06 0.95 0
 -12 2 0 1.56 0.71 0
 -12 2 1 18.89 1.4 0
 -12 2 2 0.59 0.72 0
 -12 2 4 5.87 0.93 0
 -12 2 5 3.21 0.83 0
 -12 2 6 6.62 0.98 0
 -12 2 7 103.68 2.45 0
 -12 2 8 0.66 0.63 0
 -12 2 9 8.7 1.03 0
 -12 2 10 0.41 0.67 0
 -12 4 -11 20.42 1.55 0
 -12 4 -10 1.8 0.95 0
 -12 4 -9 0.47 1.01 0
 -12 4 -8 0.67 1 0
 -12 4 -7 67.99 2.39 0
 -12 4 -6 32.75 1.84 0
 -12 4 -4 13.43 1.36 0
 -12 4 -1 58.13 2.14 0
 -12 4 0 0.94 0.84 0
 -12 4 1 86.09 2.49 0
 -12 4 2 40.14 1.79 0
 -12 4 4 5.47 0.93 0
 -12 4 5 52.59 1.95 0
 -12 4 7 68.12 2.12 0
 -12 4 8 -0.28 0.68 0
 -12 4 9 3.61 0.76 0
 -12 4 10 1.31 0.76 0
 -12 6 -11 39.7 2 0
 -12 6 -10 7.78 1.31 0
 -12 6 -9 2.96 1.06 0
 -12 6 -8 -0.56 0.92 0
 -12 6 -7 27.2 1.8 0
 -12 6 -6 0.32 1.06 0
 -12 6 -5 3.55 1.17 0
 -12 6 -3 6.06 1.22 0
 -12 6 -2 -0.21 0.74 0
 -12 6 0 0.19 0.81 0
 -12 6 1 6.83 1.15 0
 -12 6 2 16.94 1.48 0
 -12 6 3 22.91 1.61 0
 -12 6 4 7.07 1.07 0
 -12 6 5 2.42 0.82 0
 -12 6 6 19.58 1.45 0
 -12 6 8 43.2 1.86 0
 -12 6 9 5.12 0.97 0
 -12 6 10 4.49 0.9 0
 -12 8 -11 93.65 2.8 0
 -12 8 -10 12.1 1.57 0
 -12 8 -9 0.27 1.08 0
 -12 8 -8 5.76 1.38 0
 -12 8 -7 26.98 1.88 0
 -12 8 -6 19.93 1.75 0
 -12 8 -5 25.36 1.84 0
 -12 8 -4 0.56 0.99 0
 -12 8 -3 36.9 2.04 0
 -12 8 -2 6.24 1.25 0
 -12 8 -1 4.58 1.13 0
 -12 8 0 1.76 1 0
 -12 8 1 59.64 2.42 0
 -12 8 2 21.42 1.72 0
 -12 8 3 33.61 1.93 0
 -12 8 4 -0.26 0.99 0
 -12 8 6 24.26 1.67 0
 -12 8 8 23.97 1.65 0
 -12 8 9 24.8 1.63 0
 -12 8 10 0.19 0.76 0
 -12 10 -10 1.46 1.07 0
 -12 10 -8 2.19 1.23 0
 -12 10 -7 54.88 2.49 0
 -12 10 -6 0.12 1.17 0
 -12 10 -5 130.29 3.55 0
 -12 10 -4 -0.58 0.98 0
 -12 10 -3 -1.04 0.98 0
 -12 10 -1 26.75 2.02 0
 -12 10 0 5.42 1.28 0
 -12 10 1 0.81 1.21 0
 -12 10 4 6.52 1.24 0
 -12 10 5 13.32 1.66 0
 -12 10 6 3.51 1.27 0
 -12 10 8 0.55 0.94 0
 -12 10 9 3.22 1.03 0
 -12 12 -5 27.16 2.18 0
 -12 12 -4 2.83 1.51 0
 -12 12 -2 75.32 2.94 0
 -12 12 0 0.13 1.3 0
 -12 12 1 4.43 1.26 0
 -12 12 2 64.95 2.79 0
 -12 12 3 7.44 1.53 0
 -12 12 4 6.71 1.34 0
 -12 12 6 25.19 1.97 0
 -11 -3 -12 39.32 1.84 0
 -11 -3 -11 -0.33 0.73 0
 -11 -3 -10 1.04 0.81 0
 -11 -1 -12 1.81 0.92 0
 -11 -1 -10 10.58 1.27 0
 -11 -1 -9 2 0.79 0
 -11 -1 -8 27.57 1.58 0
 -11 -1 -7 0.85 0.74 0
 -11 -1 -6 115.86 2.79 0
 -11 -1 -5 12.92 1.24 0
 -11 1 -12 1.97 0.91 0
 -11 1 -11 10.29 1.25 0
 -11 1 -10 10.75 1.25 0
 -11 1 -9 2.41 0.87 0
 -11 1 -8 26.51 1.54 0
 -11 1 -7 2.7 0.79 0
 -11 1 -6 118.28 2.79 0
 -11 1 -5 13.32 1.19 0
 -11 1 -3 0.06 0.72 0
 -11 3 -12 37.24 1.72 0
 -11 3 -11 0.41 0.8 0
 -11 3 -10 0.49 0.84 0
 -11 3 -9 0.58 0.76 0
 -11 3 -8 34.34 1.71 0
 -11 3 -7 25.25 1.53 0
 -11 3 -6 0.43 0.83 0
 -11 3 -5 1.9 0.79 0
 -11 3 -3 76.17 2.27 0
 -11 3 -2 7.56 1.04 0
 -11 3 -1 38.28 1.68 0
 -11 3 0 234.73 3.84 0
 -11 3 1 62.39 2.02 0
 -11 3 2 95.83 2.43 0
 -11 3 3 75.07 2.15 0
 -11 3 4 26.79 1.38 0
 -11 3 5 5.55 0.79 0
 -11 5 -10 2.15 1.03 0
 -11 5 -9 52.31 2.08 0
 -11 5 -8 9.69 1.2 0
 -11 5 -7 25.03 1.64 0
 -11 5 -6 1.32 0.81 0
 -11 5 -5 50.33 2.01 0
 -11 5 -4 46.82 1.99 0
 -11 5 -3 79.72 2.39 0
 -11 5 2 130.43 2.88 0
 -11 5 3 4.72 0.95 0
 -11 5 4 3.71 0.8 0
 -11 5 5 4.11 0.81 0
 -11 5 6 6.6 1.02 0
 -11 5 7 0.79 0.76 0
 -11 5 8 3.07 0.86 0
 -11 5 9 1.9 0.8 0
 -11 5 10 34.85 1.5 0
 -11 7 -11 5.57 1.07 0
 -11 7 -10 -0.5 0.84 0
 -11 7 -9 40.87 1.98 0
 -11 7 -8 1.06 0.9 0
 -11 7 -7 44.97 2.1 0
 -11 7 -6 1.23 0.92 0
 -11 7 -4 -0.22 0.92 0
 -11 7 -3 35.64 1.87 0
 -11 7 -2 3.99 0.92 0
 -11 7 -1 69.73 2.38 0
 -11 7 0 1.55 0.96 0
 -11 7 1 5.62 1.08 0
 -11 7 2 20.3 1.52 0
 -11 7 3 0.62 0.95 0
 -11 7 4 48 2 0
 -11 7 5 33.35 1.73 0
 -11 7 6 2.78 0.9 0
 -11 7 7 0.68 0.77 0
 -11 7 8 36.14 1.71 0
 -11 7 9 29.77 1.55 0
 -11 7 10 44.07 1.75 0
 -11 9 -10 10.7 1.42 0
 -11 9 -9 0.17 0.91 0
 -11 9 -8 1.7 1.07 0
 -11 9 -7 23.18 1.79 0
 -11 9 -6 0.07 1.14 0
 -11 9 -5 13.66 1.63 0
 -11 9 -3 21.46 1.81 0
 -11 9 -1 42.69 2.15 0
 -11 9 0 0.57 0.86 0
 -11 9 1 0.3 1 0
 -11 9 2 2.03 1.16 0
 -11 9 4 5.09 1.12 0
 -11 9 5 11.21 1.39 0
 -11 9 6 0.37 0.83 0
 -11 9 7 4.49 1.12 0
 -11 9 8 6.37 1.09 0
 -11 9 9 14.08 1.4 0
 -11 9 10 2.42 0.98 0
 -11 11 -8 18.17 1.78 0
 -11 11 -7 -0.94 1.18 0
 -11 11 -6 9.73 1.54 0
 -11 11 -5 0.22 1.22 0
 -11 11 -4 19.89 1.87 0
 -11 11 -3 4.01 1.4 0
 -11 11 -2 40.91 2.27 0
 -11 11 -1 1.6 1.21 0
 -11 11 0 1.39 1.24 0
 -11 11 1 35.32 2.13 0
 -11 11 2 14.99 1.65 0
 -11 11 3 4.21 1.22 0
 -11 11 4 -0.95 1.17 0
 -11 11 5 -0.26 0.92 0
 -11 11 6 -0.01 0.91 0
 -11 11 7 0.62 0.97 0
 -11 11 8 1.67 1.17 0
 -11 13 -4 3.8 1.3 0
 -11 13 -3 7.36 1.66 0
 -11 13 -2 3.78 1.56 0
 -11 13 -1 -0.09 1.37 0
 -11 13 0 3.75 1.36 0
 -11 13 2 1.19 1.16 0
 -11 13 3 26.16 2.07 0
 -10 -4 -12 0.6 0.88 0
 -10 -4 10 31.27 1.25 0
 -10 -2 -12 58.11 1.97 0
 -10 -2 -11 1.8 0.78 0
 -10 -2 -9 5.05 1 0
 -10 -2 7 22.29 1.15 0
 -10 -2 8 12.46 0.95 0
 -10 -2 9 44.43 1.4 0
 -10 -2 10 1.98 0.51 0
 -10 0 -12 396.27 4.69 0
 -10 0 -10 81.76 2.25 0
 -10 0 -8 525.25 5.43 0
 -10 0 6 3.74 0.63 0
 -10 0 8 50.72 1.5 0
 -10 0 10 23.29 1 0
 -10 2 -12 61.78 1.97 0
 -10 2 -11 2.86 0.88 0
 -10 2 -10 7.68 1.05 0
 -10 2 -9 6.07 1.02 0
 -10 2 -8 60.66 2 0
 -10 2 -7 0.29 0.69 0
 -10 2 -6 153.59 3.03 0
 -10 2 3 5.08 0.76 0
 -10 2 4 32.2 1.37 0
 -10 2 5 58.97 1.75 0
 -10 2 6 0.93 0.58 0
 -10 2 7 23.01 1.16 0
 -10 2 8 12.87 0.94 0
 -10 2 9 41.98 1.37 0
 -10 2 10 1.09 0.49 0
 -10 4 -12 1.87 0.78 0
 -10 4 -11 5.61 1.03 0
 -10 4 -10 27.43 1.52 0
 -10 4 -9 0.57 0.71 0
 -10 4 -8 10.23 1.15 0
 -10 4 -6 9.4 1.12 0
 -10 4 -4 111.67 2.63 0
 -10 4 -3 63.59 1.98 0
 -10 6 -11 14.36 1.31 0
 -10 6 -10 13.47 1.34 0
 -10 6 -9 10.6 1.28 0
 -10 6 -8 0.49 0.9 0
 -10 6 -7 36.43 1.75 0
 -10 6 -6 15.9 1.37 0
 -10 6 -5 0.24 0.82 0
 -10 6 -4 8.34 1.09 0
 -10 6 -3 1.38 0.76 0
 -10 6 -2 96.84 2.53 0
 -10 6 -1 33.96 1.66 0
 -10 6 0 9.76 1.09 0
 -10 6 1 8.38 1.1 0
 -10 6 2 61.66 2.05 0
 -10 6 3 231.94 3.82 0
 -10 6 4 88.29 2.34 0
 -10 6 5 14.71 1.17 0
 -10 6 6 13.28 1.17 0
 -10 6 7 114.61 2.55 0
 -10 6 8 12.28 1.12 0
 -10 6 9 22.07 1.3 0
 -10 6 10 22.68 1.25 0
 -10 8 -11 102.45 2.68 0
 -10 8 -10 6.4 1.23 0
 -10 8 -9 18.52 1.53 0
 -10 8 -8 0.54 0.94 0
 -10 8 -7 233.1 4.25 0
 -10 8 -6 27.59 1.78 0
 -10 8 -4 2.58 0.91 0
 -10 8 -3 24.8 1.68 0
 -10 8 -1 1.18 0.93 0
 -10 8 0 0.29 0.68 0
 -10 8 1 2.23 0.91 0
 -10 8 2 12.08 1.34 0
 -10 8 3 102.32 2.72 0
 -10 8 5 2.79 1 0
 -10 8 6 46.69 1.94 0
 -10 8 7 92.55 2.52 0
 -10 8 9 0.55 0.86 0
 -10 8 10 21.27 1.37 0
 -10 10 -10 3.22 1.13 0
 -10 10 -9 -0.31 0.88 0
 -10 10 -8 11.16 1.46 0
 -10 10 -7 80.92 2.72 0
 -10 10 -6 22.27 1.81 0
 -10 10 -4 7.56 1.23 0
 -10 10 -3 -0.39 0.96 0
 -10 10 -2 18.62 1.69 0
 -10 10 -1 70.69 2.6 0
 -10 10 0 3.19 1.03 0
 -10 10 1 13.99 1.54 0
 -10 10 2 5.84 1.26 0
 -10 10 3 5.49 1.14 0
 -10 10 4 0.72 0.91 0
 -10 10 5 2 0.89 0
 -10 10 6 -0.98 0.77 0
 -10 10 8 -0.11 0.77 0
 -10 12 -9 5.99 1.36 0
 -10 12 -7 2.28 1.15 0
 -10 12 -6 2.13 1.12 0
 -10 12 -4 6.93 1.52 0
 -10 12 -2 0.04 0.98 0
 -10 12 -1 -0.62 0.95 0
 -10 12 0 1.16 1.22 0
 -10 12 2 2.03 1.13 0
 -10 12 3 8.6 1.38 0
 -10 12 4 -0.21 1.01 0
 -10 12 5 11.88 1.51 0
 -9 -3 -12 1.19 0.76 0
 -9 -3 9 10.29 0.78 0
 -9 -3 10 2.58 0.51 0
 -9 -1 -10 32.94 1.48 0
 -9 -1 6 340.17 3.61 0
 -9 -1 7 11.28 0.82 0
 -9 -1 8 86.78 1.75 0
 -9 -1 9 26.51 1.02 0
 -9 -1 10 578.59 3.96 0
 -9 1 -12 109.79 2.34 0
 -9 1 -11 27.9 1.38 0
 -9 1 -10 32.51 1.46 0
 -9 1 -5 -0.08 0.58 0
 -9 1 -4 75.85 1.96 0
 -9 1 -2 32.37 1.31 0
 -9 1 -1 0.11 0.41 0
 -9 1 0 75.66 1.86 0
 -9 1 1 12.24 0.93 0
 -9 1 2 179.6 2.76 0
 -9 1 3 7.74 0.76 0
 -9 1 4 148.3 2.47 0
 -9 1 5 8.16 0.77 0
 -9 1 6 338.36 3.6 0
 -9 1 8 87.47 1.81 0
 -9 1 9 24.36 1 0
 -9 1 10 566.47 3.93 0
 -9 3 -12 1.23 0.7 0
 -9 3 -11 58.32 1.82 0
 -9 3 -10 3.27 0.71 0
 -9 3 -9 28.97 1.4 0
 -9 3 -8 4.77 0.79 0
 -9 3 -1 16.6 1.07 0
 -9 3 0 0.15 0.52 0
 -9 3 1 0.57 0.6 0
 -9 3 2 35.58 1.38 0
 -9 3 3 90.28 2.05 0
 -9 3 4 0.82 0.57 0
 -9 3 5 2.5 0.56 0
 -9 3 6 34.16 1.29 0
 -9 3 7 99.86 2.02 0
 -9 3 8 8.04 0.77 0
 -9 3 9 10.17 0.81 0
 -9 3 10 2.46 0.49 0
 -9 5 -11 1.83 0.81 0
 -9 5 -9 0.6 0.64 0
 -9 5 -8 10.05 1.09 0
 -9 5 -7 1.28 0.65 0
 -9 5 -6 51.89 1.85 0
 -9 5 -4 1.76 0.76 0
 -9 7 -11 29.42 1.55 0
 -9 7 -8 11.43 1.27 0
 -9 7 -7 21.22 1.45 0
 -9 7 -5 19 1.4 0
 -9 7 -4 9.1 1.14 0
 -9 7 -2 26.73 1.49 0
 -9 7 -1 81.63 2.35 0
 -9 7 0 5.56 0.85 0
 -9 7 1 54.37 1.92 0
 -9 7 2 2.11 0.74 0
 -9 7 3 88.98 2.35 0
 -9 7 6 11.11 1.13 0
 -9 7 7 95.17 2.33 0
 -9 7 8 30.92 1.43 0
 -9 7 9 143.97 2.74 0
 -9 7 10 5.14 0.85 0
 -9 7 11 202.98 3.14 0
 -9 9 -11 47.86 1.96 0
 -9 9 -10 43.15 1.94 0
 -9 9 -9 8.51 1.21 0
 -9 9 -8 0.84 0.82 0
 -9 9 -7 23.04 1.64 0
 -9 9 -5 74.54 2.45 0
 -9 9 -4 2.48 1.07 0
 -9 9 -3 26.73 1.62 0
 -9 9 -2 2.84 0.87 0
 -9 9 -1 16.28 1.43 0
 -9 9 0 0.33 0.86 0
 -9 9 1 68.89 2.35 0
 -9 9 2 3.32 0.97 0
 -9 9 3 1.76 0.91 0
 -9 9 4 1.42 0.83 0
 -9 9 5 115.92 2.82 0
 -9 9 6 1.97 0.88 0
 -9 9 7 7.08 1.05 0
 -9 9 8 13.57 1.32 0
 -9 9 9 137.38 2.9 0
 -9 11 -10 1.17 1.08 0
 -9 11 -9 43.94 2.1 0
 -9 11 -8 30.28 1.89 0
 -9 11 -6 0.04 0.93 0
 -9 11 -5 119.23 3.2 0
 -9 11 -4 9.24 1.43 0
 -9 11 -3 23.77 1.74 0
 -9 11 0 12.08 1.51 0
 -9 11 1 4.83 1.09 0
 -9 11 2 20.76 1.67 0
 -9 11 4 12.28 1.56 0
 -9 11 5 7.49 1.2 0
 -9 13 -4 -0.39 1.28 0
 -9 13 -3 16.55 1.76 0
 -9 13 -2 -0.64 1.01 0
 -9 13 -1 11.5 1.52 0
 -9 13 1 4.62 1.28 0
 -8 -2 8 57.99 1.38 0
 -8 -2 9 36.64 1.06 0
 -8 -2 10 19.41 0.76 0
 -8 0 -6 152.68 2.65 0
 -8 0 4 358.9 3.5 0
 -8 0 8 142.46 2.07 0
 -8 0 10 238.2 2.29 0
 -8 2 -8 2.7 0.68 0
 -8 2 -7 87.76 2.02 0
 -8 2 -6 4.78 0.68 0
 -8 2 -5 18.16 1.07 0
 -8 2 -4 2.9 0.65 0
 -8 2 -3 0.83 0.46 0
 -8 2 -1 2.97 0.61 0
 -8 2 1 50 1.43 0
 -8 2 4 102.56 1.97 0
 -8 2 5 0.09 0.47 0
 -8 2 6 3.21 0.52 0
 -8 2 7 21.09 0.93 0
 -8 2 8 57.11 1.36 0
 -8 2 9 36.37 1.07 0
 -8 2 10 20.66 0.8 0
 -8 4 -12 -0.44 0.6 0
 -8 4 -11 0.3 0.65 0
 -8 4 -3 252.96 3.4 0
 -8 4 -2 351.56 3.95 0
 -8 4 0 186.13 2.88 0
 -8 4 1 627.33 5.13 0
 -8 4 2 1111.06 6.71 0
 -8 4 3 244.57 3.21 0
 -8 4 6 348.03 3.66 0
 -8 4 8 55.65 1.48 0
 -8 4 9 0.55 0.47 0
 -8 4 10 13.18 0.78 0
 -8 4 11 1.43 0.43 0
 -8 6 -11 33.94 1.47 0
 -8 6 -10 14.61 1.17 0
 -8 6 -8 10.02 1.07 0
 -8 6 -7 15.88 1.2 0
 -8 8 -11 18.55 1.33 0
 -8 8 -10 0.8 0.76 0
 -8 8 -9 0.4 0.76 0
 -8 8 -8 4.66 0.97 0
 -8 8 -7 5.84 0.95 0
 -8 8 -6 24.1 1.47 0
 -8 8 -5 9.34 1.15 0
 -8 8 -3 11.55 1.22 0
 -8 8 -2 21.08 1.4 0
 -8 8 -1 2.47 0.72 0
 -8 8 0 13.62 1.21 0
 -8 8 1 5.65 0.9 0
 -8 8 2 -0.11 0.62 0
 -8 8 3 57.52 1.98 0
 -8 8 4 -0.16 0.68 0
 -8 8 5 102.4 2.47 0
 -8 8 7 23.12 1.35 0
 -8 8 8 -0.22 0.57 0
 -8 10 -10 3.19 0.9 0
 -8 10 -9 45.38 1.97 0
 -8 10 -8 1.08 0.91 0
 -8 10 -7 1.32 0.88 0
 -8 10 -6 3.82 0.96 0
 -8 10 -5 2.27 0.9 0
 -8 10 -4 12.67 1.43 0
 -8 10 -3 2.74 0.88 0
 -8 10 -2 50.36 2.07 0
 -8 10 -1 -0.02 0.69 0
 -8 10 0 7.2 1.18 0
 -8 10 1 29.16 1.67 0
 -8 10 2 73.66 2.39 0
 -8 10 3 23.17 1.59 0
 -8 10 4 2.08 0.83 0
 -8 10 5 1.35 0.83 0
 -8 10 6 55.57 2.07 0
 -8 10 7 0.56 0.87 0
 -8 12 -7 6.36 1.34 0
 -8 12 -3 4.87 1.23 0
 -8 12 -2 20.15 1.71 0
 -8 12 -1 0.69 1 0
 -8 12 1 61.7 2.5 0
 -8 12 3 60.49 2.45 0
 -7 -3 10 0.07 0.29 0
 -7 -1 -11 25.83 1.12 0
 -7 -1 -9 17.05 1 0
 -7 -1 7 0.42 0.36 0
 -7 -1 8 143.17 1.86 0
 -7 -1 9 1.27 0.34 0
 -7 -1 10 153.59 1.62 0
 -7 1 -11 27.64 1.13 0
 -7 1 -10 116.31 2.2 0
 -7 1 -9 17.04 0.96 0
 -7 1 -8 98.74 2.04 0
 -7 1 -7 0.58 0.43 0
 -7 1 -6 678.9 4.9 0
 -7 1 -4 30.61 1.14 0
 -7 1 -3 58.77 1.48 0
 -7 1 -2 453.54 3.86 0
 -7 1 3 -0.25 0.3 0
 -7 1 5 28.78 0.98 0
 -7 1 6 2.08 0.43 0
 -7 1 7 0.4 0.32 0
 -7 1 8 144 1.89 0
 -7 1 9 1.08 0.33 0
 -7 1 10 150.99 1.66 0
 -7 3 -12 1.7 0.57 0
 -7 3 -11 7.8 0.83 0
 -7 3 -10 4.23 0.66 0
 -7 3 -9 96.12 2 0
 -7 3 -8 1.5 0.5 0
 -7 3 -7 17.56 1.02 0
 -7 3 -6 25.78 1.13 0
 -7 3 -5 328.4 3.55 0
 -7 3 -4 223.71 2.95 0
 -7 3 -3 483.48 4.23 0
 -7 3 -2 36.2 1.25 0
 -7 3 1 704.59 4.9 0
 -7 3 3 11.35 0.73 0
 -7 3 4 19.7 0.91 0
 -7 3 6 6.66 0.65 0
 -7 3 7 12.6 0.75 0
 -7 3 8 54.08 1.29 0
 -7 3 9 9.21 0.64 0
 -7 3 10 0.24 0.32 0
 -7 5 -6 -0.3 0.45 0
 -7 5 -4 124.73 2.46 0
 -7 5 -3 76.5 1.88 0
 -7 5 -2 174.83 2.8 0
 -7 5 -1 29.31 1.22 0
 -7 5 0 27.14 1.15 0
 -7 5 1 122.08 2.3 0
 -7 5 2 234.75 3.1 0
 -7 5 4 43.22 1.38 0
 -7 5 5 5.35 0.71 0
 -7 5 6 0.72 0.44 0
 -7 5 7 -0.14 0.42 0
 -7 5 8 17.32 0.94 0
 -7 5 9 1.33 0.46 0
 -7 5 10 9.71 0.73 0
 -7 7 -11 57.71 1.79 0
 -7 7 -10 26.64 1.36 0
 -7 7 -9 15.19 1.18 0
 -7 7 -8 10.07 1.05 0
 -7 7 -6 25.77 1.38 0
 -7 7 -5 12.43 1.11 0
 -7 9 -11 15.81 1.25 0
 -7 9 -10 11.99 1.19 0
 -7 9 -9 1.67 0.85 0
 -7 9 -8 4.8 0.95 0
 -7 9 -6 21.81 1.46 0
 -7 9 -5 136.58 2.95 0
 -7 9 -4 11.96 1.24 0
 -7 9 -3 5.45 0.95 0
 -7 9 -1 136.04 2.93 0
 -7 9 0 1.77 0.69 0
 -7 9 1 11.33 1.15 0
 -7 9 2 6.03 0.9 0
 -7 9 3 45.39 1.78 0
 -7 9 4 0.35 0.61 0
 -7 9 6 10.41 1.09 0
 -7 9 7 32.05 1.52 0
 -7 11 -8 59.29 2.23 0
 -7 11 -7 5.28 1.07 0
 -7 11 -6 1.71 0.93 0
 -7 11 -5 132.5 3.16 0
 -7 11 -4 147.51 3.34 0
 -7 11 -2 4.9 1.06 0
 -7 11 -1 110.48 2.89 0
 -7 11 0 171.35 3.57 0
 -7 11 2 19.71 1.47 0
 -7 11 3 52.49 2.13 0
 -7 11 4 84.83 2.6 0
 -6 -2 -12 97.54 1.96 0
 -6 -2 -11 70.31 1.63 0
 -6 0 -10 2.39 0.55 0
 -6 0 -8 468.81 3.84 0
 -6 2 -10 11.19 0.79 0
 -6 2 -9 11.97 0.81 0
 -6 2 -8 93.46 1.82 0
 -6 2 -7 303.22 3.18 0
 -6 2 -6 72.82 1.58 0
 -6 2 -5 -0.28 0.33 0
 -6 2 -4 41.84 1.2 0
 -6 2 -3 503.72 3.85 0
 -6 2 -2 153.18 2.16 0
 -6 2 7 11.3 0.61 0
 -6 2 8 178.1 1.93 0
 -6 2 9 2.14 0.33 0
 -6 4 -11 5.66 0.7 0
 -6 4 -10 7.51 0.73 0
 -6 4 -9 32.17 1.18 0
 -6 4 -7 22.51 1.05 0
 -6 4 -5 18.79 0.96 0
 -6 4 -4 0.2 0.41 0
 -6 4 -2 29.78 1.07 0
 -6 4 1 118.3 2 0
 -6 4 2 664.72 4.58 0
 -6 4 3 51.95 1.34 0
 -6 4 4 16.88 0.86 0
 -6 4 5 183.28 2.39 0
 -6 4 6 624.04 4.24 0
 -6 4 7 143.8 2.1 0
 -6 4 8 32.51 1.01 0
 -6 4 9 34.01 0.98 0
 -6 4 10 142.89 1.84 0
 -6 6 -5 44.59 1.49 0
 -6 6 -4 6.66 0.82 0
 -6 6 -3 276.11 3.48 0
 -6 6 -2 149.26 2.6 0
 -6 6 -1 35.94 1.32 0
 -6 6 0 89.83 1.95 0
 -6 6 1 390.51 3.98 0
 -6 6 2 -0.23 0.53 0
 -6 6 3 16.8 0.98 0
 -6 6 4 70.24 1.73 0
 -6 6 5 59.36 1.59 0
 -6 6 7 47.66 1.4 0
 -6 6 8 2.95 0.62 0
 -6 6 9 11.81 0.82 0
 -6 8 -11 108.69 2.28 0
 -6 8 -10 10.6 1.07 0
 -6 8 -8 67.27 1.95 0
 -6 8 -7 231.43 3.46 0
 -6 8 -6 4.16 0.76 0
 -6 8 -5 66.32 1.94 0
 -6 8 -4 50.76 1.73 0
 -6 8 -3 204.51 3.33 0
 -6 8 -2 68.28 1.97 0
 -6 8 4 0.63 0.57 0
 -6 8 5 6.11 0.87 0
 -6 8 6 6.14 0.78 0
 -6 8 7 1.11 0.58 0
 -6 8 8 2.4 0.74 0
 -6 10 -9 1.29 0.8 0
 -6 10 -8 2.03 0.83 0
 -6 10 -7 8.97 1.12 0
 -6 10 -6 4.02 0.87 0
 -6 10 -5 24.48 1.49 0
 -6 10 -4 -0.04 0.66 0
 -6 10 -3 2.04 0.77 0
 -6 10 -2 2.17 0.79 0
 -6 10 -1 26.83 1.49 0
 -6 10 0 1.04 0.82 0
 -6 10 1 18.12 1.32 0
 -6 10 2 10.94 1.15 0
 -6 10 3 123.77 2.82 0
 -6 10 4 1.65 0.72 0
 -6 10 5 5.92 0.94 0
 -5 -1 -12 8.26 0.64 0
 -5 -1 -11 145.59 2.04 0
 -5 -1 -10 155.66 2.14 0
 -5 -1 9 24.13 0.49 0
 -5 1 -11 146.68 1.95 0
 -5 1 -10 152.37 2.05 0
 -5 1 -9 12.23 0.7 0
 -5 1 -8 -0.19 0.35 0
 -5 1 -7 236.07 2.48 0
 -5 1 -6 717.17 4.22 0
 -5 1 -5 230.87 2.4 0
 -5 1 -4 240.08 2.44 0
 -5 1 -3 74.06 1.38 0
 -5 1 -2 1038.32 4.85 0
 -5 1 -1 712.88 3.97 0
 -5 1 0 395.63 2.93 0
 -5 1 1 58.94 1.22 0
 -5 1 2 316.48 2.55 0
 -5 1 3 197.26 1.98 0
 -5 1 4 122.96 1.55 0
 -5 1 5 131.15 1.58 0
 -5 3 -11 229.27 2.47 0
 -5 3 -10 51.26 1.24 0
 -5 3 -9 5.75 0.61 0
 -5 3 -8 140.69 2.07 0
 -5 3 -7 375.54 3.29 0
 -5 3 -6 2.14 0.45 0
 -5 3 -5 258.78 2.74 0
 -5 3 -4 0.17 0.31 0
 -5 3 -2 48.48 1.18 0
 -5 3 1 626.22 3.93 0
 -5 3 7 0.17 0.31 0
 -5 3 8 21.02 0.7 0
 -5 3 9 148.84 1.63 0
 -5 5 -11 15.68 0.87 0
 -5 5 -10 0.42 0.42 0
 -5 5 -9 36.15 1.2 0
 -5 5 -7 74.82 1.67 0
 -5 5 -6 83.94 1.77 0
 -5 5 -5 27.52 1.06 0
 -5 5 -4 0.18 0.35 0
 -5 5 -3 0.44 0.46 0
 -5 5 1 173.24 2.41 0
 -5 5 2 270.78 2.97 0
 -5 5 3 36.66 1.15 0
 -5 5 4 0.58 0.36 0
 -5 5 5 19.4 0.87 0
 -5 5 6 97.94 1.82 0
 -5 5 7 48.35 1.24 0
 -5 5 8 15.48 0.77 0
 -5 5 9 1.71 0.43 0
 -5 7 -3 29.13 1.28 0
 -5 7 -2 105.63 2.16 0
 -5 7 0 182.48 2.79 0
 -5 7 1 52.86 1.55 0
 -5 7 2 3.74 0.62 0
 -5 7 3 31.98 1.23 0
 -5 7 4 41.87 1.38 0
 -5 7 5 339.14 3.67 0
 -5 9 -8 10.77 1.07 0
 -5 9 -7 30.62 1.46 0
 -5 9 -6 1.49 0.74 0
 -5 9 -5 96.7 2.32 0
 -5 9 -4 17.68 1.21 0
 -5 9 -3 -0.07 0.53 0
 -5 9 -2 2.75 0.68 0
 -5 9 -1 70.36 2.02 0
 -5 9 0 14.6 1.03 0
 -5 9 1 8.07 0.91 0
 -5 9 3 0.68 0.69 0
 -5 9 4 0.52 0.58 0
 -5 9 5 38.78 1.58 0
 -5 11 -3 2.45 0.87 0
 -5 11 -2 2.69 0.86 0
 -5 11 -1 19.96 1.48 0
 -5 11 0 80.35 2.41 0
 -4 0 -10 3.1 0.42 0
 -4 0 -8 91.94 1.49 0
 -4 0 4 821.71 3.32 0
 -4 0 6 63.32 0.89 0
 -4 0 8 1.31 0.17 0
 -4 2 -11 10.87 0.57 0
 -4 2 -10 83.4 1.38 0
 -4 2 -9 1.61 0.36 0
 -4 2 -8 63.63 1.23 0
 -4 2 -7 9.23 0.58 0
 -4 2 -6 0.53 0.28 0
 -4 2 -5 203.61 2.13 0
 -4 2 -4 23.25 0.78 0
 -4 2 -3 682.04 3.72 0
 -4 2 -2 41.38 0.96 0
 -4 2 -1 79.08 1.31 0
 -4 2 0 222.8 2.08 0
 -4 2 1 1992.4 6.02 0
 -4 2 2 0.34 0.33 0
 -4 2 4 70.34 1.15 0
 -4 2 5 753.21 3.43 0
 -4 4 -11 0.39 0.36 0
 -4 4 -10 51.06 1.18 0
 -4 4 -8 186.13 2.27 0
 -4 4 -7 0.53 0.4 0
 -4 4 -6 18.47 0.83 0
 -4 4 -5 90.47 1.61 0
 -4 4 -4 0.34 0.34 0
 -4 4 -3 234.55 2.48 0
 -4 4 -2 8.75 0.59 0
 -4 4 7 0.71 0.34 0
 -4 4 8 28.68 0.82 0
 -4 6 -11 30.53 1.04 0
 -4 6 -10 11.52 0.79 0
 -4 6 -9 105.83 1.93 0
 -4 6 -8 55.8 1.45 0
 -4 6 -7 242.36 2.92 0
 -4 6 -6 78.67 1.7 0
 -4 6 -5 9.56 0.78 0
 -4 6 -4 53.29 1.43 0
 -4 6 -3 242.58 2.92 0
 -4 6 -2 8.26 0.67 0
 -4 6 -1 33.25 1.14 0
 -4 6 1 284.07 3.08 0
 -4 6 2 115.9 2 0
 -4 6 3 49.05 1.34 0
 -4 6 5 190.35 2.51 0
 -4 6 7 1.5 0.45 0
 -4 10 -5 0.3 0.75 0
 -4 10 -4 -0.51 0.62 0
 -4 10 -3 59.99 1.96 0
 -4 10 -2 0.31 0.59 0
 -4 10 -1 4.45 0.93 0
 -4 10 0 25.74 1.34 0
 -3 -1 -11 15.02 0.54 0
 -3 -1 -10 57.62 1.06 0
 -3 1 -11 15.19 0.48 0
 -3 1 -10 58.48 0.96 0
 -3 1 -9 2.11 0.31 0
 -3 1 -7 154.62 1.6 0
 -3 1 -6 389.18 2.48 0
 -3 1 -5 22.98 0.65 0
 -3 1 -4 772.48 3.36 0
 -3 1 -3 531.13 2.77 0
 -3 1 -2 683.48 3.06 0
 -3 1 -1 535.01 2.66 0
 -3 1 0 3042.79 6.11 0
 -3 1 1 283.7 1.86 0
 -3 1 2 36.19 0.7 0
 -3 1 3 577.28 2.53 0
 -3 1 4 14.76 0.47 0
 -3 1 5 0.08 0.15 0
 -3 1 7 185.66 1.12 0
 -3 3 -11 68.22 1.06 0
 -3 3 -10 39.48 0.86 0
 -3 3 -9 85.3 1.31 0
 -3 3 -8 239 2.16 0
 -3 3 -7 381.78 2.73 0
 -3 3 -6 25.84 0.78 0
 -3 3 -5 71.74 1.22 0
 -3 3 -4 373.06 2.69 0
 -3 3 -3 1399.95 5.12 0
 -3 3 -2 29.52 0.84 0
 -3 3 -1 7.73 0.51 0
 -3 3 0 333.16 2.46 0
 -3 3 1 646.29 3.37 0
 -3 3 2 1343.17 4.79 0
 -3 3 4 907.79 3.86 0
 -3 5 -11 -0.15 0.31 0
 -3 5 -10 63.87 1.3 0
 -3 5 -9 131.06 1.84 0
 -3 5 -8 130.89 1.9 0
 -3 5 -7 17.35 0.79 0
 -3 5 -6 19.45 0.82 0
 -3 5 -5 106.64 1.72 0
 -3 5 -4 368.91 3.14 0
 -3 5 -3 43.44 1.14 0
 -3 5 -2 12.66 0.69 0
 -3 5 6 42.72 1.06 0
 -3 7 -9 4.83 0.65 0
 -3 7 -8 37.81 1.24 0
 -3 7 -6 20.22 0.99 0
 -3 7 -5 55.31 1.48 0
 -3 7 -3 141.02 2.35 0
 -3 7 -2 193.12 2.67 0
 -3 7 1 237.17 2.92 0
 -3 7 2 73.14 1.64 0
 -3 7 4 25.25 1.05 0
 -3 7 5 9.33 0.71 0
 -2 0 -10 132.59 1 0
 -2 2 -10 38.65 0.62 0
 -2 2 -9 9.95 0.4 0
 -2 2 -8 -0.05 0.19 0
 -2 2 -7 67.85 0.96 0
 -2 2 -6 14.66 0.49 0
 -2 2 -5 50.52 0.87 0
 -2 2 -4 391.13 2.24 0
 -2 2 -3 0.38 0.23 0
 -2 2 -2 471.99 2.4 0
 -2 2 -1 568.23 2.59 0
 -2 2 0 656.11 2.75 0
 -2 2 1 1083.94 3.49 0
 -2 2 2 2332.81 5.03 0
 -2 2 3 281.68 1.75 0
 -2 2 4 124.37 1.16 0
 -2 2 5 1316.47 3.53 0
 -2 2 6 152.26 1.19 0
 -2 4 -10 196.28 1.77 0
 -2 4 -9 329.72 2.38 0
 -2 4 -8 757.87 3.69 0
 -2 4 -7 96.22 1.41 0
 -2 4 -6 0.44 0.31 0
 -2 4 -5 40.87 0.95 0
 -2 4 -4 513.81 3.18 0
 -2 4 -3 30.65 0.86 0
 -2 4 -2 0.45 0.3 0
 -2 4 0 12.09 0.58 0
 -2 4 2 353.01 2.57 0
 -2 4 3 0.76 0.26 0
 -2 4 4 2.14 0.31 0
 -2 6 -8 224.76 2.5 0
 -2 6 -6 93.11 1.72 0
 -2 6 -5 15.85 0.8 0
 -2 6 -4 49.78 1.25 0
 -2 6 -3 37.67 1.08 0
 -2 6 -2 181.67 2.31 0
 -2 6 -1 56.79 1.32 0
 -2 6 4 46.69 1.2 0
 -2 8 -4 50.09 1.48 0
 -2 8 -3 39.53 1.31 0
 -2 8 -2 0.76 0.42 0
 -2 8 -1 109.21 2.12 0
 -1 -1 -9 58.32 0.66 0
 -1 1 -8 8.28 0.23 0
 -1 1 -7 6.59 0.25 0
 -1 1 -6 26.56 0.46 0
 -1 1 -5 30.56 0.5 0
 -1 1 -4 3.9 0.23 0
 -1 1 -3 0.29 0.14 0
 -1 1 -2 15.93 0.38 0
 -1 1 -1 7.49 0.27 0
 -1 1 0 2019.3 3.32 0
 -1 1 1 37.11 0.48 0
 -1 1 2 866.81 2.1 0
 -1 1 3 0.3 0.11 0
 -1 3 -8 19.55 0.52 0
 -1 3 -7 3.27 0.3 0
 -1 3 -6 75.47 1 0
 -1 3 -5 2.89 0.31 0
 -1 3 -4 122.34 1.3 0
 -1 3 -3 172.41 1.56 0
 -1 3 -2 1.63 0.26 0
 -1 3 -1 153.09 1.43 0
 -1 3 0 496 2.53 0
 -1 3 1 1169.21 3.85 0
 -1 3 2 305.6 2 0
 -1 3 3 282.51 1.9 0
 -1 5 -6 311.95 2.56 0
 -1 5 -4 2.66 0.38 0
 -1 5 -2 327.91 2.67 0
 -1 5 -1 399.27 2.95 0
 0 2 -5 118.79 0.93 0
 0 2 -4 282.87 1.43 0
 0 2 -2 720.49 2.31 0
 0 2 -1 187.85 1.19 0
 0 2 0 4177.08 5.58 0
 -19 1 3 -0.3 0.89 0
 -19 3 1 4.93 1.3 0
 -19 3 2 -0.18 0.94 0
 -19 3 3 1.8 1.15 0
 -18 2 3 0.48 1.03 0
 -18 2 4 17.89 1.55 0
 -18 2 5 0.87 0.89 0
 -18 4 1 0.58 1.04 0
 -18 4 2 0.49 1 0
 -18 4 3 1.47 1.13 0
 -18 4 4 3.39 1.2 0
 -18 4 5 6.58 1.18 0
 -18 4 6 7.38 1.23 0
 -18 6 0 16.25 1.79 0
 -18 6 1 7.64 1.39 0
 -18 6 2 0.64 1.11 0
 -18 6 3 0.87 1.09 0
 -18 6 4 0.47 1.17 0
 -18 6 5 -0.39 1.05 0
 -17 1 5 1.18 0.8 0
 -17 3 3 10.44 1.44 0
 -17 3 4 21.38 1.62 0
 -17 3 5 3.46 1.09 0
 -17 3 6 6.6 1.15 0
 -17 5 0 -0.87 0.91 0
 -17 5 1 1.06 0.98 0
 -17 5 2 2.03 1.16 0
 -17 5 3 22.38 1.78 0
 -17 5 4 3.48 1.06 0
 -17 5 5 0.05 0.89 0
 -17 5 6 4.97 1.07 0
 -17 5 7 28.15 1.77 0
 -17 7 -3 21.07 2.13 0
 -17 7 -2 -0.95 1 0
 -17 7 0 -0.33 1 0
 -17 7 1 3.85 1.23 0
 -17 7 2 -1.74 0.93 0
 -17 7 3 0.82 1.04 0
 -17 7 4 0.29 1.1 0
 -17 7 5 2.58 1.14 0
 -17 7 6 0.88 1.1 0
 -17 7 7 3.89 1.03 0
 -16 2 4 78.67 2.57 0
 -16 2 5 3.14 0.89 0
 -16 2 6 26.3 1.55 0
 -16 2 7 6.44 1.03 0
 -16 4 2 7.77 1.39 0
 -16 4 3 7.15 1.28 0
 -16 4 4 -0.24 0.95 0
 -16 4 5 32.54 1.84 0
 -16 4 7 29.91 1.71 0
 -16 4 8 5.7 1.01 0
 -16 6 -1 1.73 1.08 0
 -16 6 1 -0.48 0.94 0
 -16 6 2 0.04 1.03 0
 -16 6 3 18.82 1.76 0
 -16 6 4 -0.27 0.84 0
 -16 6 5 14.25 1.6 0
 -16 6 6 12.37 1.49 0
 -16 8 -3 0.4 1.16 0
 -16 8 -2 0.22 1.29 0
 -16 8 -1 25.11 2.01 0
 -16 8 0 0.86 1.05 0
 -16 8 1 0.48 1.11 0
 -16 8 2 0.61 1.04 0
 -16 8 3 88.79 3.1 0
 -16 8 4 4.9 1.2 0
 -16 8 5 25.57 1.97 0
 -16 8 6 1.17 1.11 0
 -16 8 7 8.69 1.32 0
 -16 8 8 -0.38 0.98 0
 -15 1 6 5.13 0.85 0
 -15 1 7 1.79 0.69 0
 -15 3 4 34.24 1.79 0
 -15 3 5 4.28 0.91 0
 -15 3 6 0.11 0.72 0
 -15 3 7 -0.02 0.63 0
 -15 3 8 14.65 1.23 0
 -15 5 2 0.83 0.86 0
 -15 5 3 22.92 1.68 0
 -15 5 4 2.56 0.91 0
 -15 5 5 -0.56 0.83 0
 -15 5 6 0.45 0.78 0
 -15 5 7 14.53 1.37 0
 -15 5 8 3.61 1.01 0
 -15 5 9 0.02 0.68 0
 -15 7 -2 1.5 1.28 0
 -15 7 -1 51.94 2.42 0
 -15 7 0 1.62 1 0
 -15 7 2 3.27 1.18 0
 -15 7 4 1.02 0.93 0
 -15 7 5 21.79 1.72 0
 -15 7 6 3.42 1.01 0
 -15 7 8 5.87 1.17 0
 -15 7 10 1.74 0.95 0
 -15 9 -3 44.95 2.51 0
 -15 9 -2 1.08 1.09 0
 -15 9 -1 30.76 2.2 0
 -15 9 0 16.63 1.65 0
 -15 9 1 6.15 1.3 0
 -15 9 2 -0.19 0.93 0
 -15 9 4 8.76 1.45 0
 -15 9 5 10 1.58 0
 -15 9 6 4.57 1.21 0
 -15 9 7 1.14 1.07 0
 -15 9 8 0.74 1.03 0
 -14 0 6 10.95 1 0
 -14 2 6 0.46 0.67 0
 -14 2 7 3.4 0.73 0
 -14 2 8 24.64 1.29 0
 -14 4 3 14.29 1.38 0
 -14 4 4 0.53 0.76 0
 -14 4 5 9.34 1.23 0
 -14 4 6 7.3 1.11 0
 -14 4 7 6.09 0.96 0
 -14 4 8 1.96 0.73 0
 -14 4 9 10.24 1.09 0
 -14 6 0 23.07 1.63 0
 -14 6 1 9.2 1.34 0
 -14 6 2 7.91 1.19 0
 -14 6 3 11.91 1.46 0
 -14 6 4 42.18 2.05 0
 -14 6 5 33.4 1.85 0
 -14 6 6 4.41 1.02 0
 -14 6 7 0.38 0.94 0
 -14 8 -9 3.4 1.17 0
 -14 8 -8 -0.46 0.96 0
 -14 8 -7 26.65 2.06 0
 -14 8 -6 4.08 1.37 0
 -14 8 -5 2.03 1.19 0
 -14 8 -4 0.1 1.05 0
 -14 8 -3 41.1 2.31 0
 -14 8 -2 -0.18 0.88 0
 -14 8 -1 0.27 1.14 0
 -14 8 0 0.11 0.98 0
 -14 8 2 0.91 1.05 0
 -14 8 3 29.98 1.96 0
 -14 8 4 5.14 1.13 0
 -14 8 5 28.24 1.86 0
 -14 8 6 0.38 0.85 0
 -14 8 7 27.94 1.88 0
 -14 8 8 5.13 1.09 0
 -14 8 10 4.06 1.02 0
 -14 8 11 2.66 0.96 0
 -14 10 -5 5.07 1.49 0
 -14 10 -3 1.17 1.19 0
 -14 10 -2 29.53 2.18 0
 -14 10 -1 -1.56 0.89 0
 -14 10 0 7.59 1.56 0
 -14 10 2 0.06 1.17 0
 -14 10 3 9.37 1.58 0
 -14 10 4 2.84 1.09 0
 -14 10 5 0.66 1.23 0
 -14 10 6 3.12 1.14 0
 -14 10 7 4.03 1.22 0
 -14 10 8 0.62 1.16 0
 -13 -1 7 2.33 0.54 0
 -13 3 4 0.65 0.73 0
 -13 3 5 28.65 1.49 0
 -13 3 6 1.91 0.71 0
 -13 3 7 49.66 1.77 0
 -13 3 8 2.12 0.69 0
 -13 3 9 12.4 1.04 0
 -13 5 2 28.21 1.69 0
 -13 5 3 5.21 1.08 0
 -13 5 4 0 0.66 0
 -13 5 5 -0.18 0.8 0
 -13 5 7 1.67 0.73 0
 -13 5 8 13.69 1.24 0
 -13 5 9 -0.56 0.62 0
 -13 5 10 4.22 0.87 0
 -13 7 -2 0.26 0.81 0
 -13 7 -1 5.24 1.17 0
 -13 7 0 6.02 1.13 0
 -13 7 2 1.09 1.02 0
 -13 7 4 14.23 1.45 0
 -13 7 5 17.52 1.58 0
 -13 7 7 89.43 2.73 0
 -13 7 8 0.55 0.91 0
 -13 7 9 5.62 1.14 0
 -13 7 10 13.58 1.35 0
 -13 7 11 29.46 1.66 0
 -13 9 -9 13.98 1.66 0
 -13 9 -8 16.52 1.74 0
 -13 9 -7 15.59 1.77 0
 -13 9 -6 16.23 1.74 0
 -13 9 -5 74.87 2.9 0
 -13 9 -4 8.66 1.53 0
 -13 9 -3 26.99 2.03 0
 -13 9 -2 8.33 1.26 0
 -13 9 -1 3.76 1.24 0
 -13 9 1 58.1 2.52 0
 -13 9 2 5.54 1.3 0
 -13 9 4 10.37 1.49 0
 -13 9 5 -0.27 0.92 0
 -13 9 7 12.72 1.58 0
 -13 9 8 3.56 1.07 0
 -13 9 9 2.7 1.09 0
 -13 9 10 2.75 1.02 0
 -13 9 11 1.49 0.92 0
 -13 9 12 -0.56 0.86 0
 -13 11 -6 2.84 1.34 0
 -13 11 -5 44.95 2.35 0
 -13 11 -4 5.29 1.39 0
 -13 11 -3 30.83 2.21 0
 -13 11 -2 -0.42 0.99 0
 -13 11 -1 5.46 1.23 0
 -13 11 0 3.03 1.29 0
 -13 11 1 27.67 2.1 0
 -13 11 2 8.85 1.48 0
 -13 11 3 4.62 1.33 0
 -13 11 5 6.21 1.32 0
 -13 11 7 1.95 1.3 0
 -12 4 3 83.22 2.36 0
 -12 4 4 4.33 0.79 0
 -12 4 5 49.46 1.8 0
 -12 4 7 65.74 2.02 0
 -12 4 8 0.3 0.65 0
 -12 4 9 4.77 0.78 0
 -12 4 10 0.65 0.62 0
 -12 4 11 2.6 0.65 0
 -12 6 1 5.28 1.06 0
 -12 6 2 17.05 1.42 0
 -12 6 4 5.3 0.98 0
 -12 6 5 1.54 0.74 0
 -12 6 6 20.2 1.37 0
 -12 6 7 7.79 1.01 0
 -12 6 9 4.67 0.89 0
 -12 6 10 4.39 0.93 0
 -12 6 11 18.37 1.32 0
 -12 8 -12 7.54 1.27 0
 -12 8 -11 95.88 3.09 0
 -12 8 -5 21.95 1.81 0
 -12 8 -4 0.71 0.92 0
 -12 8 -3 36.16 2.06 0
 -12 8 -2 7.07 1.14 0
 -12 8 -1 5.29 1.03 0
 -12 8 0 2.03 0.86 0
 -12 8 1 61.99 2.37 0
 -12 8 3 35.99 1.92 0
 -12 8 4 0.88 0.81 0
 -12 8 6 23.74 1.7 0
 -12 8 7 14.09 1.35 0
 -12 8 8 23.9 1.7 0
 -12 8 9 24.45 1.67 0
 -12 8 10 -0.84 0.9 0
 -12 8 11 14.46 1.4 0
 -12 8 12 11.94 1.31 0
 -12 10 -10 0.14 0.95 0
 -12 10 -8 0.45 0.93 0
 -12 10 -7 53.14 2.42 0
 -12 10 -6 0.87 1.15 0
 -12 10 -5 128.14 3.52 0
 -12 10 -4 -0.09 0.91 0
 -12 10 -3 -0.46 0.88 0
 -12 10 -2 20.38 1.8 0
 -12 10 -1 27.7 1.87 0
 -12 10 0 4.19 1.28 0
 -12 10 1 1.03 1.13 0
 -12 10 2 19.42 1.79 0
 -12 10 3 4.41 1.07 0
 -12 10 4 6.18 1.3 0
 -12 10 6 3.72 1.07 0
 -12 10 7 7.73 1.23 0
 -12 10 8 0.68 0.94 0
 -12 10 9 2.98 1.22 0
 -12 10 10 0.77 0.89 0
 -12 10 11 -0.28 0.85 0
 -12 12 -5 27.66 1.99 0
 -12 12 -4 2.97 1.32 0
 -12 12 -3 0.88 1.12 0
 -12 12 -2 70.08 2.85 0
 -12 12 -1 3.89 1.32 0
 -12 12 0 1.87 1.08 0
 -12 12 1 3.17 1.19 0
 -12 12 2 59.58 2.7 0
 -12 12 3 4.69 1.42 0
 -12 12 6 23.77 2.01 0
 -12 12 7 15.56 1.77 0
 -11 -1 7 5.11 0.52 0
 -11 1 8 35.61 1.17 0
 -11 5 3 3.69 0.86 0
 -11 5 4 3.39 0.74 0
 -11 5 5 3.62 0.76 0
 -11 5 6 5.76 0.95 0
 -11 5 7 0.72 0.59 0
 -11 5 8 1.68 0.62 0
 -11 5 9 1.38 0.59 0
 -11 5 10 30.74 1.43 0
 -11 5 12 39.84 1.54 0
 -11 7 -2 3.73 0.95 0
 -11 7 0 0.69 0.81 0
 -11 7 2 18.67 1.42 0
 -11 7 3 0.42 0.67 0
 -11 7 5 32.91 1.72 0
 -11 7 6 1.82 0.74 0
 -11 7 7 0.79 0.7 0
 -11 7 8 31.5 1.66 0
 -11 7 9 30.55 1.61 0
 -11 7 10 45.07 1.91 0
 -11 7 11 3.18 0.83 0
 -11 7 12 0.4 0.65 0
 -11 9 -12 6.6 1.21 0
 -11 9 -11 0.32 0.97 0
 -11 9 -10 12.31 1.46 0
 -11 9 -9 0.27 1 0
 -11 9 -8 1.83 1.08 0
 -11 9 -7 24.55 1.71 0
 -11 9 -6 0.68 1.04 0
 -11 9 -5 14.01 1.54 0
 -11 9 -4 4.14 1.07 0
 -11 9 -2 8.02 1.18 0
 -11 9 0 0.19 0.86 0
 -11 9 1 0.07 0.78 0
 -11 9 2 0.83 0.78 0
 -11 9 3 1.98 0.97 0
 -11 9 4 3.25 1.06 0
 -11 9 5 12.88 1.47 0
 -11 9 6 1.5 0.97 0
 -11 9 7 4.4 1.1 0
 -11 9 8 4.83 1.06 0
 -11 9 9 12.02 1.42 0
 -11 9 10 1.66 1.05 0
 -11 9 11 29.34 1.8 0
 -11 9 12 0.58 0.92 0
 -11 9 13 5.72 0.99 0
 -11 11 -8 18.08 1.69 0
 -11 11 -7 0.5 1.03 0
 -11 11 -5 -0.77 0.93 0
 -11 11 -4 21.67 1.75 0
 -11 11 -3 4.1 1.1 0
 -11 11 -2 40.37 2.23 0
 -11 11 -1 2.04 1.04 0
 -11 11 0 1.92 1.11 0
 -11 11 1 32.85 2.05 0
 -11 11 2 14.78 1.62 0
 -11 11 3 2.38 1.14 0
 -11 11 4 0.14 0.95 0
 -11 11 5 -0.23 0.9 0
 -11 11 6 0.59 0.94 0
 -11 11 7 1.98 1.03 0
 -11 11 8 0.52 0.99 0
 -11 11 9 2.91 1.05 0
 -11 11 10 18.89 1.73 0
 -11 11 11 45.88 2.26 0
 -11 13 -4 4.09 1.23 0
 -11 13 -3 5.51 1.41 0
 -11 13 -2 1.77 1.22 0
 -11 13 -1 -0.91 1.14 0
 -11 13 0 2.96 1.1 0
 -11 13 1 32.92 2.22 0
 -11 13 2 2 1.12 0
 -11 13 5 -0.57 1.02 0
 -10 -2 7 21.89 0.72 0
 -10 0 8 47.01 1.13 0
 -10 2 5 60.43 1.64 0
 -10 2 6 0.76 0.49 0
 -10 2 10 1.58 0.42 0
 -10 4 10 33.44 1.34 0
 -10 4 11 65.05 1.74 0
 -10 4 12 0.23 0.52 0
 -10 6 0 10.42 1.02 0
 -10 6 1 6.69 0.91 0
 -10 6 3 230.66 3.76 0
 -10 6 6 12.03 1.06 0
 -10 6 8 10.44 1.09 0
 -10 6 9 20.09 1.3 0
 -10 6 10 21.21 1.29 0
 -10 6 11 51.95 1.83 0
 -10 6 12 2.18 0.77 0
 -10 8 -12 0.8 0.99 0
 -10 8 -6 27.35 1.78 0
 -10 8 -4 2.04 0.91 0
 -10 8 -2 8.51 1.16 0
 -10 8 -1 0.12 0.8 0
 -10 8 1 2.64 0.77 0
 -10 8 4 1.8 0.85 0
 -10 8 5 3 0.85 0
 -10 8 6 48.26 2 0
 -10 8 7 87.01 2.54 0
 -10 8 8 6.69 1.11 0
 -10 8 9 -0.55 0.85 0
 -10 8 10 19.62 1.52 0
 -10 8 12 27.11 1.6 0
 -10 8 13 -0.8 0.63 0
 -10 10 -11 29.02 1.79 0
 -10 10 -10 2.39 0.91 0
 -10 10 -9 -0.02 0.95 0
 -10 10 -7 80.31 2.72 0
 -10 10 -6 20.52 1.64 0
 -10 10 -5 104.82 3.02 0
 -10 10 -3 -0.39 0.75 0
 -10 10 -2 19.99 1.64 0
 -10 10 0 3.82 0.98 0
 -10 10 1 12.94 1.39 0
 -10 10 2 3.1 0.89 0
 -10 10 3 6.34 1.25 0
 -10 10 4 1.02 0.84 0
 -10 10 5 0.98 0.88 0
 -10 10 6 -0.61 0.85 0
 -10 10 7 18.65 1.61 0
 -10 10 8 -0.42 0.73 0
 -10 10 9 1.59 0.97 0
 -10 10 10 7.2 1.17 0
 -10 10 12 -0.2 0.91 0
 -10 10 13 0.58 0.95 0
 -10 12 -9 4.22 1.07 0
 -10 12 -8 4.5 1.15 0
 -10 12 -7 2.09 1.05 0
 -10 12 -6 0.36 1.07 0
 -10 12 -5 7.84 1.25 0
 -10 12 -4 6.55 1.3 0
 -10 12 -2 0.42 0.95 0
 -10 12 -1 0.74 0.9 0
 -10 12 0 1.08 1.15 0
 -10 12 1 16.96 1.69 0
 -10 12 2 1.71 0.98 0
 -10 12 3 9.32 1.37 0
 -10 12 4 0.55 0.96 0
 -10 12 6 18.51 1.71 0
 -10 12 7 3.36 1.1 0
 -10 12 8 -0.29 1.12 0
 -10 12 10 46.44 2.33 0
 -10 14 -1 24.18 1.89 0
 -10 14 0 25.27 1.98 0
 -10 14 1 6.48 1.51 0
 -10 14 2 4.47 1.23 0
 -10 14 3 47.62 2.49 0
 -9 -1 7 11.29 0.55 0
 -9 -1 8 88.49 1.25 0
 -9 1 6 331.45 3.17 0
 -9 1 7 11.19 0.69 0
 -9 1 8 89 1.61 0
 -9 1 9 23.67 0.84 0
 -9 1 10 560.41 3.55 0
 -9 3 4 0.46 0.44 0
 -9 3 5 2.61 0.57 0
 -9 3 6 32.83 1.23 0
 -9 3 7 99.75 1.99 0
 -9 3 8 7.79 0.72 0
 -9 3 9 9.66 0.76 0
 -9 3 10 2.58 0.55 0
 -9 5 8 2.12 0.58 0
 -9 5 9 1.48 0.6 0
 -9 5 10 0.63 0.57 0
 -9 5 12 5.58 0.73 0
 -9 5 13 4 0.67 0
 -9 7 -1 83.87 2.34 0
 -9 7 0 5.96 0.85 0
 -9 7 1 54.45 1.93 0
 -9 7 2 0.52 0.62 0
 -9 7 3 90.13 2.38 0
 -9 7 4 0.71 0.56 0
 -9 7 5 112.84 2.64 0
 -9 7 6 11.84 1.16 0
 -9 7 8 33.14 1.61 0
 -9 7 10 4.93 0.94 0
 -9 7 11 200.22 3.61 0
 -9 7 12 6.24 0.9 0
 -9 7 13 9.47 1.16 0
 -9 7 14 10.57 1.11 0
 -9 9 -11 46.21 2.01 0
 -9 9 -10 43.84 1.98 0
 -9 9 -9 8.59 1.29 0
 -9 9 -8 1.05 0.96 0
 -9 9 -7 25.13 1.6 0
 -9 9 -6 27.26 1.68 0
 -9 9 -4 2.13 0.92 0
 -9 9 -3 24.93 1.52 0
 -9 9 -2 2.11 0.88 0
 -9 9 -1 15.97 1.37 0
 -9 9 0 -0.14 0.68 0
 -9 9 1 64.07 2.26 0
 -9 9 2 2.41 0.77 0
 -9 9 3 1.25 0.72 0
 -9 9 4 0.81 0.82 0
 -9 9 5 115 2.93 0
 -9 9 6 1.32 0.75 0
 -9 9 7 6.38 1.01 0
 -9 9 8 13.61 1.38 0
 -9 9 10 0.68 0.77 0
 -9 9 12 4.66 0.96 0
 -9 9 13 2.28 0.92 0
 -9 9 14 0.8 0.79 0
 -9 11 -10 0.77 0.94 0
 -9 11 -9 41.24 1.97 0
 -9 11 -8 27.36 1.73 0
 -9 11 -7 -0.36 0.76 0
 -9 11 -6 -0.65 0.83 0
 -9 11 -5 116.53 3.08 0
 -9 11 -4 9.07 1.25 0
 -9 11 -3 22 1.63 0
 -9 11 -2 5.91 1.09 0
 -9 11 -1 51.57 2.25 0
 -9 11 0 12.81 1.45 0
 -9 11 1 4.06 1.01 0
 -9 11 2 17.74 1.58 0
 -9 11 3 48.62 2.27 0
 -9 11 4 9.14 1.22 0
 -9 11 6 12.79 1.45 0
 -9 11 7 22.66 1.64 0
 -9 11 9 23.96 1.79 0
 -9 11 10 3.22 1.18 0
 -9 11 12 0.06 0.98 0
 -9 11 13 0.37 0.9 0
 -9 13 -7 6.05 1.14 0
 -9 13 -6 0.09 0.84 0
 -9 13 -5 0.32 0.93 0
 -9 13 -4 0.25 0.98 0
 -9 13 -3 14.96 1.64 0
 -9 13 -2 -1.56 0.95 0
 -9 13 -1 10.38 1.5 0
 -9 13 0 1.73 1 0
 -9 13 2 -0.16 0.92 0
 -9 13 3 0.4 0.94 0
 -9 13 4 8.06 1.34 0
 -9 13 6 2.09 1.17 0
 -9 13 7 8.2 1.31 0
 -9 13 9 1.62 1.26 0
 -8 0 6 304.09 2.61 0
 -8 0 8 136.21 1.63 0
 -8 2 5 0.49 0.37 0
 -8 2 6 3.31 0.51 0
 -8 2 7 20.66 0.87 0
 -8 2 8 57 1.32 0
 -8 2 10 18.23 0.79 0
 -8 2 11 5.26 0.52 0
 -8 4 3 246.63 3.18 0
 -8 4 4 9.78 0.8 0
 -8 4 5 116.18 2.2 0
 -8 4 6 351.69 3.73 0
 -8 4 7 152.44 2.51 0
 -8 4 8 53.57 1.54 0
 -8 4 13 0.3 0.46 0
 -8 6 7 189.7 3.17 0
 -8 6 8 68.66 1.96 0
 -8 6 9 64.15 1.88 0
 -8 6 10 3.79 0.7 0
 -8 6 11 32.45 1.43 0
 -8 6 12 6.4 0.89 0
 -8 6 13 13.13 1.08 0
 -8 6 14 3.73 0.72 0
 -8 8 -12 0.22 0.73 0
 -8 8 -11 15.12 1.32 0
 -8 8 -10 0.85 0.88 0
 -8 8 -9 -0.62 0.68 0
 -8 8 -8 3.31 0.97 0
 -8 8 -5 8.28 1.05 0
 -8 8 -4 2.39 0.7 0
 -8 8 -3 10.27 1.11 0
 -8 8 -2 21.52 1.37 0
 -8 8 -1 1.98 0.72 0
 -8 8 0 14.47 1.06 0
 -8 8 1 4.87 0.89 0
 -8 8 3 54.61 1.95 0
 -8 8 4 0.31 0.63 0
 -8 8 6 9.86 1.12 0
 -8 8 7 21.75 1.38 0
 -8 8 8 0.45 0.61 0
 -8 8 10 18.86 1.33 0
 -8 8 11 -0.44 0.63 0
 -8 8 13 3.75 0.86 0
 -8 8 14 1.19 0.8 0
 -8 8 15 19.2 1.4 0
 -8 10 -10 3.88 0.9 0
 -8 10 -9 43.56 1.93 0
 -8 10 -8 0.51 0.86 0
 -8 10 -7 0.07 0.78 0
 -8 10 -6 3.03 0.89 0
 -8 10 -5 2.13 0.8 0
 -8 10 -3 2.4 0.84 0
 -8 10 -2 47.23 2 0
 -8 10 -1 0.51 0.81 0
 -8 10 1 28.29 1.68 0
 -8 10 2 71.93 2.39 0
 -8 10 3 21.45 1.49 0
 -8 10 4 2.48 0.82 0
 -8 10 5 0.27 0.73 0
 -8 10 6 56.25 2.25 0
 -8 10 7 0.72 0.76 0
 -8 10 8 1.21 0.78 0
 -8 10 9 2.06 0.95 0
 -8 10 11 46.87 2.14 0
 -8 10 12 0.31 0.8 0
 -8 10 14 3.05 0.96 0
 -8 10 15 5.98 1.14 0
 -8 12 -8 0.41 0.75 0
 -8 12 -6 0.41 0.79 0
 -8 12 -5 -0.47 0.94 0
 -8 12 -4 27.7 1.79 0
 -8 12 -3 7.44 1.15 0
 -8 12 -1 0.65 0.98 0
 -8 12 0 18.71 1.58 0
 -8 12 1 56.08 2.31 0
 -8 12 3 56.28 2.36 0
 -8 12 4 0.62 0.85 0
 -8 12 5 1.07 1.06 0
 -8 12 6 22.02 1.67 0
 -8 12 7 16.69 1.69 0
 -8 12 10 0.24 0.93 0
 -8 12 12 0.63 0.95 0
 -8 14 -6 17.27 1.55 0
 -8 14 -5 6.63 1.19 0
 -8 14 -4 3.96 1.1 0
 -8 14 -3 12.39 1.52 0
 -8 14 -2 2.02 1.18 0
 -8 14 -1 0.06 1.1 0
 -8 14 2 1.98 1.18 0
 -8 14 5 1.86 1.12 0
 -8 14 6 0.44 1.09 0
 -8 14 7 37.85 2.28 0
 -7 1 5 28.07 0.88 0
 -7 1 6 1.59 0.35 0
 -7 1 7 -0.01 0.24 0
 -7 1 8 145.12 1.78 0
 -7 1 9 1.01 0.29 0
 -7 1 11 -0.09 0.21 0
 -7 3 5 104.7 1.84 0
 -7 3 6 6.61 0.63 0
 -7 3 7 14.86 0.8 0
 -7 3 8 55.23 1.36 0
 -7 3 9 10.41 0.71 0
 -7 3 10 -0.18 0.35 0
 -7 3 11 28.3 1.01 0
 -7 3 13 0 0.38 0
 -7 5 1 121.67 2.31 0
 -7 5 2 223.46 3.04 0
 -7 5 3 1.26 0.53 0
 -7 5 6 0.07 0.39 0
 -7 5 7 -0.15 0.4 0
 -7 5 11 -0.27 0.55 0
 -7 5 12 8.93 0.83 0
 -7 5 13 1.51 0.55 0
 -7 5 14 17.59 1.05 0
 -7 7 6 0.75 0.54 0
 -7 7 7 39.22 1.52 0
 -7 7 8 0.41 0.53 0
 -7 7 9 2.93 0.79 0
 -7 7 10 0.43 0.57 0
 -7 7 12 -0.19 0.54 0
 -7 7 13 0.42 0.64 0
 -7 7 14 -0.12 0.69 0
 -7 7 15 141.77 3.02 0
 -7 9 -11 14.31 1.23 0
 -7 9 -10 10.96 1.15 0
 -7 9 -9 -0.3 0.58 0
 -7 9 -8 4.09 0.8 0
 -7 9 -7 110.49 2.67 0
 -7 9 -6 21.82 1.33 0
 -7 9 -4 12.6 1.14 0
 -7 9 -3 4.15 0.81 0
 -7 9 0 1.92 0.71 0
 -7 9 1 11.58 0.99 0
 -7 9 2 5.51 0.89 0
 -7 9 3 44.26 1.78 0
 -7 9 4 -0.37 0.6 0
 -7 9 5 24.77 1.51 0
 -7 9 6 10.6 1.18 0
 -7 9 8 18.77 1.42 0
 -7 9 9 112.79 2.83 0
 -7 9 10 1.08 0.72 0
 -7 9 12 19.95 1.5 0
 -7 9 14 13.61 1.33 0
 -7 11 -9 0.72 0.81 0
 -7 11 -8 56.78 2.05 0
 -7 11 -6 0.79 0.9 0
 -7 11 -3 42.03 1.86 0
 -7 11 -2 4.51 1.06 0
 -7 11 0 169.69 3.54 0
 -7 11 1 90.86 2.71 0
 -7 11 3 50.96 2.05 0
 -7 11 4 87.85 2.71 0
 -7 11 6 12.5 1.42 0
 -7 11 9 61.51 2.43 0
 -7 11 10 0.41 0.85 0
 -7 11 12 5.49 1.24 0
 -7 11 13 31.1 1.88 0
 -7 11 14 12.81 1.44 0
 -7 13 -6 44.56 2.03 0
 -7 13 -2 6.79 1.2 0
 -7 13 -1 3.4 1.01 0
 -7 13 1 17.74 1.62 0
 -7 13 2 2.67 1.13 0
 -7 13 3 27.28 1.9 0
 -7 13 5 4.07 1.25 0
 -7 13 6 6.31 1.18 0
 -7 13 7 -0.47 0.9 0
 -7 13 8 0.65 0.94 0
 -7 13 9 1.1 1.18 0
 -7 13 10 2.34 1.13 0
 -7 13 11 -0.17 0.99 0
 -7 15 -5 5.4 1.08 0
 -7 15 -4 6.01 1.16 0
 -7 15 -3 23.72 1.78 0
 -7 15 -1 9.88 1.45 0
 -7 15 0 5.16 1.29 0
 -7 15 1 4.35 1.14 0
 -7 15 2 0.1 1 0
 -7 15 3 33.54 2.11 0
 -6 -2 6 56.25 0.68 0
 -6 2 7 10.16 0.6 0
 -6 2 8 179.51 2.08 0
 -6 2 9 1.84 0.34 0
 -6 2 11 7.78 0.55 0
 -6 2 12 1.15 0.33 0
 -6 4 2 676.46 4.67 0
 -6 4 4 16.45 0.8 0
 -6 4 5 186.86 2.48 0
 -6 4 6 643.19 4.56 0
 -6 4 7 137.83 2.18 0
 -6 4 8 32.82 1.15 0
 -6 4 9 35.45 1.2 0
 -6 4 10 146.32 2.33 0
 -6 6 0 94.54 2 0
 -6 6 2 -0.04 0.36 0
 -6 6 5 60.38 1.69 0
 -6 6 10 4.08 0.67 0
 -6 6 12 9.63 0.95 0
 -6 6 13 0.18 0.65 0
 -6 6 14 7.73 0.93 0
 -6 6 15 0.23 0.55 0
 -6 8 -11 107.61 2.4 0
 -6 8 -10 10.77 1.04 0
 -6 8 -8 65 1.94 0
 -6 8 -7 236.31 3.6 0
 -6 8 -6 3.88 0.71 0
 -6 8 -5 61.57 1.83 0
 -6 8 3 4.82 0.71 0
 -6 8 4 0.46 0.57 0
 -6 8 5 7.58 0.87 0
 -6 8 6 5.22 0.85 0
 -6 8 7 1.21 0.58 0
 -6 8 8 0.82 0.56 0
 -6 8 10 15.33 1.18 0
 -6 8 11 95.9 2.47 0
 -6 8 12 2.06 0.71 0
 -6 8 13 20.32 1.39 0
 -6 8 14 2.39 0.85 0
 -6 8 16 0.99 0.73 0
 -6 10 -10 11.98 1.1 0
 -6 10 -9 1.35 0.78 0
 -6 10 -8 3.83 0.9 0
 -6 10 -6 3.86 0.77 0
 -6 10 -5 22.53 1.33 0
 -6 10 -4 0.6 0.6 0
 -6 10 -3 2.17 0.72 0
 -6 10 -2 1.31 0.66 0
 -6 10 -1 26.76 1.49 0
 -6 10 0 -0.43 0.68 0
 -6 10 1 17.35 1.25 0
 -6 10 2 10.34 1.01 0
 -6 10 3 123.64 2.89 0
 -6 10 4 1.43 0.72 0
 -6 10 5 6 0.95 0
 -6 10 6 23.59 1.41 0
 -6 10 9 72.78 2.43 0
 -6 10 11 19.26 1.55 0
 -6 10 12 0.29 0.76 0
 -6 10 13 -0.44 0.79 0
 -6 10 14 18.52 1.58 0
 -6 10 15 31.54 1.82 0
 -6 10 16 -0.78 0.7 0
 -6 12 -8 24.8 1.49 0
 -6 12 -7 2.72 0.85 0
 -6 12 -6 2.05 0.85 0
 -6 12 -4 7.68 1.19 0
 -6 12 -3 6.83 1.06 0
 -6 12 -2 0.39 0.73 0
 -6 12 -1 -0.09 0.79 0
 -6 12 0 -0.21 0.69 0
 -6 12 1 11.72 1.25 0
 -6 12 2 2.28 0.88 0
 -6 12 3 32.14 1.83 0
 -6 12 4 -0.29 0.7 0
 -6 12 6 6.66 1.12 0
 -6 12 7 45.48 2.18 0
 -6 12 8 0.29 0.81 0
 -6 12 10 6.28 1.14 0
 -6 12 11 0.14 0.86 0
 -6 12 12 0.33 0.9 0
 -6 12 13 0.92 1.09 0
 -6 14 -6 1.79 0.82 0
 -6 14 -5 0.12 0.75 0
 -6 14 -4 49.07 2.12 0
 -6 14 -3 2.14 0.99 0
 -6 14 -2 0.57 0.96 0
 -6 14 -1 24.13 1.78 0
 -6 14 0 37.86 2.08 0
 -6 14 1 24.98 1.76 0
 -6 14 2 -0.08 0.92 0
 -6 14 3 -0.39 0.81 0
 -6 14 4 2.63 1.06 0
 -6 14 5 28.2 1.96 0
 -6 14 6 4.85 1.14 0
 -6 14 7 14.66 1.57 0
 -6 14 8 -0.03 1.11 0
 -6 14 9 2.03 1.07 0
 -5 -1 5 129.18 1.11 0
 -5 -1 6 441.8 1.84 0
 -5 -1 7 17.14 0.36 0
 -5 -1 8 8.63 0.24 0
 -5 1 5 133.96 1.51 0
 -5 1 10 345.03 2.42 0
 -5 1 11 3.38 0.37 0
 -5 3 7 0.1 0.27 0
 -5 3 8 20.97 0.82 0
 -5 3 9 149.89 2.07 0
 -5 3 10 0.15 0.34 0
 -5 3 11 -0.21 0.29 0
 -5 3 12 10.78 0.7 0
 -5 5 3 37.81 1.16 0
 -5 5 4 0.53 0.34 0
 -5 5 5 18.87 0.85 0
 -5 5 6 94.42 1.86 0
 -5 5 7 47.79 1.39 0
 -5 5 8 14.91 0.91 0
 -5 5 9 1.24 0.44 0
 -5 5 13 0.95 0.52 0
 -5 5 14 0.33 0.5 0
 -5 5 15 0.48 0.57 0
 -5 7 -4 27.62 1.19 0
 -5 7 -1 53.36 1.53 0
 -5 7 0 175.99 2.75 0
 -5 7 1 52.33 1.54 0
 -5 7 2 3.42 0.57 0
 -5 7 3 31.98 1.26 0
 -5 7 8 10.49 0.92 0
 -5 7 9 344.69 4.17 0
 -5 7 10 1.03 0.61 0
 -5 7 11 7.69 0.85 0
 -5 7 12 4.34 0.8 0
 -5 7 15 0.03 0.61 0
 -5 9 -10 1 0.61 0
 -5 9 -9 7.99 0.92 0
 -5 9 -8 8.51 0.91 0
 -5 9 -7 30.26 1.37 0
 -5 9 -6 2.83 0.67 0
 -5 9 -5 97.69 2.26 0
 -5 9 -4 17.44 1.1 0
 -5 9 -3 0.22 0.51 0
 -5 9 -2 2.72 0.71 0
 -5 9 -1 70.41 2 0
 -5 9 1 6.17 0.85 0
 -5 9 2 1.1 0.54 0
 -5 9 3 0.99 0.55 0
 -5 9 4 0.91 0.55 0
 -5 9 5 39.24 1.6 0
 -5 9 6 9.2 0.92 0
 -5 9 9 33.2 1.61 0
 -5 9 10 0.84 0.69 0
 -5 9 12 19.01 1.46 0
 -5 9 14 15.8 1.39 0
 -5 9 15 3.03 0.95 0
 -5 9 16 0.99 0.86 0
 -5 11 -8 22.93 1.32 0
 -5 11 -7 38.54 1.63 0
 -5 11 -6 22.76 1.37 0
 -5 11 -4 5.15 0.86 0
 -5 11 -3 1.82 0.69 0
 -5 11 -2 1.71 0.76 0
 -5 11 -1 18.97 1.29 0
 -5 11 0 78.43 2.36 0
 -5 11 1 88.72 2.5 0
 -5 11 3 5.23 0.88 0
 -5 11 4 101.87 2.72 0
 -5 11 5 10.52 1.22 0
 -5 11 7 1.58 0.76 0
 -5 11 9 4.44 0.97 0
 -5 11 11 40.4 2.04 0
 -5 11 12 1 1.03 0
 -5 11 13 44.8 2.09 0
 -5 11 14 1.41 1.09 0
 -5 13 -7 70.8 2.18 0
 -5 13 -6 118.97 2.81 0
 -5 13 -4 24.35 1.52 0
 -5 13 -3 5.53 1.09 0
 -5 13 -2 72.88 2.45 0
 -5 13 0 66.99 2.37 0
 -5 13 1 19.89 1.6 0
 -5 13 3 13.41 1.44 0
 -5 13 5 -0.48 0.77 0
 -5 13 6 -0.34 0.76 0
 -5 13 7 3.06 1.11 0
 -5 13 8 0.77 0.91 0
 -5 13 9 4.31 1.23 0
 -5 13 10 0.23 0.98 0
 -5 13 11 1.39 0.96 0
 -5 13 12 0.21 0.97 0
 -5 15 -4 5.84 1.12 0
 -5 15 -3 0.11 0.79 0
 -5 15 -2 48.11 2.17 0
 -5 15 -1 3.67 1 0
 -5 15 0 2.01 0.96 0
 -5 15 2 13.22 1.62 0
 -5 15 3 9.89 1.35 0
 -5 15 5 1.12 1.02 0
 -5 15 6 20.79 1.78 0
 -5 15 7 9.64 1.42 0
 -4 0 4 801.71 2.85 0
 -4 0 6 64.04 0.81 0
 -4 0 8 1.95 0.22 0
 -4 2 3 52.77 1.01 0
 -4 2 4 69.64 1.15 0
 -4 2 5 754.27 3.65 0
 -4 2 9 66.94 1.24 0
 -4 2 10 30.55 0.87 0
 -4 2 11 107.79 1.64 0
 -4 2 12 0.31 0.27 0
 -4 4 5 307.18 2.89 0
 -4 4 6 35.79 1.07 0
 -4 4 9 79.67 1.62 0
 -4 4 10 3.62 0.53 0
 -4 6 -3 249.55 2.9 0
 -4 6 -1 31.67 1.09 0
 -4 6 0 46.77 1.32 0
 -4 6 1 285.63 3.1 0
 -4 6 4 2.68 0.46 0
 -4 6 5 186.7 2.67 0
 -4 6 6 19.13 0.99 0
 -4 6 7 1.32 0.47 0
 -4 6 11 31.94 1.34 0
 -4 6 12 52.65 1.64 0
 -4 6 13 14.44 1.09 0
 -4 6 14 1.4 0.62 0
 -4 8 -5 23.03 1.09 0
 -4 8 -3 175.77 2.75 0
 -4 8 -2 29.59 1.24 0
 -4 8 6 32.11 1.35 0
 -4 8 7 0.77 0.6 0
 -4 8 8 11.92 1 0
 -4 8 9 2.7 0.68 0
 -4 8 10 55.37 1.88 0
 -4 8 11 61.53 2.02 0
 -4 8 12 -0.13 0.72 0
 -4 8 13 0.12 0.81 0
 -4 8 14 37.49 1.75 0
 -4 10 -9 29.16 1.28 0
 -4 10 -8 11.31 0.96 0
 -4 10 -7 12.84 1 0
 -4 10 -6 5.45 0.87 0
 -4 10 -5 0.19 0.48 0
 -4 10 -4 0.43 0.52 0
 -4 10 -3 59.87 1.87 0
 -4 10 -2 0.43 0.51 0
 -4 10 -1 3.99 0.79 0
 -4 10 0 26.87 1.39 0
 -4 10 1 29.88 1.45 0
 -4 10 3 0.56 0.68 0
 -4 10 4 26.95 1.34 0
 -4 10 5 11.59 1.09 0
 -4 10 6 27.81 1.51 0
 -4 10 7 29.93 1.62 0
 -4 10 8 -0.54 0.68 0
 -4 10 10 1.32 0.74 0
 -4 10 11 1.16 0.92 0
 -4 10 12 5.57 1.01 0
 -4 10 13 61.58 2.31 0
 -4 10 15 35.38 1.89 0
 -4 12 -7 4.74 0.84 0
 -4 12 -6 -0.01 0.74 0
 -4 12 -4 51.84 1.9 0
 -4 12 -2 5.35 0.86 0
 -4 12 -1 1.16 0.76 0
 -4 12 0 111.74 2.78 0
 -4 12 1 20.31 1.46 0
 -4 12 2 49.28 1.97 0
 -4 12 3 -0.67 0.6 0
 -4 12 4 74.07 2.44 0
 -4 12 5 0.22 0.84 0
 -4 12 6 94.44 2.78 0
 -4 12 7 14.82 1.46 0
 -4 12 9 20 1.69 0
 -4 12 11 0.61 0.94 0
 -4 12 12 4.45 1.15 0
 -4 12 13 1.39 1.16 0
 -4 12 14 3.18 1.05 0
 -4 14 -5 11.64 1.22 0
 -4 14 -4 12.94 1.28 0
 -4 14 -3 -0.2 0.72 0
 -4 14 -2 20.6 1.51 0
 -4 14 -1 -0.02 0.9 0
 -4 14 0 7.44 1.25 0
 -4 14 1 0.46 0.81 0
 -4 14 2 2.83 1.02 0
 -4 14 3 3.76 1 0
 -4 14 4 10.22 1.43 0
 -4 14 5 8.15 1.34 0
 -4 14 6 2.22 1.04 0
 -4 14 7 0.37 1.11 0
 -4 14 8 17.95 1.74 0
 -4 14 9 1.69 1.02 0
 -4 14 10 15.48 1.75 0
 -4 16 -3 5.91 1.15 0
 -4 16 -2 6.25 1.17 0
 -4 16 -1 0.71 0.87 0
 -4 16 0 29.51 1.89 0
 -4 16 1 1.58 1.16 0
 -4 16 2 16.02 1.71 0
 -4 16 3 1.06 1.03 0
 -3 -1 4 14.99 0.28 0
 -3 -1 6 4.68 0.15 0
 -3 1 3 572.81 2.49 0
 -3 1 5 0.22 0.17 0
 -3 1 6 4.85 0.31 0
 -3 1 7 188.75 1.62 0
 -3 1 10 520.4 3 0
 -3 3 1 634.17 3.38 0
 -3 3 2 1346.05 4.91 0
 -3 3 3 11.34 0.57 0
 -3 3 4 935.39 4.26 0
 -3 3 7 18.27 0.73 0
 -3 3 8 784.67 4.33 0
 -3 3 10 2.97 0.44 0
 -3 3 11 7.79 0.65 0
 -3 3 12 114.22 1.97 0
 -3 5 -2 12.88 0.66 0
 -3 5 -1 90.58 1.53 0
 -3 5 7 241.69 2.84 0
 -3 5 9 127.07 2.21 0
 -3 5 10 -0.13 0.5 0
 -3 5 13 35.12 1.36 0
 -3 7 -11 36.24 1.15 0
 -3 7 -10 3.82 0.52 0
 -3 7 -9 4.23 0.57 0
 -3 7 -8 37.67 1.19 0
 -3 7 -7 39.06 1.2 0
 -3 7 -6 21.1 0.93 0
 -3 7 -5 54.43 1.4 0
 -3 7 -3 132.49 2.12 0
 -3 7 -2 190.26 2.57 0
 -3 7 -1 88.06 1.81 0
 -3 7 0 7.74 0.68 0
 -3 7 1 241.47 2.96 0
 -3 7 2 74.35 1.69 0
 -3 7 3 44.57 1.36 0
 -3 7 4 27.44 1.14 0
 -3 7 5 8.72 0.77 0
 -3 7 9 335.03 4.02 0
 -3 7 10 12.63 1.03 0
 -3 7 11 34.79 1.48 0
 -3 7 13 222.17 3.61 0
 -3 9 4 12.97 0.99 0
 -3 9 5 0.45 0.48 0
 -3 9 6 8.76 0.91 0
 -3 9 8 2.76 0.68 0
 -3 9 9 190.27 3.49 0
 -3 9 10 13.27 1.18 0
 -3 9 11 11.32 1.21 0
 -3 9 12 9.84 1.13 0
 -3 9 14 -0.38 0.71 0
 -3 11 -8 79.76 1.93 0
 -3 11 -7 94.82 2.15 0
 -3 11 -6 7.58 0.94 0
 -3 11 -5 0.12 0.63 0
 -3 11 -4 89.23 2.2 0
 -3 11 -2 8.39 0.99 0
 -3 11 1 8.19 0.9 0
 -3 11 2 3.75 0.75 0
 -3 11 3 69.89 2.15 0
 -3 11 5 -0.28 0.6 0
 -3 11 6 0.27 0.69 0
 -3 11 8 -0.14 0.79 0
 -3 11 9 43.66 2.04 0
 -3 11 10 16.41 1.53 0
 -3 11 11 0.47 0.89 0
 -3 11 12 0.74 0.98 0
 -3 11 13 0.47 0.92 0
 -3 11 14 14.21 1.43 0
 -3 13 -6 13.73 1.14 0
 -3 13 -5 4.47 0.92 0
 -3 13 -4 -0.06 0.66 0
 -3 13 -3 25.31 1.49 0
 -3 13 -2 21.84 1.42 0
 -3 13 -1 3.27 0.87 0
 -3 13 0 1.35 0.75 0
 -3 13 1 0.76 0.73 0
 -3 13 2 12.68 1.35 0
 -3 13 3 7.29 1.15 0
 -3 13 4 0.35 0.79 0
 -3 13 5 0.39 0.8 0
 -3 13 8 0.82 0.9 0
 -3 13 10 15.06 1.57 0
 -3 13 11 2.82 1.26 0
 -3 13 12 2.44 1.13 0
 -3 15 -4 35.93 1.75 0
 -3 15 -3 7.42 1.05 0
 -3 15 -2 -0.16 0.77 0
 -3 15 -1 0.52 0.8 0
 -3 15 0 38.11 2 0
 -3 15 1 1.35 1.06 0
 -3 15 2 2.61 1.09 0
 -3 15 3 3.17 1.05 0
 -3 15 4 0.74 1.07 0
 -3 15 5 -0.19 0.9 0
 -3 15 6 1.33 1.02 0
 -3 15 7 3.63 1.19 0
 -3 15 8 8.34 1.42 0
 -2 0 4 21.78 0.38 0
 -2 0 6 0.83 0.17 0
 -2 2 1 1047.91 3.47 0
 -2 2 2 2371.77 5.32 0
 -2 2 4 126.94 1.35 0
 -2 2 5 1361.27 4.51 0
 -2 2 6 157.01 1.61 0
 -2 2 9 589.9 3.53 0
 -2 2 10 20.32 0.78 0
 -2 4 -2 0.44 0.32 0
 -2 4 -1 3.5 0.41 0
 -2 4 1 749.09 3.81 0
 -2 4 2 362.14 2.72 0
 -2 4 3 1.1 0.29 0
 -2 4 7 29.39 0.96 0
 -2 4 8 2.72 0.47 0
 -2 4 9 393.89 3.46 0
 -2 4 10 56.36 1.4 0
 -2 6 -11 5.97 0.55 0
 -2 6 -10 12.22 0.68 0
 -2 6 -9 43.58 1.11 0
 -2 6 -8 226.31 2.42 0
 -2 6 -6 90.36 1.54 0
 -2 6 -5 16.59 0.74 0
 -2 6 -3 38.2 1.03 0
 -2 6 -2 178.26 2.18 0
 -2 6 -1 57.53 1.29 0
 -2 6 1 0.95 0.32 0
 -2 6 6 -0.01 0.4 0
 -2 6 7 6.52 0.69 0
 -2 6 8 59.87 1.59 0
 -2 6 11 3.44 0.61 0
 -2 6 12 20.46 1.15 0
 -2 8 -9 35.15 1.08 0
 -2 8 -8 1.4 0.44 0
 -2 8 -7 0.6 0.35 0
 -2 8 -6 7.61 0.68 0
 -2 8 -5 235.14 2.81 0
 -2 8 -3 39.81 1.23 0
 -2 8 -2 1.15 0.43 0
 -2 8 -1 111.85 2.1 0
 -2 8 0 99.68 2.04 0
 -2 8 1 53.83 1.52 0
 -2 8 2 23.72 1.09 0
 -2 8 7 14.87 1.06 0
 -2 8 8 22 1.24 0
 -2 8 9 106.04 2.42 0
 -2 8 10 29.5 1.47 0
 -2 8 11 0.66 0.6 0
 -2 8 12 11.46 1.14 0
 -2 8 13 48.3 1.93 0
 -2 8 14 70.74 2.2 0
 -2 10 0 0.44 0.57 0
 -2 10 1 431.23 4.64 0
 -2 10 2 3.94 0.71 0
 -2 10 3 155.74 2.98 0
 -2 10 4 36.5 1.59 0
 -2 10 6 55.56 1.93 0
 -2 10 7 90.22 2.45 0
 -2 10 8 12.76 1.16 0
 -2 10 10 60.43 2.13 0
 -2 10 11 29.41 1.67 0
 -2 10 12 -0.34 0.8 0
 -2 10 13 49.55 2.15 0
 -2 12 -6 0.58 0.57 0
 -2 12 -5 0.96 0.58 0
 -2 12 -4 -0.21 0.54 0
 -2 12 -3 1.53 0.66 0
 -2 12 -2 0.81 0.72 0
 -2 12 -1 0.34 0.72 0
 -2 12 1 73.07 2.23 0
 -2 12 3 23.01 1.5 0
 -2 12 4 96.62 2.68 0
 -2 12 5 22.18 1.56 0
 -2 12 7 1.62 0.79 0
 -2 12 8 36.32 1.94 0
 -2 12 9 25.73 1.66 0
 -2 12 10 175.64 3.82 0
 -2 12 11 0.87 1.07 0
 -2 12 12 1.03 0.99 0
 -2 12 13 35.28 2.05 0
 -2 14 -4 22.4 1.41 0
 -2 14 -3 28.75 1.57 0
 -2 14 -2 50.69 1.99 0
 -2 14 -1 6.87 1.07 0
 -2 14 0 41.3 1.88 0
 -2 14 1 0.79 0.75 0
 -2 14 2 15.11 1.5 0
 -2 14 3 -0.11 0.85 0
 -2 14 4 15 1.49 0
 -2 14 6 0.44 0.87 0
 -2 14 7 5.48 1.2 0
 -2 14 8 0.28 0.91 0
 -2 14 9 0.7 0.97 0
 -2 14 10 0.88 1.09 0
 -2 14 11 4.81 1.25 0
 -2 16 -2 2.51 0.87 0
 -2 16 -1 1.43 0.84 0
 -2 16 0 2.85 1.09 0
 -2 16 1 0.68 0.9 0
 -2 16 2 -0.18 0.86 0
 -2 16 3 1.09 0.95 0
 -2 16 4 4.66 1.28 0
 -2 16 5 2.81 1.13 0
 -1 1 2 872.43 2.4 0
 -1 1 3 0.26 0.16 0
 -1 1 4 1357.1 3.55 0
 -1 1 5 140.87 1.28 0
 -1 1 6 583.69 2.72 0
 -1 1 7 11.59 0.46 0
 -1 3 -1 153.59 1.37 0
 -1 3 0 489.13 2.46 0
 -1 3 1 1176.72 3.96 0
 -1 3 2 305.3 2.13 0
 -1 3 3 293.46 2.18 0
 -1 3 4 756.99 3.61 0
 -1 3 5 921.81 4.14 0
 -1 3 8 942.04 4.75 0
 -1 3 9 449.51 3.46 0
 -1 3 10 24.17 0.91 0
 -1 5 -7 149.87 1.7 0
 -1 5 -6 319.63 2.42 0
 -1 5 -5 108.55 1.45 0
 -1 5 -4 3.42 0.39 0
 -1 5 -3 59.85 1.09 0
 -1 5 -2 325.78 2.51 0
 -1 5 -1 406.23 2.85 0
 -1 5 0 222.1 2.18 0
 -1 5 1 19.74 0.7 0
 -1 5 6 101.97 1.79 0
 -1 5 7 401.66 3.56 0
 -1 5 8 520.13 4.17 0
 -1 5 9 283.14 3.21 0
 -1 7 -9 77.5 1.33 0
 -1 7 -8 18.94 0.73 0
 -1 7 -7 246.24 2.43 0
 -1 7 -6 17.17 0.75 0
 -1 7 -5 148.67 1.95 0
 -1 7 -4 8.13 0.59 0
 -1 7 -3 295.62 2.83 0
 -1 7 -2 0.66 0.35 0
 -1 7 -1 56.35 1.34 0
 -1 7 0 10.82 0.72 0
 -1 7 1 867.49 5.19 0
 -1 7 2 5.02 0.61 0
 -1 7 3 89.81 1.79 0
 -1 7 4 9.8 0.69 0
 -1 7 5 476.5 4.25 0
 -1 7 6 8.52 0.79 0
 -1 7 9 8.48 0.78 0
 -1 7 10 54.08 1.74 0
 -1 7 11 18.09 1.16 0
 -1 7 12 14.44 1.13 0
 -1 9 -8 29.06 0.98 0
 -1 9 -7 6.16 0.6 0
 -1 9 -6 15.22 0.82 0
 -1 9 -5 1.4 0.42 0
 -1 9 -4 25.29 1.04 0
 -1 9 -3 11.77 0.77 0
 -1 9 -2 97.71 2 0
 -1 9 0 5.94 0.68 0
 -1 9 4 44.59 1.54 0
 -1 9 6 14.64 0.98 0
 -1 9 7 52.69 1.8 0
 -1 9 8 19.18 1.24 0
 -1 9 9 6.79 0.97 0
 -1 9 10 20.62 1.36 0
 -1 9 11 0.26 0.63 0
 -1 9 13 19.48 1.48 0
 -1 11 -5 4.35 0.69 0
 -1 11 -4 -0.1 0.44 0
 -1 11 -3 103.27 2.22 0
 -1 11 -2 -0.25 0.49 0
 -1 11 -1 33.71 1.46 0
 -1 11 0 80.33 2.12 0
 -1 11 1 26.67 1.37 0
 -1 11 2 2.97 0.67 0
 -1 11 3 -0.23 0.54 0
 -1 11 5 9.74 1.02 0
 -1 11 6 41.25 1.8 0
 -1 11 7 47.23 1.96 0
 -1 11 8 72.44 2.33 0
 -1 11 9 94.36 2.73 0
 -1 11 10 46.26 2.1 0
 -1 11 11 1.5 0.85 0
 -1 13 -5 13.11 1.05 0
 -1 13 -4 0.69 0.67 0
 -1 13 -3 2.01 0.75 0
 -1 13 -2 22.44 1.34 0
 -1 13 0 1.49 0.77 0
 -1 13 1 3 0.91 0
 -1 13 3 29.93 1.69 0
 -1 13 5 0.95 0.97 0
 -1 13 6 1.06 0.97 0
 -1 13 7 64.79 2.47 0
 -1 13 8 10.06 1.43 0
 -1 13 9 28.79 1.85 0
 -1 13 11 0.89 1.02 0
 -1 13 12 0.08 1.01 0
 -1 15 -3 -0.64 0.79 0
 -1 15 -2 77.55 2.37 0
 -1 15 -1 8.22 1.13 0
 -1 15 0 16.47 1.45 0
 -1 15 1 0.17 0.79 0
 -1 15 2 88.75 2.71 0
 -1 15 3 11.36 1.34 0
 -1 15 4 2.33 1 0
 -1 15 5 0.02 0.94 0
 -1 15 6 47.67 2.34 0
 -1 15 8 0.2 0.96 0
 0 2 -2 715.03 2.05 0
 0 2 -1 192.64 1.1 0
 0 2 0 4133.41 5.38 0
 0 2 2 711.5 2.65 0
 0 2 4 281.73 1.95 0
 0 2 5 118.63 1.37 0
 0 2 6 462.45 2.83 0
 0 4 -6 3.37 0.29 0
 0 4 -4 827.48 3.08 0
 0 4 -3 236.08 1.71 0
 0 4 -2 92.67 1.12 0
 0 4 -1 63.54 0.98 0
 0 4 0 681.22 3.2 0
 0 4 1 66.8 1.1 0
 0 4 2 93.37 1.35 0
 0 4 3 233.87 2.16 0
 0 4 4 829.86 4.19 0
 0 4 7 53.84 1.25 0
 0 4 8 316.03 3.08 0
 0 4 9 8.11 0.7 0
 0 4 10 12.35 0.81 0
 0 6 -9 35.17 0.75 0
 0 6 -8 0.15 0.2 0
 0 6 -7 7.25 0.43 0
 0 6 -6 11.36 0.51 0
 0 6 -5 6.26 0.45 0
 0 6 -4 36.91 0.88 0
 0 6 -3 2.07 0.32 0
 0 6 -2 1.99 0.35 0
 0 6 -1 182.6 2.04 0
 0 6 0 12.7 0.65 0
 0 6 1 176.67 2.14 0
 0 6 2 1.83 0.4 0
 0 6 5 6.22 0.63 0
 0 6 6 10.77 0.7 0
 0 6 7 7.44 0.73 0
 0 6 8 0.18 0.4 0
 0 8 -8 1.91 0.36 0
 0 8 -7 2.64 0.42 0
 0 8 -6 0.22 0.3 0
 0 8 -5 333.98 2.94 0
 0 8 -4 4.92 0.55 0
 0 8 -3 105.03 1.8 0
 0 8 -2 4.39 0.54 0
 0 8 -1 846.88 5.16 0
 0 8 0 30.62 1.1 0
 0 8 1 830.5 5.38 0
 0 8 3 99.14 2.02 0
 0 8 7 2.47 0.61 0
 0 8 9 3.7 0.72 0
 0 8 10 2.54 0.7 0
 0 8 12 18.86 1.36 0
 0 10 -7 106.8 1.83 0
 0 10 -6 1.9 0.44 0
 0 10 -4 11.94 0.82 0
 0 10 2 0.27 0.45 0
 0 10 3 2.25 0.6 0
 0 10 4 11.89 0.94 0
 0 10 5 172.23 3.17 0
 0 10 6 2.06 0.75 0
 0 10 8 -0.21 0.71 0
 0 10 9 9.43 1.07 0
 0 10 10 15.5 1.31 0
 0 10 11 41.47 1.94 0
 0 10 12 0.24 0.93 0
 0 12 -5 13.44 0.97 0
 0 12 -4 0.18 0.6 0
 0 12 -3 13.79 1.05 0
 0 12 -2 0.87 0.55 0
 0 12 -1 32.61 1.49 0
 0 12 0 -0.15 0.7 0
 0 12 1 33.63 1.59 0
 0 12 2 0.87 0.63 0
 0 12 3 11.52 1.24 0
 0 12 4 0.63 0.65 0
 0 12 7 30.61 1.68 0
 0 12 8 -0.44 0.71 0
 0 12 9 0.11 0.93 0
 0 12 10 13.41 1.5 0
 0 12 11 1.17 0.97 0
 0 12 12 2.46 0.93 0
 0 14 -4 76.96 2.11 0
 0 14 -3 11.11 1.12 0
 0 14 -2 2.28 0.74 0
 0 14 -1 -0.38 0.65 0
 0 14 0 147.4 3.15 0
 0 14 1 -0.46 0.85 0
 0 14 2 1.94 0.94 0
 0 14 5 13.49 1.54 0
 0 14 6 0.74 0.89 0
 0 14 7 0.59 0.96 0
 0 14 8 20.82 1.81 0
 0 14 9 20.34 1.78 0
 0 14 10 2.95 1.09 0
 0 16 -1 0.44 0.86 0
 0 16 0 57.92 2.23 0
 0 16 1 0.42 0.81 0
 0 16 2 4.57 1.19 0
 0 16 3 3.5 1.17 0
 0 16 5 9.47 1.49 0
 1 1 0 2010.88 2.74 0
 1 3 -6 172.85 0.93 0
 1 3 -5 903.38 2.09 0
 1 3 -4 749.96 1.99 0
 1 3 -3 288.15 1.35 0
 1 3 -2 302.03 1.5 0
 1 3 -1 1136.76 3.15 0
 1 3 0 489.35 2.25 0
 1 3 1 155.61 1.39 0
 1 3 2 1.38 0.27 0
 1 3 3 173.48 1.68 0
 1 3 4 125.51 1.52 0
 1 3 7 4 0.43 0
 1 5 -8 526.85 1.85 0
 1 5 -7 413.19 1.85 0
 1 5 -6 100.78 1.02 0
 1 5 -5 27.54 0.6 0
 1 5 -4 536.48 2.58 0
 1 5 -3 777.73 3.28 0
 1 5 -2 358.18 2.35 0
 1 5 0 222.42 2.05 0
 1 5 1 396.08 2.82 0
 1 5 2 333.02 2.71 0
 1 5 6 315.81 3.1 0
 1 5 7 144.71 2.25 0
 1 7 -8 12.6 0.44 0
 1 7 -7 246.13 1.91 0
 1 7 -6 7.8 0.45 0
 1 7 -5 483.39 3.01 0
 1 7 -4 11.68 0.59 0
 1 7 -3 91.41 1.48 0
 1 7 -2 5.01 0.53 0
 1 7 -1 869.2 4.7 0
 1 7 0 10.78 0.67 0
 1 7 1 56.58 1.36 0
 1 7 2 0.84 0.36 0
 1 7 3 296.25 3.15 0
 1 7 4 8 0.62 0
 1 7 5 149.98 2.44 0
 1 7 9 75.59 1.94 0
 1 7 10 -0.11 0.46 0
 1 9 -7 50.82 1.08 0
 1 9 -6 15.63 0.71 0
 1 9 -5 85.64 1.58 0
 1 9 -3 2.81 0.46 0
 1 9 -2 75.1 1.64 0
 1 9 -1 53.15 1.44 0
 1 9 0 7.47 0.69 0
 1 9 6 13.47 0.93 0
 1 9 8 28.77 1.41 0
 1 9 10 4.13 0.8 0
 1 9 11 14.57 1.15 0
 1 11 -2 2.53 0.62 0
 1 11 -1 27.76 1.26 0
 1 11 1 31.24 1.39 0
 1 11 2 0.43 0.54 0
 1 11 3 102.45 2.45 0
 1 11 4 -0.12 0.61 0
 1 11 5 3.47 0.75 0
 1 11 7 26.26 1.53 0
 1 11 9 26.55 1.69 0
 1 11 10 46.47 1.99 0
 1 11 11 24.12 1.69 0
 1 13 -4 18.93 1.14 0
 1 13 -3 29.5 1.38 0
 1 13 -2 13.86 1.15 0
 1 13 -1 4.47 0.9 0
 1 13 0 2.66 0.77 0
 1 13 1 6.15 0.93 0
 1 13 2 23.58 1.47 0
 1 13 3 1.82 0.76 0
 1 13 5 13.31 1.35 0
 1 13 7 56.25 2.31 0
 1 13 8 3.57 1.02 0
 1 13 10 0.59 0.97 0
 1 15 -1 -0.03 0.68 0
 1 15 2 75.94 2.52 0
 1 15 3 0.07 0.85 0
 1 15 4 5.14 1.11 0
 1 15 5 25.21 1.88 0
 1 15 6 59.73 2.5 0
 1 15 7 31.78 2.03 0
 1 15 8 2.25 1.05 0
 2 2 0 647.14 2.25 0
 2 2 1 577.83 2.37 0
 2 2 2 479.58 2.34 0
 2 4 -5 722.27 1.76 0
 2 4 -4 2.14 0.19 0
 2 4 -3 0.55 0.16 0
 2 4 -2 355.35 1.94 0
 2 4 -1 784.39 3.11 0
 2 4 0 11.57 0.51 0
 2 4 1 3.91 0.34 0
 2 4 2 0.21 0.24 0
 2 4 3 29.8 0.83 0
 2 4 6 0.62 0.32 0
 2 4 7 95.2 1.72 0
 2 6 -7 6.81 0.26 0
 2 6 -6 0.13 0.15 0
 2 6 -4 47.01 0.86 0
 2 6 -3 11.48 0.51 0
 2 6 -2 6.84 0.45 0
 2 6 -1 1.07 0.28 0
 2 6 0 37.66 0.97 0
 2 6 1 55.02 1.2 0
 2 6 2 182.79 2.23 0
 2 6 3 39.81 1.13 0
 2 6 5 15.89 0.85 0
 2 8 -7 13.62 0.51 0
 2 8 -6 11.66 0.54 0
 2 8 -5 46.33 1.01 0
 2 8 -4 25.56 0.84 0
 2 8 -3 29.25 0.93 0
 2 8 -2 22.73 0.89 0
 2 8 -1 51.88 1.3 0
 2 8 0 100.46 1.85 0
 2 8 1 114.3 2.04 0
 2 8 2 0.43 0.44 0
 2 8 3 39.2 1.32 0
 2 8 7 1.01 0.5 0
 2 8 8 0.64 0.53 0
 2 8 9 34.43 1.48 0
 2 10 -4 35.19 1.13 0
 2 10 -3 151.36 2.36 0
 2 10 2 -0.14 0.53 0
 2 10 3 184.87 3.12 0
 2 10 4 42.82 1.65 0
 2 10 5 23.08 1.33 0
 2 10 6 2.66 0.73 0
 2 10 7 3.47 0.81 0
 2 10 8 45.82 1.91 0
 2 10 9 4.61 0.9 0
 2 12 -4 97.06 2.01 0
 2 12 -3 20.74 1.1 0
 2 12 -2 27.44 1.28 0
 2 12 0 50.61 1.77 0
 2 12 1 0.73 0.62 0
 2 12 2 0.32 0.58 0
 2 12 4 -0.18 0.79 0
 2 12 5 0.26 0.64 0
 2 12 6 0.25 0.89 0
 2 12 7 36.48 1.88 0
 2 12 8 9.25 1.23 0
 2 12 9 40.5 2.01 0
 2 14 -2 13.14 1.16 0
 2 14 -1 0.59 0.76 0
 2 14 0 42.45 1.84 0
 2 14 2 52.41 2.11 0
 2 14 4 23.78 1.71 0
 2 14 5 0.27 0.99 0
 2 16 0 3.31 1 0
 2 16 1 0.21 0.93 0
 2 16 2 1.31 0.84 0
 2 16 3 0.37 1.01 0
 3 5 -4 134.42 1.17 0
 3 5 -3 461.45 2.38 0
 3 5 -1 5.25 0.38 0
 3 5 0 134.97 1.62 0
 3 5 1 95.31 1.47 0
 3 5 2 12.39 0.64 0
 3 7 -6 23.98 0.56 0
 3 7 -5 9.12 0.44 0
 3 7 -4 25.39 0.73 0
 3 7 -3 44.13 0.98 0
 3 7 -2 77.99 1.41 0
 3 7 -1 241.05 2.45 0
 3 7 0 7.5 0.55 0
 3 7 1 87.28 1.68 0
 3 7 2 196.25 2.54 0
 3 7 3 137.83 2.23 0
 3 7 4 49.84 1.44 0
 3 9 -6 7.63 0.49 0
 3 9 -5 -0.12 0.28 0
 3 9 -3 42.78 1.17 0
 3 9 -2 6.75 0.63 0
 3 9 -1 135.83 2.22 0
 3 9 0 29.69 1.16 0
 3 9 4 0.59 0.45 0
 3 9 5 76.16 2.04 0
 3 9 6 2.58 0.72 0
 3 9 7 14.43 1.16 0
 3 9 8 0.63 0.71 0
 3 11 -5 -0.07 0.4 0
 3 11 -1 8.34 0.88 0
 3 11 4 88.27 2.39 0
 3 11 5 0.75 0.64 0
 3 11 6 6.51 1.06 0
 3 11 7 96 2.65 0
 3 13 -3 6.9 0.84 0
 3 13 -2 12.22 1.04 0
 3 13 -1 1.45 0.65 0
 3 13 0 1.82 0.68 0
 3 13 1 2.8 0.79 0
 3 13 2 22.13 1.47 0
 3 13 3 23.87 1.57 0
 3 13 4 0.83 0.94 0
 3 13 5 4.52 1.03 0
 3 13 6 12.11 1.23 0
 3 15 -1 -0.74 0.64 0
 3 15 1 -0.01 0.7 0
 3 15 2 1.15 0.87 0
 4 6 -2 115.1 1.48 0
 4 6 -1 283.44 2.46 0
 4 6 0 45.72 1.09 0
 4 6 1 32.77 1 0
 4 6 2 9.38 0.63 0
 4 6 3 236.42 2.72 0
 4 8 -4 12.81 0.61 0
 4 8 -3 51.08 1.15 0
 4 8 -2 64.68 1.37 0
 4 8 -1 333.63 3.16 0
 4 8 0 93.97 1.8 0
 4 8 1 72.68 1.65 0
 4 8 2 28.55 1.16 0
 4 10 -4 27.13 0.97 0
 4 10 -3 0.09 0.44 0
 4 10 1 3.71 0.64 0
 4 10 2 0.85 0.55 0
 4 10 3 58.98 1.82 0
 4 10 4 -0.47 0.5 0
 4 10 5 0.32 0.54 0
 4 12 -3 -0.35 0.41 0
 4 12 -2 46.84 1.55 0
 4 12 -1 20.28 1.2 0
 4 12 0 109.17 2.44 0
 4 12 1 -0.26 0.66 0
 4 12 2 5.8 0.87 0
 -14 -8 9 42.07 2.61 0
 -14 -8 10 4.82 1.74 0
 -14 -8 11 4.18 1.67 0
 -14 -6 9 25.55 2.3 0
 -14 -6 10 40.91 2.71 0
 -14 -6 11 4.52 1.94 0
 -14 -6 12 11.38 2.07 0
 -14 -6 13 0.68 1.57 0
 -14 -4 9 10.68 1.76 0
 -14 -4 10 56.18 2.92 0
 -14 -4 11 67.74 3.21 0
 -14 -4 12 79.39 3.48 0
 -14 -4 13 3.28 1.63 0
 -14 -4 14 2.06 1.99 0
 -14 -2 11 7.84 1.8 0
 -14 -2 12 1.21 1.52 0
 -14 -2 13 -0.09 1.43 0
 -14 -2 14 2.39 1.59 0
 -14 -2 15 2.7 1.8 0
 -13 -9 8 3.83 1.52 0
 -13 -9 9 4.4 1.7 0
 -13 -9 10 5.07 1.65 0
 -13 -9 11 -0.01 1.41 0
 -13 -7 8 0.41 1.47 0
 -13 -7 9 6.29 1.47 0
 -13 -7 10 12.24 1.94 0
 -13 -7 11 28.08 2.52 0
 -13 -7 13 21.28 2.47 0
 -13 -5 7 0.68 1.27 0
 -13 -5 8 11.01 1.69 0
 -13 -5 9 0.59 1.17 0
 -13 -5 10 5.92 1.63 0
 -13 -5 11 9.2 1.88 0
 -13 -5 12 32.44 2.55 0
 -13 -5 13 4.65 1.86 0
 -13 -5 14 8.69 1.85 0
 -13 -5 15 -0.57 1.52 0
 -13 -3 8 3.3 1.35 0
 -13 -3 9 11.33 1.65 0
 -13 -3 11 71.75 3.14 0
 -13 -3 12 14.39 2.14 0
 -13 -3 13 0.82 1.39 0
 -13 -3 14 -1.05 1.64 0
 -13 -3 15 15.14 2.3 0
 -13 -1 10 3.61 1.47 0
 -13 -1 12 0.39 1.44 0
 -13 -1 13 -0.44 1.24 0
 -13 -1 14 9.9 1.87 0
 -13 -1 15 1.62 1.71 0
 -13 -1 16 2.58 1.61 0
 -12 -10 7 9.68 1.58 0
 -12 -10 8 -0.03 1.37 0
 -12 -10 9 1.6 1.33 0
 -12 -10 10 2.29 1.59 0
 -12 -10 11 -0.66 1.49 0
 -12 -8 6 21.4 1.87 0
 -12 -8 8 24.72 2.12 0
 -12 -8 9 21.65 2.15 0
 -12 -8 10 -1.46 1.17 0
 -12 -8 12 9.73 1.91 0
 -12 -8 13 0.7 1.63 0
 -12 -6 5 2.03 1.01 0
 -12 -6 6 20.27 1.76 0
 -12 -6 7 8.1 1.4 0
 -12 -6 8 41 2.34 0
 -12 -6 9 4.89 1.56 0
 -12 -6 10 5.36 1.63 0
 -12 -6 12 4.67 1.82 0
 -12 -6 13 1.87 1.5 0
 -12 -6 14 13.79 1.99 0
 -12 -6 15 -0.09 1.54 0
 -12 -4 6 54.13 2.34 0
 -12 -4 8 0.08 0.99 0
 -12 -4 9 5.04 1.45 0
 -12 -4 10 -0.01 1.2 0
 -12 -4 11 3.52 1.38 0
 -12 -4 12 25.85 2.4 0
 -12 -4 13 10.23 1.74 0
 -12 -4 14 -0.67 1.52 0
 -12 -4 15 0.77 1.73 0
 -12 -4 16 60.87 3.32 0
 -12 -2 8 -0.51 0.88 0
 -12 -2 10 0.2 1.1 0
 -12 -2 11 18.27 2.01 0
 -12 -2 12 10.34 1.59 0
 -12 -2 13 7.59 1.86 0
 -12 -2 14 10.43 1.76 0
 -12 -2 16 10.38 2.03 0
 -12 -2 17 0.17 1.72 0
 -12 0 10 32.59 2.08 0
 -12 0 14 0.86 1.32 0
 -11 -11 6 0.64 1.11 0
 -11 -11 7 2.59 1.36 0
 -11 -11 8 0.34 1.25 0
 -11 -11 9 4.52 1.56 0
 -11 -11 10 16.19 1.91 0
 -11 -11 11 44.55 2.78 0
 -11 -9 5 10.06 1.33 0
 -11 -9 6 1.78 1.12 0
 -11 -9 7 6.23 1.34 0
 -11 -9 8 5.15 1.41 0
 -11 -9 9 11.56 1.64 0
 -11 -9 10 1.22 1.36 0
 -11 -9 12 0.08 1.37 0
 -11 -9 13 7.6 1.96 0
 -11 -7 4 45.87 2.02 0
 -11 -7 5 31.61 1.85 0
 -11 -7 6 2.79 1.22 0
 -11 -7 7 0.1 0.96 0
 -11 -7 8 35.03 2.17 0
 -11 -7 9 30.81 2.27 0
 -11 -7 10 47.22 2.6 0
 -11 -7 11 1.95 1.42 0
 -11 -7 12 -0.36 1.65 0
 -11 -7 13 1.49 1.48 0
 -11 -7 15 5.61 1.77 0
 -11 -5 4 3.28 1.06 0
 -11 -5 5 2.88 0.98 0
 -11 -5 7 -0.56 0.81 0
 -11 -5 8 2.38 1.04 0
 -11 -5 9 1.85 1.34 0
 -11 -5 10 34.75 2.28 0
 -11 -5 11 53.69 2.76 0
 -11 -5 12 46.66 2.73 0
 -11 -5 13 11.7 1.89 0
 -11 -5 14 2.97 1.52 0
 -11 -5 15 21.98 2.45 0
 -11 -5 16 38.42 2.97 0
 -11 -3 5 6.08 1.03 0
 -11 -3 7 0.59 0.8 0
 -11 -3 8 17.89 1.61 0
 -11 -3 9 44.7 2.28 0
 -11 -3 10 22.69 1.88 0
 -11 -3 11 75.97 2.91 0
 -11 -3 12 133.22 3.86 0
 -11 -3 13 1.48 1.33 0
 -11 -3 14 0.36 1.5 0
 -11 -3 15 96.11 3.66 0
 -11 -3 16 65.45 3.28 0
 -11 -3 17 3.8 2.06 0
 -11 -1 6 54.05 2.09 0
 -11 -1 7 4.65 0.97 0
 -11 -1 8 37.59 1.96 0
 -11 -1 9 47.28 2.18 0
 -11 -1 10 79.22 2.82 0
 -11 -1 11 6.83 1.56 0
 -11 -1 12 3.41 1.35 0
 -11 -1 13 13.09 1.76 0
 -11 -1 14 1.72 1.29 0
 -11 -1 16 0.59 1.48 0
 -11 -1 18 12.02 2.19 0
 -11 1 8 36.71 1.94 0
 -11 1 9 51.53 2.23 0
 -11 1 10 75 2.61 0
 -11 1 11 6.83 1.25 0
 -11 1 12 4.46 1.21 0
 -11 1 13 12.12 1.79 0
 -11 1 14 -0.04 1.08 0
 -11 1 15 11.44 1.63 0
 -11 1 16 1.79 1.42 0
 -11 1 17 3.04 1.59 0
 -11 1 18 11.87 1.99 0
 -10 -12 10 46.23 2.57 0
 -10 -10 4 0.34 0.82 0
 -10 -10 5 2.73 1.17 0
 -10 -10 6 -1.53 1.04 0
 -10 -10 7 18.13 1.83 0
 -10 -10 8 0.37 1.15 0
 -10 -10 9 0.62 1.22 0
 -10 -10 10 10.34 1.67 0
 -10 -10 11 12.07 1.76 0
 -10 -10 12 0.58 1.51 0
 -10 -10 13 1.56 1.51 0
 -10 -8 4 2.16 0.94 0
 -10 -8 5 2.7 1.09 0
 -10 -8 6 46.85 2.16 0
 -10 -8 7 89.97 2.87 0
 -10 -8 8 8.16 1.42 0
 -10 -8 9 0.46 1.35 0
 -10 -8 10 19.65 2.07 0
 -10 -8 11 79.41 3.22 0
 -10 -8 12 28.35 2.42 0
 -10 -8 13 -1.04 1.57 0
 -10 -8 14 -0.95 1.75 0
 -10 -8 15 61.76 3.29 0
 -10 -6 3 220.09 3.68 0
 -10 -6 4 85.9 2.42 0
 -10 -6 5 16.62 1.44 0
 -10 -6 6 12.74 1.45 0
 -10 -6 7 116.92 3.11 0
 -10 -6 8 11.2 1.54 0
 -10 -6 9 20.3 1.86 0
 -10 -6 10 24.26 2.06 0
 -10 -6 12 2.1 1.29 0
 -10 -6 14 -0.53 1.37 0
 -10 -6 15 32.96 2.71 0
 -10 -6 16 -0.88 1.84 0
 -10 -4 5 49.57 1.95 0
 -10 -4 6 5.82 1.01 0
 -10 -4 7 18.68 1.52 0
 -10 -4 8 8.3 1.36 0
 -10 -4 9 60.16 2.43 0
 -10 -4 10 32.78 2.09 0
 -10 -4 11 69.98 2.85 0
 -10 -4 12 1.13 1.19 0
 -10 -4 14 12.85 1.98 0
 -10 -4 15 53.03 2.95 0
 -10 -4 16 7.69 1.89 0
 -10 -4 17 13.23 2.09 0
 -10 -2 6 1.17 0.7 0
 -10 -2 7 23.22 1.56 0
 -10 -2 8 12.09 1.38 0
 -10 -2 9 43.3 2.08 0
 -10 -2 11 68.81 2.68 0
 -10 -2 12 4.32 1.45 0
 -10 -2 13 6.58 1.45 0
 -10 -2 14 0.45 1.18 0
 -10 -2 15 40.72 2.61 0
 -10 -2 16 23.08 2.39 0
 -10 -2 17 0.36 1.48 0
 -10 -2 18 31.41 2.71 0
 -10 0 10 24.5 1.69 0
 -10 0 12 32.31 2.07 0
 -10 0 14 32.26 2.27 0
 -10 0 16 46.28 2.7 0
 -10 0 18 2.44 1.48 0
 -10 2 8 12.03 1.28 0
 -10 2 9 43.11 1.93 0
 -10 2 11 67 2.47 0
 -10 2 12 4.08 1.3 0
 -10 2 13 5.57 1.22 0
 -10 2 14 -0.06 1.25 0
 -10 2 15 39.66 2.35 0
 -10 2 16 21.47 2.09 0
 -10 2 17 0.73 1.45 0
 -10 2 18 29.64 2.28 0
 -9 -11 5 5.4 1.17 0
 -9 -11 6 10.99 1.39 0
 -9 -11 7 24.94 1.85 0
 -9 -11 8 4.29 1.45 0
 -9 -11 9 24.7 2.08 0
 -9 -11 10 3.97 1.6 0
 -9 -11 11 9.98 1.81 0
 -9 -11 12 1.26 1.41 0
 -9 -11 13 -1.41 1.61 0
 -9 -9 3 1.95 0.86 0
 -9 -9 4 1.01 0.94 0
 -9 -9 5 125.03 2.97 0
 -9 -9 6 1.78 0.92 0
 -9 -9 7 5.81 1.31 0
 -9 -9 8 14.62 1.72 0
 -9 -9 9 145.98 3.73 0
 -9 -9 10 0.52 1.19 0
 -9 -9 11 110.74 3.56 0
 -9 -9 12 6.65 1.75 0
 -9 -9 13 2.44 1.82 0
 -9 -9 14 -0.18 1.75 0
 -9 -9 15 49.75 3.07 0
 -9 -7 4 0.6 0.77 0
 -9 -7 5 113.48 2.77 0
 -9 -7 6 11.49 1.36 0
 -9 -7 7 96.37 2.81 0
 -9 -7 8 29.72 1.86 0
 -9 -7 9 140.29 3.55 0
 -9 -7 10 5.73 1.4 0
 -9 -7 11 196.77 4.44 0
 -9 -7 12 8.89 1.59 0
 -9 -7 13 6.39 1.58 0
 -9 -7 14 12.09 1.8 0
 -9 -7 15 61.94 3.16 0
 -9 -7 16 0.58 1.65 0
 -9 -5 2 11.84 1.07 0
 -9 -5 6 64.4 2.16 0
 -9 -5 7 7.69 1.12 0
 -9 -5 8 4 0.97 0
 -9 -5 9 1.77 1.06 0
 -9 -5 10 -0.89 0.93 0
 -9 -5 11 6.9 1.57 0
 -9 -5 12 6.92 1.33 0
 -9 -5 13 3.89 1.34 0
 -9 -5 14 -1.07 1.16 0
 -9 -5 15 5.32 1.62 0
 -9 -5 17 26.37 2.62 0
 -9 -5 18 4.38 2.04 0
 -9 -3 7 100.97 2.6 0
 -9 -3 8 9.35 1.16 0
 -9 -3 9 10.48 1.31 0
 -9 -3 10 3.76 1.01 0
 -9 -3 11 6.5 1.21 0
 -9 -3 13 4.65 1.55 0
 -9 -3 14 1.32 1.5 0
 -9 -3 15 5.06 1.57 0
 -9 -3 16 76.76 3.32 0
 -9 -3 17 1.12 1.46 0
 -9 -1 4 148 2.78 0
 -9 -1 8 90.22 2.48 0
 -9 -1 9 26.31 1.63 0
 -9 -1 11 0.13 0.88 0
 -9 -1 12 14.24 1.61 0
 -9 -1 13 23.37 1.95 0
 -9 -1 15 6.12 1.43 0
 -9 -1 16 39.3 2.57 0
 -9 -1 17 8.11 1.71 0
 -9 -1 18 -0.04 1.32 0
 -9 -1 19 7.01 1.76 0
 -9 1 5 7.72 0.9 0
 -9 1 9 25.17 1.6 0
 -9 1 10 584.24 6.26 0
 -9 1 12 16.43 1.61 0
 -9 1 13 22.94 1.86 0
 -9 1 14 146.79 3.7 0
 -9 1 15 6.28 1.48 0
 -9 1 16 40.3 2.45 0
 -9 1 17 7.91 1.65 0
 -9 1 18 1.53 1.37 0
 -9 1 19 6.48 1.72 0
 -9 3 9 11.32 1.2 0
 -9 3 10 4.27 1.01 0
 -9 3 11 6.73 1.03 0
 -9 3 12 40.35 2 0
 -9 3 13 5.24 1.2 0
 -9 3 15 4.84 1.21 0
 -9 3 16 73.11 2.73 0
 -9 3 17 -0.4 1.14 0
 -8 -12 8 4.62 1.35 0
 -8 -12 9 8.61 1.44 0
 -8 -12 11 10.4 1.75 0
 -8 -12 12 0.22 1.41 0
 -8 -10 3 21.93 1.36 0
 -8 -10 4 1.94 0.92 0
 -8 -10 6 55.16 2.23 0
 -8 -10 7 0.15 1.1 0
 -8 -10 8 -0.4 1.19 0
 -8 -10 9 4.32 1.31 0
 -8 -10 10 9.64 1.55 0
 -8 -10 12 2.04 1.32 0
 -8 -10 13 19.23 2.25 0
 -8 -10 14 3.56 1.58 0
 -8 -8 2 1.19 0.67 0
 -8 -8 5 96.98 2.52 0
 -8 -8 6 8.19 1.14 0
 -8 -8 8 -0.9 0.98 0
 -8 -8 9 102.29 3.05 0
 -8 -8 10 17.49 1.87 0
 -8 -8 11 -0.12 1.21 0
 -8 -8 12 9.91 1.79 0
 -8 -8 13 4.19 1.57 0
 -8 -8 14 0.98 1.67 0
 -8 -8 15 22.73 2.41 0
 -8 -8 16 4.31 1.99 0
 -8 -6 1 106.39 2.24 0
 -8 -6 2 220.88 3.2 0
 -8 -6 3 246.63 3.55 0
 -8 -6 7 191.57 3.65 0
 -8 -6 9 67.53 2.46 0
 -8 -6 10 4.43 1.24 0
 -8 -6 11 30.03 2.02 0
 -8 -6 13 16.3 1.95 0
 -8 -6 14 6.05 1.7 0
 -8 -6 15 34.41 2.54 0
 -8 -6 17 8.34 2.14 0
 -8 -4 2 1098.7 6.61 0
 -8 -4 3 240.23 3.33 0
 -8 -4 4 9.47 1.01 0
 -8 -4 8 55.39 2.06 0
 -8 -4 9 -0.17 0.68 0
 -8 -4 10 14.93 1.43 0
 -8 -4 11 1.19 1.11 0
 -8 -4 12 -0.5 0.86 0
 -8 -4 13 0.61 1.02 0
 -8 -4 14 4.2 1.36 0
 -8 -4 15 11.35 1.82 0
 -8 -4 17 -1.26 1.35 0
 -8 -4 18 0.33 1.56 0
 -8 -2 2 195.6 2.84 0
 -8 -2 3 52.85 1.59 0
 -8 -2 4 101.24 2.19 0
 -8 -2 5 0.06 0.65 0
 -8 -2 6 4.16 0.79 0
 -8 -2 10 19.28 1.47 0
 -8 -2 11 7.38 1.11 0
 -8 -2 12 3.59 1.16 0
 -8 -2 14 3.47 1.39 0
 -8 -2 15 41.73 2.45 0
 -8 -2 16 0.37 1.51 0
 -8 -2 17 7.49 1.89 0
 -8 -2 18 7.34 1.96 0
 -8 -2 19 45.46 2.88 0
 -8 0 6 303.48 3.89 0
 -8 0 12 3 1.06 0
 -8 0 14 2.04 1.05 0
 -8 0 18 5.5 1.74 0
 -8 2 6 3.66 0.69 0
 -8 2 7 21.67 1.24 0
 -8 2 11 7.08 1.1 0
 -8 2 12 2.32 1.05 0
 -8 2 13 28.14 1.81 0
 -8 2 14 4.1 1.24 0
 -8 2 15 37.91 2.15 0
 -8 2 16 -0.21 1.14 0
 -8 2 17 6.17 1.38 0
 -8 2 18 7.57 1.53 0
 -8 4 11 1.47 0.9 0
 -8 4 12 0.91 0.95 0
 -8 4 13 0.48 0.9 0
 -8 4 15 9.22 1.38 0
 -7 -11 4 86.61 2.27 0
 -7 -11 5 34.47 1.7 0
 -7 -11 6 14.18 1.42 0
 -7 -11 7 90.45 2.75 0
 -7 -11 8 16.05 1.74 0
 -7 -11 9 69.71 2.68 0
 -7 -11 10 0.53 1.33 0
 -7 -11 11 26.18 2.23 0
 -7 -11 12 3.01 1.58 0
 -7 -11 14 12.41 1.93 0
 -7 -9 1 12.43 0.89 0
 -7 -9 2 5.43 0.77 0
 -7 -9 5 24.57 1.48 0
 -7 -9 6 10.73 1.2 0
 -7 -9 8 17.49 1.62 0
 -7 -9 9 111.78 3.13 0
 -7 -9 10 0.48 1.05 0
 -7 -9 11 3.16 1.41 0
 -7 -9 13 74.79 3.15 0
 -7 -9 14 11.63 2.1 0
 -7 -9 15 48.98 2.92 0
 -7 -9 16 0.42 1.68 0
 -7 -7 1 23.69 1.09 0
 -7 -7 2 55.82 1.63 0
 -7 -7 3 44.1 1.56 0
 -7 -7 4 2.77 0.78 0
 -7 -7 8 0.4 0.79 0
 -7 -7 9 2.98 1.06 0
 -7 -7 10 0.03 0.89 0
 -7 -7 12 -0.55 1.06 0
 -7 -7 13 0.62 1.36 0
 -7 -7 14 -0.79 1.31 0
 -7 -7 15 137.57 4.1 0
 -7 -7 16 -1.03 1.33 0
 -7 -7 17 16.48 2.09 0
 -7 -5 2 231.22 3.04 0
 -7 -5 3 1.51 0.54 0
 -7 -5 4 41.75 1.51 0
 -7 -5 5 4.93 0.77 0
 -7 -5 8 16.54 1.39 0
 -7 -5 9 1.4 0.88 0
 -7 -5 10 9.27 1.33 0
 -7 -5 11 0.81 0.87 0
 -7 -5 12 7.81 1.23 0
 -7 -5 13 1.61 1.09 0
 -7 -5 14 16.72 1.95 0
 -7 -5 15 -0.67 1.16 0
 -7 -5 16 18.74 2.11 0
 -7 -5 17 19.48 2.26 0
 -7 -5 18 68.3 3.31 0
 -7 -3 1 690.51 4.72 0
 -7 -3 3 12.11 0.89 0
 -7 -3 4 22.32 1.17 0
 -7 -3 5 101.13 2.18 0
 -7 -3 7 12.86 1.13 0
 -7 -3 10 0.09 0.72 0
 -7 -3 12 17.2 1.64 0
 -7 -3 13 -0.99 1.14 0
 -7 -3 14 -0.29 0.99 0
 -7 -3 16 2.8 1.42 0
 -7 -3 17 2.16 1.49 0
 -7 -3 18 57.28 3.05 0
 -7 -3 19 40.32 2.78 0
 -7 -1 6 2.37 0.66 0
 -7 -1 7 -0.44 0.46 0
 -7 -1 11 0.37 0.81 0
 -7 -1 14 247.8 4.81 0
 -7 -1 15 -0.64 1.19 0
 -7 -1 16 32.51 2.27 0
 -7 -1 19 -0.92 1.31 0
 -7 -1 20 0.62 1.72 0
 -7 1 6 1.82 0.64 0
 -7 1 7 0.34 0.68 0
 -7 1 8 147.22 2.8 0
 -7 1 11 0.28 0.86 0
 -7 1 12 14.19 1.37 0
 -7 1 13 0.15 0.97 0
 -7 1 14 243.96 4.57 0
 -7 1 15 -0.27 0.99 0
 -7 1 16 31.71 2.11 0
 -7 1 17 -1.05 1.29 0
 -7 1 18 18.17 2.01 0
 -7 1 19 -0.03 1.26 0
 -7 1 20 0.81 1.42 0
 -7 3 6 6.25 0.71 0
 -7 3 7 13.71 1.01 0
 -7 3 8 54.19 1.7 0
 -7 3 9 10.11 1.03 0
 -7 3 12 18.8 1.41 0
 -7 3 13 0.64 0.89 0
 -7 3 14 0.09 0.86 0
 -7 3 15 33.62 1.91 0
 -7 3 16 2.57 1.15 0
 -7 3 17 1.98 1.3 0
 -7 5 13 2.09 0.88 0
 -7 5 14 18.58 1.44 0
 -6 -12 7 48.16 2.13 0
 -6 -12 8 1.21 1.06 0
 -6 -12 9 6.95 1.36 0
 -6 -12 11 -0.11 1.23 0
 -6 -12 12 0.76 1.26 0
 -6 -12 13 2.74 1.43 0
 -6 -10 2 9.62 0.93 0
 -6 -10 5 6.4 1.03 0
 -6 -10 6 26.55 1.58 0
 -6 -10 9 75.17 2.65 0
 -6 -10 10 44.14 2.35 0
 -6 -10 11 16.63 1.91 0
 -6 -10 13 1.62 1.55 0
 -6 -10 14 20.45 2.26 0
 -6 -8 0 0.36 0.45 0
 -6 -8 1 137.29 2.24 0
 -6 -8 2 21.09 1.08 0
 -6 -8 3 5.57 0.74 0
 -6 -8 7 0.9 0.73 0
 -6 -8 8 2.79 1.07 0
 -6 -8 9 154.4 3.43 0
 -6 -8 10 18.03 1.67 0
 -6 -8 11 97.39 3.07 0
 -6 -8 12 1.81 1.34 0
 -6 -8 14 2.05 1.55 0
 -6 -8 16 0.41 1.39 0
 -6 -8 17 4.55 1.67 0
 -6 -6 0 91.84 1.68 0
 -6 -6 1 400.03 3.55 0
 -6 -6 2 0.37 0.45 0
 -6 -6 4 70.33 1.78 0
 -6 -6 5 58.88 1.74 0
 -6 -6 9 10.64 1.24 0
 -6 -6 10 3.97 1.13 0
 -6 -6 11 2.19 1.12 0
 -6 -6 12 9.74 1.51 0
 -6 -6 13 -0.48 1.19 0
 -6 -6 15 1.63 1.28 0
 -6 -6 16 3.9 1.45 0
 -6 -6 17 7.51 1.65 0
 -6 -6 18 6.75 1.94 0
 -6 -4 0 118.64 1.86 0
 -6 -4 1 123.78 1.99 0
 -6 -4 2 653.48 4.53 0
 -6 -4 3 51.07 1.42 0
 -6 -4 4 17.12 0.98 0
 -6 -4 5 188.68 2.91 0
 -6 -4 6 643.15 5.38 0
 -6 -4 7 137.61 2.8 0
 -6 -4 10 146.92 3.13 0
 -6 -4 11 53.03 2.15 0
 -6 -4 13 36.45 2.04 0
 -6 -4 14 94.61 3.12 0
 -6 -4 16 3.14 1.49 0
 -6 -4 18 96.4 3.59 0
 -6 -4 19 21.82 2.47 0
 -6 -2 1 101.27 1.74 0
 -6 -2 2 481.33 3.78 0
 -6 -2 7 11.65 0.99 0
 -6 -2 12 2.05 0.83 0
 -6 -2 13 5.35 1.18 0
 -6 -2 14 7.74 1.31 0
 -6 -2 15 9.59 1.6 0
 -6 -2 17 4.84 1.62 0
 -6 -2 18 33.89 2.46 0
 -6 -2 19 9.63 1.97 0
 -6 -2 20 0.06 1.57 0
 -6 0 6 264.28 3.22 0
 -6 0 12 26.6 1.58 0
 -6 0 16 114.82 3.31 0
 -6 0 18 9.27 1.57 0
 -6 0 20 7.16 1.78 0
 -6 2 5 0.62 0.51 0
 -6 2 6 55.21 1.48 0
 -6 2 7 11.16 0.92 0
 -6 2 9 3.28 0.79 0
 -6 2 10 54.3 1.78 0
 -6 2 13 5.85 1.01 0
 -6 2 14 7.28 1.15 0
 -6 2 15 10.91 1.44 0
 -6 2 16 40.07 2.12 0
 -6 2 17 4.42 1.39 0
 -6 2 18 31.08 2.11 0
 -6 4 7 139.7 2.29 0
 -6 4 8 33.51 1.26 0
 -6 4 9 34.58 1.31 0
 -6 4 10 145.35 2.69 0
 -6 4 11 52.02 1.71 0
 -6 4 13 36.29 1.69 0
 -6 4 15 19.74 1.55 0
 -5 -13 10 -0.04 1.22 0
 -5 -13 12 0.33 1.22 0
 -5 -11 3 7 0.88 0
 -5 -11 5 12.09 1.18 0
 -5 -11 6 82.05 2.36 0
 -5 -11 7 1.71 0.93 0
 -5 -11 8 27.99 1.8 0
 -5 -11 9 5.08 1.31 0
 -5 -11 10 51.73 2.44 0
 -5 -11 11 40.94 2.38 0
 -5 -11 12 1.9 1.58 0
 -5 -11 13 44.47 2.64 0
 -5 -9 0 14.93 0.74 0
 -5 -9 1 6.05 0.68 0
 -5 -9 2 1.16 0.53 0
 -5 -9 3 0.88 0.62 0
 -5 -9 4 0.7 0.64 0
 -5 -9 6 9.19 1.1 0
 -5 -9 8 7.39 1.16 0
 -5 -9 9 34.79 1.93 0
 -5 -9 13 5.23 1.4 0
 -5 -9 14 13.64 2.03 0
 -5 -9 15 3.45 1.72 0
 -5 -9 16 2.1 1.75 0
 -5 -9 17 7.3 2.09 0
 -5 -7 0 183.99 2.18 0
 -5 -7 2 3.83 0.63 0
 -5 -7 3 34.11 1.25 0
 -5 -7 5 343.58 3.97 0
 -5 -7 10 1.92 0.88 0
 -5 -7 11 8.75 1.22 0
 -5 -7 12 6.28 1.34 0
 -5 -7 13 104.09 3.28 0
 -5 -7 14 6.42 1.64 0
 -5 -7 15 0.96 1.52 0
 -5 -7 16 1.09 1.73 0
 -5 -7 17 55 3.04 0
 -5 -7 18 1.21 1.55 0
 -5 -5 0 115.39 1.7 0
 -5 -5 1 172.55 2.18 0
 -5 -5 2 268.32 2.81 0
 -5 -5 3 37.52 1.18 0
 -5 -5 5 18.43 1.05 0
 -5 -5 6 94.92 2.12 0
 -5 -5 7 50.55 1.71 0
 -5 -5 10 1.78 0.78 0
 -5 -5 12 1.71 1.1 0
 -5 -5 13 1.75 1.01 0
 -5 -5 14 0.61 1.04 0
 -5 -5 15 1.17 1.17 0
 -5 -5 16 16.86 2.04 0
 -5 -5 18 38.1 2.68 0
 -5 -5 19 7.8 2.05 0
 -5 -3 0 97.14 1.55 0
 -5 -3 1 646.46 3.91 0
 -5 -3 2 621.82 4.01 0
 -5 -3 3 125.41 2.01 0
 -5 -3 4 46.4 1.29 0
 -5 -3 5 552.86 4.35 0
 -5 -3 6 66.65 1.68 0
 -5 -3 7 0.07 0.43 0
 -5 -3 8 21.18 1.18 0
 -5 -3 12 11.36 1.29 0
 -5 -3 14 1.9 1 0
 -5 -3 15 4.14 1.25 0
 -5 -3 16 1.3 1.16 0
 -5 -3 17 0.12 1.51 0
 -5 -3 18 6.18 1.51 0
 -5 -3 19 30.42 2.53 0
 -5 -1 1 56.51 1.24 0
 -5 -1 2 316.29 2.8 0
 -5 -1 3 203.84 2.38 0
 -5 -1 13 1.74 1.04 0
 -5 -1 14 19.41 1.59 0
 -5 -1 15 3.01 1.01 0
 -5 -1 16 1.95 1.14 0
 -5 -1 20 0.06 1.61 0
 -5 1 3 206.58 2.31 0
 -5 1 8 8.3 0.83 0
 -5 1 9 24.95 1.23 0
 -5 1 10 355.18 4.14 0
 -5 1 13 1.22 0.79 0
 -5 1 15 1.55 1.1 0
 -5 1 16 3.93 1.32 0
 -5 1 17 0.75 1.19 0
 -5 1 18 0.36 1.11 0
 -5 1 19 5.94 1.45 0
 -5 1 20 1.31 1.33 0
 -5 3 6 69.91 1.5 0
 -5 3 7 -0.08 0.4 0
 -5 3 8 23.12 1.1 0
 -5 3 9 154.82 2.58 0
 -5 3 10 0.01 0.62 0
 -5 3 11 0.35 0.63 0
 -5 3 14 2.6 1.02 0
 -5 3 15 3.14 0.95 0
 -5 3 16 -0.1 0.92 0
 -5 3 17 1.17 0.99 0
 -5 5 9 2.11 0.54 0
 -5 5 10 3.42 0.66 0
 -5 5 11 3.95 0.72 0
 -5 5 12 2.89 0.68 0
 -4 -12 6 97.02 2.52 0
 -4 -12 7 14.73 1.52 0
 -4 -12 8 4.9 1.27 0
 -4 -12 9 20.04 1.77 0
 -4 -12 10 53.16 2.52 0
 -4 -12 11 -0.84 1.12 0
 -4 -12 13 2.97 1.49 0
 -4 -12 14 3.82 1.61 0
 -4 -10 1 26.69 0.98 0
 -4 -10 2 11.56 0.85 0
 -4 -10 3 -0.35 0.56 0
 -4 -10 6 27.72 1.49 0
 -4 -10 7 30.55 1.66 0
 -4 -10 8 0.83 0.99 0
 -4 -10 9 111.29 3.03 0
 -4 -10 10 -0.55 1.01 0
 -4 -10 11 1.94 1.19 0
 -4 -10 12 7.15 1.43 0
 -4 -10 13 64.2 2.92 0
 -4 -10 14 16.65 2.16 0
 -4 -10 16 2.37 1.74 0
 -4 -8 0 96.43 1.54 0
 -4 -8 1 328.06 2.92 0
 -4 -8 2 64.98 1.46 0
 -4 -8 3 51 1.43 0
 -4 -8 4 12.87 0.95 0
 -4 -8 5 214.36 3.24 0
 -4 -8 8 13.07 1.32 0
 -4 -8 9 5.07 1.04 0
 -4 -8 13 0.56 1.41 0
 -4 -8 16 7.25 1.89 0
 -4 -8 17 22.98 2.45 0
 -4 -6 -1 32.84 0.79 0
 -4 -6 0 45.89 1.02 0
 -4 -6 1 286.93 2.6 0
 -4 -6 2 118.03 1.86 0
 -4 -6 3 48.43 1.3 0
 -4 -6 4 3.25 0.56 0
 -4 -6 5 194.1 2.88 0
 -4 -6 6 18.16 1.11 0
 -4 -6 7 1.49 0.63 0
 -4 -6 9 23.53 1.42 0
 -4 -6 10 9.61 1.13 0
 -4 -6 11 33.74 1.87 0
 -4 -6 12 56.31 2.3 0
 -4 -6 13 13.63 1.66 0
 -4 -6 14 1.54 1.16 0
 -4 -6 15 51.03 2.65 0
 -4 -6 16 87.33 3.36 0
 -4 -6 17 65.08 3.14 0
 -4 -6 18 67.48 3.27 0
 -4 -6 19 -0.64 1.47 0
 -4 -4 0 27.1 0.79 0
 -4 -4 1 829.3 4.08 0
 -4 -4 2 9.2 0.62 0
 -4 -4 3 11.71 0.71 0
 -4 -4 4 4.75 0.63 0
 -4 -4 5 306.12 3.25 0
 -4 -4 6 37.38 1.33 0
 -4 -4 7 1.26 0.53 0
 -4 -4 8 29.48 1.37 0
 -4 -4 11 12.57 1.28 0
 -4 -4 12 -0.21 0.7 0
 -4 -4 13 0.25 0.87 0
 -4 -4 15 4.44 1.23 0
 -4 -4 16 21.05 2.1 0
 -4 -4 17 51.46 2.73 0
 -4 -4 18 153.23 4.27 0
 -4 -4 20 5.2 1.99 0
 -4 -2 0 220.4 1.98 0
 -4 -2 1 2016.08 6.05 0
 -4 -2 3 53.14 1.17 0
 -4 -2 4 70.5 1.45 0
 -4 -2 8 45.61 1.52 0
 -4 -2 9 68.53 1.88 0
 -4 -2 12 0.49 0.67 0
 -4 -2 14 65.43 2.46 0
 -4 -2 15 42.04 2.18 0
 -4 -2 16 57.19 2.56 0
 -4 -2 17 59.5 2.74 0
 -4 -2 18 4.88 1.69 0
 -4 -2 19 0.84 1.54 0
 -4 0 2 94.58 1.41 0
 -4 0 4 825.76 4.33 0
 -4 0 8 1.55 0.59 0
 -4 0 10 136.33 2.62 0
 -4 0 16 291.89 5.05 0
 -4 0 20 92.73 3.25 0
 -4 2 3 52.12 1.13 0
 -4 2 4 69.25 1.28 0
 -4 2 8 45.63 1.31 0
 -4 2 9 68.95 1.68 0
 -4 2 10 30.97 1.27 0
 -4 2 11 111.31 2.33 0
 -4 2 14 68.51 2.2 0
 -4 2 15 40.08 1.9 0
 -4 2 16 60.1 2.31 0
 -4 2 17 57.86 2.34 0
 -4 4 11 12.38 0.97 0
 -4 4 12 -0.01 0.61 0
 -4 4 15 2.39 0.93 0
 -3 -13 9 10.9 1.54 0
 -3 -13 10 14.92 1.81 0
 -3 -13 12 3.05 1.37 0
 -3 -13 13 1.66 1.6 0
 -3 -11 3 69.04 1.69 0
 -3 -11 5 0.94 0.75 0
 -3 -11 6 0.19 0.82 0
 -3 -11 7 97.96 2.6 0
 -3 -11 8 1.07 1.05 0
 -3 -11 10 13.49 1.67 0
 -3 -11 11 -1.08 1.07 0
 -3 -11 12 0.06 1.25 0
 -3 -11 14 17.66 2.19 0
 -3 -9 1 133.74 1.88 0
 -3 -9 2 7.34 0.73 0
 -3 -9 3 45.01 1.37 0
 -3 -9 4 12.59 0.98 0
 -3 -9 5 0.19 0.64 0
 -3 -9 7 83.6 2.3 0
 -3 -9 8 3.31 0.9 0
 -3 -9 10 15.13 1.58 0
 -3 -9 11 10.82 1.63 0
 -3 -9 12 10.49 1.49 0
 -3 -9 13 76.45 3.03 0
 -3 -9 14 -0.33 1.24 0
 -3 -9 15 41.53 2.66 0
 -3 -9 16 0.71 1.64 0
 -3 -7 -1 86.79 1.12 0
 -3 -7 0 8.04 0.52 0
 -3 -7 1 236.05 2.28 0
 -3 -7 2 77 1.52 0
 -3 -7 3 45.26 1.26 0
 -3 -7 4 26.02 1.12 0
 -3 -7 5 9.49 0.91 0
 -3 -7 6 24.4 1.23 0
 -3 -7 10 15.24 1.42 0
 -3 -7 12 71.23 2.64 0
 -3 -7 14 6.03 1.61 0
 -3 -7 16 21.68 2.19 0
 -3 -7 17 67.79 3.18 0
 -3 -7 18 17.46 2.42 0
 -3 -5 -1 95.97 1.14 0
 -3 -5 0 131.87 1.44 0
 -3 -5 1 6.12 0.48 0
 -3 -5 2 66.61 1.29 0
 -3 -5 3 449.32 3.39 0
 -3 -5 4 131.86 2.08 0
 -3 -5 5 13.72 0.86 0
 -3 -5 6 43.8 1.44 0
 -3 -5 7 247.38 3.38 0
 -3 -5 8 65.14 1.9 0
 -3 -5 10 0.22 0.75 0
 -3 -5 12 0.16 0.75 0
 -3 -5 13 33.98 1.91 0
 -3 -5 14 11.75 1.61 0
 -3 -5 15 1.26 1.18 0
 -3 -5 16 1.75 1.36 0
 -3 -5 17 4.02 1.39 0
 -3 -5 18 15.38 2 0
 -3 -5 19 2.78 1.69 0
 -3 -3 -1 7.72 0.41 0
 -3 -3 0 353.88 2.19 0
 -3 -3 1 625.92 3.08 0
 -3 -3 2 1342.06 4.86 0
 -3 -3 3 10.51 0.67 0
 -3 -3 4 938.11 4.81 0
 -3 -3 5 8.69 0.65 0
 -3 -3 8 791.67 5.72 0
 -3 -3 9 8.53 1.01 0
 -3 -3 12 111.52 2.8 0
 -3 -3 13 57.78 2.25 0
 -3 -3 14 0.88 0.88 0
 -3 -3 15 -1 1.18 0
 -3 -3 16 10.14 1.5 0
 -3 -3 17 58.58 2.73 0
 -3 -3 19 1.36 1.52 0
 -3 -1 0 3013.77 5.96 0
 -3 -1 1 291.4 2.03 0
 -3 -1 2 34.83 0.81 0
 -3 -1 3 568.55 3.18 0
 -3 -1 4 15.99 0.7 0
 -3 -1 5 0.3 0.38 0
 -3 -1 8 165.27 2.58 0
 -3 -1 9 31.51 1.31 0
 -3 -1 10 520.95 4.94 0
 -3 -1 13 35.35 1.75 0
 -3 -1 14 351.4 5.08 0
 -3 -1 15 14.09 1.58 0
 -3 -1 16 30.68 2 0
 -3 -1 17 26.65 2.06 0
 -3 -1 18 72.45 2.94 0
 -3 -1 19 2.94 1.6 0
 -3 -1 21 9.06 1.77 0
 -3 1 3 585.17 3.04 0
 -3 1 5 0.41 0.35 0
 -3 1 8 167.14 2.36 0
 -3 1 9 32.71 1.22 0
 -3 1 10 524.34 4.61 0
 -3 1 11 59.27 1.77 0
 -3 1 14 353.14 4.73 0
 -3 1 16 28.93 1.84 0
 -3 1 17 27.49 1.9 0
 -3 1 18 71.12 2.68 0
 -3 1 19 3.75 1.43 0
 -3 1 20 7.37 1.54 0
 -3 3 4 929.88 3.8 0
 -3 3 5 8.36 0.52 0
 -3 3 8 801.67 4.6 0
 -3 3 9 8.63 0.75 0
 -3 3 10 3.81 0.63 0
 -3 3 11 6.85 0.85 0
 -3 3 12 113.15 2.3 0
 -3 3 15 -0.56 0.69 0
 -3 3 16 10.25 1.27 0
 -3 3 17 55.74 2.2 0
 -3 5 8 66.38 1.24 0
 -3 5 9 132.9 1.86 0
 -3 5 10 0.26 0.43 0
 -3 5 11 17.6 0.91 0
 -3 5 12 0.27 0.49 0
 -3 5 13 36.46 1.31 0
 -2 -12 5 23.63 1.43 0
 -2 -12 10 183.58 4.01 0
 -2 -12 11 1.27 1.37 0
 -2 -12 12 -1.07 1.14 0
 -2 -12 13 36.55 2.55 0
 -2 -10 2 4.38 0.63 0
 -2 -10 3 154.88 2.48 0
 -2 -10 6 54.97 1.88 0
 -2 -10 7 88.34 2.41 0
 -2 -10 8 15.34 1.43 0
 -2 -10 9 40.45 2.02 0
 -2 -10 12 -0.46 1.05 0
 -2 -10 13 46.89 2.56 0
 -2 -10 14 9.02 1.66 0
 -2 -10 15 47.55 2.81 0
 -2 -10 16 -0.85 1.56 0
 -2 -8 -1 113.78 1.14 0
 -2 -8 0 97.21 1.34 0
 -2 -8 2 23.03 0.92 0
 -2 -8 3 28.11 1.1 0
 -2 -8 4 24.95 1.11 0
 -2 -8 8 22.9 1.42 0
 -2 -8 9 106.28 2.72 0
 -2 -8 10 32.39 1.85 0
 -2 -8 11 1.65 0.97 0
 -2 -8 12 11.09 1.44 0
 -2 -8 13 50.24 2.49 0
 -2 -8 15 17.46 2.06 0
 -2 -8 16 3.62 1.77 0
 -2 -8 17 61.73 3.16 0
 -2 -8 18 32.06 2.7 0
 -2 -6 -1 56.13 0.79 0
 -2 -6 0 38.19 0.82 0
 -2 -6 1 1.15 0.32 0
 -2 -6 2 6.95 0.58 0
 -2 -6 3 9.98 0.68 0
 -2 -6 4 45.3 1.28 0
 -2 -6 5 70.95 1.64 0
 -2 -6 6 -0.12 0.48 0
 -2 -6 10 11.93 1.24 0
 -2 -6 11 4.13 1.03 0
 -2 -6 12 20.79 1.6 0
 -2 -6 14 34.61 2.2 0
 -2 -6 16 16.55 1.96 0
 -2 -6 17 70.14 3.15 0
 -2 -6 18 2.02 1.75 0
 -2 -6 19 0.89 1.74 0
 -2 -4 -1 3.94 0.3 0
 -2 -4 0 11.6 0.45 0
 -2 -4 1 770.93 3.29 0
 -2 -4 2 358.07 2.53 0
 -2 -4 3 0.46 0.33 0
 -2 -4 4 1.97 0.49 0
 -2 -4 5 740.47 4.63 0
 -2 -4 6 70.59 1.61 0
 -2 -4 7 30.53 1.22 0
 -2 -4 8 2.01 0.55 0
 -2 -4 9 395.25 4.43 0
 -2 -4 11 97.93 2.51 0
 -2 -4 12 10.02 1.21 0
 -2 -4 13 158.83 3.5 0
 -2 -4 14 58.46 2.37 0
 -2 -4 15 107.75 3.23 0
 -2 -4 20 1.2 1.46 0
 -2 -2 0 643.34 2.34 0
 -2 -2 1 1033.55 3.28 0
 -2 -2 2 2332.51 5.55 0
 -2 -2 3 283.49 2.21 0
 -2 -2 4 131.55 1.7 0
 -2 -2 5 1340.3 5.65 0
 -2 -2 9 584.51 4.96 0
 -2 -2 13 153.75 3.24 0
 -2 -2 15 56.71 2.37 0
 -2 -2 17 1.54 1.16 0
 -2 -2 18 0.37 1.23 0
 -2 -2 19 11.55 1.92 0
 -2 -2 20 8.93 1.75 0
 -2 0 2 650.94 2.62 0
 -2 0 4 22.78 0.72 0
 -2 0 6 0.83 0.37 0
 -2 0 8 77.74 1.65 0
 -2 0 10 33.12 1.32 0
 -2 0 14 3.04 0.93 0
 -2 0 16 107.35 3.01 0
 -2 0 18 2.32 1.21 0
 -2 0 20 43.67 2.49 0
 -2 2 2 2355.18 4.62 0
 -2 2 3 289.5 1.8 0
 -2 2 4 130.23 1.36 0
 -2 2 5 1346.35 4.57 0
 -2 2 6 161.51 1.81 0
 -2 2 9 592.64 4.26 0
 -2 2 10 20.92 1.02 0
 -2 2 11 29.73 1.26 0
 -2 2 12 5.79 0.86 0
 -2 2 15 57.81 2.05 0
 -2 2 16 44.44 1.95 0
 -2 2 17 3.06 1.07 0
 -2 2 18 0.3 1.11 0
 -2 4 5 740.54 2.95 0
 -2 4 9 402.85 3.12 0
 -2 4 10 58.58 1.35 0
 -2 4 11 100 1.9 0
 -2 4 12 10.11 0.86 0
 -2 4 13 165.15 2.74 0
 -1 -13 8 13.33 1.58 0
 -1 -13 9 26.66 1.97 0
 -1 -13 10 31.59 2.16 0
 -1 -13 11 2.09 1.27 0
 -1 -13 12 1.83 1.42 0
 -1 -13 13 1.67 1.62 0
 -1 -11 3 -0.78 0.5 0
 -1 -11 6 40.26 1.71 0
 -1 -11 7 47.56 1.94 0
 -1 -11 8 74.83 2.44 0
 -1 -11 9 97.66 2.86 0
 -1 -11 10 46.4 2.31 0
 -1 -11 11 2.54 1.35 0
 -1 -11 12 10.15 1.78 0
 -1 -11 13 37.42 2.49 0
 -1 -11 15 1.94 1.48 0
 -1 -9 0 7.13 0.5 0
 -1 -9 1 52.51 1.15 0
 -1 -9 2 74.73 1.56 0
 -1 -9 4 45.55 1.45 0
 -1 -9 5 84.09 2.03 0
 -1 -9 8 18.2 1.42 0
 -1 -9 9 7.37 1.09 0
 -1 -9 11 1.49 1.12 0
 -1 -9 13 21.46 1.96 0
 -1 -9 14 19.49 2.1 0
 -1 -9 15 17.18 2.1 0
 -1 -9 17 1 1.82 0
 -1 -7 -1 56.21 0.76 0
 -1 -7 0 11.64 0.52 0
 -1 -7 1 846.81 3.96 0
 -1 -7 2 4.98 0.57 0
 -1 -7 4 10.9 0.81 0
 -1 -7 5 480.43 4.25 0
 -1 -7 6 8 0.82 0
 -1 -7 9 9.63 1.13 0
 -1 -7 11 19.08 1.53 0
 -1 -7 12 12.2 1.55 0
 -1 -7 13 4.59 1.14 0
 -1 -7 14 21.45 2.04 0
 -1 -7 15 19.2 2.05 0
 -1 -7 16 70.97 3.07 0
 -1 -7 17 -0.12 1.3 0
 -1 -7 18 7.89 1.76 0
 -1 -5 -1 381.11 1.59 0
 -1 -5 0 214.81 1.55 0
 -1 -5 1 18.62 0.61 0
 -1 -5 2 356.03 2.59 0
 -1 -5 3 759.49 4.11 0
 -1 -5 4 531.65 3.78 0
 -1 -5 5 26.71 1.02 0
 -1 -5 6 102.99 2.02 0
 -1 -5 7 410.74 4.11 0
 -1 -5 8 513.45 4.84 0
 -1 -5 11 30.13 1.56 0
 -1 -5 12 70.14 2.38 0
 -1 -5 13 136.88 3.34 0
 -1 -5 14 6.37 1.22 0
 -1 -5 15 3.65 1.21 0
 -1 -5 16 3.6 1.28 0
 -1 -5 17 3.76 1.39 0
 -1 -5 18 37.72 2.59 0
 -1 -5 19 3.54 1.77 0
 -1 -3 1 1136.45 3.39 0
 -1 -3 2 305.62 2.06 0
 -1 -3 3 295.43 2.31 0
 -1 -3 4 751.65 3.97 0
 -1 -3 5 916.88 4.77 0
 -1 -3 9 436.96 4.38 0
 -1 -3 10 24.25 1.28 0
 -1 -3 12 313.01 4.46 0
 -1 -3 13 39.73 1.9 0
 -1 -3 14 48.22 2.14 0
 -1 -3 15 36.8 2.07 0
 -1 -3 16 18.5 1.85 0
 -1 -3 17 27.76 2.21 0
 -1 -3 18 1.94 1.4 0
 -1 -3 19 0.45 1.3 0
 -1 -3 20 37.05 2.63 0
 -1 -1 1 37.92 0.54 0
 -1 -1 2 864.93 2.85 0
 -1 -1 3 0.43 0.23 0
 -1 -1 4 1342.13 4.64 0
 -1 -1 5 136.97 1.71 0
 -1 -1 6 570.21 3.71 0
 -1 -1 8 0.31 0.41 0
 -1 -1 10 2.89 0.61 0
 -1 -1 11 33.35 1.43 0
 -1 -1 14 54.85 2.14 0
 -1 -1 15 25.29 1.74 0
 -1 -1 16 64.29 2.53 0
 -1 -1 18 1.85 1.2 0
 -1 -1 19 3.52 1.56 0
 -1 -1 20 7.93 1.69 0
 -1 -1 21 40.35 2.63 0
 -1 1 2 846.6 2.28 0
 -1 1 3 0.6 0.19 0
 -1 1 4 1335.02 3.97 0
 -1 1 5 138.95 1.52 0
 -1 1 6 569.01 3.31 0
 -1 1 9 22.88 0.99 0
 -1 1 10 1.69 0.6 0
 -1 1 11 33.69 1.35 0
 -1 1 12 1.42 0.74 0
 -1 1 14 55.07 1.96 0
 -1 1 15 25.44 1.57 0
 -1 1 16 62.57 2.3 0
 -1 1 17 46.62 2.18 0
 -1 1 18 0.95 1.02 0
 -1 1 19 2.45 1.33 0
 -1 3 3 289.7 1.3 0
 -1 3 4 758.66 2.49 0
 -1 3 5 921.41 3.17 0
 -1 3 6 174.69 1.61 0
 -1 3 9 438.95 3.38 0
 -1 3 10 27.29 1.03 0
 -1 3 11 22.69 1.06 0
 -1 3 12 309.31 3.54 0
 -1 3 13 39.83 1.5 0
 -1 3 15 34.83 1.6 0
 -1 3 16 19.84 1.4 0
 -1 3 17 26.41 1.68 0
 -1 5 7 414.18 2.04 0
 -1 5 9 285.18 2.26 0
 -1 5 12 71.59 1.5 0
 0 -12 5 13.22 1.21 0
 0 -12 6 7.03 1.1 0
 0 -12 7 34.03 1.79 0
 0 -12 8 1.59 1.16 0
 0 -12 9 -1.42 0.99 0
 0 -12 10 14.12 1.71 0
 0 -12 11 -0.57 1.09 0
 0 -12 12 1.22 1.28 0
 0 -12 13 21.76 2.24 0
 0 -12 14 20.96 2.26 0
 0 -10 2 -0.03 0.44 0
 0 -10 3 1.36 0.59 0
 0 -10 4 12 1.01 0
 0 -10 6 2.33 0.76 0
 0 -10 7 109.8 2.64 0
 0 -10 8 0.64 0.96 0
 0 -10 9 9.17 1.26 0
 0 -10 10 16.28 1.67 0
 0 -10 11 40.66 2.23 0
 0 -10 12 -1.22 1.1 0
 0 -10 13 5.16 1.65 0
 0 -10 14 9.7 1.69 0
 0 -10 15 38.44 2.65 0
 0 -10 16 1.43 1.8 0
 0 -8 -1 835.46 2.94 0
 0 -8 0 31.13 0.79 0
 0 -8 1 832.23 4.17 0
 0 -8 2 4.45 0.56 0
 0 -8 3 100.64 1.82 0
 0 -8 4 4.43 0.66 0
 0 -8 5 330.16 3.67 0
 0 -8 6 -0.41 0.55 0
 0 -8 8 2.12 0.81 0
 0 -8 9 3.64 0.9 0
 0 -8 11 5.73 1.31 0
 0 -8 12 17.93 1.7 0
 0 -8 14 9.16 1.67 0
 0 -8 15 8.16 1.61 0
 0 -8 16 1.57 1.39 0
 0 -8 17 26.97 2.46 0
 0 -8 18 22.85 2.52 0
 0 -6 -1 176.86 1.24 0
 0 -6 0 12.89 0.49 0
 0 -6 1 177.54 1.75 0
 0 -6 3 1.91 0.4 0
 0 -6 4 38.12 1.14 0
 0 -6 5 5.81 0.71 0
 0 -6 6 12.44 0.9 0
 0 -6 7 7.9 0.86 0
 0 -6 10 24.13 1.49 0
 0 -6 11 16.19 1.41 0
 0 -6 12 89.78 2.68 0
 0 -6 13 23.88 1.74 0
 0 -6 14 7.11 1.29 0
 0 -6 15 17.75 1.84 0
 0 -6 16 51.02 2.65 0
 0 -6 17 17.84 2.1 0
 0 -6 18 26.52 2.5 0
 0 -6 19 14.05 2.18 0
 0 -4 -1 63.84 0.61 0
 0 -4 7 53.71 1.47 0
 0 -4 8 313.63 3.66 0
 0 -4 9 7.91 0.93 0
 0 -4 11 6.13 1.02 0
 0 -4 12 5.24 1.09 0
 0 -4 13 20.47 1.58 0
 0 -4 14 5.34 1.14 0
 0 -4 15 12.77 1.52 0
 0 -4 16 0.66 1.19 0
 0 -4 17 30.81 2.31 0
 0 -4 18 14.1 1.86 0
 0 -4 20 2.61 1.59 0
 0 -2 8 55.23 1.47 0
 0 -2 9 152.91 2.57 0
 0 -2 10 6.93 0.85 0
 0 -2 13 212.66 3.76 0
 0 -2 14 2.13 1.03 0
 0 -2 15 0.91 0.9 0
 0 -2 16 8.57 1.52 0
 0 -2 17 151.94 3.78 0
 0 -2 18 -0.18 1.26 0
 0 -2 19 8.71 1.59 0
 0 -2 20 10.75 1.9 0
 0 0 6 1708.35 5.88 0
 0 0 14 0.41 0.89 0
 0 0 16 4.7 1.28 0
 0 0 18 8.63 1.59 0
 0 0 20 -0.47 1.17 0
 0 2 3 28.45 0.42 0
 0 2 4 278.78 1.56 0
 0 2 5 118.5 1.26 0
 0 2 6 444.34 2.64 0
 0 2 9 152.3 2.17 0
 0 2 10 6.93 0.7 0
 0 2 11 10.94 0.86 0
 0 2 12 6.94 0.88 0
 0 2 15 -0.46 0.7 0
 0 2 17 146.99 3.25 0
 0 2 18 -0.82 1 0
 0 4 5 35.32 0.47 0
 0 4 6 3.73 0.28 0
 0 4 9 8.65 0.58 0
 0 4 10 13.15 0.72 0
 0 4 11 6.19 0.67 0
 0 4 12 4.44 0.65 0
 0 4 13 22.28 1.09 0
 0 4 14 6.34 0.83 0
 1 -13 7 55.77 2.18 0
 1 -13 9 8.75 1.47 0
 1 -13 10 1.19 1.26 0
 1 -13 11 38.8 2.41 0
 1 -13 12 -0.61 1.22 0
 1 -13 13 31.47 2.51 0
 1 -11 2 -0.07 0.5 0
 1 -11 5 5.14 0.92 0
 1 -11 6 11.91 1.24 0
 1 -11 7 30.39 1.68 0
 1 -11 8 8.45 1.32 0
 1 -11 9 25.41 1.84 0
 1 -11 10 49.19 2.37 0
 1 -11 11 24.51 2.03 0
 1 -11 12 3.12 1.53 0
 1 -11 13 31.84 2.35 0
 1 -11 14 41.25 2.66 0
 1 -11 15 60.88 3.11 0
 1 -9 -1 52.22 0.92 0
 1 -9 0 6.98 0.56 0
 1 -9 1 42.92 1.11 0
 1 -9 2 98.35 1.84 0
 1 -9 3 12.67 0.91 0
 1 -9 4 26.37 1.2 0
 1 -9 5 0.85 0.6 0
 1 -9 7 6.81 1.04 0
 1 -9 8 31.7 1.67 0
 1 -9 10 5.38 1.12 0
 1 -9 11 14.47 1.64 0
 1 -9 12 14.39 1.76 0
 1 -9 14 12.63 1.82 0
 1 -9 15 44.34 2.71 0
 1 -9 16 26.46 2.5 0
 1 -9 17 71.65 3.37 0
 1 -7 -2 5.38 0.29 0
 1 -7 9 79.77 2.27 0
 1 -7 10 -0.68 0.83 0
 1 -7 11 100.95 2.83 0
 1 -7 12 25.54 1.84 0
 1 -7 13 44.83 2.33 0
 1 -7 14 32.88 2.23 0
 1 -7 15 5.17 1.68 0
 1 -7 16 4.91 1.6 0
 1 -7 17 101.62 3.64 0
 1 -7 18 3.79 1.72 0
 1 -5 12 244.9 4.28 0
 1 -5 13 39.38 1.99 0
 1 -5 14 27.87 1.94 0
 1 -5 15 10.51 1.57 0
 1 -5 18 -0.32 1.28 0
 1 -5 19 -0.9 1.6 0
 1 -3 10 0.68 0.57 0
 1 -3 12 45.47 1.83 0
 1 -3 14 65.31 2.38 0
 1 -3 15 49.59 2.3 0
 1 -3 16 2.22 1.12 0
 1 -3 18 -0.42 1.29 0
 1 -3 19 16.5 1.92 0
 1 -3 20 -0.74 1.38 0
 1 -1 10 35.35 1.37 0
 1 -1 11 0.63 0.62 0
 1 -1 14 1.64 0.99 0
 1 -1 15 4.03 1.02 0
 1 -1 16 173.82 3.75 0
 1 -1 17 -0.09 1.29 0
 1 -1 20 49.65 2.69 0
 1 -1 21 6.18 1.57 0
 1 1 9 55.7 1.38 0
 1 1 10 35.19 1.24 0
 1 1 11 0.31 0.51 0
 1 1 12 37.91 1.52 0
 1 1 14 1.03 0.85 0
 1 1 15 3.75 1.02 0
 1 1 16 186.73 3.77 0
 1 1 17 1.31 1.03 0
 1 1 19 0.97 1.23 0
 1 3 5 2.48 0.28 0
 1 3 6 76.69 1.04 0
 1 3 7 3.18 0.37 0
 1 3 9 146.52 1.97 0
 1 3 10 -0.08 0.43 0
 1 3 11 2.22 0.54 0
 1 3 12 43.95 1.41 0
 1 3 13 148.94 2.62 0
 1 3 16 4.8 1.02 0
 1 5 10 19.51 0.7 0
 1 5 11 26.91 0.87 0
 2 -12 4 1.12 0.77 0
 2 -12 5 0.33 0.78 0
 2 -12 6 -0.26 0.8 0
 2 -12 7 34.67 1.84 0
 2 -12 8 12.23 1.44 0
 2 -12 11 2.04 1.25 0
 2 -12 12 4.19 1.5 0
 2 -12 13 12.77 1.97 0
 2 -12 14 23.82 2.43 0
 2 -10 0 -0.09 0.38 0
 2 -10 1 0.24 0.46 0
 2 -10 2 -0.25 0.51 0
 2 -10 3 180.29 2.75 0
 2 -10 6 2.88 0.81 0
 2 -10 7 4.7 1 0
 2 -10 8 45.68 1.99 0
 2 -10 9 2.94 1.15 0
 2 -10 11 15.25 1.79 0
 2 -10 12 27.72 2.13 0
 2 -10 13 -0.4 1.15 0
 2 -10 14 6.13 1.56 0
 2 -10 16 3.68 1.67 0
 2 -8 8 1.17 0.69 0
 2 -8 9 36.94 1.79 0
 2 -8 10 3.89 1.12 0
 2 -8 11 14.91 1.64 0
 2 -8 13 14.63 1.82 0
 2 -8 15 38.16 2.43 0
 2 -8 17 21.02 2.48 0
 2 -6 10 12.27 1.24 0
 2 -6 11 5.09 1.05 0
 2 -6 12 26.12 1.66 0
 2 -6 13 43.4 2.2 0
 2 -6 14 21.4 1.82 0
 2 -6 15 72.08 2.9 0
 2 -6 16 14.54 1.96 0
 2 -6 18 1.52 1.55 0
 2 -6 19 33.96 2.74 0
 2 -4 11 0.81 0.73 0
 2 -4 12 183.96 3.53 0
 2 -4 13 187.6 3.79 0
 2 -4 14 174.13 3.77 0
 2 -4 15 44.08 2.26 0
 2 -4 16 2.46 1.41 0
 2 -4 17 8.82 1.69 0
 2 -4 18 14.82 1.89 0
 2 -4 19 11.66 1.84 0
 2 -2 12 1.13 0.82 0
 2 -2 13 -0.34 0.87 0
 2 -2 14 58.22 2.23 0
 2 -2 16 30.44 1.98 0
 2 -2 17 36.04 2.23 0
 2 -2 18 1.29 1.21 0
 2 -2 19 -0.74 1.17 0
 2 -2 20 -0.4 1.25 0
 2 0 14 11.17 1.25 0
 2 0 20 27.42 2.14 0
 2 2 10 37.66 1.23 0
 2 2 11 1.52 0.61 0
 2 2 12 1.49 0.68 0
 2 2 15 3.84 0.92 0
 2 2 17 35.7 1.86 0
 2 4 7 94.96 1.19 0
 2 4 9 334.3 2.67 0
 2 4 10 194.86 2.27 0
 2 4 11 0.73 0.46 0
 2 4 12 189.74 2.57 0
 2 4 13 187.52 2.75 0
 3 -13 6 15.22 1.5 0
 3 -13 7 8.39 1.29 0
 3 -13 8 10.3 1.49 0
 3 -13 9 10.23 1.65 0
 3 -13 10 0.99 1.35 0
 3 -11 1 2.74 0.62 0
 3 -11 2 7.91 0.88 0
 3 -11 5 0.12 0.69 0
 3 -11 6 7.32 1.09 0
 3 -11 8 81.63 2.63 0
 3 -11 9 1.66 1.16 0
 3 -11 10 4.95 1.35 0
 3 -11 11 51.76 2.56 0
 3 -11 12 47.47 2.61 0
 3 -11 13 -0.28 1.36 0
 3 -11 14 1.02 1.65 0
 3 -9 9 8.02 1.29 0
 3 -9 11 25.3 1.94 0
 3 -9 14 0.75 1.37 0
 3 -9 16 9.68 1.87 0
 3 -7 11 37.19 1.9 0
 3 -7 13 0.02 1.2 0
 3 -7 14 2.29 1.18 0
 3 -7 15 2.48 1.6 0
 3 -7 16 2.26 1.34 0
 3 -7 17 33.12 2.57 0
 3 -7 18 5.95 1.8 0
 3 -5 12 4.51 0.98 0
 3 -5 13 33.87 1.9 0
 3 -5 14 0.63 1.2 0
 3 -5 15 2.31 1.3 0
 3 -5 16 15.61 1.91 0
 3 -5 17 24.07 2.25 0
 3 -5 18 2.81 1.67 0
 3 -5 19 0.14 1.7 0
 3 -3 13 1.83 1.02 0
 3 -3 15 31.97 2.03 0
 3 -3 16 45.32 2.4 0
 3 -3 17 -0.28 1.4 0
 3 -3 18 -0.44 1.5 0
 3 -3 19 15.5 2.13 0
 3 -3 20 31 2.54 0
 3 -1 13 10.78 1.14 0
 3 -1 14 35.79 1.81 0
 3 -1 16 89.09 2.87 0
 3 -1 17 11.4 1.54 0
 3 -1 18 6.36 1.45 0
 3 -1 20 100.36 3.38 0
 3 1 14 32.16 1.62 0
 3 1 15 4.69 1.01 0
 3 1 18 4.83 1.26 0
 3 1 19 2.56 1.33 0
 3 3 11 67.22 1.61 0
 3 3 12 36.67 1.36 0
 3 3 13 2.38 0.72 0
 3 3 15 33.73 1.61 0
 3 3 16 44.18 1.84 0
 3 5 9 137.57 1.61 0
 3 5 11 -0.31 0.34 0
 4 -12 3 21.37 1.33 0
 4 -12 4 52.07 1.83 0
 4 -12 5 2.82 0.96 0
 4 -12 6 0.2 1.01 0
 4 -12 7 4.75 1.29 0
 4 -12 8 5.38 1.36 0
 4 -12 9 33.51 2.16 0
 4 -12 10 2.52 1.34 0
 4 -12 11 1.62 1.29 0
 4 -12 12 -1.34 1.52 0
 4 -12 13 67.35 3.06 0
 4 -10 10 10.97 1.56 0
 4 -10 11 53.13 2.51 0
 4 -10 15 135.97 4.14 0
 4 -8 12 15.31 1.67 0
 4 -8 13 19.82 2.01 0
 4 -8 14 0.23 1.19 0
 4 -8 15 47.19 2.73 0
 4 -8 16 22.04 2.23 0
 4 -8 17 29.97 2.64 0
 4 -6 14 16.22 1.8 0
 4 -6 15 24.9 2.19 0
 4 -6 16 32.48 2.38 0
 4 -6 18 4.71 1.64 0
 4 -4 14 245.86 4.57 0
 4 -4 15 44.32 2.33 0
 4 -4 16 14.92 1.76 0
 4 -4 17 36.68 2.41 0
 4 -4 18 76.09 3.18 0
 4 -4 19 28.25 2.47 0
 4 -2 14 193.42 3.92 0
 4 -2 15 1.64 1.17 0
 4 -2 16 75.52 2.78 0
 4 -2 17 9.96 1.55 0
 4 -2 18 9.4 1.72 0
 4 -2 19 0.19 1.44 0
 4 -2 20 36.15 2.56 0
 4 0 14 23.25 1.55 0
 4 0 16 195.06 4.05 0
 4 0 18 34.19 2.21 0
 4 2 14 197.31 3.46 0
 4 2 15 1.51 0.88 0
 4 2 16 73.67 2.36 0
 4 2 17 8.66 1.34 0
 4 4 11 0.31 0.46 0
 4 4 12 229.94 2.95 0
 4 4 13 136.51 2.49 0
 5 -13 6 121.77 3.05 0
 5 -13 8 3.66 1.22 0
 5 -13 9 21.69 1.97 0
 5 -13 11 16.56 2.06 0
 5 -11 8 20.19 1.73 0
 5 -11 10 10.87 1.65 0
 5 -11 11 10.33 1.75 0
 5 -11 13 7.95 1.82 0
 5 -11 14 -0.09 1.44 0
 5 -9 12 22.4 1.98 0
 5 -9 14 0.02 1.52 0
 5 -9 15 -0.41 1.4 0
 5 -9 16 6.58 1.97 0
 5 -7 14 2.63 1.43 0
 5 -7 15 3.33 1.66 0
 5 -7 16 5.06 1.65 0
 5 -7 17 18.91 2.3 0
 5 -5 15 1.77 1.2 0
 5 -5 16 19.55 2.06 0
 5 -5 17 24.69 2.28 0
 5 -5 18 0.36 1.37 0
 5 -3 15 67.45 2.69 0
 5 -3 17 35.45 2.38 0
 5 -3 18 9.28 1.89 0
 5 -3 19 19.22 2.13 0
 5 -1 15 55.89 2.33 0
 5 -1 16 9.92 1.51 0
 5 -1 17 0.44 1.21 0
 5 -1 19 16.86 2.06 0
 5 1 14 60.59 2.13 0
 5 1 15 55.04 2.17 0
 5 1 16 8.7 1.37 0
 5 1 18 60.43 2.49 0
 5 3 14 49.6 1.78 0
 5 3 15 64.2 2.07 0
 6 -12 8 26.97 1.97 0
 6 -12 9 1.64 1.21 0
 6 -12 10 -0.21 1.17 0
 6 -12 11 -0.63 1.25 0
 6 -12 12 32.64 2.46 0
 6 -10 12 6.62 1.62 0
 6 -10 13 15.6 2.09 0
 6 -10 14 3.89 1.54 0
 6 -8 14 5.22 1.64 0
 6 -8 15 0.3 1.34 0
 6 -8 16 21.95 2.35 0
 6 -6 15 -0.02 1.26 0
 6 -6 16 4.18 1.52 0
 6 -4 16 1.59 1.25 0
 6 -4 17 4.76 1.61 0
 6 -4 18 21.07 2.32 0
 6 -2 16 2.8 1.34 0
 6 -2 17 -1.06 1.18 0
 6 -2 18 7.73 1.67 0
 6 -2 19 -0.03 1.39 0
 6 0 16 0.68 1.08 0
 6 2 15 17.85 1.53 0
 6 2 16 2.67 1.07 0
 7 -13 6 44.2 2.24 0
 7 -13 7 5.1 1.33 0
 7 -13 9 3.22 1.37 0
 7 -11 11 0.21 1.23 0
 7 -11 12 2.94 1.58 0
 7 -11 13 10.63 2.03 0
 7 -9 14 5.47 1.82 0
 7 -9 15 16.99 2.24 0
 7 -7 15 5.5 1.77 0
 7 -7 16 1.87 1.59 0
 7 -5 16 5.77 1.57 0
 7 -5 17 1.08 1.4 0
 7 -3 16 28.37 2.23 0
 7 -3 17 2.94 1.43 0
 7 -3 18 14.36 2.08 0
 7 -1 17 2.88 1.37 0
 7 -1 18 26.66 2.21 0
 7 1 16 30.36 1.95 0
 8 -12 11 0.74 1.29 0
 8 -10 13 11.5 1.8 0
 8 -8 15 11.06 2.1 0
 8 -6 16 26.47 2.45 0
 8 -4 17 34.68 2.49 0
 8 -2 17 38.87 2.47 0
 8 -2 18 1.29 1.37 0
 9 -3 17 24.62 2.34 0
 9 -1 17 -0.4 1.4 0
 9 -1 18 5.53 1.72 0
 -3 -1 9 32.81 0.89 0
 -3 -1 10 519.09 3.44 0
 -3 -1 11 61.77 1.32 0
 -3 -1 12 -0.14 0.39 0
 -3 1 6 4.88 0.23 0
 -3 1 7 189.53 1.33 0
 -3 1 8 162.32 1.39 0
 -3 1 10 520.61 2.96 0
 -3 1 11 59.74 1.12 0
 -3 1 12 0.44 0.34 0
 -3 1 13 37.42 1.02 0
 -3 3 5 7.82 0.22 0
 -3 3 6 330.95 1.34 0
 -3 3 7 17.55 0.4 0
 -3 3 8 786.14 2.69 0
 -3 3 11 7.88 0.45 0
 -3 3 12 116.09 1.48 0
 -3 5 10 0.14 0.23 0
 -3 7 9 325.47 2.46 0
 -2 -2 6 153.04 1.68 0
 -2 -2 9 594.09 3.96 0
 -2 -2 10 20.15 0.9 0
 -2 -2 11 27.91 1.07 0
 -2 -2 12 5.85 0.73 0
 -2 -2 13 150.99 2.47 0
 -2 0 6 0.53 0.21 0
 -2 0 10 30.59 0.92 0
 -2 0 12 27.64 1.01 0
 -2 2 4 126.3 0.79 0
 -2 2 5 1328.19 2.94 0
 -2 2 6 155.55 1.2 0
 -2 2 7 5.58 0.34 0
 -2 2 10 19.74 0.71 0
 -2 2 11 29.81 0.9 0
 -2 2 12 5.66 0.56 0
 -2 2 13 153.69 2.12 0
 -2 2 14 49.57 1.27 0
 -2 4 9 385.82 2.56 0
 -2 4 10 60.97 1.17 0
 -2 4 11 100.17 1.55 0
 -2 4 12 9.01 0.6 0
 -2 6 10 11.21 0.62 0
 -2 6 11 3.14 0.43 0
 -1 -3 5 920.13 4.25 0
 -1 -3 8 932.35 5.15 0
 -1 -3 9 431.42 3.72 0
 -1 -3 10 26.68 1.12 0
 -1 -3 11 24.05 1.12 0
 -1 -3 15 34.45 1.55 0
 -1 -1 3 0.61 0.21 0
 -1 -1 4 1346.08 3.8 0
 -1 -1 5 139.25 1.43 0
 -1 -1 6 573.8 3.07 0
 -1 -1 9 21.87 0.85 0
 -1 -1 10 2 0.45 0
 -1 -1 11 32.74 1.13 0
 -1 -1 12 1 0.54 0
 -1 -1 13 6.15 0.79 0
 -1 -1 15 25.13 1.26 0
 -1 -1 16 65.72 1.92 0
 -1 -1 17 42.42 1.66 0
 -1 1 3 0.59 0.12 0
 -1 1 4 1337.25 3.07 0
 -1 1 5 133.68 1.17 0
 -1 1 6 570.02 2.69 0
 -1 1 7 11.91 0.5 0
 -1 1 9 22.9 0.79 0
 -1 1 10 3.42 0.5 0
 -1 1 12 0.56 0.47 0
 -1 1 13 5.06 0.69 0
 -1 1 14 55.46 1.54 0
 -1 3 6 173.5 1.55 0
 -1 3 9 438.77 3.03 0
 -1 3 10 24.57 0.86 0
 -1 3 11 24.21 0.91 0
 -1 3 12 308.69 3.03 0
 -1 3 13 37.68 1.18 0
 -1 3 14 46.7 1.35 0
 -1 5 8 529.28 3.35 0
 -1 5 9 281.54 2.6 0
 -1 5 10 9.86 0.65 0
 -1 5 11 28.3 0.98 0
 -1 5 13 136.71 2.18 0
 -1 7 10 53.5 1.33 0
 -1 7 11 17.07 0.87 0
 0 -4 7 53.27 1.37 0
 0 -4 8 312.59 3.31 0
 0 -4 9 9.28 0.81 0
 0 -4 10 12.06 0.95 0
 0 -4 14 4.6 0.87 0
 0 -4 16 0.3 0.85 0
 0 -2 2 715.21 2.74 0
 0 -2 3 28.17 0.66 0
 0 -2 4 281.32 2.11 0
 0 -2 5 117.69 1.51 0
 0 -2 6 457.07 3.12 0
 0 -2 8 53.59 1.28 0
 0 -2 10 7.54 0.73 0
 0 -2 11 9.92 0.86 0
 0 -2 12 6.15 0.76 0
 0 -2 14 2.17 0.74 0
 0 -2 15 -0.22 0.64 0
 0 -2 16 7.93 1.03 0
 0 -2 17 151.06 3.1 0
 0 -2 18 -0.53 0.73 0
 0 0 2 1507.05 2.76 0
 0 0 4 9845.99 10.18 0
 0 0 6 1710.35 5.34 0
 0 0 12 64.97 1.64 0
 0 2 5 118.47 1.28 0
 0 2 6 451.86 2.69 0
 0 2 9 148.64 1.94 0
 0 2 10 8.01 0.68 0
 0 2 11 10.76 0.77 0
 0 2 12 6.01 0.73 0
 0 2 13 208.15 2.89 0
 0 2 16 7.03 0.91 0
 0 4 8 319.49 2.76 0
 0 4 9 8.24 0.62 0
 0 4 10 13.83 0.79 0
 0 4 11 6.18 0.65 0
 0 4 12 4.91 0.63 0
 0 4 13 20.6 1.05 0
 0 6 9 34.9 1.11 0
 0 6 10 23.17 1 0
 0 6 11 12.83 0.84 0
 0 6 12 85.68 1.82 0
 0 8 10 3.03 0.7 0
 1 -5 7 146.23 2.39 0
 1 -5 8 218.27 3.03 0
 1 -5 12 246.97 3.83 0
 1 -5 14 27.19 1.62 0
 1 -5 15 7.47 1.09 0
 1 -5 16 19.14 1.54 0
 1 -3 2 2 0.34 0
 1 -3 3 169.13 1.75 0
 1 -3 4 125.21 1.64 0
 1 -3 5 2.87 0.44 0
 1 -3 7 2.93 0.45 0
 1 -3 9 143.95 2.36 0
 1 -3 10 0.37 0.6 0
 1 -3 13 156.86 2.97 0
 1 -3 14 60.03 1.99 0
 1 -3 15 50.89 1.95 0
 1 -3 16 2.92 0.88 0
 1 -3 17 10.78 1.34 0
 1 -3 18 0.75 1 0
 1 -1 0 2006.56 2.74 0
 1 -1 1 7.85 0.3 0
 1 -1 2 16.06 0.46 0
 1 -1 3 -0.08 0.19 0
 1 -1 4 3.52 0.36 0
 1 -1 5 32.5 0.84 0
 1 -1 6 27.91 0.84 0
 1 -1 8 8.02 0.62 0
 1 -1 9 57.22 1.41 0
 1 -1 10 34.25 1.19 0
 1 -1 11 0.42 0.47 0
 1 -1 14 1.63 0.7 0
 1 -1 15 4 0.86 0
 1 -1 16 174.8 3.28 0
 1 -1 17 -0.67 0.76 0
 1 -1 18 72.83 2.29 0
 1 1 4 3.63 0.35 0
 1 1 5 32.54 0.81 0
 1 1 6 27.02 0.78 0
 1 1 10 33.83 1.16 0
 1 1 11 0.39 0.44 0
 1 1 12 37.07 1.35 0
 1 1 15 4.39 0.9 0
 1 1 16 186.66 3.3 0
 1 1 17 1.3 0.88 0
 1 3 8 20.12 0.83 0
 1 3 9 146.95 2.12 0
 1 3 10 0.86 0.43 0
 1 3 11 2.33 0.53 0
 1 3 12 43.86 1.42 0
 1 3 15 44.97 1.64 0
 1 3 16 3.54 0.84 0
 1 5 9 3.16 0.59 0
 1 5 10 18.92 0.97 0
 1 5 11 24.45 1.09 0
 1 5 14 25.94 1.28 0
 1 5 15 8.8 1 0
 1 7 10 0.26 0.54 0
 1 9 11 14.21 1.11 0
 1 9 12 16.12 1.21 0
 2 -6 5 16.51 0.91 0
 2 -6 11 6.76 1.03 0
 2 -6 12 26.3 1.54 0
 2 -6 13 41.79 1.9 0
 2 -6 14 22.59 1.64 0
 2 -4 1 3.64 0.43 0
 2 -4 2 0.62 0.34 0
 2 -4 8 751.05 5.38 0
 2 -4 9 323.4 3.74 0
 2 -4 12 190.22 3.38 0
 2 -4 13 184.77 3.46 0
 2 -4 14 179.95 3.56 0
 2 -4 16 0.65 0.92 0
 2 -4 17 9.4 1.33 0
 2 -4 18 12.74 1.54 0
 2 -4 19 9.79 1.44 0
 2 -2 0 643.12 2.24 0
 2 -2 1 561.7 2.42 0
 2 -2 2 487 2.57 0
 2 -2 3 0.52 0.27 0
 2 -2 4 397.55 2.82 0
 2 -2 8 0.22 0.47 0
 2 -2 9 9.73 0.77 0
 2 -2 10 39.54 1.41 0
 2 -2 13 -0.18 0.58 0
 2 -2 14 56.86 1.98 0
 2 -2 15 6.1 1.07 0
 2 -2 16 31.65 1.74 0
 2 -2 17 33.61 1.82 0
 2 -2 18 -0.51 0.93 0
 2 -2 19 0.05 0.91 0
 2 0 2 25.63 0.58 0
 2 0 4 4894.72 8.79 0
 2 0 6 713.35 3.99 0
 2 0 8 707.42 4.56 0
 2 0 10 131.07 2.29 0
 2 0 14 13.01 1.16 0
 2 0 16 230.36 3.87 0
 2 0 18 33.9 1.8 0
 2 2 8 0.46 0.43 0
 2 2 11 1.8 0.55 0
 2 2 12 1.1 0.58 0
 2 2 14 60.54 1.9 0
 2 2 15 6.4 1.02 0
 2 2 16 30.78 1.63 0
 2 2 18 0.31 0.92 0
 2 4 8 752.28 4.82 0
 2 4 9 337.96 3.46 0
 2 4 10 193.54 2.75 0
 2 4 11 0.12 0.49 0
 2 4 14 184.63 3.15 0
 2 4 15 42.46 1.72 0
 2 4 16 0.63 0.8 0
 2 6 10 10.85 0.95 0
 2 6 13 39.77 1.59 0
 2 6 14 21.14 1.32 0
 2 6 15 69.81 2.09 0
 2 8 11 15.5 1.2 0
 2 8 12 7.02 1.02 0
 2 8 13 12.19 1.22 0
 2 8 14 1.7 0.89 0
 2 10 11 12.36 1.23 0
 2 10 12 27.54 1.54 0
 3 -7 9 4.39 0.8 0
 3 -7 10 5.66 0.9 0
 3 -7 11 36.79 1.78 0
 3 -7 12 2.9 0.93 0
 3 -7 13 -0.51 1 0
 3 -7 14 1.25 1.14 0
 3 -5 2 11.96 0.66 0
 3 -5 3 43.9 1.16 0
 3 -5 4 368.62 3.34 0
 3 -5 5 106.3 1.94 0
 3 -5 6 19.33 0.97 0
 3 -5 10 63.22 1.96 0
 3 -5 11 -0.15 0.76 0
 3 -5 12 5.69 1.07 0
 3 -5 14 -0.59 0.73 0
 3 -5 15 0.93 1.14 0
 3 -5 16 12.25 1.51 0
 3 -5 17 27.52 1.91 0
 3 -5 18 1.84 1.09 0
 3 -3 -1 633.66 2.41 0
 3 -3 0 343.79 2.05 0
 3 -3 1 8.22 0.5 0
 3 -3 3 1427.4 5.43 0
 3 -3 4 375.5 3.02 0
 3 -3 7 383.32 3.67 0
 3 -3 8 246.63 3.17 0
 3 -3 9 86.42 1.99 0
 3 -3 13 1.32 0.75 0
 3 -3 14 0.67 0.76 0
 3 -3 15 33.91 1.81 0
 3 -3 16 48.29 2.15 0
 3 -3 17 -0.48 1.03 0
 3 -3 18 0.13 1.01 0
 3 -3 19 13.42 1.63 0
 3 -3 20 34 2.05 0
 3 -1 0 3004.99 4.86 0
 3 -1 1 537.83 2.43 0
 3 -1 2 688.72 3.09 0
 3 -1 3 543.24 3.04 0
 3 -1 4 798.44 4 0
 3 -1 5 22.55 0.81 0
 3 -1 8 28.39 1.12 0
 3 -1 9 1.83 0.51 0
 3 -1 10 57.15 1.66 0
 3 -1 13 8.51 1.09 0
 3 -1 15 3.7 0.97 0
 3 -1 16 91.44 2.66 0
 3 -1 17 11.73 1.45 0
 3 -1 18 5.78 1.29 0
 3 -1 19 1.84 1.16 0
 3 1 4 796.41 3.91 0
 3 1 5 23.06 0.8 0
 3 1 8 27.42 1.06 0
 3 1 9 1.51 0.47 0
 3 1 10 57.49 1.63 0
 3 1 11 15.35 1.06 0
 3 1 13 9.18 1.01 0
 3 1 14 33.24 1.6 0
 3 1 15 4.09 1.04 0
 3 1 16 91.28 2.58 0
 3 1 17 10.19 1.36 0
 3 1 18 6.93 1.19 0
 3 1 19 1.16 1.1 0
 3 3 7 379.44 3.42 0
 3 3 9 82.92 1.84 0
 3 3 10 40.99 1.41 0
 3 3 13 1.71 0.66 0
 3 3 14 1.6 0.74 0
 3 3 15 30.46 1.64 0
 3 3 16 43.07 1.92 0
 3 3 17 0.61 0.81 0
 3 3 18 -0.85 0.82 0
 3 5 9 135.59 2.46 0
 3 5 12 4.11 0.87 0
 3 5 13 31.31 1.5 0
 3 5 14 0.55 0.72 0
 3 5 15 2.04 0.94 0
 3 7 11 35.09 1.55 0
 3 7 12 1.76 0.74 0
 3 7 13 -0.33 0.7 0
 3 7 14 2.4 0.93 0
 3 7 15 3.56 1.01 0
 3 9 12 0.94 0.8 0
 3 9 13 -0.39 0.81 0
 3 11 11 52.57 2.12 0
 4 -8 10 10.47 1.29 0
 4 -8 11 4.6 1.04 0
 4 -6 2 9.08 0.67 0
 4 -6 3 246.84 2.87 0
 4 -6 5 10.79 0.89 0
 4 -6 9 111.55 2.56 0
 4 -6 10 12.22 1.24 0
 4 -6 11 34.61 1.71 0
 4 -6 12 148.33 3.29 0
 4 -6 13 110.13 2.99 0
 4 -6 14 15.37 1.58 0
 4 -6 16 30.15 2.02 0
 4 -6 17 1.88 1.18 0
 4 -6 18 2.84 1.29 0
 4 -4 0 26.18 0.71 0
 4 -4 1 86.13 1.34 0
 4 -4 2 9.34 0.59 0
 4 -4 3 232.49 2.49 0
 4 -4 4 0.69 0.42 0
 4 -4 5 89.56 1.79 0
 4 -4 6 18.27 0.95 0
 4 -4 7 0.71 0.56 0
 4 -4 10 50.05 1.79 0
 4 -4 12 224.34 3.93 0
 4 -4 13 133.21 3.11 0
 4 -4 14 249.62 4.35 0
 4 -4 15 45.02 2.13 0
 4 -4 16 12.7 1.52 0
 4 -4 17 36.74 2.13 0
 4 -4 18 79.2 2.87 0
 4 -4 19 28.8 2.1 0
 4 -2 -2 0.06 0.13 0
 4 -2 -1 1927.7 4.05 0
 4 -2 0 220.76 1.64 0
 4 -2 1 78.9 1.15 0
 4 -2 2 42.11 0.95 0
 4 -2 3 693.92 3.85 0
 4 -2 4 22.37 0.79 0
 4 -2 8 64.91 1.69 0
 4 -2 9 1.76 0.52 0
 4 -2 12 13.64 1.14 0
 4 -2 13 23.8 1.51 0
 4 -2 15 1.2 0.93 0
 4 -2 16 75.8 2.58 0
 4 -2 17 8.38 1.32 0
 4 -2 18 9.97 1.56 0
 4 -2 19 0.73 1.23 0
 4 -2 20 38.31 2.16 0
 4 0 2 56.52 1.05 0
 4 0 4 263.18 2.47 0
 4 0 8 93.53 1.92 0
 4 0 10 3.42 0.67 0
 4 0 12 0.66 0.67 0
 4 0 16 205.9 4 0
 4 2 8 64.31 1.62 0
 4 2 9 2.63 0.64 0
 4 2 12 11.85 1.07 0
 4 2 13 26 1.48 0
 4 2 14 198.8 3.72 0
 4 2 15 1.49 0.89 0
 4 2 18 10.63 1.39 0
 4 2 19 -0.14 1.09 0
 4 4 8 188.5 2.84 0
 4 4 9 21.89 1.16 0
 4 4 12 226.44 3.65 0
 4 4 13 131.61 2.85 0
 4 4 14 255.54 4.16 0
 4 4 15 42.53 1.93 0
 4 4 16 15.2 1.5 0
 4 4 17 36.63 1.92 0
 4 4 18 77.86 2.55 0
 4 6 10 13.25 1.09 0
 4 6 11 32.68 1.53 0
 4 6 13 108.92 2.68 0
 4 6 14 14.84 1.36 0
 4 6 15 24.69 1.62 0
 4 8 11 4.67 0.98 0
 4 8 13 20.14 1.53 0
 4 8 14 0.75 0.96 0
 4 8 15 45.84 2.04 0
 4 10 11 53.88 2.15 0
 4 10 12 21.97 1.69 0
 4 10 13 21.97 1.69 0
 4 12 11 1.84 1.1 0
 5 -7 3 27.42 1.13 0
 5 -7 4 26.39 1.22 0
 5 -7 9 20.64 1.48 0
 5 -7 10 24.74 1.6 0
 5 -7 11 2.81 0.91 0
 5 -7 13 20 1.8 0
 5 -7 14 3.93 1.34 0
 5 -7 15 2.04 1.13 0
 5 -7 16 3.76 1.41 0
 5 -5 0 116.58 1.62 0
 5 -5 1 48.64 1.14 0
 5 -5 2 5.15 0.56 0
 5 -5 3 0.27 0.39 0
 5 -5 4 0.21 0.5 0
 5 -5 5 26.72 1.17 0
 5 -5 6 89.29 2.01 0
 5 -5 9 32.93 1.54 0
 5 -5 14 11.5 1.43 0
 5 -5 15 0.46 1.24 0
 5 -5 16 19.73 1.91 0
 5 -5 17 28.65 2.12 0
 5 -5 18 -0.97 1.28 0
 5 -3 -2 615.01 2.34 0
 5 -3 -1 637.89 2.8 0
 5 -3 0 98.62 1.32 0
 5 -3 1 713.26 3.67 0
 5 -3 4 0.27 0.35 0
 5 -3 5 267.64 3.02 0
 5 -3 6 2.02 0.48 0
 5 -3 7 389.87 4.06 0
 5 -3 10 53.17 1.82 0
 5 -3 11 241.76 3.88 0
 5 -3 12 55.92 2.07 0
 5 -3 13 61.78 2.21 0
 5 -3 14 53.08 2.2 0
 5 -3 15 66.13 2.49 0
 5 -3 16 6.17 1.42 0
 5 -3 18 7.51 1.45 0
 5 -3 19 15.82 1.83 0
 5 -1 -3 198.51 1.05 0
 5 -1 -2 312.57 1.62 0
 5 -1 -1 57.18 0.87 0
 5 -1 0 409.58 2.4 0
 5 -1 1 716.58 3.47 0
 5 -1 2 1023.58 4.48 0
 5 -1 3 73.21 1.36 0
 5 -1 4 240.05 2.55 0
 5 -1 7 243.66 3.07 0
 5 -1 8 0.41 0.56 0
 5 -1 9 11.03 0.97 0
 5 -1 11 149.95 3.04 0
 5 -1 12 8.16 1.01 0
 5 -1 13 0.55 0.82 0
 5 -1 14 63.31 2.29 0
 5 -1 15 55.19 2.24 0
 5 -1 17 0.22 1.16 0
 5 -1 18 56.43 2.51 0
 5 -1 20 9.38 1.59 0
 5 1 7 241.3 3.03 0
 5 1 8 0.28 0.44 0
 5 1 9 12.18 1.01 0
 5 1 12 10.59 1.28 0
 5 1 13 -0.16 0.78 0
 5 1 14 62.09 2.21 0
 5 1 15 52.1 2.17 0
 5 1 16 8.64 1.4 0
 5 1 17 1.07 1.12 0
 5 1 18 59.92 2.48 0
 5 1 19 17.09 1.73 0
 5 1 20 8.52 1.44 0
 5 3 7 382.15 3.88 0
 5 3 8 146.62 2.63 0
 5 3 11 239.28 3.73 0
 5 3 12 57.14 2 0
 5 3 13 63.43 2.19 0
 5 3 15 65.12 2.37 0
 5 3 16 6.67 1.24 0
 5 3 17 34.44 1.98 0
 5 3 18 8.09 1.46 0
 5 3 19 17.25 1.71 0
 5 5 10 -0.56 0.68 0
 5 5 11 14.38 1.23 0
 5 5 12 114.59 2.75 0
 5 5 13 62.83 2.21 0
 5 5 14 9.19 1.25 0
 5 5 15 -0.17 0.84 0
 5 5 16 19.48 1.64 0
 5 5 18 -0.09 1.06 0
 5 7 10 24.73 1.49 0
 5 7 11 2.03 0.88 0
 5 7 12 22.6 1.56 0
 5 7 13 21.25 1.61 0
 5 7 14 2.9 1 0
 5 7 15 1.41 1.04 0
 5 7 16 3.78 1.08 0
 5 9 11 0.16 0.98 0
 5 9 12 19.9 1.62 0
 5 9 14 -0.33 1.06 0
 5 9 15 -0.73 0.96 0
 5 11 12 68.62 2.56 0
 5 13 11 14.9 1.73 0
 6 -8 5 66.94 1.95 0
 6 -8 6 3.94 0.91 0
 6 -8 7 236.96 3.89 0
 6 -8 8 67.62 2.26 0
 6 -8 9 143.75 3.24 0
 6 -8 11 108.86 3.11 0
 6 -8 12 19.66 1.74 0
 6 -8 13 172.25 3.99 0
 6 -8 14 5.54 1.52 0
 6 -8 15 -0.12 1.16 0
 6 -6 1 34.83 1.11 0
 6 -6 2 148.52 2.33 0
 6 -6 3 275.6 3.21 0
 6 -6 4 6.69 0.83 0
 6 -6 8 17.46 1.24 0
 6 -6 9 90.12 2.47 0
 6 -6 10 0.85 0.8 0
 6 -6 11 117.33 3.02 0
 6 -6 12 4.78 1.29 0
 6 -6 13 120.06 3.29 0
 6 -6 14 9.77 1.41 0
 6 -6 15 0.55 1.23 0
 6 -6 16 2.05 1.2 0
 6 -6 17 12.39 1.73 0
 6 -6 18 2.13 1.4 0
 6 -4 -2 661.19 2.86 0
 6 -4 -1 119.31 1.43 0
 6 -4 0 125.44 1.65 0
 6 -4 1 0.33 0.31 0
 6 -4 2 30.74 1.01 0
 6 -4 3 25.9 1.01 0
 6 -4 4 0.19 0.39 0
 6 -4 9 34.23 1.55 0
 6 -4 10 6.12 0.9 0
 6 -4 11 5.14 0.97 0
 6 -4 12 24.81 1.65 0
 6 -4 13 3.55 1.12 0
 6 -4 14 31.18 1.9 0
 6 -4 15 13.02 1.61 0
 6 -4 16 0.35 1.01 0
 6 -4 17 5.28 1.36 0
 6 -2 -3 78.16 0.75 0
 6 -2 -2 477.15 2.23 0
 6 -2 -1 102.43 1.22 0
 6 -2 1 120.93 1.66 0
 6 -2 2 152.31 1.98 0
 6 -2 3 504.86 3.74 0
 6 -2 4 42.32 1.22 0
 6 -2 5 0.45 0.37 0
 6 -2 6 74.55 1.78 0
 6 -2 10 11.31 1.17 0
 6 -2 11 73.69 2.27 0
 6 -2 12 101.59 2.71 0
 6 -2 13 2.42 0.89 0
 6 -2 14 46.99 2.17 0
 6 -2 15 20.64 1.77 0
 6 -2 16 1.58 1.08 0
 6 -2 17 -0.62 1.08 0
 6 -2 18 6.56 1.56 0
 6 -2 19 0.49 1.24 0
 6 0 0 383.67 2.61 0
 6 0 2 35.52 1 0
 6 0 4 422.01 3.56 0
 6 0 6 8.66 0.74 0
 6 0 8 473.7 4.65 0
 6 0 10 3.89 0.85 0
 6 0 12 317.52 4.6 0
 6 0 14 89.87 2.72 0
 6 0 18 5.83 1.32 0
 6 2 6 71.67 1.73 0
 6 2 7 297.36 3.58 0
 6 2 10 11.28 1.11 0
 6 2 11 70.09 2.15 0
 6 2 12 100.26 2.65 0
 6 2 13 2.61 0.95 0
 6 2 14 48.04 2.09 0
 6 2 16 1.77 1.02 0
 6 2 17 1.32 1.2 0
 6 2 18 7.87 1.37 0
 6 2 19 -0.57 1.23 0
 6 4 9 33.27 1.49 0
 6 4 10 6.17 0.95 0
 6 4 11 5.73 1.03 0
 6 4 12 24.81 1.58 0
 6 4 13 4.65 1.16 0
 6 4 14 28.75 1.83 0
 6 4 15 14.65 1.56 0
 6 4 16 1.44 1.01 0
 6 4 17 7.06 1.29 0
 6 6 9 87.52 2.34 0
 6 6 10 1.85 0.79 0
 6 6 11 115.36 2.87 0
 6 6 12 3.24 1.11 0
 6 6 13 116.62 3.02 0
 6 6 14 8.62 1.26 0
 6 6 15 2.3 1.04 0
 6 6 16 1.41 1.06 0
 6 6 17 15.05 1.7 0
 6 8 10 10.29 1.33 0
 6 8 12 17.78 1.63 0
 6 8 13 168.77 3.7 0
 6 8 15 0.79 1.14 0
 6 8 16 16.69 1.72 0
 6 10 11 1.05 1.18 0
 6 10 12 4.32 1.18 0
 6 10 14 3.04 1.19 0
 6 12 11 -0.93 1.01 0
 7 -9 9 0.22 0.91 0
 7 -9 11 13.38 1.56 0
 7 -7 2 21.25 1.06 0
 7 -7 6 25.49 1.4 0
 7 -7 7 247.07 3.95 0
 7 -7 8 10.63 1.23 0
 7 -7 9 13.89 1.41 0
 7 -7 11 55.92 2.36 0
 7 -7 12 1.6 1.03 0
 7 -7 13 19.39 1.76 0
 7 -7 14 7.57 1.41 0
 7 -7 15 5.22 1.6 0
 7 -7 16 0.86 1.22 0
 7 -5 -1 126.51 1.69 0
 7 -5 0 28.04 0.92 0
 7 -5 1 31.13 1.04 0
 7 -5 2 170.4 2.41 0
 7 -5 3 76.88 1.73 0
 7 -5 4 117.79 2.28 0
 7 -5 8 0.04 0.74 0
 7 -5 9 7.94 1.08 0
 7 -5 11 1.07 0.82 0
 7 -5 12 27.06 1.83 0
 7 -5 13 4.06 1.15 0
 7 -5 15 16.42 1.75 0
 7 -5 17 -0.06 1.13 0
 7 -3 -3 10.93 0.37 0
 7 -3 -2 58.1 0.96 0
 7 -3 -1 700.02 3.44 0
 7 -3 0 255.08 2.35 0
 7 -3 1 138.36 1.93 0
 7 -3 2 35.8 1.09 0
 7 -3 3 485.1 3.95 0
 7 -3 4 225.92 2.93 0
 7 -3 5 341.02 3.75 0
 7 -3 9 99.15 2.48 0
 7 -3 10 5.36 0.93 0
 7 -3 11 7.14 1.02 0
 7 -3 12 1.82 0.94 0
 7 -3 13 0.29 1.01 0
 7 -3 15 8.32 1.38 0
 7 -3 16 27.62 2.03 0
 7 -3 17 2.24 1.44 0
 7 -3 18 12.04 1.69 0
 7 -1 -4 67.14 0.78 0
 7 -1 -3 0.1 0.19 0
 7 -1 -2 64.68 1.03 0
 7 -1 -1 135.98 1.59 0
 7 -1 0 137.92 1.74 0
 7 -1 1 25.92 0.86 0
 7 -1 2 460.47 3.51 0
 7 -1 3 57.89 1.39 0
 7 -1 4 30.82 1.13 0
 7 -1 5 69.6 1.7 0
 7 -1 6 686.7 5.34 0
 7 -1 7 0.83 0.63 0
 7 -1 9 16.67 1.15 0
 7 -1 10 113.5 2.71 0
 7 -1 11 26.65 1.57 0
 7 -1 12 43.75 1.99 0
 7 -1 13 -0.4 0.88 0
 7 -1 14 0.32 0.91 0
 7 -1 15 30.3 1.98 0
 7 -1 17 1.47 1.21 0
 7 -1 18 21.65 2 0
 7 -1 19 25.03 2.12 0
 7 1 3 59.14 1.43 0
 7 1 4 29.9 1.09 0
 7 1 5 72.85 1.75 0
 7 1 6 663.78 5.25 0
 7 1 7 0.73 0.49 0
 7 1 9 17.57 1.19 0
 7 1 10 115.91 2.69 0
 7 1 11 27.12 1.57 0
 7 1 13 -0.93 0.83 0
 7 1 14 -0.54 0.92 0
 7 1 15 29.47 1.98 0
 7 1 18 26.02 2.08 0
 7 1 19 26.1 2.13 0
 7 3 9 96.77 2.45 0
 7 3 10 5.43 0.92 0
 7 3 11 7.37 1.06 0
 7 3 12 2.63 0.97 0
 7 3 13 1.74 0.93 0
 7 3 14 82.85 2.76 0
 7 3 15 10.08 1.47 0
 7 3 16 25.47 1.98 0
 7 3 17 2.56 1.18 0
 7 3 18 11.91 1.7 0
 7 5 8 -0.16 0.55 0
 7 5 9 7.68 0.96 0
 7 5 10 0.98 0.72 0
 7 5 11 0.93 0.78 0
 7 5 12 28.86 1.79 0
 7 5 13 2.78 1.18 0
 7 5 14 24.61 1.85 0
 7 5 15 15.42 1.7 0
 7 5 16 6.36 1.34 0
 7 5 17 0.6 1.09 0
 7 5 18 3.69 1.29 0
 7 7 9 15.09 1.4 0
 7 7 12 0.63 0.96 0
 7 7 13 18.74 1.71 0
 7 7 14 7.88 1.31 0
 7 7 15 5.93 1.27 0
 7 7 16 0.1 1.12 0
 7 7 17 9.28 1.64 0
 7 9 12 9.53 1.51 0
 7 9 13 3.54 1.18 0
 7 9 14 5.93 1.3 0
 7 9 15 17.46 1.81 0
 7 11 11 -0 1.03 0
 7 11 12 2.07 1.21 0
 7 11 13 10.82 1.74 0
 7 13 10 35.99 2.32 0
 8 -8 3 9.51 1 0
 8 -8 7 7.35 1.06 0
 8 -8 8 3.99 1.1 0
 8 -8 9 0.5 1.09 0
 8 -8 10 1.02 1.04 0
 8 -8 11 19.14 1.8 0
 8 -8 12 -0.61 1.02 0
 8 -8 13 19.48 1.98 0
 8 -8 14 0.25 1.39 0
 8 -8 15 10.69 1.62 0
 8 -6 1 2.77 0.56 0
 8 -6 2 8.73 0.8 0
 8 -6 3 64.58 1.73 0
 8 -6 6 30.09 1.5 0
 8 -6 7 16.96 1.34 0
 8 -6 8 11.11 1.28 0
 8 -6 9 3.47 0.91 0
 8 -6 10 13.97 1.5 0
 8 -6 12 15.78 1.74 0
 8 -6 13 14.88 1.77 0
 8 -6 14 15 1.76 0
 8 -6 16 28.27 2.23 0
 8 -4 -3 244.62 1.66 0
 8 -4 -2 1125.36 4.21 0
 8 -4 -1 643.85 3.62 0
 8 -4 0 192.3 2.25 0
 8 -4 1 10.33 0.72 0
 8 -4 2 351.3 3.42 0
 8 -4 3 255.67 3.12 0
 8 -4 4 130.26 2.48 0
 8 -4 7 18.96 1.28 0
 8 -4 9 3.7 0.95 0
 8 -4 10 51.23 2.04 0
 8 -4 11 -0.27 0.85 0
 8 -4 12 0.5 0.88 0
 8 -4 14 7.75 1.46 0
 8 -4 15 3.88 1.29 0
 8 -4 16 -0.21 1.15 0
 8 -4 17 34.24 2.36 0
 8 -2 -4 104.99 0.9 0
 8 -2 -3 53.1 0.89 0
 8 -2 -2 198.11 1.83 0
 8 -2 0 7.75 0.58 0
 8 -2 1 1.96 0.47 0
 8 -2 3 1.2 0.5 0
 8 -2 4 2.72 0.59 0
 8 -2 5 18.24 1.03 0
 8 -2 9 0.91 0.83 0
 8 -2 11 134.6 3.21 0
 8 -2 12 14.15 1.52 0
 8 -2 13 18.8 1.71 0
 8 -2 14 17.27 1.75 0
 8 -2 15 99.17 3.2 0
 8 -2 17 39.22 2.37 0
 8 -2 18 -0.47 1.25 0
 8 0 -2 199.24 2 0
 8 0 0 61.8 1.29 0
 8 0 2 438.27 3.71 0
 8 0 4 68.9 1.69 0
 8 0 10 0.63 0.68 0
 8 0 12 4.54 1.15 0
 8 0 14 3.01 1.12 0
 8 0 16 16.87 1.91 0
 8 0 18 7.51 1.65 0
 8 2 4 2.06 0.52 0
 8 2 5 17.69 1.08 0
 8 2 8 3.44 0.84 0
 8 2 9 0.8 0.68 0
 8 2 10 67.9 2.21 0
 8 2 11 132.2 3.11 0
 8 2 12 13.77 1.49 0
 8 2 13 19.25 1.7 0
 8 2 15 103.34 3.2 0
 8 2 18 1.81 1.42 0
 8 4 7 18.33 1.27 0
 8 4 8 1.36 0.66 0
 8 4 9 3.93 0.95 0
 8 4 11 0.12 0.81 0
 8 4 12 0.01 0.95 0
 8 4 13 17.04 1.63 0
 8 4 14 10.36 1.56 0
 8 4 15 1.82 1.11 0
 8 4 16 0.24 1.31 0
 8 4 17 31.58 2.21 0
 8 6 8 10.12 1.2 0
 8 6 9 2.33 1.05 0
 8 6 10 12.32 1.46 0
 8 6 11 32.5 1.91 0
 8 6 12 15.79 1.6 0
 8 6 13 15.91 1.7 0
 8 6 15 14.57 1.73 0
 8 6 16 28.75 2.13 0
 8 6 17 7.25 1.48 0
 8 8 9 -0.26 1.02 0
 8 8 10 0.84 1.02 0
 8 8 11 17.32 1.69 0
 8 8 12 -0.22 0.98 0
 8 8 13 17.08 1.83 0
 8 8 14 0.74 1.09 0
 8 8 15 11.4 1.6 0
 8 10 10 1.77 1.07 0
 8 10 11 10.79 1.51 0
 8 10 12 17.6 1.89 0
 8 10 13 11.61 1.62 0
 8 10 14 -0.77 1.04 0
 8 12 11 0.88 1.29 0
 9 -9 6 27.16 1.64 0
 9 -9 7 24.61 1.68 0
 9 -9 8 -0.6 0.9 0
 9 -9 9 5.49 1.17 0
 9 -9 12 2.78 1.26 0
 9 -9 13 23.41 2.08 0
 9 -7 1 78.48 1.79 0
 9 -7 4 9.64 1.03 0
 9 -7 5 19.22 1.35 0
 9 -7 6 6.93 0.99 0
 9 -7 7 21.78 1.55 0
 9 -7 8 9.59 1.32 0
 9 -7 10 0.87 0.94 0
 9 -7 11 31.93 2.1 0
 9 -7 14 1.76 1.38 0
 9 -7 15 8.1 1.52 0
 9 -5 -2 12.46 0.61 0
 9 -5 -1 15 0.73 0
 9 -5 0 48.33 1.25 0
 9 -5 2 60.29 1.59 0
 9 -5 3 -0.06 0.53 0
 9 -5 5 0.95 0.67 0
 9 -5 6 49.76 1.84 0
 9 -5 7 0.83 0.82 0
 9 -5 8 10.3 1.2 0
 9 -5 9 0.3 0.8 0
 9 -5 10 53.98 2.26 0
 9 -5 11 0.62 0.96 0
 9 -5 12 2.97 1.12 0
 9 -5 13 9.84 1.67 0
 9 -5 14 95.02 3.21 0
 9 -5 15 41.12 2.44 0
 9 -3 -4 0.41 0.17 0
 9 -3 -3 95.64 1.2 0
 9 -3 -2 34.86 0.87 0
 9 -3 -1 -0.09 0.31 0
 9 -3 0 -0.12 0.4 0
 9 -3 1 18.47 0.89 0
 9 -3 2 0.51 0.53 0
 9 -3 3 44.78 1.44 0
 9 -3 4 37.19 1.44 0
 9 -3 7 64.62 2.06 0
 9 -3 8 4.87 1.05 0
 9 -3 9 26.43 1.58 0
 9 -3 11 58.56 2.32 0
 9 -3 12 1.02 1 0
 9 -3 13 11.6 1.63 0
 9 -3 15 53.96 2.65 0
 9 -3 17 24.2 2.22 0
 9 -1 -5 7.67 0.35 0
 9 -1 -4 151.74 1.47 0
 9 -1 -3 7.53 0.49 0
 9 -1 -2 180.13 1.97 0
 9 -1 -1 12.01 0.68 0
 9 -1 0 72.04 1.47 0
 9 -1 1 0.14 0.38 0
 9 -1 2 33.47 1.18 0
 9 -1 3 39.29 1.34 0
 9 -1 4 78.45 1.9 0
 9 -1 8 11.56 1.12 0
 9 -1 9 0.18 0.65 0
 9 -1 11 29.26 1.82 0
 9 -1 12 111.52 3.15 0
 9 -1 13 0.39 0.97 0
 9 -1 15 13.02 1.65 0
 9 -1 16 0.3 1.28 0
 9 -1 17 -0.37 1.3 0
 9 1 1 0.79 0.41 0
 9 1 2 32.79 1.2 0
 9 1 3 39.38 1.39 0
 9 1 4 79.31 1.96 0
 9 1 7 46.88 1.77 0
 9 1 8 11.49 1.17 0
 9 1 9 1.07 0.73 0
 9 1 10 31.5 1.7 0
 9 1 11 29.67 1.8 0
 9 1 12 108.27 3.13 0
 9 1 14 23.44 1.91 0
 9 1 16 -0.62 1.06 0
 9 1 17 1.73 1.23 0
 9 3 6 21.18 1.23 0
 9 3 8 5.56 1.03 0
 9 3 9 27.59 1.68 0
 9 3 10 3 0.9 0
 9 3 11 56.11 2.25 0
 9 3 13 14.02 1.68 0
 9 3 14 42.87 2.34 0
 9 3 15 54.14 2.58 0
 9 3 16 32.42 2.27 0
 9 3 17 25.61 2.17 0
 9 5 7 1.56 0.74 0
 9 5 8 10.68 1.29 0
 9 5 9 1.15 0.82 0
 9 5 10 53.77 2.28 0
 9 5 11 -0.26 0.87 0
 9 5 12 2.78 1.17 0
 9 5 13 8.83 1.46 0
 9 5 14 94.53 3.17 0
 9 5 15 37.55 2.33 0
 9 5 16 27.91 2.22 0
 9 7 8 9.24 1.36 0
 9 7 9 70.84 2.54 0
 9 7 10 1.9 1.23 0
 9 7 11 29.2 2 0
 9 7 12 2.26 1.17 0
 9 7 13 139.75 3.73 0
 9 7 14 2.81 1.35 0
 9 7 15 9.95 1.55 0
 9 9 9 7.39 1.29 0
 9 9 10 43.82 2.39 0
 9 9 11 47.94 2.49 0
 9 9 12 3.71 1.26 0
 9 9 13 23.02 2.05 0
 9 9 14 16.75 1.97 0
 9 11 10 2.99 1.31 0
 9 11 11 2.08 1.27 0
 10 -8 3 25.79 1.37 0
 10 -8 4 1.07 0.79 0
 10 -8 5 14.75 1.36 0
 10 -8 6 27.5 1.71 0
 10 -8 7 232.65 4.28 0
 10 -8 9 20.25 1.84 0
 10 -8 10 6.9 1.45 0
 10 -8 12 -0.53 1.15 0
 10 -8 13 50.41 2.65 0
 10 -8 14 4.99 1.49 0
 10 -6 -1 7.72 0.66 0
 10 -6 0 9.72 0.8 0
 10 -6 1 33.72 1.25 0
 10 -6 6 17.43 1.36 0
 10 -6 7 36.02 1.8 0
 10 -6 8 0.16 0.99 0
 10 -6 9 13.68 1.49 0
 10 -6 10 11.06 1.58 0
 10 -6 12 1.56 1.4 0
 10 -6 13 22.33 2.03 0
 10 -6 14 3.56 1.35 0
 10 -6 15 2.19 1.51 0
 10 -4 -3 8.34 0.46 0
 10 -4 -2 126.55 1.69 0
 10 -4 0 18.52 0.91 0
 10 -4 1 0.43 0.49 0
 10 -4 2 135.51 2.42 0
 10 -4 6 11.25 1.19 0
 10 -4 7 12.15 1.25 0
 10 -4 8 11.62 1.32 0
 10 -4 9 0.67 0.86 0
 10 -4 10 29.76 1.92 0
 10 -4 11 4.43 1.2 0
 10 -4 13 0.35 1.05 0
 10 -4 14 42 2.47 0
 10 -4 15 4.89 1.65 0
 10 -4 16 7.34 1.77 0
 10 -2 -4 34.55 0.7 0
 10 -2 -3 5.67 0.48 0
 10 -2 -2 22.64 0.82 0
 10 -2 -1 1 0.39 0
 10 -2 0 19 0.91 0
 10 -2 1 14.83 0.89 0
 10 -2 2 12.32 0.91 0
 10 -2 3 6.16 0.79 0
 10 -2 6 157.79 3.19 0
 10 -2 7 1.24 0.84 0
 10 -2 9 6.52 1.18 0
 10 -2 10 9.72 1.46 0
 10 -2 11 3.6 1.18 0
 10 -2 12 61.93 2.61 0
 10 -2 13 14.56 1.77 0
 10 -2 15 9.2 1.59 0
 10 -2 16 -0.9 1.19 0
 10 -2 17 17.67 2.13 0
 10 0 -6 3.93 0.39 0
 10 0 -4 121.39 1.65 0
 10 0 -2 0.87 0.44 0
 10 0 0 15.82 0.89 0
 10 0 6 513.52 5.35 0
 10 0 8 515.53 5.79 0
 10 0 10 85.54 2.67 0
 10 0 12 405.42 6.07 0
 10 0 14 3.52 1.25 0
 10 0 16 59.05 2.87 0
 10 2 2 11.69 0.97 0
 10 2 6 153.49 3.14 0
 10 2 7 0.5 0.65 0
 10 2 8 62.66 2.16 0
 10 2 9 6.16 1.02 0
 10 2 10 9.15 1.3 0
 10 2 11 2.61 1.2 0
 10 2 12 64.24 2.64 0
 10 2 14 19.69 1.97 0
 10 2 16 0.44 1.31 0
 10 2 17 17.47 2.17 0
 10 4 5 17.87 1.29 0
 10 4 6 10.59 1.07 0
 10 4 7 11.97 1.3 0
 10 4 8 8.82 1.26 0
 10 4 9 1.59 1.06 0
 10 4 10 28.81 1.88 0
 10 4 11 6.19 1.22 0
 10 4 12 1.11 1.02 0
 10 4 13 -0.5 1.1 0
 10 4 14 42.61 2.47 0
 10 4 15 4.04 1.4 0
 10 4 16 6.86 1.56 0
 10 6 7 35.89 1.91 0
 10 6 8 -0.52 0.98 0
 10 6 10 10.08 1.49 0
 10 6 11 13.47 1.71 0
 10 6 12 2.49 1.18 0
 10 6 13 21.96 2.04 0
 10 6 14 2.46 1.26 0
 10 6 15 4.38 1.63 0
 10 8 8 -0.19 1.03 0
 10 8 9 20.57 1.8 0
 10 8 10 8.08 1.61 0
 10 8 12 -0.2 1.41 0
 10 8 14 2.95 1.44 0
 10 10 9 -0.81 1.05 0
 10 10 11 31.8 2.32 0
 10 10 12 0.36 1.55 0
 11 -9 6 -0.36 0.8 0
 11 -9 7 23.54 1.76 0
 11 -9 8 1.54 1.15 0
 11 -9 9 -0.76 1.2 0
 11 -9 10 10.51 1.68 0
 11 -9 11 0.69 1.18 0
 11 -9 12 4.58 1.62 0
 11 -7 2 3.27 0.76 0
 11 -7 3 37.57 1.58 0
 11 -7 4 -0.19 0.66 0
 11 -7 5 70.43 2.25 0
 11 -7 6 -0.01 0.84 0
 11 -7 8 1.03 0.95 0
 11 -7 10 -0.62 1.22 0
 11 -7 11 3.7 1.37 0
 11 -7 12 0.35 1.22 0
 11 -7 13 74.69 3.06 0
 11 -5 -1 113.32 1.9 0
 11 -5 1 18.49 1.03 0
 11 -5 4 47.72 1.78 0
 11 -5 5 52.41 1.91 0
 11 -5 6 0.98 0.74 0
 11 -5 8 11.22 1.38 0
 11 -5 9 51.7 2.33 0
 11 -5 12 3.94 1.27 0
 11 -5 13 62.19 2.84 0
 11 -5 14 54.39 2.73 0
 11 -5 15 5.62 1.72 0
 11 -3 -3 77.39 1.3 0
 11 -3 -2 95.39 1.63 0
 11 -3 4 119.3 2.57 0
 11 -3 5 2.97 0.77 0
 11 -3 6 0.63 0.74 0
 11 -3 7 25.86 1.58 0
 11 -3 8 37.39 1.88 0
 11 -3 9 1.43 0.96 0
 11 -3 10 0.47 1.01 0
 11 -3 11 0.32 1.1 0
 11 -3 12 39.86 2.28 0
 11 -3 13 1.62 1.2 0
 11 -3 15 29.02 2.27 0
 11 -1 -3 44.73 1.08 0
 11 -1 -2 27.68 0.98 0
 11 -1 -1 2.52 0.53 0
 11 -1 0 0.86 0.47 0
 11 -1 1 35.04 1.3 0
 11 -1 5 11.87 1.15 0
 11 -1 6 117.79 2.76 0
 11 -1 7 1.65 0.94 0
 11 -1 9 3.16 1.09 0
 11 -1 10 7.77 1.35 0
 11 -1 13 1.44 1.19 0
 11 -1 14 22.36 2.04 0
 11 -1 15 25.64 2.29 0
 11 -1 16 1.45 1.32 0
 11 1 -3 45.24 1.23 0
 11 1 -2 29.36 1.11 0
 11 1 -1 2.43 0.63 0
 11 1 0 0.61 0.52 0
 11 1 1 33.48 1.34 0
 11 1 4 10.59 1.09 0
 11 1 5 11.82 1.17 0
 11 1 6 114.78 2.74 0
 11 1 7 1.68 0.96 0
 11 1 9 1.97 0.95 0
 11 1 10 9.45 1.36 0
 11 1 11 9.14 1.44 0
 11 1 12 3.21 1.2 0
 11 1 13 1.26 1.39 0
 11 1 15 23.58 2.1 0
 11 1 16 -0.61 1.36 0
 11 3 3 75.99 2.12 0
 11 3 4 121.1 2.72 0
 11 3 5 2.78 0.87 0
 11 3 6 1.4 0.77 0
 11 3 7 25.32 1.6 0
 11 3 8 34.91 1.93 0
 11 3 9 0.49 1.08 0
 11 3 10 0.12 1 0
 11 3 11 0.54 1.03 0
 11 3 12 39.05 2.29 0
 11 3 13 2.67 1.23 0
 11 3 14 17.37 1.92 0
 11 3 15 29.38 2.28 0
 11 3 16 -0.58 1.28 0
 11 5 5 50.59 2.05 0
 11 5 6 -0.1 0.76 0
 11 5 7 26.5 1.73 0
 11 5 8 9.59 1.34 0
 11 5 9 53.25 2.42 0
 11 5 10 3.83 1.33 0
 11 5 11 7.2 1.56 0
 11 5 12 6.31 1.53 0
 11 5 13 58.88 2.76 0
 11 5 15 5.69 1.72 0
 11 7 7 42.83 2.22 0
 11 7 8 1.02 1.22 0
 11 7 10 0.4 1.06 0
 11 7 11 4.57 1.39 0
 11 7 12 1.28 1.46 0
 11 7 14 7.65 1.8 0
 11 9 9 -0.45 1.11 0
 11 9 10 11.79 1.69 0
 11 9 11 0.09 1.5 0
 11 9 12 4.67 1.4 0
 11 11 8 18.96 2.1 0
 12 -8 4 1.35 0.96 0
 12 -8 5 23.7 1.62 0
 12 -8 6 20.27 1.65 0
 12 -8 7 26.6 1.85 0
 12 -8 8 8.02 1.51 0
 12 -8 9 0.23 1.27 0
 12 -8 10 12.12 1.61 0
 12 -8 12 8.88 1.67 0
 12 -6 2 -0.09 0.68 0
 12 -6 3 6.67 0.93 0
 12 -6 4 2.68 0.92 0
 12 -6 5 2.83 0.87 0
 12 -6 6 -0.49 0.96 0
 12 -6 8 1.14 1.07 0
 12 -6 9 4.77 1.24 0
 12 -6 10 9.05 1.45 0
 12 -6 12 0.36 1.18 0
 12 -6 13 44.69 2.55 0
 12 -4 0 1.31 0.56 0
 12 -4 3 57.5 1.87 0
 12 -4 4 14.29 1.23 0
 12 -4 5 42.8 1.85 0
 12 -4 7 68.21 2.4 0
 12 -4 9 1.97 1 0
 12 -4 10 2.31 1.13 0
 12 -4 12 2.63 1.24 0
 12 -4 13 6.14 1.7 0
 12 -4 14 28.71 2.31 0
 12 -2 -3 139.34 1.89 0
 12 -2 -2 0 0.38 0
 12 -2 -1 17.62 0.94 0
 12 -2 0 1.82 0.56 0
 12 -2 3 17.03 1.21 0
 12 -2 4 37.23 1.64 0
 12 -2 5 18.51 1.38 0
 12 -2 6 139.04 3.11 0
 12 -2 7 10.05 1.24 0
 12 -2 8 8.56 1.38 0
 12 -2 9 0.4 0.9 0
 12 -2 10 106.19 3.21 0
 12 -2 12 89.11 3.22 0
 12 -2 13 7.02 1.6 0
 12 -2 14 0.15 1.42 0
 12 -2 15 12.68 1.99 0
 12 0 0 18.68 1.09 0
 12 0 4 53.42 1.91 0
 12 0 8 36.81 1.94 0
 12 0 10 121.38 3.39 0
 12 0 12 253.61 5.24 0
 12 0 14 0.08 1.31 0
 12 2 3 17.26 1.3 0
 12 2 5 18.37 1.41 0
 12 2 6 143.13 3.23 0
 12 2 7 8.71 1.21 0
 12 2 9 -0.36 0.96 0
 12 2 10 102.88 3.19 0
 12 2 11 -0.02 1.08 0
 12 2 12 88.78 3.21 0
 12 2 13 6.45 1.49 0
 12 2 14 -0.9 1.16 0
 12 2 15 11.27 1.81 0
 12 4 3 59.28 2.09 0
 12 4 4 15.24 1.42 0
 12 4 5 42.03 1.9 0
 12 4 6 34.36 1.92 0
 12 4 7 69.56 2.57 0
 12 4 8 0.25 0.97 0
 12 4 9 2.67 1.07 0
 12 4 10 1.57 1.09 0
 12 4 11 20.67 1.97 0
 12 4 12 2.02 1.43 0
 12 4 13 3.23 1.58 0
 12 4 14 26.76 2.32 0
 12 6 6 -0.24 0.84 0
 12 6 7 27.18 1.87 0
 12 6 8 0.77 1.01 0
 12 6 9 2.98 1.2 0
 12 6 10 8.63 1.46 0
 12 6 11 39.23 2.39 0
 12 6 12 -0.01 1.17 0
 12 6 13 37.49 2.5 0
 12 8 7 27.65 2.1 0
 12 8 8 7.15 1.48 0
 12 8 9 0.01 1.23 0
 12 8 10 9.74 1.78 0
 12 8 11 92.43 3.39 0
 12 8 12 11.33 1.82 0
 12 10 7 55.06 2.75 0
 13 -9 6 15.3 1.54 0
 13 -9 8 17.87 1.79 0
 13 -9 9 18.18 1.85 0
 13 -7 2 1.56 0.84 0
 13 -7 3 49.81 1.85 0
 13 -7 4 2.06 0.92 0
 13 -7 5 35.77 1.84 0
 13 -7 6 -0.69 0.84 0
 13 -7 7 5.36 1.24 0
 13 -7 8 7.16 1.4 0
 13 -7 9 10.38 1.5 0
 13 -7 10 11.45 1.73 0
 13 -7 11 17.74 1.96 0
 13 -5 1 5.5 0.82 0
 13 -5 2 35.68 1.53 0
 13 -5 3 61 1.98 0
 13 -5 4 52.78 1.98 0
 13 -5 5 54.17 2.1 0
 13 -5 6 10.91 1.38 0
 13 -5 7 10.22 1.45 0
 13 -5 8 16.65 1.68 0
 13 -5 9 26.58 1.99 0
 13 -5 12 24.72 2.15 0
 13 -5 13 23.52 2.29 0
 13 -3 -1 0.31 0.48 0
 13 -3 3 14.42 1.25 0
 13 -3 4 237.73 3.97 0
 13 -3 5 -0.29 0.75 0
 13 -3 7 24.53 1.78 0
 13 -3 9 1.62 1.08 0
 13 -3 10 3.99 1.31 0
 13 -3 11 32.82 2.26 0
 13 -3 12 37.65 2.44 0
 13 -3 13 -0.25 1.19 0
 13 -3 14 1.06 1.32 0
 13 -1 -2 206.44 2.71 0
 13 -1 -1 1.55 0.57 0
 13 -1 2 18.96 1.26 0
 13 -1 3 0.44 0.71 0
 13 -1 5 18.64 1.48 0
 13 -1 6 67.88 2.37 0
 13 -1 7 2.16 1.03 0
 13 -1 8 4.2 1.14 0
 13 -1 9 18.97 1.83 0
 13 -1 10 33.87 2.21 0
 13 -1 11 4.71 1.41 0
 13 -1 12 17.85 2.17 0
 13 -1 13 10.13 1.85 0
 13 -1 14 5.26 1.73 0
 13 1 -3 1.58 0.61 0
 13 1 2 19.71 1.32 0
 13 1 3 0.01 0.82 0
 13 1 4 48.7 1.97 0
 13 1 6 66.29 2.39 0
 13 1 8 4.5 1.14 0
 13 1 9 18.72 1.82 0
 13 1 10 34.35 2.23 0
 13 1 11 4.76 1.45 0
 13 1 12 16.7 1.91 0
 13 1 13 9.12 1.85 0
 13 1 14 6.94 1.61 0
 13 3 1 0.48 0.73 0
 13 3 3 17.38 1.4 0
 13 3 4 239.9 4.29 0
 13 3 5 0.03 0.94 0
 13 3 7 24.92 1.83 0
 13 3 9 0.81 1.03 0
 13 3 10 2.77 1.45 0
 13 3 11 35.37 2.35 0
 13 3 12 34.73 2.35 0
 13 3 13 -0.11 1.58 0
 13 3 14 1.67 1.57 0
 13 5 3 61.9 2.32 0
 13 5 5 50.21 2.29 0
 13 5 6 8.05 1.38 0
 13 5 7 10.56 1.44 0
 13 5 9 27.49 2.13 0
 13 5 11 7.33 1.49 0
 13 5 12 20.01 2.12 0
 13 5 13 22.33 2.28 0
 13 7 5 32.44 2.04 0
 13 7 6 1.86 1.25 0
 13 7 7 7.28 1.6 0
 13 7 8 7.49 1.54 0
 13 7 9 8.96 1.54 0
 13 7 11 21.64 2.18 0
 13 9 6 15.59 1.89 0
 13 9 7 13.96 1.92 0
 13 9 8 19.8 2.16 0
 13 9 9 14.75 2.06 0
 14 -8 5 2.74 1.1 0
 14 -8 6 4.82 1.23 0
 14 -8 8 -0.68 1.05 0
 14 -8 9 4.78 1.28 0
 14 -6 2 13.39 1.2 0
 14 -6 3 19.01 1.37 0
 14 -6 5 2.91 1.13 0
 14 -6 6 37.23 1.99 0
 14 -6 7 2.11 1.05 0
 14 -6 9 -0.21 1.18 0
 14 -6 10 31.4 2.22 0
 14 -6 11 0.63 1.22 0
 14 -4 1 29.14 1.39 0
 14 -4 2 7.97 1.02 0
 14 -4 3 25.54 1.53 0
 14 -4 4 0.15 0.96 0
 14 -4 5 34.02 1.85 0
 14 -4 6 31.65 1.9 0
 14 -4 7 70.22 2.6 0
 14 -4 8 -0.68 0.97 0
 14 -4 9 5.7 1.32 0
 14 -4 10 31.37 2.23 0
 14 -4 12 15.69 2.04 0
 14 -2 3 9.79 1.21 0
 14 -2 4 4.17 0.99 0
 14 -2 5 119.17 3 0
 14 -2 6 1.82 1.08 0
 14 -2 7 39.1 2.11 0
 14 -2 8 1.12 1.03 0
 14 -2 9 42.1 2.37 0
 14 -2 10 21.88 1.99 0
 14 -2 11 26.99 2.24 0
 14 -2 12 14.75 2.03 0
 14 -2 13 1.12 1.46 0
 14 0 0 44.02 1.63 0
 14 0 2 6.2 1.06 0
 14 0 4 77.47 2.43 0
 14 0 6 0.64 1.04 0
 14 0 8 46.22 2.3 0
 14 0 10 8.58 1.51 0
 14 0 12 -0.49 1.14 0
 14 2 -3 74.55 1.93 0
 14 2 -1 1.04 0.79 0
 14 2 0 0.28 0.72 0
 14 2 1 136.07 2.91 0
 14 2 2 -0.92 0.82 0
 14 2 3 8.21 1.22 0
 14 2 4 3.08 0.96 0
 14 2 6 2.74 1.01 0
 14 2 7 34.88 2.07 0
 14 2 8 1.45 1.09 0
 14 2 10 21.13 2.08 0
 14 2 12 11.91 1.88 0
 14 2 13 0.99 1.35 0
 14 4 0 2.66 1 0
 14 4 1 28.49 1.68 0
 14 4 3 25.24 1.75 0
 14 4 4 0.64 1.1 0
 14 4 5 34.12 2.08 0
 14 4 6 31.51 2.04 0
 14 4 7 63.86 2.7 0
 14 4 8 -0.68 1.24 0
 14 4 9 7.73 1.45 0
 14 4 10 29.51 2.3 0
 14 4 11 66.07 3.01 0
 14 4 12 14.2 1.86 0
 14 6 4 27.85 2 0
 14 6 5 2.32 1.12 0
 14 6 6 36.03 2.3 0
 14 6 7 1.55 1.19 0
 14 6 8 5.4 1.57 0
 14 6 9 -0.67 1.28 0
 14 6 11 1.83 1.44 0
 14 8 5 1.9 1.41 0
 14 8 6 4.15 1.3 0
 14 8 7 25.44 2.27 0
 14 8 8 0.25 1.24 0
 14 8 9 4.72 1.47 0
 14 10 5 3.23 1.6 0
 14 10 6 27.26 2.3 0
 15 -7 5 0.96 0.93 0
 15 -7 6 10.05 1.39 0
 15 -7 7 22.89 1.86 0
 15 -7 9 -0.44 1.07 0
 15 -5 4 47.18 2 0
 15 -5 5 14.21 1.56 0
 15 -5 7 1.46 1.05 0
 15 -5 8 4.33 1.35 0
 15 -5 9 0.84 1.15 0
 15 -5 10 1.51 1.29 0
 15 -3 1 18.76 1.26 0
 15 -3 2 13.84 1.25 0
 15 -3 3 3.33 0.96 0
 15 -3 4 38.13 1.9 0
 15 -3 5 22.21 1.71 0
 15 -3 6 10.32 1.44 0
 15 -3 10 10.18 1.7 0
 15 -3 11 1.62 1.29 0
 15 -1 0 3.36 0.85 0
 15 -1 1 6.96 1.05 0
 15 -1 3 -0.82 0.78 0
 15 -1 6 5.42 1.35 0
 15 -1 7 1.45 1.12 0
 15 -1 8 0.75 1.12 0
 15 -1 10 0.18 1.32 0
 15 -1 11 1.15 1.29 0
 15 1 -1 -0.15 0.73 0
 15 1 0 4.25 0.89 0
 15 1 1 5.96 1.01 0
 15 1 2 192.63 3.78 0
 15 1 3 -1.47 0.72 0
 15 1 4 32.1 1.89 0
 15 1 5 3.1 1.09 0
 15 1 6 6.3 1.41 0
 15 1 7 0.23 1.03 0
 15 1 8 0.22 1.05 0
 15 1 9 2 1.24 0
 15 1 10 1.15 1.22 0
 15 1 11 1.25 1.23 0
 15 1 12 17.89 2.18 0
 15 3 -3 4.7 0.93 0
 15 3 -1 1.54 0.92 0
 15 3 0 0.28 0.91 0
 15 3 1 16.39 1.5 0
 15 3 3 3.88 1.09 0
 15 3 5 21.62 1.76 0
 15 3 7 14.48 1.68 0
 15 3 8 1.96 1.21 0
 15 3 9 0.08 1.21 0
 15 3 10 10.84 1.88 0
 15 3 11 2.48 1.37 0
 15 5 1 1.93 1.13 0
 15 5 2 -0.46 1.05 0
 15 5 3 16.83 1.75 0
 15 5 4 53.6 2.5 0
 15 5 5 9.45 1.62 0
 15 5 6 8.49 1.52 0
 15 5 7 1.12 1.2 0
 15 5 8 2.44 1.49 0
 15 5 9 1.56 1.25 0
 15 5 10 -0.46 1.44 0
 15 7 2 2.02 1.34 0
 15 7 3 151.79 3.83 0
 15 7 5 -0.19 1.09 0
 15 7 7 21.59 2.13 0
 15 7 8 5.89 1.68 0
 15 9 4 8.26 1.56 0
 15 9 5 2.1 1.42 0
 16 -6 6 -0.83 0.88 0
 16 -6 7 10.93 1.44 0
 16 -6 8 7.44 1.35 0
 16 -4 4 7.46 1.17 0
 16 -4 5 2.38 1.02 0
 16 -4 6 11.01 1.39 0
 16 -4 7 2.28 1.26 0
 16 -4 8 0.69 1.11 0
 16 -4 9 0.27 1.27 0
 16 -2 2 0.17 0.85 0
 16 -2 3 0.2 0.87 0
 16 -2 4 1.42 1.08 0
 16 -2 5 13.52 1.61 0
 16 -2 6 9.87 1.53 0
 16 -2 7 2.46 1.36 0
 16 -2 8 1.7 1.42 0
 16 -2 9 29.11 2.18 0
 16 -2 10 5.11 1.47 0
 16 0 0 43.65 1.81 0
 16 0 2 60.74 2.2 0
 16 0 4 2.6 1.02 0
 16 0 10 0.93 1.49 0
 16 2 -1 -0.17 0.8 0
 16 2 0 1.4 0.9 0
 16 2 1 1.31 0.91 0
 16 2 2 2.04 1.03 0
 16 2 3 0.11 1.07 0
 16 2 4 2.68 1.1 0
 16 2 5 10 1.59 0
 16 2 6 10.59 1.48 0
 16 2 7 2.2 1.24 0
 16 2 8 0.6 1.35 0
 16 2 9 30.71 2.35 0
 16 2 10 3.94 1.64 0
 16 4 -3 6.28 1.1 0
 16 4 -2 8.06 1.21 0
 16 4 -1 8.69 1.28 0
 16 4 1 9.15 1.34 0
 16 4 2 9.18 1.41 0
 16 4 3 5.5 1.23 0
 16 4 4 8.14 1.5 0
 16 4 5 2.78 1.4 0
 16 4 6 11.29 1.71 0
 16 4 7 3.02 1.51 0
 16 4 8 -1.01 1.44 0
 16 4 9 -0.13 1.29 0
 16 6 -2 0.21 1.07 0
 16 6 -1 -0.43 1.02 0
 16 6 0 1.41 1.01 0
 16 6 1 1.01 1.15 0
 16 6 2 0.82 1.24 0
 16 6 3 -0.2 1.16 0
 16 6 4 -0.06 1.11 0
 16 6 5 2.04 1.29 0
 16 6 6 1.85 1.47 0
 16 6 7 9.01 1.82 0
 16 8 1 25.76 2.09 0
 16 8 2 1.05 1.43 0
 16 8 3 0.78 1.41 0
 16 8 4 3.48 1.62 0
 17 -5 7 0.34 1.26 0
 17 -3 4 0.32 1.04 0
 17 -3 5 16.11 1.63 0
 17 -3 6 1.06 1.1 0
 17 -3 7 25.02 2 0
 17 -3 8 3.35 1.3 0
 17 -1 4 -0.99 1.02 0
 17 -1 5 14.89 1.69 0
 17 -1 6 0.92 1.09 0
 17 -1 7 5.3 1.38 0
 17 -1 8 1.06 1.32 0
 17 -1 9 7.74 1.64 0
 17 1 1 4.52 1.06 0
 17 1 2 3.98 1.15 0
 17 1 3 -0.37 0.88 0
 17 1 4 -0.8 0.93 0
 17 1 6 0.19 1.35 0
 17 1 7 5.11 1.28 0
 17 1 8 1.85 1.49 0
 17 3 0 22.6 1.64 0
 17 3 1 -0.89 1.05 0
 17 3 2 8.14 1.4 0
 17 3 3 0.93 1.07 0
 17 3 4 2.26 1.19 0
 17 3 5 11.44 1.63 0
 17 3 6 0.3 1.33 0
 17 3 7 23.59 2.1 0
 17 3 8 3.77 1.42 0
 17 5 -1 0.08 0.9 0
 17 5 0 -0.34 0.94 0
 17 5 1 9.3 1.53 0
 17 5 2 1.14 1.18 0
 17 5 3 3.67 1.37 0
 17 5 4 11.52 1.53 0
 17 5 5 0.16 1.2 0
 17 5 6 17.42 2.03 0
 17 7 -2 -0.86 1.11 0
 17 7 -1 3.8 1.36 0
 17 7 1 0.57 1.25 0
 17 7 2 -0.56 1.09 0
 18 -2 6 6.22 1.45 0
 18 0 4 10.27 1.47 0
 18 2 2 4.84 1.3 0
 18 2 3 -0.22 0.99 0
 18 2 4 9.11 1.51 0
 18 2 5 23.3 2.03 0
 18 2 6 4.66 1.41 0
 18 4 1 5.56 1.35 0
 18 4 2 3.3 1.26 0
 18 4 3 0.76 1.1 0
 18 4 4 34.57 2.27 0
 18 6 0 16.91 1.81 0
 -9 -5 12 6.45 1.23 0
 -9 -5 13 4.13 1.04 0
 -9 -5 14 0.02 0.84 0
 -9 -5 15 5.37 1.14 0
 -9 -5 16 23.11 1.89 0
 -9 -3 15 4.39 1.03 0
 -8 -8 10 17.34 1.44 0
 -8 -8 11 0.12 0.87 0
 -8 -8 12 7.52 1.46 0
 -8 -8 13 2.45 1.1 0
 -8 -8 14 2.36 1.1 0
 -8 -8 15 20.5 1.99 0
 -8 -8 16 4.77 1.53 0
 -8 -6 8 67.17 2.18 0
 -8 -6 9 62.17 2.14 0
 -8 -6 10 5.15 0.93 0
 -8 -6 12 6.6 1.23 0
 -8 -6 13 14.44 1.36 0
 -8 -6 14 5.57 1.13 0
 -8 -6 15 31.65 1.99 0
 -8 -6 16 2.46 1.33 0
 -8 -6 17 6.44 1.38 0
 -8 -6 18 9.54 1.49 0
 -8 -4 9 0.13 0.58 0
 -8 -4 10 12.22 1.17 0
 -8 -4 11 1.14 0.75 0
 -8 -4 12 0.05 0.84 0
 -8 -4 13 0.76 0.76 0
 -8 -4 16 -0.05 0.84 0
 -8 -4 17 -0.26 1.09 0
 -8 -4 18 0.08 1.04 0
 -8 -2 11 6.33 0.9 0
 -8 -2 12 2.54 0.7 0
 -8 -2 13 27.39 1.5 0
 -8 -2 14 3.28 0.89 0
 -8 -2 15 38.24 1.78 0
 -8 -2 16 -0.89 0.66 0
 -8 -2 17 8.46 1.16 0
 -8 0 14 2.08 0.74 0
 -7 -11 12 4.81 1.48 0
 -7 -11 13 32.89 2.19 0
 -7 -11 14 10.78 1.63 0
 -7 -9 9 113.94 3.13 0
 -7 -9 10 -0.71 1.07 0
 -7 -9 11 4.32 1.17 0
 -7 -9 12 21.03 1.84 0
 -7 -9 13 75.89 2.9 0
 -7 -9 14 12.16 1.62 0
 -7 -9 15 51.92 2.54 0
 -7 -9 16 2.03 1.45 0
 -7 -7 7 39.75 1.71 0
 -7 -7 8 0.33 0.63 0
 -7 -7 9 2.4 0.95 0
 -7 -7 10 -0.36 0.76 0
 -7 -7 11 121.87 3.21 0
 -7 -7 12 -0.04 0.79 0
 -7 -7 14 0.53 1.15 0
 -7 -7 15 133.12 3.62 0
 -7 -7 16 -0.41 1.2 0
 -7 -7 17 18.85 1.88 0
 -7 -5 8 17.05 1.16 0
 -7 -5 9 1.33 0.77 0
 -7 -5 11 -0.42 0.77 0
 -7 -5 12 7.33 1.02 0
 -7 -5 13 0.98 0.95 0
 -7 -5 15 1.45 0.94 0
 -7 -5 16 20.91 1.84 0
 -7 -5 18 66.41 2.7 0
 -7 -5 19 28.72 2.03 0
 -7 -3 6 6.35 0.76 0
 -7 -3 8 51.75 1.61 0
 -7 -3 11 28.1 1.38 0
 -7 -3 12 17.69 1.3 0
 -7 -3 13 -0.03 0.62 0
 -7 -3 14 0.52 0.72 0
 -7 -3 15 34.08 1.85 0
 -7 -3 16 3.44 0.97 0
 -7 -3 17 2.46 0.96 0
 -7 -3 18 58.5 2.34 0
 -7 -3 19 42.49 2.14 0
 -7 -1 9 1.27 0.48 0
 -7 -1 13 -0.05 0.61 0
 -7 -1 14 244.13 3.7 0
 -7 -1 15 0.68 0.69 0
 -7 -1 16 31.7 1.61 0
 -7 -1 17 0.22 0.73 0
 -7 1 11 0.11 0.37 0
 -7 1 12 13.9 0.86 0
 -7 1 13 0.57 0.44 0
 -6 -12 10 6.47 1.34 0
 -6 -12 11 0.16 1.02 0
 -6 -12 12 0.18 1.39 0
 -6 -12 13 1.4 1.29 0
 -6 -10 8 3.77 0.98 0
 -6 -10 9 76.12 2.67 0
 -6 -10 10 43.16 2.22 0
 -6 -10 11 17.78 1.61 0
 -6 -10 12 0.01 1.25 0
 -6 -10 13 0.59 1.15 0
 -6 -10 14 21.48 2.05 0
 -6 -10 15 32.68 2.38 0
 -6 -8 6 4.82 0.79 0
 -6 -8 7 1.32 0.68 0
 -6 -8 8 1.59 0.71 0
 -6 -8 9 155.19 3.41 0
 -6 -8 10 14.99 1.51 0
 -6 -8 12 1.42 1.07 0
 -6 -8 13 25.55 1.92 0
 -6 -8 14 2.27 1.12 0
 -6 -8 15 74.61 3 0
 -6 -8 16 0.69 1.11 0
 -6 -8 17 4.28 1.35 0
 -6 -6 8 2.96 0.7 0
 -6 -6 9 11.7 1.14 0
 -6 -6 10 4.01 0.91 0
 -6 -6 11 0.75 0.91 0
 -6 -6 13 1.21 0.84 0
 -6 -6 14 5.72 1.12 0
 -6 -6 16 2.4 1.09 0
 -6 -6 17 8 1.41 0
 -6 -6 18 6.54 1.38 0
 -6 -4 5 180.85 2.65 0
 -6 -4 6 622.22 5 0
 -6 -4 7 142.42 2.6 0
 -6 -4 11 52.06 1.92 0
 -6 -4 12 0.2 0.63 0
 -6 -4 13 36.65 1.72 0
 -6 -4 15 21.11 1.67 0
 -6 -4 16 2.16 1.11 0
 -6 -4 17 33.46 2.02 0
 -6 -4 18 97.09 3.04 0
 -6 -4 19 19.78 1.77 0
 -6 -2 5 0.45 0.32 0
 -6 -2 6 55.36 1.39 0
 -6 -2 7 10.81 0.73 0
 -6 -2 8 180.29 2.66 0
 -6 -2 9 3.12 0.68 0
 -6 -2 10 52.19 1.61 0
 -6 -2 13 5.52 0.93 0
 -6 -2 14 5.97 0.91 0
 -6 -2 15 10.21 1.29 0
 -6 -2 16 42.57 1.92 0
 -6 -2 17 5.56 1.16 0
 -6 -2 18 31.03 1.79 0
 -6 0 8 174 2.28 0
 -6 0 10 904.35 5.52 0
 -6 0 12 26.06 1.19 0
 -6 0 16 114.2 2.53 0
 -6 2 10 52.09 1.13 0
 -6 2 11 7.59 0.58 0
 -6 2 12 1.54 0.43 0
 -6 2 13 5.62 0.62 0
 -5 -13 10 -1.22 1.19 0
 -5 -13 11 1.89 1.15 0
 -5 -13 12 -0.09 1.26 0
 -5 -11 9 3.22 1.15 0
 -5 -11 11 39.51 2.15 0
 -5 -11 12 0.81 1.37 0
 -5 -11 13 44.44 2.53 0
 -5 -11 14 0.99 1.33 0
 -5 -9 4 1.32 0.61 0
 -5 -9 5 37.3 1.58 0
 -5 -9 7 10.42 1.26 0
 -5 -9 8 5.43 0.92 0
 -5 -9 9 33.32 1.87 0
 -5 -9 10 0.06 1 0
 -5 -9 11 58.5 2.39 0
 -5 -9 12 19 1.85 0
 -5 -9 13 4.44 1.33 0
 -5 -9 14 13.26 1.79 0
 -5 -9 15 4.28 1.3 0
 -5 -9 16 1.61 1.38 0
 -5 -7 3 32.75 1.26 0
 -5 -7 7 4.37 0.76 0
 -5 -7 8 10.76 1.15 0
 -5 -7 9 344.95 4.75 0
 -5 -7 10 1.29 0.75 0
 -5 -7 11 7.76 1.17 0
 -5 -7 12 4.42 1.04 0
 -5 -7 13 104.84 3.09 0
 -5 -7 14 7.72 1.44 0
 -5 -7 15 0.01 0.91 0
 -5 -7 16 1.85 1.37 0
 -5 -7 18 0.87 1.43 0
 -5 -5 4 0.46 0.35 0
 -5 -5 5 19.98 1.04 0
 -5 -5 6 94.27 2.08 0
 -5 -5 7 45.79 1.54 0
 -5 -5 10 2.81 0.7 0
 -5 -5 11 4.03 0.87 0
 -5 -5 13 1.09 0.74 0
 -5 -5 14 1.28 0.97 0
 -5 -5 15 1.26 0.89 0
 -5 -5 17 11.18 1.48 0
 -5 -5 18 39.8 2.23 0
 -5 -3 6 67.4 1.57 0
 -5 -3 7 0.2 0.49 0
 -5 -3 8 23.65 1.11 0
 -5 -3 9 152.96 2.68 0
 -5 -3 12 10.75 1 0
 -5 -3 13 34.3 1.62 0
 -5 -3 14 0.89 0.91 0
 -5 -3 15 3.91 0.95 0
 -5 -3 16 0.59 0.82 0
 -5 -3 17 1.36 1.03 0
 -5 -3 18 7.19 1.26 0
 -5 -3 20 4.69 1.27 0
 -5 -1 7 17.35 0.82 0
 -5 -1 8 9.17 0.68 0
 -5 -1 9 24.04 1.01 0
 -5 -1 10 355.31 3.71 0
 -5 -1 11 3.78 0.64 0
 -5 -1 14 21.08 1.34 0
 -5 -1 15 2.37 0.8 0
 -5 -1 16 3.07 0.92 0
 -5 -1 17 1.6 0.89 0
 -5 -1 18 0.35 0.83 0
 -5 1 8 9.65 0.6 0
 -5 1 9 24.52 0.88 0
 -5 1 10 360.65 3.22 0
 -5 1 11 3.69 0.53 0
 -5 1 12 33.82 1.2 0
 -5 1 13 0.62 0.56 0
 -5 3 10 -0.18 0.2 0
 -5 3 11 0.31 0.28 0
 -5 3 12 12.17 0.63 0
 -4 -12 8 3.97 1.24 0
 -4 -12 9 17.45 1.77 0
 -4 -12 11 -1.09 1.15 0
 -4 -12 12 5.01 1.39 0
 -4 -12 13 1.37 1.18 0
 -4 -10 5 11.45 1.2 0
 -4 -10 6 25.77 1.51 0
 -4 -10 7 30.05 1.69 0
 -4 -10 8 -0.69 0.92 0
 -4 -10 9 107.62 3.05 0
 -4 -10 10 0.17 1.02 0
 -4 -10 11 0.62 1.01 0
 -4 -10 14 17.52 2.02 0
 -4 -10 15 37.01 2.4 0
 -4 -10 16 3.06 1.5 0
 -4 -8 7 0.57 0.62 0
 -4 -8 9 3.82 0.81 0
 -4 -8 10 57.94 2.16 0
 -4 -8 11 64.55 2.45 0
 -4 -8 12 -0.46 0.81 0
 -4 -8 13 0.46 0.98 0
 -4 -8 14 36.29 2.24 0
 -4 -8 16 5.85 1.38 0
 -4 -8 17 22.51 2.12 0
 -4 -8 18 2.21 1.32 0
 -4 -6 2 114.7 2.02 0
 -4 -6 4 2.3 0.57 0
 -4 -6 5 186.42 2.86 0
 -4 -6 6 19.33 1.09 0
 -4 -6 9 23.92 1.36 0
 -4 -6 11 34.47 1.65 0
 -4 -6 12 54.25 2.07 0
 -4 -6 13 16.47 1.47 0
 -4 -6 14 1.08 1.13 0
 -4 -6 15 50.15 2.35 0
 -4 -6 16 83.51 2.9 0
 -4 -6 17 62.72 2.68 0
 -4 -6 18 68.56 2.88 0
 -4 -6 19 0.99 1.11 0
 -4 -4 6 36.11 1.19 0
 -4 -4 7 1.41 0.56 0
 -4 -4 8 30.44 1.27 0
 -4 -4 12 -0.69 0.73 0
 -4 -4 13 0.13 0.63 0
 -4 -4 15 2.91 0.99 0
 -4 -4 17 48.3 2.33 0
 -4 -4 18 148.46 3.66 0
 -4 -4 19 30.67 2.06 0
 -4 -4 20 5.53 1.4 0
 -4 -2 3 50.96 1.08 0
 -4 -2 4 71.18 1.3 0
 -4 -2 7 131.32 2.08 0
 -4 -2 8 45.1 1.34 0
 -4 -2 9 66.17 1.67 0
 -4 -2 14 68.95 2.17 0
 -4 -2 15 42.72 1.89 0
 -4 -2 16 55.09 2.1 0
 -4 -2 17 57.51 2.25 0
 -4 -2 18 4.28 1.04 0
 -4 -2 19 0.34 0.88 0
 -4 0 4 830.01 3.52 0
 -4 0 8 1.5 0.36 0
 -4 0 10 133.36 2.17 0
 -4 0 16 287.42 4.09 0
 -4 2 6 53.08 0.81 0
 -4 2 7 130.63 1.39 0
 -4 2 9 68.81 1.24 0
 -4 2 11 110.48 1.78 0
 -4 2 12 0.09 0.41 0
 -4 2 13 6.35 0.69 0
 -4 2 14 67.24 1.65 0
 -3 -13 6 13.95 1.52 0
 -3 -13 7 12.86 1.52 0
 -3 -13 8 0.98 0.92 0
 -3 -13 9 9.91 1.53 0
 -3 -13 10 18.08 1.87 0
 -3 -13 11 3.82 1.23 0
 -3 -13 12 4.22 1.53 0
 -3 -11 4 14.32 1.22 0
 -3 -11 5 0.7 0.67 0
 -3 -11 6 0.65 0.88 0
 -3 -11 7 97.8 2.8 0
 -3 -11 8 0.5 0.79 0
 -3 -11 10 13.78 1.56 0
 -3 -11 11 0.7 1.07 0
 -3 -11 12 -0.86 0.91 0
 -3 -11 13 0.33 1.09 0
 -3 -11 14 15.15 1.81 0
 -3 -11 15 3.75 1.51 0
 -3 -9 5 0.34 0.65 0
 -3 -9 6 7.56 0.91 0
 -3 -9 7 75.86 2.26 0
 -3 -9 8 1.85 0.89 0
 -3 -9 9 189.45 3.85 0
 -3 -9 10 16.02 1.48 0
 -3 -9 11 10.43 1.34 0
 -3 -9 12 10.29 1.35 0
 -3 -9 13 69.92 2.75 0
 -3 -9 14 -0.33 1.2 0
 -3 -9 16 2.18 1.37 0
 -3 -9 17 2.27 1.47 0
 -3 -7 3 45.26 1.39 0
 -3 -7 4 25.71 1.12 0
 -3 -7 5 10.19 0.92 0
 -3 -7 8 28.19 1.44 0
 -3 -7 9 334.62 4.56 0
 -3 -7 10 13.81 1.25 0
 -3 -7 11 37.75 1.84 0
 -3 -7 12 71.27 2.48 0
 -3 -7 13 216.07 4.32 0
 -3 -7 14 5.87 1.38 0
 -3 -7 15 76.03 2.86 0
 -3 -7 16 20.13 1.84 0
 -3 -7 17 67.9 2.9 0
 -3 -7 18 17.53 2 0
 -3 -5 1 5.37 0.52 0
 -3 -5 2 66.25 1.37 0
 -3 -5 3 442.2 3.6 0
 -3 -5 4 130.93 2.1 0
 -3 -5 6 44.37 1.36 0
 -3 -5 7 244.36 3.27 0
 -3 -5 12 0.36 0.68 0
 -3 -5 13 35.66 1.85 0
 -3 -5 15 3.15 1.1 0
 -3 -5 16 0.57 1.08 0
 -3 -5 17 4.08 1.22 0
 -3 -5 18 15.88 1.77 0
 -3 -5 20 7.67 1.49 0
 -3 -3 1 631.65 3.32 0
 -3 -3 2 1344.23 5.06 0
 -3 -3 3 10.91 0.62 0
 -3 -3 4 938.37 4.73 0
 -3 -3 7 18.84 0.93 0
 -3 -3 8 806.43 5.5 0
 -3 -3 9 8.37 0.82 0
 -3 -3 12 108.53 2.53 0
 -3 -3 13 58.26 2.02 0
 -3 -3 14 0.42 0.72 0
 -3 -3 15 -0.18 0.85 0
 -3 -3 16 8.11 1.22 0
 -3 -3 17 56.54 2.35 0
 -3 -3 18 2.58 1.02 0
 -3 -3 20 10.46 1.44 0
 -3 -1 2 35.28 0.73 0
 -3 -1 3 576.82 2.88 0
 -3 -1 4 15.21 0.63 0
 -3 -1 5 0.23 0.27 0
 -3 -1 8 166.73 2.26 0
 -3 -1 9 33.14 1.16 0
 -3 -1 10 530.09 4.42 0
 -3 -1 11 62.23 1.7 0
 -3 -1 12 0.64 0.58 0
 -3 -1 14 348.8 4.41 0
 -3 -1 15 13.94 1.22 0
 -3 -1 16 28.37 1.62 0
 -3 -1 18 71.76 2.41 0
 -3 1 3 571.37 2.09 0
 -3 1 4 14.92 0.45 0
 -3 1 5 0.47 0.24 0
 -3 1 6 4.69 0.37 0
 -3 1 9 31.91 0.98 0
 -3 1 10 535.98 3.92 0
 -3 1 11 60.91 1.48 0
 -3 1 12 0.95 0.45 0
 -3 1 13 36.96 1.34 0
 -3 1 15 16.22 1.12 0
 -3 1 16 30.44 1.46 0
 -3 1 17 27.25 1.47 0
 -3 3 6 343.04 1.48 0
 -3 3 7 18.18 0.46 0
 -3 3 10 3.78 0.44 0
 -3 3 11 7.78 0.56 0
 -3 3 13 56.85 1.35 0
 -3 3 14 1.46 0.49 0
 -2 -14 7 7.5 1.32 0
 -2 -14 8 -0.14 0.9 0
 -2 -14 9 0.64 1.12 0
 -2 -14 10 -0.13 1.15 0
 -2 -14 11 3 1.19 0
 -2 -12 4 94.59 2.45 0
 -2 -12 6 130.21 3.11 0
 -2 -12 7 1 0.93 0
 -2 -12 8 39.99 2.07 0
 -2 -12 9 25.99 1.84 0
 -2 -12 10 174.94 4.01 0
 -2 -12 11 -0.35 1.25 0
 -2 -12 12 0.35 1.13 0
 -2 -12 13 36.84 2.37 0
 -2 -12 14 89.46 3.37 0
 -2 -10 4 37.55 1.58 0
 -2 -10 5 96.17 2.42 0
 -2 -10 6 57.14 2 0
 -2 -10 7 87 2.52 0
 -2 -10 8 13.64 1.3 0
 -2 -10 10 61.18 2.4 0
 -2 -10 11 27.65 1.93 0
 -2 -10 12 -0.09 1.2 0
 -2 -10 13 48.93 2.51 0
 -2 -10 14 7.02 1.38 0
 -2 -10 15 45.88 2.65 0
 -2 -10 16 1.49 1.37 0
 -2 -8 2 22.34 1.03 0
 -2 -8 3 28.34 1.19 0
 -2 -8 4 23.96 1.21 0
 -2 -8 7 14.54 1.19 0
 -2 -8 8 21.9 1.35 0
 -2 -8 10 28.86 1.7 0
 -2 -8 11 0.93 0.95 0
 -2 -8 14 75.18 2.89 0
 -2 -8 15 15.75 1.69 0
 -2 -8 16 3.83 1.27 0
 -2 -6 0 38.01 1 0
 -2 -6 2 7.16 0.59 0
 -2 -6 3 10.8 0.71 0
 -2 -6 4 47.88 1.35 0
 -2 -6 5 74.86 1.73 0
 -2 -6 6 -0.17 0.42 0
 -2 -6 7 7.49 0.74 0
 -2 -6 10 11.54 1.08 0
 -2 -6 11 3.19 0.8 0
 -2 -6 12 22.4 1.47 0
 -2 -6 14 36.06 2.02 0
 -2 -6 16 17.78 1.84 0
 -2 -6 17 70.81 2.86 0
 -2 -6 18 2.96 1.37 0
 -2 -6 19 1.83 1.16 0
 -2 -4 0 10.41 0.54 0
 -2 -4 1 759.02 3.73 0
 -2 -4 2 364.27 2.77 0
 -2 -4 3 0.88 0.31 0
 -2 -4 7 29.99 1.11 0
 -2 -4 8 2.28 0.52 0
 -2 -4 9 387.53 4.19 0
 -2 -4 14 57.38 2.17 0
 -2 -4 15 109.84 3.03 0
 -2 -4 16 10.51 1.36 0
 -2 -4 18 5.66 1.27 0
 -2 -4 19 14.92 1.72 0
 -2 -4 20 0.53 1.07 0
 -2 -2 1 1052.41 3.51 0
 -2 -2 2 2339.97 5.63 0
 -2 -2 3 289.22 2.18 0
 -2 -2 4 128.27 1.59 0
 -2 -2 5 1362.41 5.42 0
 -2 -2 8 87.97 1.74 0
 -2 -2 9 588.61 4.61 0
 -2 -2 10 19.82 1 0
 -2 -2 11 30.74 1.32 0
 -2 -2 14 53.56 1.93 0
 -2 -2 15 58.52 2.15 0
 -2 -2 16 44.19 1.95 0
 -2 -2 17 2.9 0.96 0
 -2 -2 18 -0.6 0.8 0
 -2 -2 19 12.23 1.52 0
 -2 -2 20 7.89 1.4 0
 -2 0 2 651.9 2.16 0
 -2 0 4 22.85 0.58 0
 -2 0 10 32.45 1.13 0
 -2 0 12 25.96 1.17 0
 -2 0 16 105.37 2.59 0
 -2 0 18 3.26 1.02 0
 -2 2 4 128.24 0.84 0
 -2 2 5 1348.64 3.32 0
 -2 2 6 156.87 1.35 0
 -2 2 7 5.33 0.35 0
 -2 2 9 589 3.56 0
 -2 2 10 21.41 0.83 0
 -2 2 11 29.46 1.02 0
 -2 2 12 5.51 0.63 0
 -2 2 13 153.97 2.47 0
 -2 2 16 43.58 1.6 0
 -2 4 7 30.46 0.52 0
 -2 4 8 2.85 0.27 0
 -2 4 10 61.2 1.11 0
 -2 4 11 95.72 1.45 0
 -2 4 12 8.45 0.57 0
 -1 -15 8 1.02 0.96 0
 -1 -15 9 24.5 1.91 0
 -1 -13 4 19.35 1.41 0
 -1 -13 5 0.36 0.74 0
 -1 -13 6 1.57 1.01 0
 -1 -13 7 64.24 2.42 0
 -1 -13 8 10.35 1.34 0
 -1 -13 9 26.66 1.91 0
 -1 -13 10 31.04 2.05 0
 -1 -13 11 1.42 1.24 0
 -1 -13 12 0.88 1.11 0
 -1 -11 3 0.69 0.57 0
 -1 -11 6 43.84 1.87 0
 -1 -11 7 46.36 2.03 0
 -1 -11 8 71.55 2.43 0
 -1 -11 9 94.86 2.83 0
 -1 -11 10 44.06 2.22 0
 -1 -11 11 2.64 1.05 0
 -1 -11 12 8.82 1.47 0
 -1 -11 13 36.39 2.28 0
 -1 -11 14 7.8 1.53 0
 -1 -9 2 71.52 1.72 0
 -1 -9 6 15.49 1.2 0
 -1 -9 7 51.03 1.89 0
 -1 -9 8 18.56 1.4 0
 -1 -9 9 6.06 1.07 0
 -1 -9 10 22.69 1.56 0
 -1 -9 11 -0.01 0.76 0
 -1 -9 12 13.43 1.42 0
 -1 -9 13 22.07 1.93 0
 -1 -9 14 18.01 1.81 0
 -1 -9 16 13 1.88 0
 -1 -7 0 10.18 0.61 0
 -1 -7 1 862.61 4.79 0
 -1 -7 2 5.76 0.6 0
 -1 -7 3 93.1 1.85 0
 -1 -7 4 11.26 0.87 0
 -1 -7 5 489.35 4.51 0
 -1 -7 6 6.98 0.81 0
 -1 -7 11 18.31 1.48 0
 -1 -7 13 5.01 1.13 0
 -1 -7 14 20.54 1.7 0
 -1 -7 16 71.3 2.91 0
 -1 -7 17 0.21 1.31 0
 -1 -7 18 9.28 1.61 0
 -1 -7 19 0.67 1.22 0
 -1 -5 0 215.8 1.96 0
 -1 -5 1 20.75 0.72 0
 -1 -5 2 359.82 2.87 0
 -1 -5 3 760.87 4.41 0
 -1 -5 5 28.99 1.03 0
 -1 -5 6 101.53 1.97 0
 -1 -5 7 407.27 4.05 0
 -1 -5 8 524.83 4.82 0
 -1 -5 12 69.07 2.2 0
 -1 -5 13 141.09 3.17 0
 -1 -5 14 5.86 1 0
 -1 -5 15 5.07 1.16 0
 -1 -5 16 4.06 1.16 0
 -1 -5 17 2.27 1.25 0
 -1 -5 18 39.9 2.29 0
 -1 -5 19 2.63 1.2 0
 -1 -5 20 0.2 1.11 0
 -1 -3 0 495.86 2.32 0
 -1 -3 1 1179.43 3.9 0
 -1 -3 2 313.31 2.24 0
 -1 -3 3 290.81 2.33 0
 -1 -3 4 755.98 3.99 0
 -1 -3 5 898.89 4.64 0
 -1 -3 8 933.42 5.75 0
 -1 -3 9 429.29 4.16 0
 -1 -3 10 25.55 1.16 0
 -1 -3 13 39.03 1.71 0
 -1 -3 14 49.36 1.96 0
 -1 -3 15 33.71 1.78 0
 -1 -3 16 17.35 1.48 0
 -1 -3 17 28.66 1.82 0
 -1 -3 18 2.9 1.09 0
 -1 -3 19 -0.04 0.97 0
 -1 -3 20 36.4 2.22 0
 -1 -1 1 39.22 0.55 0
 -1 -1 2 869.9 2.76 0
 -1 -1 3 0.52 0.25 0
 -1 -1 4 1337.29 4.35 0
 -1 -1 5 138.53 1.6 0
 -1 -1 6 576.89 3.49 0
 -1 -1 8 0.17 0.3 0
 -1 -1 9 22.85 0.97 0
 -1 -1 10 2.37 0.51 0
 -1 -1 11 35.23 1.32 0
 -1 -1 14 56.5 1.9 0
 -1 -1 15 26.29 1.48 0
 -1 -1 16 62.57 2.18 0
 -1 -1 17 45.59 2.03 0
 -1 -1 18 1.78 0.91 0
 -1 -1 19 2.1 1.14 0
 -1 -1 20 8.57 1.39 0
 -1 1 3 0.52 0.12 0
 -1 1 4 1350.13 3.44 0
 -1 1 5 135.93 1.3 0
 -1 1 6 580 3 0
 -1 1 9 21.98 0.86 0
 -1 1 10 2.75 0.52 0
 -1 1 11 32.64 1.17 0
 -1 1 12 0.97 0.48 0
 -1 1 13 4.37 0.65 0
 -1 1 15 24.75 1.33 0
 -1 1 17 43.69 1.81 0
 -1 1 18 1.3 0.82 0
 -1 3 5 884.98 2.53 0
 -1 3 6 175.36 1.36 0
 -1 3 7 9.76 0.42 0
 -1 3 9 435.34 2.98 0
 -1 3 10 26.29 0.87 0
 -1 3 11 22.94 0.9 0
 -1 3 12 309.67 3.13 0
 -1 5 7 398.42 1.85 0
 -1 5 10 10.44 0.5 0
 -1 5 11 26.81 0.77 0
 0 -14 6 0.53 0.95 0
 0 -14 7 -0.16 0.99 0
 0 -14 8 22 1.75 0
 0 -14 9 23.42 1.89 0
 0 -14 10 3.79 1.34 0
 0 -14 11 20.78 1.93 0
 0 -12 2 1.39 0.59 0
 0 -12 3 13.87 1.08 0
 0 -12 4 1.17 0.78 0
 0 -12 5 12.31 1.27 0
 0 -12 6 4.86 0.98 0
 0 -12 8 -0.07 0.8 0
 0 -12 9 -0.15 0.86 0
 0 -12 10 14.56 1.63 0
 0 -12 11 -0.63 1.02 0
 0 -12 12 0.08 1.31 0
 0 -12 13 24.08 2.15 0
 0 -12 14 20.18 1.99 0
 0 -10 1 262 3.1 0
 0 -10 2 -0.11 0.42 0
 0 -10 5 172.64 3.17 0
 0 -10 7 109.15 2.71 0
 0 -10 8 -0.51 0.86 0
 0 -10 9 6.48 1.1 0
 0 -10 10 13.21 1.52 0
 0 -10 11 43.11 2.18 0
 0 -10 12 -0.33 0.96 0
 0 -10 14 6.5 1.38 0
 0 -10 15 34.74 2.35 0
 0 -10 16 1.78 1.36 0
 0 -8 0 32.17 0.98 0
 0 -8 1 817.61 4.82 0
 0 -8 3 101.25 2.01 0
 0 -8 4 5.33 0.72 0
 0 -8 5 336.23 3.93 0
 0 -8 8 1.15 0.78 0
 0 -8 10 3.24 0.84 0
 0 -8 11 7.68 1.11 0
 0 -8 12 20.31 1.65 0
 0 -8 13 6.06 1.17 0
 0 -8 14 8.72 1.45 0
 0 -8 15 9.46 1.6 0
 0 -8 16 1.97 1.18 0
 0 -8 17 22.59 2.14 0
 0 -8 18 24.07 2.25 0
 0 -6 -1 180.45 1.72 0
 0 -6 0 12.06 0.57 0
 0 -6 1 185.17 2.07 0
 0 -6 3 2.39 0.47 0
 0 -6 5 5.78 0.68 0
 0 -6 6 12.42 0.82 0
 0 -6 7 8.06 0.76 0
 0 -6 11 14.81 1.17 0
 0 -6 12 89.22 2.59 0
 0 -6 14 7.92 1.21 0
 0 -6 15 15.15 1.64 0
 0 -6 16 51.99 2.54 0
 0 -6 17 18.69 1.86 0
 0 -6 18 26.69 2.06 0
 0 -6 19 13.67 1.78 0
 0 -4 -1 64.99 0.85 0
 0 -4 0 672.57 2.87 0
 0 -4 2 90.91 1.31 0
 0 -4 3 237.51 2.24 0
 0 -4 4 832.25 4.44 0
 0 -4 9 7.46 0.7 0
 0 -4 12 5.03 0.85 0
 0 -4 13 21.74 1.42 0
 0 -4 15 13.48 1.46 0
 0 -4 16 0.76 0.85 0
 0 -4 18 9.77 1.45 0
 0 -4 19 23.4 1.94 0
 0 -4 20 1.46 1.35 0
 0 -2 0 4157.07 4.89 0
 0 -2 1 195.19 1.29 0
 0 -2 2 720.13 2.81 0
 0 -2 3 29.33 0.7 0
 0 -2 4 288.89 2.28 0
 0 -2 5 117.79 1.62 0
 0 -2 6 460.66 3.39 0
 0 -2 9 154.15 2.47 0
 0 -2 10 7.88 0.78 0
 0 -2 13 212.15 3.56 0
 0 -2 15 -0.02 0.69 0
 0 -2 16 5.84 1.16 0
 0 -2 17 146.51 3.44 0
 0 -2 18 0.36 0.87 0
 0 -2 19 7.08 1.4 0
 0 -2 20 9.61 1.45 0
 0 -2 21 47.3 2.38 0
 0 0 2 1509.42 2.9 0
 0 0 4 9915.35 10.77 0
 0 0 6 1701.62 5.63 0
 0 0 10 76.26 1.7 0
 0 0 12 65.14 1.77 0
 0 0 16 3.4 0.84 0
 0 0 18 7.83 1.22 0
 0 2 9 150.22 2.01 0
 0 2 12 6.66 0.75 0
 0 2 13 208.5 3.02 0
 0 2 15 0.18 0.56 0
 0 2 16 7.79 0.96 0
 0 2 17 140.42 2.87 0
 0 4 9 7.51 0.5 0
 0 4 10 14.11 0.69 0
 0 4 11 4.54 0.53 0
 0 4 12 3.99 0.57 0
 0 4 13 19.91 0.94 0
 0 4 14 4.19 0.63 0
 0 6 10 23.19 0.7 0
 1 -15 9 -1.39 0.87 0
 1 -13 3 1.85 0.68 0
 1 -13 4 2.44 0.83 0
 1 -13 5 14.18 1.3 0
 1 -13 6 7.47 1.07 0
 1 -13 7 60.16 2.29 0
 1 -13 8 4.51 1.24 0
 1 -13 9 8.55 1.47 0
 1 -13 10 0.6 1.11 0
 1 -13 12 -0.58 1.08 0
 1 -11 1 32.04 1.2 0
 1 -11 5 4.7 0.96 0
 1 -11 6 10.24 1.2 0
 1 -11 7 25.96 1.63 0
 1 -11 8 8.19 1.31 0
 1 -11 9 26.99 1.83 0
 1 -11 10 48.62 2.28 0
 1 -11 11 28.18 1.9 0
 1 -11 12 4.98 1.26 0
 1 -11 15 57.57 2.87 0
 1 -9 0 7.38 0.63 0
 1 -9 1 42.1 1.23 0
 1 -9 3 12.29 0.91 0
 1 -9 4 25.48 1.21 0
 1 -9 6 12.85 1.07 0
 1 -9 7 5.54 0.95 0
 1 -9 9 3.84 0.9 0
 1 -9 10 4.1 0.95 0
 1 -9 11 15.8 1.49 0
 1 -9 12 18.03 1.76 0
 1 -9 15 45.78 2.48 0
 1 -9 16 27.48 2.15 0
 1 -9 17 67.99 3.13 0
 1 -7 -1 882.41 3.85 0
 1 -7 0 10.69 0.58 0
 1 -7 2 0.91 0.35 0
 1 -7 4 7.8 0.74 0
 1 -7 5 151.8 2.54 0
 1 -7 6 17.47 1.04 0
 1 -7 9 79.14 2.19 0
 1 -7 11 100.76 2.73 0
 1 -7 12 24.48 1.67 0
 1 -7 13 43.2 2.14 0
 1 -7 15 3.75 1.24 0
 1 -7 16 2.75 1.2 0
 1 -7 18 2.88 1.52 0
 1 -5 -1 19.52 0.51 0
 1 -5 0 218.66 1.79 0
 1 -5 1 384.9 2.58 0
 1 -5 3 57.98 1.22 0
 1 -5 5 103.75 1.84 0
 1 -5 6 307.74 3.32 0
 1 -5 7 143.6 2.46 0
 1 -5 8 214.59 3.12 0
 1 -5 11 25.57 1.45 0
 1 -5 12 240.96 4.03 0
 1 -5 13 36.95 1.77 0
 1 -5 14 26.79 1.74 0
 1 -5 15 8.97 1.27 0
 1 -5 16 17.09 1.57 0
 1 -5 17 -0.34 0.93 0
 1 -5 18 0.71 1.09 0
 1 -3 -1 1125.95 2.36 0
 1 -3 1 149.18 1.3 0
 1 -3 2 1.86 0.33 0
 1 -3 3 174.23 1.79 0
 1 -3 4 120.62 1.64 0
 1 -3 5 2.18 0.37 0
 1 -3 9 152.04 2.59 0
 1 -3 10 0.47 0.49 0
 1 -3 12 46.53 1.77 0
 1 -3 13 155.16 3.19 0
 1 -3 14 61.88 2.21 0
 1 -3 15 48.16 2.07 0
 1 -3 16 2.72 1.14 0
 1 -3 17 9.45 1.39 0
 1 -3 18 -0.05 0.9 0
 1 -3 19 16.24 1.81 0
 1 -3 20 0.78 1.04 0
 1 -1 4 3.69 0.34 0
 1 -1 5 30.25 0.84 0
 1 -1 6 28.48 0.86 0
 1 -1 8 9.23 0.71 0
 1 -1 9 56.35 1.46 0
 1 -1 10 34.45 1.28 0
 1 -1 11 0.61 0.58 0
 1 -1 13 24.22 1.36 0
 1 -1 14 1.32 0.69 0
 1 -1 15 3.49 0.87 0
 1 -1 16 182.08 3.67 0
 1 -1 17 1.05 1.03 0
 1 -1 18 71.26 2.54 0
 1 -1 19 1.23 0.95 0
 1 -1 20 48.08 2.31 0
 1 -1 21 5.7 1.28 0
 1 1 8 8.14 0.61 0
 1 1 10 34.9 1.17 0
 1 1 11 -0.3 0.36 0
 1 1 12 36.74 1.38 0
 1 1 14 1.43 0.66 0
 1 1 15 2.96 0.84 0
 1 1 16 179.47 3.36 0
 1 1 17 -0.15 0.85 0
 1 1 18 71.15 2.36 0
 1 1 19 0.24 0.84 0
 1 3 10 0.45 0.43 0
 1 3 11 2.15 0.47 0
 1 3 12 43.53 1.35 0
 1 3 15 48.93 1.67 0
 1 3 16 4.3 0.84 0
 1 5 12 238.62 2.77 0
 1 5 13 35.51 1.19 0
 2 -14 7 69.68 2.42 0
 2 -14 8 1.24 0.95 0
 2 -14 10 1.09 1.08 0
 2 -14 11 -0.44 1.26 0
 2 -12 3 2.15 0.74 0
 2 -12 4 -0.17 0.59 0
 2 -12 5 0.37 0.69 0
 2 -12 6 -0 0.67 0
 2 -12 7 35.08 1.86 0
 2 -12 9 40.9 2.15 0
 2 -12 11 0.76 1.22 0
 2 -12 12 5.36 1.53 0
 2 -12 13 9.11 1.52 0
 2 -10 0 0.39 0.35 0
 2 -10 1 0.46 0.39 0
 2 -10 2 0.65 0.55 0
 2 -10 5 22.96 1.33 0
 2 -10 6 2.91 0.75 0
 2 -10 8 46.06 1.97 0
 2 -10 9 3.67 0.97 0
 2 -10 10 5.59 1.09 0
 2 -10 11 14.2 1.57 0
 2 -10 12 27.58 2.05 0
 2 -10 15 12.16 1.78 0
 2 -10 16 2.49 1.35 0
 2 -8 -1 54.79 1.05 0
 2 -8 0 99.43 1.54 0
 2 -8 2 0.63 0.43 0
 2 -8 3 41.01 1.29 0
 2 -8 4 48.96 1.46 0
 2 -8 5 224.4 3.17 0
 2 -8 8 1.92 0.78 0
 2 -8 9 36.99 1.74 0
 2 -8 10 3.91 1.01 0
 2 -8 11 17.53 1.41 0
 2 -8 13 16 1.61 0
 2 -8 14 3.8 1.18 0
 2 -8 16 13.59 1.91 0
 2 -8 18 1.04 1.52 0
 2 -6 -2 7.49 0.31 0
 2 -6 -1 0.73 0.21 0
 2 -6 0 36.9 0.82 0
 2 -6 1 55.02 1.12 0
 2 -6 2 179.59 2.1 0
 2 -6 3 36.85 1.05 0
 2 -6 4 47.9 1.26 0
 2 -6 5 16.95 0.92 0
 2 -6 6 90.46 1.94 0
 2 -6 7 72.9 1.84 0
 2 -6 11 5.6 0.99 0
 2 -6 12 24.22 1.62 0
 2 -6 13 39.78 1.95 0
 2 -6 14 23.63 1.78 0
 2 -6 15 68.65 2.64 0
 2 -6 16 14.19 1.74 0
 2 -6 17 2.18 1.31 0
 2 -6 18 2.33 1.4 0
 2 -6 19 34.87 2.47 0
 2 -4 -1 768.82 2.37 0
 2 -4 1 3.74 0.38 0
 2 -4 2 0.44 0.32 0
 2 -4 3 31.2 0.87 0
 2 -4 4 508.59 3.55 0
 2 -4 5 42.61 1.18 0
 2 -4 6 0.79 0.35 0
 2 -4 8 757.52 5.62 0
 2 -4 11 1.09 0.55 0
 2 -4 12 186.18 3.47 0
 2 -4 13 184.05 3.66 0
 2 -4 14 174.26 3.66 0
 2 -4 15 42.82 2.11 0
 2 -4 16 -0.06 0.97 0
 2 -4 17 6.85 1.4 0
 2 -4 18 11.86 1.54 0
 2 -4 19 12.19 1.67 0
 2 -4 20 0.48 1.18 0
 2 -2 5 49.04 1.11 0
 2 -2 8 -0.06 0.3 0
 2 -2 9 9.52 0.83 0
 2 -2 10 38.97 1.44 0
 2 -2 12 1.28 0.61 0
 2 -2 13 -0.54 0.67 0
 2 -2 14 57.89 2.05 0
 2 -2 15 4.13 1.04 0
 2 -2 16 30.12 1.73 0
 2 -2 17 35.34 2.03 0
 2 -2 18 1.43 1 0
 2 -2 19 0.51 0.96 0
 2 -2 20 1.2 1.09 0
 2 0 14 12.14 1.16 0
 2 0 18 34.63 1.93 0
 2 2 11 2.36 0.51 0
 2 2 12 1.39 0.51 0
 2 2 14 60.89 1.89 0
 2 2 15 4.25 0.85 0
 2 2 16 31.88 1.62 0
 2 2 17 36.27 1.74 0
 2 2 18 1.22 0.89 0
 2 4 12 187.97 2.76 0
 2 4 15 39.38 1.56 0
 2 4 16 -0.13 0.59 0
 2 6 12 24.26 1.01 0
 3 -13 4 0.3 0.64 0
 3 -13 5 3.7 0.83 0
 3 -13 8 8 1.31 0
 3 -13 9 8.47 1.39 0
 3 -13 10 1.5 1.03 0
 3 -13 11 7.27 1.38 0
 3 -13 12 10.77 1.6 0
 3 -11 1 2.91 0.57 0
 3 -11 2 7.14 0.75 0
 3 -11 5 -0.04 0.7 0
 3 -11 6 8.04 1.09 0
 3 -11 7 97.83 2.69 0
 3 -11 9 2.91 0.98 0
 3 -11 10 4.72 1.22 0
 3 -11 11 55.76 2.53 0
 3 -11 13 0.79 1.41 0
 3 -11 14 0.18 1.27 0
 3 -11 15 94.06 3.45 0
 3 -9 -1 136.59 1.62 0
 3 -9 0 28.89 0.91 0
 3 -9 3 6.12 0.73 0
 3 -9 4 0.81 0.58 0
 3 -9 6 3.4 0.71 0
 3 -9 7 17.3 1.23 0
 3 -9 8 1.01 0.78 0
 3 -9 9 7.61 1.15 0
 3 -9 10 0.13 0.78 0
 3 -9 11 25.45 1.76 0
 3 -9 12 0.41 0.9 0
 3 -9 13 -0.84 1.05 0
 3 -9 14 1.28 1.17 0
 3 -9 15 68.08 2.88 0
 3 -7 -2 77.97 0.89 0
 3 -7 -1 240.36 1.88 0
 3 -7 0 8.74 0.51 0
 3 -7 1 89.38 1.52 0
 3 -7 3 132.52 2.07 0
 3 -7 4 49.28 1.38 0
 3 -7 6 20.61 1.09 0
 3 -7 8 36.71 1.53 0
 3 -7 9 4.49 0.89 0
 3 -7 10 5.58 0.89 0
 3 -7 14 2.32 1.14 0
 3 -7 15 3.7 1.2 0
 3 -7 17 36.06 2.41 0
 3 -5 -1 5.46 0.3 0
 3 -5 1 91.83 1.29 0
 3 -5 2 12.79 0.62 0
 3 -5 3 44.44 1.12 0
 3 -5 4 378.63 3.33 0
 3 -5 6 19.53 0.96 0
 3 -5 7 17.5 0.97 0
 3 -5 10 64.92 2.04 0
 3 -5 11 0.26 0.58 0
 3 -5 12 3.9 0.94 0
 3 -5 14 1.23 0.87 0
 3 -5 15 1.93 0.96 0
 3 -5 16 13.63 1.6 0
 3 -5 17 22.78 2 0
 3 -5 18 2.09 1.36 0
 3 -5 19 -0.39 1.14 0
 3 -3 5 73.94 1.45 0
 3 -3 8 233.8 3.11 0
 3 -3 9 83.39 1.98 0
 3 -3 12 39.45 1.74 0
 3 -3 13 2.06 0.73 0
 3 -3 14 0.71 0.75 0
 3 -3 16 48.44 2.19 0
 3 -3 17 0.53 1.17 0
 3 -3 18 -0.16 0.95 0
 3 -3 19 15.12 1.78 0
 3 -1 9 1.32 0.46 0
 3 -1 10 56.17 1.66 0
 3 -1 12 -0.18 0.49 0
 3 -1 13 9.93 1.06 0
 3 -1 14 33.44 1.63 0
 3 -1 15 4 0.92 0
 3 -1 16 91.21 2.77 0
 3 -1 17 10.76 1.42 0
 3 -1 18 6.94 1.34 0
 3 -1 19 1.34 1.13 0
 3 -1 20 99.57 3.11 0
 3 1 11 14.37 0.91 0
 3 1 14 32.15 1.56 0
 3 1 15 3.24 0.85 0
 3 1 16 91.77 2.64 0
 3 1 17 12.25 1.37 0
 3 1 19 1.68 0.97 0
 3 3 14 0.69 0.63 0
 3 3 15 30.73 1.54 0
 3 3 16 47.21 1.87 0
 3 3 17 0.67 0.89 0
 3 5 14 0.04 0.63 0
 3 5 15 0.21 0.59 0
 4 -14 9 6.33 1.26 0
 4 -14 10 6.38 1.29 0
 4 -12 3 23.07 1.21 0
 4 -12 4 52.9 1.78 0
 4 -12 6 0.2 0.89 0
 4 -12 7 4.6 1.02 0
 4 -12 8 3.66 1 0
 4 -12 9 34.54 2.04 0
 4 -12 10 1.83 1.05 0
 4 -12 11 1.2 1.06 0
 4 -12 12 -0.32 1.09 0
 4 -10 0 25.59 0.88 0
 4 -10 1 3.88 0.56 0
 4 -10 2 0.44 0.44 0
 4 -10 5 -0.25 0.69 0
 4 -10 6 4.58 0.81 0
 4 -10 8 11.91 1.32 0
 4 -10 9 29.63 1.82 0
 4 -10 10 10.64 1.47 0
 4 -10 11 56.4 2.39 0
 4 -10 12 23.84 1.98 0
 4 -10 13 27.04 2.12 0
 4 -10 14 13.38 1.79 0
 4 -10 15 138.27 4.04 0
 4 -8 -1 330.57 2.3 0
 4 -8 0 95.48 1.49 0
 4 -8 1 76.13 1.48 0
 4 -8 2 27.93 1.02 0
 4 -8 3 177.13 2.52 0
 4 -8 7 142.63 2.92 0
 4 -8 8 55.15 1.98 0
 4 -8 10 10.83 1.35 0
 4 -8 11 2.95 0.96 0
 4 -8 12 12.94 1.53 0
 4 -8 13 21.68 1.86 0
 4 -8 14 0.73 1.09 0
 4 -8 15 47.51 2.51 0
 4 -8 16 22.36 2.05 0
 4 -8 17 30.35 2.42 0
 4 -6 -2 119.89 0.97 0
 4 -6 -1 285.65 1.89 0
 4 -6 0 46.48 0.95 0
 4 -6 1 30.85 0.86 0
 4 -6 2 8.42 0.62 0
 4 -6 3 238.91 2.67 0
 4 -6 4 53.57 1.43 0
 4 -6 5 10.14 0.82 0
 4 -6 6 79.24 1.91 0
 4 -6 10 13.32 1.23 0
 4 -6 11 31.79 1.67 0
 4 -6 12 150.81 3.44 0
 4 -6 13 104.35 2.96 0
 4 -6 14 16.75 1.67 0
 4 -6 15 23.22 1.93 0
 4 -6 16 29.54 2.17 0
 4 -6 17 2.17 1.43 0
 4 -6 18 2.63 1.38 0
 4 -4 -2 8.49 0.27 0
 4 -4 -1 789.56 2.76 0
 4 -4 2 8.65 0.52 0
 4 -4 3 233.33 2.4 0
 4 -4 4 0.3 0.31 0
 4 -4 5 88.04 1.74 0
 4 -4 6 18.89 0.99 0
 4 -4 7 0.34 0.4 0
 4 -4 11 -0.28 0.54 0
 4 -4 12 218.12 3.93 0
 4 -4 13 138.12 3.24 0
 4 -4 14 253.6 4.57 0
 4 -4 15 44.16 2.22 0
 4 -4 17 39.89 2.33 0
 4 -4 18 80.47 3.02 0
 4 -4 19 27.32 2.19 0
 4 -2 9 1.32 0.54 0
 4 -2 11 10.77 1.02 0
 4 -2 13 25.53 1.51 0
 4 -2 14 193.78 3.84 0
 4 -2 15 0.93 0.86 0
 4 -2 18 9.4 1.53 0
 4 -2 19 1.22 1.32 0
 4 0 12 -0.02 0.52 0
 4 0 16 191.72 3.94 0
 4 0 20 95.64 3.02 0
 4 2 13 26.33 1.43 0
 4 2 15 1.45 0.84 0
 4 2 16 72.33 2.36 0
 4 2 17 7.36 1.16 0
 4 2 18 9.79 1.42 0
 4 2 19 -0.09 0.86 0
 4 4 15 40.96 1.74 0
 4 4 16 12.12 1.24 0
 4 4 17 37.97 1.84 0
 4 6 14 16.24 1.15 0
 5 -13 7 75.57 2.46 0
 5 -13 8 2.63 1.11 0
 5 -13 9 17.69 1.71 0
 5 -13 11 14.47 1.67 0
 5 -11 2 2.42 0.59 0
 5 -11 4 6.99 0.9 0
 5 -11 5 15.15 1.23 0
 5 -11 6 22.73 1.46 0
 5 -11 7 38.48 1.83 0
 5 -11 9 15.93 1.54 0
 5 -11 10 9.22 1.32 0
 5 -11 12 73.98 2.88 0
 5 -11 13 8.56 1.72 0
 5 -11 14 0.32 1.43 0
 5 -9 0 14.56 0.69 0
 5 -9 1 68.6 1.45 0
 5 -9 2 2.21 0.51 0
 5 -9 3 -0.17 0.48 0
 5 -9 6 2.1 0.68 0
 5 -9 7 31.85 1.58 0
 5 -9 8 11.18 1.26 0
 5 -9 9 6.68 1.03 0
 5 -9 10 2.1 1.11 0
 5 -9 11 1.1 0.89 0
 5 -9 12 20.62 1.7 0
 5 -9 13 11.03 1.51 0
 5 -9 14 -0.43 1.18 0
 5 -9 15 -0.13 1.14 0
 5 -9 16 7.16 1.67 0
 5 -7 -2 4.07 0.28 0
 5 -7 -1 52.65 0.95 0
 5 -7 0 176.77 1.89 0
 5 -7 1 51.89 1.18 0
 5 -7 2 103.37 1.81 0
 5 -7 4 28.34 1.15 0
 5 -7 8 31.75 1.5 0
 5 -7 9 20.35 1.31 0
 5 -7 10 27.84 1.62 0
 5 -7 11 1.91 0.97 0
 5 -7 12 22.38 1.71 0
 5 -7 14 2.62 1.08 0
 5 -7 15 1.92 1.21 0
 5 -7 17 17.67 2.01 0
 5 -5 -2 262.48 1.54 0
 5 -5 -1 171.77 1.52 0
 5 -5 0 114.97 1.44 0
 5 -5 2 5.72 0.52 0
 5 -5 3 0.49 0.39 0
 5 -5 4 0.12 0.35 0
 5 -5 6 88.76 1.98 0
 5 -5 10 0.23 0.58 0
 5 -5 11 15.95 1.23 0
 5 -5 14 9.08 1.27 0
 5 -5 15 -0.52 0.9 0
 5 -5 16 19.31 1.91 0
 5 -5 17 27.21 2.12 0
 5 -5 18 0.28 1.11 0
 5 -3 10 51.17 1.83 0
 5 -3 11 235.25 3.88 0
 5 -3 12 56.05 2.1 0
 5 -3 13 60.97 2.26 0
 5 -3 14 51.28 2.24 0
 5 -3 15 66.45 2.59 0
 5 -3 16 6.06 1.2 0
 5 -3 18 6.56 1.56 0
 5 -3 19 18.41 1.93 0
 5 -1 12 8.15 0.99 0
 5 -1 13 -0.21 0.6 0
 5 -1 14 58.87 2.2 0
 5 -1 16 6.88 1.26 0
 5 -1 17 -0.5 1 0
 5 -1 18 57.07 2.58 0
 5 -1 19 17.39 1.82 0
 5 1 13 -0.18 0.57 0
 5 1 14 63.38 2.21 0
 5 1 15 52.03 2.09 0
 5 1 16 7.12 1.27 0
 5 1 17 -0.07 0.82 0
 5 1 18 61.11 2.49 0
 5 1 19 18.63 1.77 0
 5 3 14 48.4 1.87 0
 5 3 15 62.79 2.16 0
 5 3 16 6.29 1.06 0
 5 3 17 33.39 1.84 0
 5 3 18 6.99 1.2 0
 5 5 15 1.21 0.83 0
 5 5 16 19.08 1.4 0
 6 -12 5 5.19 0.98 0
 6 -12 6 1.51 0.82 0
 6 -12 7 2.7 1.04 0
 6 -12 8 25.56 1.74 0
 6 -12 9 0.31 0.98 0
 6 -12 10 -0.54 0.99 0
 6 -12 11 0.03 1.11 0
 6 -12 12 34.63 2.25 0
 6 -10 1 27.28 1.02 0
 6 -10 4 -0.05 0.51 0
 6 -10 6 4.78 0.93 0
 6 -10 7 7.19 1.03 0
 6 -10 8 3.15 1.04 0
 6 -10 9 1.71 1.03 0
 6 -10 10 9.17 1.28 0
 6 -10 11 1.38 1.11 0
 6 -10 12 6.95 1.55 0
 6 -10 13 11.58 1.73 0
 6 -10 14 0.79 1.37 0
 6 -8 -1 139.02 1.56 0
 6 -8 0 -0.4 0.28 0
 6 -8 1 34.02 1.04 0
 6 -8 2 60.57 1.46 0
 6 -8 3 198.38 2.78 0
 6 -8 6 4.81 0.78 0
 6 -8 7 228.22 3.74 0
 6 -8 8 65.65 2.2 0
 6 -8 10 10.65 1.38 0
 6 -8 11 110.01 3.14 0
 6 -8 12 17 1.69 0
 6 -8 13 175.31 4.09 0
 6 -8 14 7.01 1.48 0
 6 -8 15 0.11 1.19 0
 6 -8 16 19.1 2.01 0
 6 -6 -2 0.19 0.19 0
 6 -6 -1 384.32 2.48 0
 6 -6 0 91.5 1.41 0
 6 -6 1 33.51 0.98 0
 6 -6 2 145.44 2.08 0
 6 -6 3 272.81 3.02 0
 6 -6 4 6.53 0.71 0
 6 -6 5 46.33 1.5 0
 6 -6 8 16.87 1.17 0
 6 -6 9 92.04 2.53 0
 6 -6 10 1.19 0.69 0
 6 -6 12 4.46 1.23 0
 6 -6 13 117.21 3.36 0
 6 -6 14 8.58 1.48 0
 6 -6 15 -0.19 1.1 0
 6 -6 16 1.95 1.41 0
 6 -6 17 11.06 1.71 0
 6 -4 9 34.77 1.54 0
 6 -4 10 5.64 0.86 0
 6 -4 11 4.64 0.98 0
 6 -4 12 25.93 1.62 0
 6 -4 13 5.1 1.07 0
 6 -4 14 30.91 1.97 0
 6 -4 15 13.57 1.56 0
 6 -4 16 0.22 1.22 0
 6 -4 17 6.64 1.43 0
 6 -4 18 21.12 2.04 0
 6 -2 11 71.01 2.18 0
 6 -2 12 103.81 2.73 0
 6 -2 13 2.61 0.96 0
 6 -2 14 43.54 2.14 0
 6 -2 16 1.72 1.14 0
 6 -2 17 -0.4 1.03 0
 6 -2 18 7 1.54 0
 6 -2 19 0.89 1.3 0
 6 0 16 -0.53 0.83 0
 6 0 18 6.41 1.3 0
 6 2 14 43.06 1.89 0
 6 2 15 18.26 1.48 0
 6 2 16 2.28 0.99 0
 6 2 17 -0.58 1.01 0
 6 2 18 9.79 1.48 0
 6 2 19 -0.04 0.99 0
 6 4 15 15.64 1.41 0
 6 4 16 -0.02 0.76 0
 6 4 17 5.07 1.07 0
 6 6 15 1.49 0.8 0
 7 -13 10 38.49 2.18 0
 7 -11 4 147.9 2.81 0
 7 -11 6 1.77 0.83 0
 7 -11 7 5.78 1.17 0
 7 -11 8 58.71 2.27 0
 7 -11 9 1.44 0.92 0
 7 -11 11 0.95 1.05 0
 7 -11 12 2.43 1.39 0
 7 -9 1 135.35 2.09 0
 7 -9 2 6.54 0.69 0
 7 -9 5 148.22 2.92 0
 7 -9 6 21.07 1.37 0
 7 -9 7 104.15 2.66 0
 7 -9 8 3.56 0.89 0
 7 -9 9 0.53 0.96 0
 7 -9 10 9.52 1.32 0
 7 -9 11 14.51 1.61 0
 7 -9 12 7.76 1.43 0
 7 -9 13 4.06 1.44 0
 7 -9 14 5.69 1.32 0
 7 -9 15 20.81 2.12 0
 7 -7 -2 52.46 0.85 0
 7 -7 -1 22.67 0.71 0
 7 -7 0 30.29 0.93 0
 7 -7 1 0.17 0.34 0
 7 -7 3 82.83 1.82 0
 7 -7 6 24.26 1.27 0
 7 -7 7 248.77 3.91 0
 7 -7 8 10.09 1.1 0
 7 -7 9 15.82 1.36 0
 7 -7 12 0.82 1.03 0
 7 -7 14 6.16 1.38 0
 7 -7 15 7.09 1.49 0
 7 -7 16 1.47 1.25 0
 7 -5 8 0.15 0.62 0
 7 -5 9 8.32 1.09 0
 7 -5 10 1.08 0.79 0
 7 -5 11 0.91 0.93 0
 7 -5 13 4.32 1.07 0
 7 -5 14 25.78 1.9 0
 7 -5 15 16.69 1.92 0
 7 -5 16 5.51 1.35 0
 7 -5 17 -0 1.16 0
 7 -3 10 5.15 0.87 0
 7 -3 12 1.26 0.78 0
 7 -3 13 1.05 0.82 0
 7 -3 14 81.46 2.85 0
 7 -3 15 8.19 1.48 0
 7 -3 16 28.35 2.04 0
 7 -3 17 3 1.21 0
 7 -3 18 12.35 1.7 0
 7 -1 13 0.28 0.81 0
 7 -1 14 0.3 0.82 0
 7 -1 16 26.55 1.96 0
 7 -1 17 1.43 1.32 0
 7 -1 18 21.74 1.98 0
 7 -1 19 24.53 2.06 0
 7 1 14 0.11 0.77 0
 7 1 15 28.58 1.86 0
 7 1 16 27.77 1.93 0
 7 1 17 0.68 0.97 0
 7 1 18 24.15 1.97 0
 7 3 15 9.8 1.35 0
 7 3 16 24.44 1.76 0
 7 3 17 3.39 1.19 0
 7 3 18 14.22 1.61 0
 7 5 15 14.13 1.38 0
 7 5 16 5.96 1.2 0
 8 -12 8 1.68 1.1 0
 8 -12 9 26.49 1.84 0
 8 -12 10 6.72 1.34 0
 8 -12 11 -0.11 1.19 0
 8 -10 3 1.39 0.64 0
 8 -10 4 11.12 1.04 0
 8 -10 5 2.64 0.81 0
 8 -10 6 4.73 0.92 0
 8 -10 7 0.75 0.92 0
 8 -10 8 1.18 0.95 0
 8 -10 9 43.39 2.08 0
 8 -10 10 2.45 1.19 0
 8 -10 11 14.55 1.72 0
 8 -10 12 18.61 1.89 0
 8 -10 13 9.35 1.68 0
 8 -8 0 12.64 0.7 0
 8 -8 1 1.62 0.46 0
 8 -8 2 19.44 1 0
 8 -8 5 6.04 0.9 0
 8 -8 6 25.43 1.41 0
 8 -8 7 7.23 1.1 0
 8 -8 8 3.3 0.98 0
 8 -8 9 0.06 0.93 0
 8 -8 10 0.24 1.02 0
 8 -8 12 -0.19 1.09 0
 8 -8 14 0.92 1.29 0
 8 -8 15 11.11 1.8 0
 8 -6 -3 237.26 1.69 0
 8 -6 -2 221.63 1.96 0
 8 -6 -1 104.33 1.59 0
 8 -6 0 52.48 1.21 0
 8 -6 2 8.03 0.71 0
 8 -6 6 30.96 1.47 0
 8 -6 7 15.98 1.11 0
 8 -6 8 10.2 1.17 0
 8 -6 9 3.79 0.98 0
 8 -6 10 13.83 1.4 0
 8 -6 11 31.95 1.85 0
 8 -6 12 17.88 1.54 0
 8 -6 13 14.94 1.58 0
 8 -6 14 14.85 1.76 0
 8 -6 15 11.62 1.74 0
 8 -6 16 28.49 2.3 0
 8 -4 9 2.75 0.74 0
 8 -4 10 51.39 2.06 0
 8 -4 11 0.43 0.77 0
 8 -4 12 0.3 0.83 0
 8 -4 13 15.89 1.66 0
 8 -4 15 2.11 1.14 0
 8 -4 16 1.09 1.37 0
 8 -4 17 34.79 2.35 0
 8 -2 12 12.75 1.38 0
 8 -2 13 19.79 1.58 0
 8 -2 14 17 1.65 0
 8 -2 15 99.56 3.19 0
 8 -2 16 10.76 1.52 0
 8 -2 17 40.29 2.41 0
 8 -2 18 1.28 1.26 0
 8 0 14 2.02 0.91 0
 8 0 16 15.98 1.77 0
 8 0 18 7.87 1.59 0
 8 2 15 97.71 3.02 0
 8 2 17 38.21 2.15 0
 8 2 18 1.11 1.03 0
 8 4 16 0.92 0.95 0
 8 4 17 34.28 2.04 0
 8 4 18 0.15 1.09 0
 9 -11 6 -0.09 0.76 0
 9 -11 7 0.37 0.81 0
 9 -11 8 26.65 1.76 0
 9 -11 10 2.77 1.19 0
 9 -11 11 4.97 1.3 0
 9 -9 5 77.37 2.2 0
 9 -9 6 27.59 1.59 0
 9 -9 7 22.75 1.54 0
 9 -9 9 7.88 1.27 0
 9 -9 10 41.67 2.19 0
 9 -9 11 47.39 2.41 0
 9 -9 12 2.3 1.3 0
 9 -9 14 17.57 2.01 0
 9 -7 0 5.92 0.62 0
 9 -7 5 17.64 1.16 0
 9 -7 6 8.51 1.02 0
 9 -7 7 19.98 1.37 0
 9 -7 8 11.72 1.32 0
 9 -7 9 73.47 2.52 0
 9 -7 10 0.81 1.03 0
 9 -7 11 30.56 1.95 0
 9 -7 12 2.67 1.11 0
 9 -7 13 145.64 3.92 0
 9 -7 14 3.71 1.4 0
 9 -7 15 8.02 1.59 0
 9 -5 7 1.1 0.63 0
 9 -5 9 0.38 0.66 0
 9 -5 10 49.9 2.16 0
 9 -5 11 1.43 1.1 0
 9 -5 12 2.27 1.05 0
 9 -5 13 8.43 1.33 0
 9 -5 14 98.46 3.36 0
 9 -5 15 39.95 2.43 0
 9 -5 16 32.65 2.38 0
 9 -3 11 54.39 2.26 0
 9 -3 12 1.91 1.05 0
 9 -3 13 12.03 1.5 0
 9 -3 16 31.83 2.31 0
 9 -3 17 24.87 2.22 0
 9 -1 13 0.42 0.81 0
 9 -1 14 21.25 1.82 0
 9 -1 16 -0.56 1.19 0
 9 -1 17 0.71 1.11 0
 9 1 15 10.63 1.42 0
 9 1 16 -0.92 1.05 0
 9 1 17 1.04 1.15 0
 9 1 18 5.54 1.34 0
 9 3 16 29.98 2 0
 9 3 17 25.44 1.92 0
 9 5 16 27.92 1.9 0
 9 5 17 2.71 1.15 0
 10 -10 5 101.19 2.51 0
 10 -10 6 18.6 1.43 0
 10 -10 7 82.33 2.53 0
 10 -10 9 -0.4 1.07 0
 10 -10 10 2.33 1.11 0
 10 -10 11 30.72 2.1 0
 10 -10 12 0.7 1.26 0
 10 -8 1 0.6 0.49 0
 10 -8 3 25.16 1.26 0
 10 -8 4 1.58 0.67 0
 10 -8 6 26.72 1.57 0
 10 -8 7 230.87 4.13 0
 10 -8 8 0.17 0.99 0
 10 -8 9 20.08 1.67 0
 10 -8 10 7.23 1.26 0
 10 -8 12 0.95 1.13 0
 10 -8 13 52.69 2.58 0
 10 -8 14 2.97 1.38 0
 10 -6 4 6.19 0.89 0
 10 -6 5 0.47 0.57 0
 10 -6 6 17.21 1.32 0
 10 -6 7 38.76 1.78 0
 10 -6 8 0.47 0.73 0
 10 -6 9 11.35 1.41 0
 10 -6 12 1.26 1.09 0
 10 -6 13 18.66 1.87 0
 10 -6 14 3.74 1.29 0
 10 -6 15 2.68 1.43 0
 10 -4 10 28.11 1.67 0
 10 -4 11 4.13 1.24 0
 10 -4 12 0.77 0.92 0
 10 -4 13 0.58 1.24 0
 10 -4 15 3.82 1.29 0
 10 -4 16 6.21 1.68 0
 10 -2 12 60.66 2.42 0
 10 -2 14 20.25 1.8 0
 10 -2 15 7.4 1.42 0
 10 -2 16 -0.64 1.07 0
 10 0 14 3.25 1.07 0
 10 0 16 55.18 2.66 0
 10 2 15 7.86 1.53 0
 10 2 16 1.09 1.16 0
 10 2 17 15.26 1.8 0
 10 4 16 6.24 1.3 0
 11 -9 4 2.76 0.75 0
 11 -9 5 14.62 1.31 0
 11 -9 6 -0.49 0.72 0
 11 -9 7 24.59 1.7 0
 11 -9 8 1.75 1.03 0
 11 -9 9 -0.68 0.93 0
 11 -9 10 11.98 1.66 0
 11 -9 11 0.81 1.2 0
 11 -9 12 6.24 1.4 0
 11 -7 0 1.06 0.5 0
 11 -7 2 3.07 0.67 0
 11 -7 3 37.08 1.52 0
 11 -7 4 -0.9 0.67 0
 11 -7 5 70.83 2.2 0
 11 -7 6 0.31 0.89 0
 11 -7 7 41.07 1.92 0
 11 -7 8 0.71 0.95 0
 11 -7 9 40.41 2.09 0
 11 -7 10 1.12 1.2 0
 11 -7 11 3.31 1.28 0
 11 -7 12 1.02 1.16 0
 11 -7 13 72.63 3.01 0
 11 -5 9 55.15 2.33 0
 11 -5 10 2.27 1.18 0
 11 -5 11 6.61 1.27 0
 11 -5 12 3.04 1.17 0
 11 -5 13 62.82 2.85 0
 11 -5 14 53.97 2.66 0
 11 -5 15 6.23 1.68 0
 11 -3 11 0.22 0.85 0
 11 -3 12 38.77 2.14 0
 11 -3 13 1.12 1.19 0
 11 -3 14 18.11 1.94 0
 11 -3 15 30.44 2.28 0
 11 -1 15 22.71 1.95 0
 11 -1 16 2.47 1.32 0
 11 1 15 23.88 1.97 0
 11 3 16 0.15 1.27 0
 12 -10 8 -0.33 0.98 0
 12 -10 10 0.05 1.01 0
 12 -8 3 36.03 1.56 0
 12 -8 4 0.64 0.72 0
 12 -8 5 25.34 1.57 0
 12 -8 6 20.21 1.53 0
 12 -8 7 26.04 1.72 0
 12 -8 8 5.7 1.18 0
 12 -8 9 -0.99 1.08 0
 12 -8 11 95.48 3.25 0
 12 -8 12 10.21 1.61 0
 12 -6 6 0.07 0.7 0
 12 -6 7 24.18 1.63 0
 12 -6 8 -0.82 0.92 0
 12 -6 9 3.89 1.28 0
 12 -6 10 8.44 1.46 0
 12 -6 11 39.08 2.31 0
 12 -6 12 1.64 1.28 0
 12 -6 13 42.72 2.49 0
 12 -4 10 0.9 0.92 0
 12 -4 11 17.72 1.83 0
 12 -4 12 1.56 1.09 0
 12 -4 13 4.7 1.47 0
 12 -4 14 29.61 2.28 0
 12 -2 13 6.81 1.46 0
 12 -2 14 -0.19 1.14 0
 12 -2 15 12.83 1.84 0
 12 0 14 0.22 1.13 0
 13 -9 7 14.02 1.51 0
 13 -9 8 18.72 1.7 0
 13 -9 9 17.29 1.74 0
 13 -9 10 0.84 1.11 0
 13 -7 2 0.47 0.62 0
 13 -7 3 47.96 1.82 0
 13 -7 4 3.46 0.98 0
 13 -7 5 34.28 1.78 0
 13 -7 6 0.66 0.88 0
 13 -7 7 6.4 1.16 0
 13 -7 8 8.65 1.41 0
 13 -7 9 9.83 1.41 0
 13 -7 10 14 1.71 0
 13 -7 11 17.18 1.88 0
 13 -5 8 16.18 1.58 0
 13 -5 10 26.29 1.96 0
 13 -5 11 5.89 1.49 0
 13 -5 12 21.53 2.03 0
 13 -3 12 34.47 2.3 0
 13 -3 13 -0.78 1.15 0
 13 -3 14 0.96 1.23 0
 13 -1 14 5.46 1.54 0
 14 -8 7 22.8 1.76 0
 14 -8 8 -0.47 0.88 0
 14 -8 9 4.06 1.33 0
 14 -6 5 2.15 0.97 0
 14 -6 7 1.96 0.92 0
 14 -6 8 3.52 1.15 0
 14 -6 9 -0.51 1.09 0
 14 -6 10 30.99 2.16 0
 14 -6 11 1.62 1.36 0
 14 -4 10 31 2.17 0
 14 -4 12 18.21 1.98 0
 14 -2 13 2.35 1.43 0
 15 -7 5 -0.04 0.82 0
 15 -7 6 8.01 1.29 0
 15 -7 7 20.98 1.75 0
 15 -7 8 4.83 1.29 0
 15 -7 9 -0.69 0.96 0
 15 -5 8 4.46 1.33 0
 15 -5 9 1.48 1.19 0
 15 -5 10 -0.87 1.01 0
 15 -3 11 1.05 1.15 0
 16 -6 4 -0.09 0.8 0
 16 -6 5 1.68 0.96 0
 16 -6 6 0.82 0.98 0
 16 -6 7 8.44 1.4 0
 16 -6 8 6.28 1.29 0
 16 -4 9 0.48 1.22 0
 17 -5 7 1.41 1.16 0
 -10 6 5 16.2 0.76 0
 -10 10 5 2.38 0.87 0
 -10 10 6 -0.45 0.71 0
 -10 12 5 11.56 1.38 0
 -10 14 3 51.26 2.33 0
 -10 14 4 50.13 2.32 0
 -9 5 5 7.78 0.54 0
 -9 5 6 62.45 1.17 0
 -9 5 7 8.55 0.54 0
 -9 7 6 10.71 0.78 0
 -9 7 7 97.55 1.91 0
 -9 7 8 27.48 1.06 0
 -9 9 6 1.18 0.73 0
 -9 9 7 5.99 0.87 0
 -9 9 8 13.39 1.06 0
 -9 11 6 13.17 1.33 0
 -9 11 7 24.92 1.56 0
 -9 11 8 3.48 0.93 0
 -9 13 5 7.17 1.31 0
 -9 13 6 5.27 1.27 0
 -9 13 7 12.82 1.59 0
 -8 2 4 103.51 0.72 0
 -8 4 5 120.92 1.44 0
 -8 4 6 359.9 2.37 0
 -8 4 7 152.53 1.63 0
 -8 4 8 57.36 1.09 0
 -8 4 9 0.42 0.3 0
 -8 6 6 52.22 1.25 0
 -8 6 7 182.06 2.28 0
 -8 6 8 66.42 1.42 0
 -8 6 9 63.39 1.42 0
 -8 6 10 5.73 0.68 0
 -8 8 10 18.42 1.14 0
 -8 10 6 53.73 1.87 0
 -8 10 7 -0.45 0.71 0
 -8 10 8 0.8 0.82 0
 -8 10 9 3.25 0.87 0
 -8 10 10 10.43 1.19 0
 -8 12 5 0.33 1.01 0
 -8 12 6 24.09 1.69 0
 -8 12 7 13.79 1.47 0
 -8 12 8 5.33 1.19 0
 -8 12 9 8.22 1.23 0
 -8 14 4 42.95 2.27 0
 -8 14 5 2.63 1.3 0
 -8 14 6 0.69 1.24 0
 -8 14 7 36.69 2.11 0
 -8 14 8 62.69 2.55 0
 -7 3 7 14.03 0.52 0
 -7 3 9 9.09 0.52 0
 -7 3 10 -0.25 0.29 0
 -7 3 11 30.75 0.9 0
 -7 5 6 0.44 0.35 0
 -7 5 7 -0.46 0.3 0
 -7 5 8 16.01 0.75 0
 -7 5 9 0.57 0.42 0
 -7 5 10 8.99 0.69 0
 -7 5 11 -0.12 0.44 0
 -7 5 12 9.14 0.79 0
 -7 7 6 -0.35 0.49 0
 -7 7 7 42.91 1.31 0
 -7 7 8 0.56 0.49 0
 -7 7 11 123.05 2.48 0
 -7 7 12 -0.12 0.67 0
 -7 9 6 11.45 1.07 0
 -7 9 7 33.4 1.44 0
 -7 9 8 19.98 1.23 0
 -7 9 9 113.73 2.43 0
 -7 9 10 0.52 0.8 0
 -7 9 11 4.02 0.88 0
 -7 11 6 15.5 1.39 0
 -7 11 7 90.58 2.47 0
 -7 11 8 15.12 1.41 0
 -7 11 9 63.72 2.2 0
 -7 11 10 -0.08 0.82 0
 -7 11 11 25.02 1.67 0
 -7 13 5 5.9 1.19 0
 -7 13 6 6.52 1.29 0
 -7 13 7 -0.66 1.09 0
 -7 13 8 0.05 1.03 0
 -7 13 9 2.85 1.16 0
 -7 13 10 1.13 1.17 0
 -7 15 3 36.02 2.27 0
 -7 15 4 11.09 1.52 0
 -7 15 5 9.55 1.66 0
 -7 15 6 2.45 1.27 0
 -6 2 4 66.32 0.73 0
 -6 2 5 0.6 0.17 0
 -6 2 9 3.11 0.38 0
 -6 2 10 51.61 1.06 0
 -6 2 11 8.46 0.6 0
 -6 2 12 2.32 0.46 0
 -6 2 13 6.64 0.66 0
 -6 4 5 187.51 1.84 0
 -6 4 6 638.76 3.39 0
 -6 4 7 138.15 1.71 0
 -6 4 8 33 0.93 0
 -6 4 9 34.3 0.99 0
 -6 4 10 147.15 2.07 0
 -6 4 11 51.67 1.3 0
 -6 4 12 -0.05 0.47 0
 -6 6 6 38.3 1.14 0
 -6 6 7 47.58 1.26 0
 -6 6 8 2.44 0.56 0
 -6 6 9 10.93 0.85 0
 -6 6 10 3.71 0.67 0
 -6 6 13 0.22 0.6 0
 -6 8 10 15.58 1.14 0
 -6 8 11 100.95 2.3 0
 -6 8 12 1.23 0.73 0
 -6 8 13 22.29 1.41 0
 -6 8 14 2.99 0.9 0
 -6 10 6 25.6 1.43 0
 -6 10 8 5.55 1.04 0
 -6 10 9 75.6 2.22 0
 -6 10 10 43.14 1.83 0
 -6 10 11 17.18 1.42 0
 -6 10 12 -0.97 0.91 0
 -6 10 13 1.04 1.03 0
 -6 12 5 5.59 1.16 0
 -6 12 6 7.66 1.32 0
 -6 12 7 49.53 2.13 0
 -6 12 8 -0.25 1.02 0
 -6 12 9 6.77 1.19 0
 -6 12 10 5.86 1.32 0
 -6 12 11 -0.47 0.89 0
 -6 12 12 -0.41 1.07 0
 -6 14 4 2.84 1.32 0
 -6 14 5 29.57 2.05 0
 -6 14 6 7.11 1.36 0
 -6 14 7 14.85 1.76 0
 -6 14 8 1.18 1.17 0
 -6 14 9 0.5 1.09 0
 -6 14 10 27.22 2.12 0
 -5 1 3 202.65 0.86 0
 -5 1 4 122.29 0.74 0
 -5 1 5 130.32 0.93 0
 -5 1 6 447.29 1.97 0
 -5 1 7 18.49 0.51 0
 -5 1 9 25.34 0.74 0
 -5 1 10 362.63 2.77 0
 -5 1 11 4.23 0.52 0
 -5 1 12 32.17 1.05 0
 -5 3 7 0.24 0.25 0
 -5 3 8 23.05 0.76 0
 -5 3 9 153.33 1.93 0
 -5 3 10 -0.03 0.4 0
 -5 3 11 0.12 0.44 0
 -5 3 12 11.34 0.83 0
 -5 3 13 29.28 1.17 0
 -5 3 15 3.6 0.79 0
 -5 5 5 19.18 0.77 0
 -5 5 6 93.8 1.55 0
 -5 5 7 47.29 1.17 0
 -5 5 8 14.35 0.77 0
 -5 5 9 1.71 0.47 0
 -5 5 10 1.84 0.47 0
 -5 5 11 3.09 0.65 0
 -5 5 13 1.9 0.67 0
 -5 5 14 0.33 0.73 0
 -5 5 15 0.94 0.72 0
 -5 5 16 16.33 1.3 0
 -5 7 6 6.45 0.71 0
 -5 7 7 3.5 0.64 0
 -5 7 11 8.55 0.96 0
 -5 7 12 5.44 0.87 0
 -5 7 13 102.29 2.37 0
 -5 7 14 6.36 1.03 0
 -5 7 15 1.31 0.92 0
 -5 9 6 8.3 0.97 0
 -5 9 7 10.51 1.04 0
 -5 9 8 6.32 0.85 0
 -5 9 9 33.06 1.55 0
 -5 9 10 1.93 0.83 0
 -5 9 11 56.52 1.97 0
 -5 9 12 21.43 1.48 0
 -5 9 13 3.13 0.94 0
 -5 9 14 16.22 1.52 0
 -5 9 15 5.08 1.2 0
 -5 11 5 11.14 1.3 0
 -5 11 6 85.16 2.44 0
 -5 11 7 2.51 0.91 0
 -5 11 9 4.86 1.15 0
 -5 11 10 51.07 2.13 0
 -5 11 11 38.71 1.95 0
 -5 11 12 1.83 1.05 0
 -5 11 13 41.64 2.09 0
 -5 11 14 2.2 1.17 0
 -5 13 4 34.13 1.99 0
 -5 13 5 1.14 1.08 0
 -5 13 6 1.91 1.13 0
 -5 13 7 4.21 1.29 0
 -5 13 8 1.2 1.19 0
 -5 13 9 5.27 1.4 0
 -5 13 10 -0.02 1.07 0
 -5 13 11 0.81 1.05 0
 -5 13 12 0.02 1.13 0
 -5 15 5 1.87 1.41 0
 -5 15 6 20.91 2.01 0
 -5 15 7 10.1 1.72 0
 -4 0 6 63.85 0.83 0
 -4 0 10 136.12 1.84 0
 -4 2 4 68.97 0.83 0
 -4 2 5 766.94 2.92 0
 -4 2 6 52.9 0.88 0
 -4 2 8 44.52 0.97 0
 -4 2 9 64.75 1.27 0
 -4 2 10 30.52 0.96 0
 -4 2 11 111.51 1.89 0
 -4 2 12 0.12 0.47 0
 -4 2 13 5.22 0.71 0
 -4 2 15 40.14 1.52 0
 -4 4 6 35.31 0.92 0
 -4 4 7 1.3 0.36 0
 -4 4 8 28.66 0.96 0
 -4 4 9 84.72 1.67 0
 -4 4 10 3.84 0.56 0
 -4 4 11 12.21 0.88 0
 -4 4 14 17.26 1.18 0
 -4 4 15 3.23 0.82 0
 -4 4 16 18.73 1.38 0
 -4 4 17 48.48 1.9 0
 -4 6 6 18.99 0.88 0
 -4 6 7 1.8 0.46 0
 -4 6 9 23.1 1.08 0
 -4 6 12 55.54 1.73 0
 -4 6 13 15.66 1.18 0
 -4 6 14 2.16 0.77 0
 -4 6 15 51.35 1.88 0
 -4 6 16 83.06 2.38 0
 -4 6 17 62.14 2.21 0
 -4 8 8 12.11 1.02 0
 -4 8 9 3.4 0.82 0
 -4 8 10 54.98 1.82 0
 -4 8 11 61.97 1.98 0
 -4 8 12 -0.58 0.69 0
 -4 8 13 -0.8 0.89 0
 -4 8 14 36.28 1.81 0
 -4 8 15 142.33 3.1 0
 -4 8 16 6.95 1.2 0
 -4 10 6 26.76 1.46 0
 -4 10 7 30.73 1.54 0
 -4 10 8 0.87 0.73 0
 -4 10 9 109.81 2.66 0
 -4 10 10 1.03 1 0
 -4 10 12 7.35 1.23 0
 -4 10 14 16.96 1.64 0
 -4 10 15 39.27 2.04 0
 -4 10 16 1.73 1.16 0
 -4 12 5 0.57 0.83 0
 -4 12 6 98.57 2.76 0
 -4 12 7 15.95 1.56 0
 -4 12 8 5.44 1.2 0
 -4 12 9 17.69 1.68 0
 -4 12 10 56.67 2.36 0
 -4 12 11 1 1.21 0
 -4 12 12 6.19 1.28 0
 -4 12 13 1.91 1.19 0
 -4 12 14 3.28 1.33 0
 -4 14 4 11.5 1.51 0
 -4 14 5 8.07 1.46 0
 -4 14 6 2.43 1.36 0
 -4 14 7 0.41 1.05 0
 -4 14 9 1.81 1.21 0
 -4 14 10 16.07 1.87 0
 -4 16 2 17.06 2.05 0
 -4 16 3 2.7 1.29 0
 -3 1 3 563.52 1.71 0
 -3 1 4 14.87 0.39 0
 -3 1 5 -0 0.17 0
 -3 1 6 4.77 0.34 0
 -3 1 9 31.61 0.93 0
 -3 1 10 523.7 3.72 0
 -3 1 11 61.04 1.45 0
 -3 1 12 0.26 0.44 0
 -3 3 4 935.65 3.57 0
 -3 3 5 8.23 0.45 0
 -3 3 8 791.86 4.3 0
 -3 3 9 9.06 0.68 0
 -3 3 10 3 0.49 0
 -3 3 11 7.86 0.77 0
 -3 3 14 0.78 0.71 0
 -3 3 15 -0.68 0.68 0
 -3 3 16 8.33 1.05 0
 -3 3 17 55.02 1.99 0
 -3 5 5 14.54 0.71 0
 -3 5 6 42.4 1.11 0
 -3 5 7 243.22 2.64 0
 -3 5 8 62.82 1.46 0
 -3 5 9 130.1 2.23 0
 -3 5 10 -0.59 0.5 0
 -3 5 13 33.85 1.48 0
 -3 5 14 12.4 1.19 0
 -3 5 15 1.76 0.86 0
 -3 5 16 0.75 0.89 0
 -3 5 17 4.77 1.14 0
 -3 5 18 13.81 1.53 0
 -3 7 5 8.34 0.75 0
 -3 7 6 23.39 1.05 0
 -3 7 10 14.88 1.1 0
 -3 7 11 37.1 1.56 0
 -3 7 12 69.76 2.04 0
 -3 7 13 225.36 3.76 0
 -3 7 14 6.73 1.16 0
 -3 7 15 72.05 2.33 0
 -3 7 16 21.03 1.66 0
 -3 7 17 63.93 2.38 0
 -3 7 18 19.75 1.72 0
 -3 9 5 0.33 0.57 0
 -3 9 7 81.67 2.1 0
 -3 9 8 3.05 0.71 0
 -3 9 9 186.7 3.34 0
 -3 9 10 16.4 1.3 0
 -3 9 11 11.24 1.27 0
 -3 9 12 11.23 1.36 0
 -3 9 13 69.21 2.36 0
 -3 9 14 0.73 0.91 0
 -3 9 15 39.02 2.03 0
 -3 9 16 2.43 1.27 0
 -3 9 17 4.49 1.22 0
 -3 11 5 0.57 0.87 0
 -3 11 6 1.75 0.8 0
 -3 11 7 96.59 2.62 0
 -3 11 8 1.28 0.87 0
 -3 11 9 46.07 2.04 0
 -3 11 10 17.01 1.58 0
 -3 11 11 -0 0.9 0
 -3 11 12 -0.29 0.94 0
 -3 11 13 1.78 1.25 0
 -3 11 14 18.12 1.78 0
 -3 11 15 3.25 1.17 0
 -3 13 5 -1.04 1.06 0
 -3 13 7 12.74 1.63 0
 -3 13 8 1.08 1.13 0
 -3 13 10 14.32 1.76 0
 -3 13 11 1.67 1.22 0
 -3 13 12 1.76 1.24 0
 -3 13 13 1.56 1.29 0
 -3 15 3 2.44 1.18 0
 -3 15 4 0.54 1.18 0
 -3 15 5 -0.01 1.38 0
 -3 15 6 1.73 1.17 0
 -3 15 7 3.8 1.51 0
 -3 15 8 11.47 1.64 0
 -2 0 4 22.13 0.47 0
 -2 0 6 0.81 0.23 0
 -2 0 10 32.48 1.06 0
 -2 0 12 27.03 1.12 0
 -2 2 3 289.95 1.66 0
 -2 2 4 128.42 1.25 0
 -2 2 5 1360.61 4.3 0
 -2 2 6 157.98 1.64 0
 -2 2 8 86.73 1.46 0
 -2 2 9 584.84 3.92 0
 -2 2 10 20.56 0.94 0
 -2 2 11 29.39 1.13 0
 -2 2 12 6.51 0.83 0
 -2 2 14 52.49 1.73 0
 -2 2 15 59.52 1.91 0
 -2 2 16 43.75 1.79 0
 -2 4 8 2.41 0.45 0
 -2 4 9 401.93 3.59 0
 -2 4 10 58.2 1.52 0
 -2 4 13 162.75 2.95 0
 -2 4 14 58 1.89 0
 -2 4 15 107.92 2.56 0
 -2 4 16 11.32 1.3 0
 -2 4 17 3.91 1 0
 -2 4 18 5.38 1.19 0
 -2 4 19 12.45 1.51 0
 -2 6 5 71.69 1.51 0
 -2 6 6 0.2 0.41 0
 -2 6 8 63.47 1.59 0
 -2 6 11 3.94 0.75 0
 -2 6 12 20.38 1.28 0
 -2 6 13 33.07 1.58 0
 -2 6 14 34.4 1.7 0
 -2 6 15 18.06 1.43 0
 -2 6 16 14.92 1.47 0
 -2 6 17 69.03 2.43 0
 -2 6 18 1.66 1.08 0
 -2 6 19 -0.35 0.96 0
 -2 8 9 107.92 2.4 0
 -2 8 10 31.18 1.51 0
 -2 8 11 1.27 0.88 0
 -2 8 12 12.84 1.3 0
 -2 8 13 48.74 2 0
 -2 8 14 75.46 2.44 0
 -2 8 15 15.61 1.61 0
 -2 8 16 5.04 1.24 0
 -2 8 17 64.66 2.49 0
 -2 8 18 30.45 1.99 0
 -2 10 6 55.87 1.92 0
 -2 10 7 87 2.34 0
 -2 10 8 12.94 1.25 0
 -2 10 9 37.84 1.75 0
 -2 10 10 61.32 2.22 0
 -2 10 11 30.31 1.8 0
 -2 10 12 0.3 0.97 0
 -2 10 13 46.2 2.18 0
 -2 10 14 7.45 1.35 0
 -2 10 15 46.53 2.3 0
 -2 10 16 0.49 1.08 0
 -2 12 4 98.89 2.73 0
 -2 12 5 26.03 1.69 0
 -2 12 6 136.58 3.19 0
 -2 12 8 39.56 2.05 0
 -2 12 10 182.4 3.87 0
 -2 12 11 -0.68 1.13 0
 -2 12 12 0.34 1.26 0
 -2 12 13 33.21 2.18 0
 -2 12 14 91.55 3.07 0
 -2 14 3 0.34 1.15 0
 -2 14 4 15.68 1.73 0
 -2 14 5 7.28 1.56 0
 -2 14 6 2.58 1.17 0
 -2 14 7 6.65 1.55 0
 -2 14 8 1.83 1.25 0
 -2 14 9 -1 1.07 0
 -2 14 10 0.55 1.37 0
 -2 14 11 4.53 1.6 0
 -2 16 1 -0.66 1.13 0
 -2 16 2 -0.99 1.32 0
 -2 16 3 -0.13 1.45 0
 -2 16 4 5.72 1.66 0
 -2 16 5 2.24 1.52 0
 -1 -1 5 136.87 1.36 0
 -1 -1 6 574.04 3.05 0
 -1 -1 9 21.96 0.87 0
 -1 1 2 835.52 2.1 0
 -1 1 3 0.31 0.18 0
 -1 1 4 1345.87 3.72 0
 -1 1 5 138.38 1.42 0
 -1 1 6 565.48 3.05 0
 -1 1 8 0.5 0.28 0
 -1 1 9 22.17 0.88 0
 -1 1 10 2.47 0.55 0
 -1 1 11 33.78 1.22 0
 -1 1 15 25.83 1.44 0
 -1 3 4 755.69 3.41 0
 -1 3 5 915.26 4.02 0
 -1 3 8 934.62 5 0
 -1 3 9 433.78 3.67 0
 -1 3 10 25.46 1.07 0
 -1 3 11 22.99 1.11 0
 -1 3 13 41.05 1.57 0
 -1 3 15 36.86 1.68 0
 -1 3 16 17.99 1.48 0
 -1 3 18 2.93 1.14 0
 -1 5 5 27.75 0.93 0
 -1 5 6 101.73 1.72 0
 -1 5 7 404.04 3.52 0
 -1 5 8 513.19 4.14 0
 -1 5 9 277.84 3.25 0
 -1 5 12 71.04 1.97 0
 -1 5 14 6.99 1.08 0
 -1 5 15 5.05 1.16 0
 -1 5 16 3.39 1.04 0
 -1 5 17 3.68 1.06 0
 -1 5 18 40.48 2.1 0
 -1 5 20 0.98 1.04 0
 -1 7 5 476.52 4.08 0
 -1 7 6 7.17 0.76 0
 -1 7 11 17.05 1.25 0
 -1 7 12 13.6 1.26 0
 -1 7 13 4.93 0.99 0
 -1 7 15 18.36 1.6 0
 -1 7 16 71.04 2.53 0
 -1 7 17 0.58 1.1 0
 -1 7 18 6.02 1.32 0
 -1 7 19 1.65 1.16 0
 -1 9 5 82.31 2.05 0
 -1 9 6 15.46 1.11 0
 -1 9 7 51.81 1.77 0
 -1 9 8 17.6 1.29 0
 -1 9 9 6.69 0.91 0
 -1 9 10 19.54 1.45 0
 -1 9 11 0.95 0.83 0
 -1 9 13 20.34 1.64 0
 -1 9 14 19 1.72 0
 -1 9 16 10.73 1.63 0
 -1 9 17 1.22 1.36 0
 -1 11 4 176.73 3.45 0
 -1 11 5 9 1.2 0
 -1 11 6 42.44 1.87 0
 -1 11 7 46.87 1.96 0
 -1 11 8 73.35 2.42 0
 -1 11 10 45.06 2.13 0
 -1 11 11 1.61 1.11 0
 -1 11 12 9.47 1.52 0
 -1 11 13 36.69 2.19 0
 -1 11 14 6.82 1.48 0
 -1 11 15 3.11 1.37 0
 -1 13 5 -0.66 0.87 0
 -1 13 6 0.64 1.1 0
 -1 13 7 74 2.69 0
 -1 13 8 9.65 1.42 0
 -1 13 9 31.32 2.09 0
 -1 13 10 32.37 2.16 0
 -1 13 11 1.58 1.42 0
 -1 13 12 3.04 1.41 0
 -1 13 13 2.18 1.33 0
 -1 15 2 91.15 3.11 0
 -1 15 3 12.37 1.76 0
 -1 15 4 3.73 1.53 0
 -1 15 5 -0.13 1.38 0
 -1 15 6 49.74 2.54 0
 -1 15 7 20.05 2.04 0
 -1 15 8 -0.55 1.44 0
 0 0 2 1523.73 2.85 0
 0 0 4 9814.18 10.42 0
 0 0 6 1714.28 5.49 0
 0 0 10 74.37 1.64 0
 0 2 2 703.59 2.53 0
 0 2 3 29.54 0.64 0
 0 2 4 280.45 1.98 0
 0 2 5 119.7 1.5 0
 0 2 6 444.28 2.97 0
 0 2 10 7.52 0.72 0
 0 2 11 10.34 0.87 0
 0 2 13 211.63 3.32 0
 0 2 14 2.15 0.72 0
 0 2 15 0.15 0.7 0
 0 2 16 6.49 1.05 0
 0 2 17 144.26 3.24 0
 0 4 3 235.84 2.08 0
 0 4 4 815.53 4.01 0
 0 4 7 53.83 1.3 0
 0 4 8 319.07 3.22 0
 0 4 12 4.74 0.86 0
 0 4 13 19.74 1.29 0
 0 4 14 5.29 0.97 0
 0 4 15 13.53 1.35 0
 0 4 16 0.43 0.93 0
 0 4 17 32.39 1.89 0
 0 4 18 10.07 1.51 0
 0 6 5 5.73 0.61 0
 0 6 6 12.52 0.81 0
 0 6 7 7.54 0.77 0
 0 6 8 -0.17 0.54 0
 0 6 11 12.93 1.11 0
 0 6 12 88.21 2.33 0
 0 6 13 23.38 1.46 0
 0 6 14 6.53 1.16 0
 0 6 15 15.15 1.54 0
 0 6 16 48.46 2.19 0
 0 6 17 18.53 1.79 0
 0 6 18 26.51 1.97 0
 0 6 19 11.13 1.63 0
 0 8 7 2.72 0.71 0
 0 8 8 2.49 0.67 0
 0 8 9 4.34 0.83 0
 0 8 10 2.64 0.77 0
 0 8 12 18.48 1.47 0
 0 8 13 7.81 1.23 0
 0 8 14 9.27 1.32 0
 0 8 15 8.43 1.4 0
 0 8 16 3.31 1.36 0
 0 8 18 26.38 2.05 0
 0 10 4 11.4 1.09 0
 0 10 5 167.88 3.1 0
 0 10 6 1.53 0.66 0
 0 10 7 107.67 2.63 0
 0 10 8 -0.36 0.87 0
 0 10 9 7.26 1.13 0
 0 10 12 -0.93 0.85 0
 0 10 13 5.29 1.18 0
 0 10 14 6.72 1.36 0
 0 10 15 36.34 2.2 0
 0 10 16 1.93 1.41 0
 0 12 4 1.45 1.06 0
 0 12 5 13.89 1.45 0
 0 12 6 5.64 1.11 0
 0 12 7 34.09 1.92 0
 0 12 8 0.49 1 0
 0 12 9 -0.99 1.15 0
 0 12 10 14.68 1.75 0
 0 12 11 0.7 1.15 0
 0 12 12 0.3 1.09 0
 0 12 13 21.53 2.01 0
 0 14 2 0.53 1.27 0
 0 14 3 11.09 1.6 0
 0 14 4 86.66 2.9 0
 0 14 6 1.93 1.37 0
 0 14 7 1.21 1.1 0
 0 14 8 23.13 2.06 0
 0 14 9 22.77 2.08 0
 0 14 10 2.39 1.55 0
 0 14 11 21.71 2.15 0
 0 16 0 57.99 2.72 0
 0 16 1 1.96 1.37 0
 0 16 3 5.8 1.48 0
 0 16 4 9.73 1.55 0
 0 16 5 12.45 1.74 0
 1 -1 4 4.32 0.36 0
 1 -1 5 31.42 0.8 0
 1 -1 6 27.29 0.82 0
 1 -1 8 8.94 0.66 0
 1 -1 9 58.08 1.44 0
 1 -1 10 33.44 1.2 0
 1 1 1 7.82 0.25 0
 1 1 2 16.43 0.42 0
 1 1 3 0.17 0.23 0
 1 1 4 4.29 0.37 0
 1 1 5 32.5 0.82 0
 1 1 6 27.74 0.82 0
 1 1 9 58.66 1.43 0
 1 1 10 33.64 1.23 0
 1 1 11 0.1 0.58 0
 1 1 13 23.73 1.32 0
 1 1 14 2 0.77 0
 1 1 15 4.38 0.95 0
 1 1 16 187.32 3.73 0
 1 3 3 165.49 1.62 0
 1 3 5 2.39 0.34 0
 1 3 7 3.16 0.43 0
 1 3 8 20.22 0.92 0
 1 3 10 0.25 0.47 0
 1 3 12 46.47 1.64 0
 1 3 13 153.68 3.07 0
 1 3 15 47.94 2 0
 1 3 16 3.98 1.1 0
 1 3 17 11.2 1.43 0
 1 3 18 0.03 0.97 0
 1 5 6 307.19 3.08 0
 1 5 7 147.73 2.3 0
 1 5 8 216.87 2.92 0
 1 5 11 24.46 1.28 0
 1 5 12 243.02 3.76 0
 1 5 13 38.52 1.72 0
 1 5 14 25.35 1.63 0
 1 5 15 8.46 1.18 0
 1 5 16 16.84 1.64 0
 1 5 17 0.67 0.97 0
 1 5 18 -1.01 1.23 0
 1 5 19 -0.47 1.07 0
 1 5 20 3.51 1.43 0
 1 7 4 8.41 0.76 0
 1 7 5 148.72 2.43 0
 1 7 9 80.97 2.1 0
 1 7 10 -0.6 0.53 0
 1 7 11 101.2 2.5 0
 1 7 12 26.59 1.57 0
 1 7 14 32.77 1.89 0
 1 7 15 3.58 1.3 0
 1 7 16 3.41 1.13 0
 1 7 18 3.44 1.43 0
 1 9 5 1.07 0.64 0
 1 9 6 14.69 1.1 0
 1 9 8 30.49 1.52 0
 1 9 9 3.29 0.81 0
 1 9 10 3.97 0.97 0
 1 9 11 14.72 1.46 0
 1 9 12 17.89 1.58 0
 1 9 13 7.87 1.25 0
 1 9 14 11.19 1.38 0
 1 9 15 44.66 2.32 0
 1 9 16 27.58 2.13 0
 1 9 17 65.44 2.75 0
 1 11 4 -0.32 0.76 0
 1 11 5 4.47 0.98 0
 1 11 6 11.43 1.3 0
 1 11 7 25.54 1.62 0
 1 11 8 8.34 1.2 0
 1 11 9 24.42 1.71 0
 1 11 10 46.9 2.19 0
 1 11 11 23.56 1.88 0
 1 11 12 2.34 1.35 0
 1 11 13 30.56 2.1 0
 1 11 14 39.77 2.37 0
 1 11 15 54.06 2.64 0
 1 13 2 23.94 1.73 0
 1 13 3 3.35 1.21 0
 1 13 4 1.46 0.96 0
 1 13 5 15.51 1.68 0
 1 13 6 6.31 1.19 0
 1 13 7 58.95 2.52 0
 1 13 8 4.96 1.24 0
 1 13 9 6.84 1.57 0
 1 13 10 1.16 1.14 0
 1 13 11 36.22 2.31 0
 1 13 12 0.38 1.4 0
 1 15 0 16.75 1.83 0
 1 15 2 82.77 2.97 0
 1 15 3 1.19 1.44 0
 1 15 4 7.92 1.67 0
 1 15 5 23.58 2.1 0
 1 15 6 65.18 2.81 0
 1 15 7 32.16 2.29 0
 1 15 8 2.89 1.42 0
 2 0 2 25.15 0.53 0
 2 0 4 4904.9 8.5 0
 2 0 6 709.32 3.93 0
 2 0 8 702.13 4.53 0
 2 0 14 12.41 1.25 0
 2 2 1 576.1 2.29 0
 2 2 2 486.1 2.34 0
 2 2 3 0.73 0.26 0
 2 2 4 389.15 2.59 0
 2 2 5 49.43 1.07 0
 2 2 8 0.39 0.42 0
 2 2 9 9.53 0.78 0
 2 2 12 1.34 0.6 0
 2 2 13 -0.02 0.69 0
 2 2 14 56.65 2.03 0
 2 2 15 5.47 1.1 0
 2 2 16 32.65 1.88 0
 2 2 17 37.18 2.01 0
 2 4 3 31.71 0.86 0
 2 4 7 97.71 1.85 0
 2 4 8 739.79 5.11 0
 2 4 9 319.36 3.59 0
 2 4 11 1.39 0.65 0
 2 4 13 187.6 3.51 0
 2 4 14 184.63 3.63 0
 2 4 15 42.16 1.99 0
 2 4 17 7.37 1.47 0
 2 4 18 13.92 1.73 0
 2 6 3 37.6 1.1 0
 2 6 6 95.13 1.96 0
 2 6 7 70.59 1.73 0
 2 6 11 4.76 0.88 0
 2 6 12 26.41 1.51 0
 2 6 13 39.9 1.85 0
 2 6 14 22.74 1.66 0
 2 6 15 69.59 2.5 0
 2 6 16 14.78 1.69 0
 2 6 17 1.95 1.22 0
 2 6 18 3.74 1.38 0
 2 6 19 30.36 2.23 0
 2 8 7 1.64 0.56 0
 2 8 8 1.13 0.65 0
 2 8 9 36.84 1.65 0
 2 8 10 2.36 0.94 0
 2 8 11 15.9 1.44 0
 2 8 12 7.36 1.2 0
 2 8 13 15.55 1.54 0
 2 8 14 2.99 1.2 0
 2 8 15 40.58 2.23 0
 2 8 16 14.26 1.78 0
 2 8 18 1.42 1.26 0
 2 10 4 42.02 1.66 0
 2 10 5 22.07 1.38 0
 2 10 6 3.52 0.85 0
 2 10 7 4.57 0.97 0
 2 10 8 44.81 1.92 0
 2 10 9 4.83 1.01 0
 2 10 10 6.04 1.1 0
 2 10 11 14.45 1.59 0
 2 10 13 0.07 1.07 0
 2 10 14 5.69 1.32 0
 2 10 15 10.9 1.78 0
 2 10 16 2.13 1.31 0
 2 12 2 -0.4 0.72 0
 2 12 3 2.22 0.95 0
 2 12 4 0.77 0.86 0
 2 12 5 1.72 1.06 0
 2 12 6 -0.16 0.82 0
 2 12 7 34.35 1.97 0
 2 12 9 40.9 2.17 0
 2 12 10 11.9 1.72 0
 2 12 11 0.15 1.07 0
 2 12 12 5.1 1.61 0
 2 12 13 9.1 1.58 0
 2 12 14 22.57 2.19 0
 2 14 1 7.99 1.46 0
 2 14 2 50.86 2.37 0
 2 14 3 31.26 2.05 0
 2 14 4 23.88 1.93 0
 2 14 5 -0.97 1.03 0
 2 14 6 43.12 2.32 0
 2 14 7 67.64 2.77 0
 2 14 8 1.72 1.43 0
 2 14 9 53.28 2.65 0
 2 14 10 0.9 1.39 0
 2 16 -2 0.8 1.42 0
 2 16 0 1.81 1.23 0
 2 16 2 2.75 1.33 0
 2 16 3 1.84 1.41 0
 2 16 4 4.76 1.69 0
 3 -1 3 534.63 2.78 0
 3 -1 4 805.54 3.76 0
 3 -1 5 23.9 0.78 0
 3 -1 8 27.11 1.03 0
 3 -1 9 1.58 0.46 0
 3 1 0 2955.94 3.98 0
 3 1 1 534.38 2.09 0
 3 1 2 684.65 2.75 0
 3 1 3 541.02 2.78 0
 3 1 4 803.19 3.74 0
 3 1 5 23.02 0.76 0
 3 1 9 2.2 0.49 0
 3 1 12 0.48 0.57 0
 3 1 13 10.73 1.17 0
 3 1 14 34.57 1.7 0
 3 1 15 3.81 1.05 0
 3 1 16 89.93 2.73 0
 3 3 3 1400.4 4.97 0
 3 3 4 367.23 2.77 0
 3 3 8 239.52 2.95 0
 3 3 9 83.54 1.89 0
 3 3 11 68.81 1.91 0
 3 3 12 38.47 1.61 0
 3 3 13 2.78 0.79 0
 3 3 14 1.54 0.8 0
 3 3 15 30.08 1.78 0
 3 3 16 46.53 2.2 0
 3 3 17 -0.34 1.23 0
 3 3 18 0.25 1.32 0
 3 5 2 13.05 0.65 0
 3 5 3 43.83 1.09 0
 3 5 4 371.83 3.2 0
 3 5 5 110.34 1.92 0
 3 5 6 18.8 0.92 0
 3 5 7 17.74 0.98 0
 3 5 10 64.3 1.9 0
 3 5 11 0.05 0.67 0
 3 5 12 5.05 0.89 0
 3 5 13 36 1.76 0
 3 5 14 1.03 1.07 0
 3 5 15 1.87 1.02 0
 3 5 16 13.1 1.64 0
 3 5 17 26.91 2.01 0
 3 5 18 3.77 1.53 0
 3 5 19 0.62 1.44 0
 3 7 2 187.65 2.5 0
 3 7 3 137.06 2.24 0
 3 7 4 47.91 1.41 0
 3 7 8 37.33 1.51 0
 3 7 9 4.39 0.85 0
 3 7 10 4.75 0.96 0
 3 7 11 37.12 1.74 0
 3 7 12 2.4 0.85 0
 3 7 13 0.61 1.09 0
 3 7 14 0.68 0.91 0
 3 7 15 2.01 1.33 0
 3 7 16 2.19 1.14 0
 3 7 17 36.55 2.29 0
 3 7 18 4.2 1.49 0
 3 9 4 0.97 0.56 0
 3 9 5 75.1 2.02 0
 3 9 6 4 0.83 0
 3 9 7 15.94 1.24 0
 3 9 8 1.27 0.78 0
 3 9 9 7.8 1.06 0
 3 9 10 1.01 0.77 0
 3 9 11 25.91 1.76 0
 3 9 13 0.83 1 0
 3 9 14 0.96 1.34 0
 3 9 16 7.8 1.73 0
 3 9 17 39.76 2.49 0
 3 11 2 9.12 1.12 0
 3 11 3 48.78 1.88 0
 3 11 4 88.71 2.46 0
 3 11 5 0.44 0.74 0
 3 11 6 7.14 1.06 0
 3 11 9 3.15 1.13 0
 3 11 11 55.75 2.5 0
 3 11 12 45.35 2.43 0
 3 11 13 -0.38 1.08 0
 3 11 14 0.05 1.44 0
 3 11 15 91.36 3.29 0
 3 13 1 4.13 1.05 0
 3 13 2 22.21 1.66 0
 3 13 4 0.58 1.16 0
 3 13 5 5.39 1.24 0
 3 13 7 8.77 1.53 0
 3 13 9 8.22 1.43 0
 3 13 10 0.88 1.47 0
 3 13 11 5.44 1.44 0
 3 13 12 9.04 1.66 0
 3 15 -1 -0.78 1.04 0
 3 15 0 42.05 2.31 0
 3 15 1 1.25 1.22 0
 3 15 2 0.43 1.06 0
 3 15 3 9.15 1.52 0
 3 15 4 35.13 2.3 0
 3 15 6 1.17 1.52 0
 3 15 7 -0.36 1.5 0
 4 0 0 2379.31 3.86 0
 4 0 2 54.84 0.88 0
 4 0 4 263.78 2.29 0
 4 0 8 92.22 1.9 0
 4 2 -1 1972.81 3.73 0
 4 2 0 224.65 1.45 0
 4 2 2 42.77 0.85 0
 4 2 3 690.95 3.46 0
 4 2 4 22.94 0.75 0
 4 2 5 196.04 2.19 0
 4 2 6 0.88 0.39 0
 4 2 8 65.3 1.6 0
 4 2 12 11.42 1.09 0
 4 2 13 26.29 1.57 0
 4 2 14 194.9 3.84 0
 4 2 15 0.1 0.95 0
 4 2 16 76.85 2.67 0
 4 2 17 9.76 1.41 0
 4 4 0 27.51 0.74 0
 4 4 1 88.24 1.3 0
 4 4 2 9.29 0.54 0
 4 4 3 234.19 2.33 0
 4 4 4 0.04 0.31 0
 4 4 5 90.1 1.68 0
 4 4 6 17.19 0.88 0
 4 4 7 0.25 0.43 0
 4 4 8 181.52 2.77 0
 4 4 10 52.75 1.7 0
 4 4 11 0.42 0.59 0
 4 4 12 225.22 3.78 0
 4 4 14 250.95 4.35 0
 4 4 15 44.17 2.14 0
 4 4 16 13.91 1.63 0
 4 4 17 37.66 2.21 0
 4 4 18 81.21 3 0
 4 4 19 25.24 2.15 0
 4 6 2 8.88 0.67 0
 4 6 3 247.31 2.79 0
 4 6 4 51.76 1.37 0
 4 6 5 10.19 0.83 0
 4 6 10 13.36 1.19 0
 4 6 11 31.82 1.6 0
 4 6 12 145.7 3.17 0
 4 6 13 110.72 2.92 0
 4 6 14 14.72 1.58 0
 4 6 17 3.13 1.47 0
 4 6 18 5.02 1.44 0
 4 8 1 72.15 1.72 0
 4 8 6 9.31 0.97 0
 4 8 9 65.69 2.13 0
 4 8 13 18.74 1.72 0
 4 8 14 -0.65 1.27 0
 4 8 15 44.97 2.38 0
 4 8 17 28.41 2.27 0
 4 10 1 3.88 0.81 0
 4 10 3 61.22 1.96 0
 4 10 4 -0.44 0.58 0
 4 10 5 -0.65 0.58 0
 4 10 7 12.32 1.31 0
 4 10 8 9.16 1.15 0
 4 10 9 31.26 1.84 0
 4 10 11 53.88 2.41 0
 4 10 12 22.86 1.88 0
 4 10 13 23.01 2.02 0
 4 10 14 13.16 1.69 0
 4 12 0 111.18 2.75 0
 4 12 1 0.94 0.85 0
 4 12 2 5.74 1.2 0
 4 12 3 23.6 1.61 0
 4 12 4 49.68 2.07 0
 4 12 5 2.44 1.15 0
 4 12 6 -0.3 0.93 0
 4 12 7 5.26 1.16 0
 4 12 8 6 1.46 0
 4 12 9 33 2.06 0
 4 12 10 3.35 1.29 0
 4 12 12 -1.8 1.09 0
 4 12 13 64.68 2.9 0
 4 14 -1 -0.04 1.2 0
 4 14 0 10.36 1.42 0
 4 14 1 -0.38 1.01 0
 4 14 2 18.61 1.81 0
 4 14 3 0.2 1.27 0
 4 14 5 13.35 1.83 0
 4 14 7 45.53 2.5 0
 4 14 8 23.76 2.14 0
 4 16 -3 2.2 1.49 0
 4 16 -2 15.66 1.93 0
 4 16 0 28.1 2.18 0
 4 16 1 -0.2 1.21 0
 4 16 2 9.25 1.76 0
 5 -1 5 234.83 2.47 0
 5 -1 6 726.13 4.58 0
 5 -1 7 243.7 2.87 0
 5 -1 8 -0.05 0.37 0
 5 1 -1 58.07 0.6 0
 5 1 0 396.83 1.82 0
 5 1 1 697.85 2.81 0
 5 1 2 1008.52 3.82 0
 5 1 3 73.32 1.22 0
 5 1 4 237.86 2.27 0
 5 1 5 240.71 2.5 0
 5 1 6 733.49 4.58 0
 5 1 7 240.11 2.86 0
 5 1 8 0.43 0.52 0
 5 1 11 151.23 2.93 0
 5 1 12 9.61 1.11 0
 5 1 13 -0.84 0.83 0
 5 1 14 61.69 2.27 0
 5 1 15 53.99 2.27 0
 5 3 -1 638.64 2.67 0
 5 3 0 97.53 1.17 0
 5 3 1 712.73 3.32 0
 5 3 2 51.03 1.03 0
 5 3 3 18.52 0.71 0
 5 3 4 -0.04 0.28 0
 5 3 5 268.29 2.78 0
 5 3 6 2.46 0.47 0
 5 3 7 372.06 3.68 0
 5 3 8 139.08 2.5 0
 5 3 10 53.91 1.76 0
 5 3 11 234 3.63 0
 5 3 12 55.07 1.95 0
 5 3 15 67.59 2.53 0
 5 3 16 8.03 1.5 0
 5 3 17 34.47 2.21 0
 5 3 18 8.76 1.5 0
 5 5 0 118.07 1.66 0
 5 5 1 49.41 1.12 0
 5 5 2 6.45 0.57 0
 5 5 3 0.2 0.37 0
 5 5 4 0.08 0.33 0
 5 5 5 25.39 1.04 0
 5 5 6 85.25 1.83 0
 5 5 9 35.61 1.49 0
 5 5 10 0.04 0.6 0
 5 5 11 16.24 1.32 0
 5 5 12 117.98 2.87 0
 5 5 13 59.74 2.28 0
 5 5 14 11.34 1.56 0
 5 5 15 1.09 1.25 0
 5 5 16 18.41 1.85 0
 5 5 17 25.93 2.11 0
 5 7 0 177.88 2.42 0
 5 7 1 53.21 1.39 0
 5 7 2 101.59 1.95 0
 5 7 3 29.18 1.16 0
 5 7 8 30.35 1.47 0
 5 7 9 22.72 1.42 0
 5 7 10 28.24 1.57 0
 5 7 11 0.47 0.97 0
 5 7 12 19.81 1.6 0
 5 7 13 18.14 1.66 0
 5 7 14 1.62 1.18 0
 5 7 15 1.44 1.36 0
 5 7 16 5.37 1.61 0
 5 7 17 16.46 1.96 0
 5 9 2 2.37 0.59 0
 5 9 3 0.2 0.54 0
 5 9 4 18.29 1.2 0
 5 9 5 91.78 2.3 0
 5 9 6 2.38 0.83 0
 5 9 8 10.21 1.28 0
 5 9 9 6.53 1.04 0
 5 9 10 0.74 1.07 0
 5 9 11 1.28 0.99 0
 5 9 12 21.55 1.81 0
 5 9 13 9.24 1.62 0
 5 9 14 -0.33 1.2 0
 5 9 15 1.48 1.19 0
 5 9 16 6.61 1.68 0
 5 11 0 78.64 2.22 0
 5 11 1 20.28 1.41 0
 5 11 2 2.09 0.8 0
 5 11 3 2.37 0.83 0
 5 11 5 12.64 1.34 0
 5 11 6 24.58 1.69 0
 5 11 7 38.55 2.01 0
 5 11 8 19.49 1.69 0
 5 11 9 17.83 1.77 0
 5 11 10 8.11 1.5 0
 5 11 11 7.12 1.34 0
 5 11 12 70.89 2.86 0
 5 11 13 6.79 1.68 0
 5 11 14 -0.68 1.27 0
 5 13 -2 6.21 1.1 0
 5 13 -1 22.32 1.68 0
 5 13 0 68.07 2.41 0
 5 13 2 72.08 2.52 0
 5 13 3 5.12 1.14 0
 5 13 4 21.28 1.79 0
 5 13 5 8.91 1.33 0
 5 13 6 123.47 3.34 0
 5 13 7 72.48 2.76 0
 5 13 9 19.2 2.01 0
 5 13 10 49.28 2.65 0
 5 13 11 14.2 1.87 0
 5 15 -4 12.92 1.58 0
 5 15 -3 15.27 1.74 0
 5 15 -2 14.27 1.74 0
 5 15 -1 28.14 2.05 0
 5 15 0 1.53 1.23 0
 5 15 1 5.58 1.42 0
 5 15 2 44.9 2.39 0
 5 15 3 0.44 1.14 0
 5 15 4 6.13 1.61 0
 5 15 5 2.5 1.45 0
 5 15 6 59.24 2.76 0
 6 0 2 35.31 0.83 0
 6 0 4 413.91 3.12 0
 6 0 6 7.77 0.67 0
 6 0 8 465.44 4.33 0
 6 0 10 3.07 0.65 0
 6 0 12 306.97 4.38 0
 6 2 -3 77.19 0.56 0
 6 2 -2 477.94 1.69 0
 6 2 -1 105.67 0.99 0
 6 2 0 70.79 0.97 0
 6 2 1 117.96 1.36 0
 6 2 2 149.99 1.68 0
 6 2 3 492.78 3.21 0
 6 2 5 0.15 0.33 0
 6 2 6 73.29 1.6 0
 6 2 7 296.96 3.35 0
 6 2 10 10.33 1.01 0
 6 2 12 101.77 2.61 0
 6 2 13 1.73 1.02 0
 6 2 14 44.64 2.08 0
 6 2 16 2.43 1.38 0
 6 4 -2 669.22 3.06 0
 6 4 -1 122.02 1.43 0
 6 4 0 122.91 1.53 0
 6 4 1 0.15 0.31 0
 6 4 2 30.92 0.92 0
 6 4 3 25.08 0.91 0
 6 4 4 0.07 0.33 0
 6 4 5 19.91 0.95 0
 6 4 6 14.21 0.91 0
 6 4 9 34.2 1.47 0
 6 4 10 6.4 1.01 0
 6 4 11 5.23 0.94 0
 6 4 12 24.11 1.55 0
 6 4 13 4.7 1.11 0
 6 4 14 31.63 1.94 0
 6 4 15 13.52 1.62 0
 6 4 16 0.84 1.16 0
 6 4 17 5.59 1.67 0
 6 4 18 18.61 2.05 0
 6 6 -1 385.64 3.11 0
 6 6 0 95.29 1.7 0
 6 6 2 149.03 2.21 0
 6 6 3 281.02 3.11 0
 6 6 4 7.05 0.79 0
 6 6 7 220.99 3.32 0
 6 6 9 87.83 2.31 0
 6 6 10 1.13 0.88 0
 6 6 11 114.5 2.86 0
 6 6 12 3.44 1.16 0
 6 6 13 117.93 3.16 0
 6 6 14 8.23 1.54 0
 6 6 15 1.33 1.39 0
 6 6 16 3.79 1.53 0
 6 6 17 12.7 1.88 0
 6 8 -1 140.19 2.35 0
 6 8 0 -0.13 0.44 0
 6 8 5 65.12 1.9 0
 6 8 7 235.16 3.78 0
 6 8 8 66.23 2.17 0
 6 8 9 141.64 3.11 0
 6 8 11 106.46 2.96 0
 6 8 12 16.95 1.69 0
 6 8 13 167.26 3.83 0
 6 8 14 5.46 1.38 0
 6 8 15 0.22 1.27 0
 6 8 16 17.73 2.08 0
 6 10 0 0.51 0.69 0
 6 10 1 27.95 1.39 0
 6 10 2 2.31 0.78 0
 6 10 3 2.46 0.84 0
 6 10 4 0.19 0.68 0
 6 10 5 24.12 1.54 0
 6 10 6 4.65 1 0
 6 10 7 8.65 1.17 0
 6 10 8 2.68 1.1 0
 6 10 9 0.16 1.11 0
 6 10 10 10.59 1.41 0
 6 10 11 0.98 1.05 0
 6 10 13 12.17 1.82 0
 6 10 14 0.84 1.52 0
 6 12 -3 30.87 1.64 0
 6 12 -2 3.25 0.95 0
 6 12 0 0.98 0.97 0
 6 12 1 0.65 0.88 0
 6 12 2 -0.57 0.84 0
 6 12 3 6.81 1.19 0
 6 12 4 8.68 1.33 0
 6 12 5 4.83 1.26 0
 6 12 7 1.95 1.3 0
 6 12 9 1.5 1.24 0
 6 12 10 2.19 1.23 0
 6 12 11 -0.37 1.14 0
 6 12 12 27.39 2.25 0
 6 14 -5 30.45 1.86 0
 6 14 -4 2.29 1.2 0
 6 14 -3 0.11 1.1 0
 6 14 -2 -0.78 0.94 0
 6 14 -1 24 1.8 0
 6 14 0 35.92 2.04 0
 6 14 2 0.63 1.19 0
 6 14 3 3.61 1.32 0
 6 14 4 49.62 2.42 0
 6 14 5 -0.2 1.12 0
 6 14 6 0.22 1.35 0
 6 14 7 0.25 1.44 0
 7 1 -1 132.21 1.03 0
 7 1 0 137.62 1.29 0
 7 1 1 26.92 0.69 0
 7 1 2 452.89 2.88 0
 7 1 3 58.13 1.19 0
 7 1 4 30.2 0.96 0
 7 1 5 68.98 1.49 0
 7 1 6 686.28 4.81 0
 7 1 10 114.2 2.54 0
 7 1 11 27.7 1.52 0
 7 1 12 39.95 1.84 0
 7 1 13 0.86 1.04 0
 7 1 14 0.97 1.13 0
 7 3 -3 11.25 0.36 0
 7 3 -2 56.86 0.8 0
 7 3 -1 704.41 2.95 0
 7 3 0 252 2 0
 7 3 1 135.68 1.63 0
 7 3 2 35.84 0.94 0
 7 3 3 485.22 3.48 0
 7 3 4 219.68 2.55 0
 7 3 5 335.68 3.34 0
 7 3 6 26.28 1.11 0
 7 3 10 4.93 0.95 0
 7 3 11 8.85 1.15 0
 7 3 12 1.5 0.8 0
 7 3 13 0.27 0.97 0
 7 3 14 83.97 2.78 0
 7 3 15 8.52 1.37 0
 7 3 16 27.79 2.12 0
 7 3 17 2.21 1.22 0
 7 5 -3 1.61 0.34 0
 7 5 -2 230.28 2.11 0
 7 5 -1 122.69 1.65 0
 7 5 0 27.56 0.88 0
 7 5 1 30.38 0.96 0
 7 5 2 170.84 2.23 0
 7 5 3 78.47 1.65 0
 7 5 4 120.96 2.14 0
 7 5 5 102.25 2.06 0
 7 5 8 -0.29 0.59 0
 7 5 9 7.67 1.07 0
 7 5 11 0.69 0.75 0
 7 5 12 31.17 1.82 0
 7 5 13 3.28 1.27 0
 7 5 14 26.35 1.94 0
 7 5 16 7.6 1.63 0
 7 5 17 -0.48 1.4 0
 7 7 -3 44.27 1.2 0
 7 7 -2 54.11 1.33 0
 7 7 -1 23.11 0.97 0
 7 7 0 32.05 1.1 0
 7 7 1 0.48 0.46 0
 7 7 2 21.51 1.08 0
 7 7 5 11.11 0.98 0
 7 7 6 22.99 1.3 0
 7 7 7 250.18 3.8 0
 7 7 10 26.51 1.7 0
 7 7 11 58.29 2.32 0
 7 7 13 17.53 1.77 0
 7 7 14 6.62 1.41 0
 7 7 15 5.26 1.38 0
 7 7 16 0.55 1.23 0
 7 9 0 1.78 0.6 0
 7 9 1 138.82 2.6 0
 7 9 3 5.08 0.9 0
 7 9 4 10.71 1.14 0
 7 9 6 23.99 1.48 0
 7 9 7 105.05 2.72 0
 7 9 8 5.85 1.24 0
 7 9 9 1.13 1.07 0
 7 9 10 9.55 1.46 0
 7 9 11 13.06 1.61 0
 7 9 12 9.15 1.48 0
 7 9 13 4.38 1.39 0
 7 9 14 5.7 1.43 0
 7 9 15 18.15 2.07 0
 7 11 -4 88.3 2.22 0
 7 11 -3 53.73 1.86 0
 7 11 -2 17.96 1.33 0
 7 11 0 180.9 3.41 0
 7 11 2 3.88 1.06 0
 7 11 3 44.18 1.92 0
 7 11 4 141.52 3.14 0
 7 11 5 136.5 3.18 0
 7 11 6 0.69 1.07 0
 7 11 7 6.26 1.31 0
 7 11 9 1.26 1.17 0
 7 11 10 7.35 1.45 0
 7 11 11 1.47 1.24 0
 7 11 12 1.89 1.32 0
 7 11 13 10.09 1.66 0
 7 13 -6 7.71 1.22 0
 7 13 -3 28.47 1.71 0
 7 13 -2 3.68 1.09 0
 7 13 -1 16.92 1.53 0
 7 13 0 40.3 1.98 0
 7 13 1 1.35 1 0
 7 13 2 7.7 1.28 0
 7 13 3 23.71 1.8 0
 7 13 4 42.66 2.2 0
 7 13 5 7.59 1.36 0
 7 13 6 44.51 2.34 0
 7 13 7 5.17 1.38 0
 7 13 8 6.23 1.57 0
 7 15 -4 10.88 1.46 0
 7 15 -3 35.64 2.09 0
 7 15 -2 0.95 1.06 0
 7 15 -1 6.99 1.34 0
 7 15 1 7.31 1.43 0
 7 15 2 13.11 1.74 0
 7 15 3 22.16 2.05 0
 7 15 4 5.44 1.6 0
 8 0 4 68.8 1.45 0
 8 0 6 156.24 2.51 0
 8 0 10 0.77 0.64 0
 8 2 -2 195.18 1.09 0
 8 2 -1 51.59 0.81 0
 8 2 0 7.91 0.44 0
 8 2 1 1.95 0.35 0
 8 2 2 22.36 0.77 0
 8 2 3 0.65 0.35 0
 8 2 4 1.87 0.47 0
 8 2 6 4.65 0.66 0
 8 2 9 0.92 0.64 0
 8 2 10 66.98 2.11 0
 8 2 11 136.61 3.01 0
 8 2 13 18.89 1.64 0
 8 2 14 18.49 1.74 0
 8 2 15 103.32 3.16 0
 8 4 -4 8.98 0.38 0
 8 4 -3 248.48 1.73 0
 8 4 -2 1132.38 3.93 0
 8 4 -1 644.93 3.28 0
 8 4 0 189.83 1.99 0
 8 4 1 10.52 0.64 0
 8 4 2 357.4 3.06 0
 8 4 3 258.6 2.81 0
 8 4 4 131.12 2.22 0
 8 4 5 7.71 0.8 0
 8 4 8 0.73 0.59 0
 8 4 9 3.2 0.9 0
 8 4 10 49.85 1.91 0
 8 4 11 -0.16 0.76 0
 8 4 12 1.17 1.07 0
 8 4 13 18.61 1.69 0
 8 4 14 10.47 1.61 0
 8 4 15 2.72 1.3 0
 8 4 16 0.66 1.24 0
 8 6 -5 2.77 0.42 0
 8 6 -3 247.03 2.35 0
 8 6 -2 228.29 2.36 0
 8 6 -1 108.51 1.79 0
 8 6 0 52.99 1.3 0
 8 6 2 7.42 0.75 0
 8 6 3 66.42 1.65 0
 8 6 6 31.9 1.41 0
 8 6 7 14.39 1.15 0
 8 6 8 9.26 1.13 0
 8 6 9 3.13 0.96 0
 8 6 10 13.28 1.38 0
 8 6 11 32.62 1.87 0
 8 6 12 20.05 1.73 0
 8 6 13 13.95 1.68 0
 8 6 14 14.09 1.72 0
 8 6 15 12.36 1.81 0
 8 8 -4 0.22 0.46 0
 8 8 -3 52.1 1.38 0
 8 8 -2 0.78 0.48 0
 8 8 4 2.07 0.82 0
 8 8 5 6.63 1 0
 8 8 6 25.23 1.48 0
 8 8 7 8.24 1.16 0
 8 8 8 3.47 1.1 0
 8 8 9 0.24 1.01 0
 8 8 10 0 0.95 0
 8 8 11 17.57 1.71 0
 8 8 12 -0.88 0.98 0
 8 8 13 17.87 1.88 0
 8 8 14 0.17 1.44 0
 8 8 15 9.17 1.81 0
 8 10 -5 1.26 0.67 0
 8 10 -4 3.06 0.75 0
 8 10 -3 21.5 1.21 0
 8 10 -1 28.26 1.41 0
 8 10 0 7.08 0.95 0
 8 10 1 -0.06 0.63 0
 8 10 2 49.31 1.85 0
 8 10 3 1.23 0.76 0
 8 10 5 1.98 0.89 0
 8 10 6 4.38 1.07 0
 8 10 7 0.22 0.99 0
 8 10 8 -0.05 1.11 0
 8 10 9 43.33 2.24 0
 8 10 10 3.09 1.36 0
 8 10 11 12.68 1.68 0
 8 10 12 17.91 1.94 0
 8 10 13 9.16 1.57 0
 8 12 -5 0.26 0.83 0
 8 12 -4 0.82 0.85 0
 8 12 -3 60.47 2.04 0
 8 12 -2 56.05 2.07 0
 8 12 -1 57.5 2.06 0
 8 12 0 19.24 1.55 0
 8 12 1 0.06 0.98 0
 8 12 2 17.64 1.59 0
 8 12 3 8.05 1.32 0
 8 12 4 30.13 1.89 0
 8 12 6 0.61 1.01 0
 8 12 7 5.61 1.31 0
 8 12 8 1.24 1.38 0
 8 12 9 28.44 2.16 0
 8 12 10 3.99 1.35 0
 8 14 -3 49.68 2.16 0
 8 14 -2 3.22 1.1 0
 8 14 0 0.44 1.02 0
 8 14 1 0.97 1.24 0
 8 14 2 0.87 1.11 0
 8 14 3 11.09 1.51 0
 8 14 4 3.32 1.39 0
 9 1 1 0.72 0.32 0
 9 1 2 33.75 0.94 0
 9 1 3 40.8 1.13 0
 9 1 5 -0.23 0.39 0
 9 1 6 55.35 1.59 0
 9 1 9 0.63 0.65 0
 9 1 10 32.63 1.63 0
 9 1 11 30.86 1.71 0
 9 1 12 110.75 2.88 0
 9 3 -2 36.93 0.71 0
 9 3 -1 0.38 0.26 0
 9 3 0 -0.1 0.28 0
 9 3 1 16.18 0.69 0
 9 3 2 0.38 0.35 0
 9 3 3 43.09 1.21 0
 9 3 5 27.24 1.16 0
 9 3 8 5.27 0.87 0
 9 3 10 3.08 0.88 0
 9 3 11 58.68 2.21 0
 9 3 12 2.43 1.11 0
 9 3 14 43.33 2.29 0
 9 3 15 54.05 2.57 0
 9 5 -4 20.53 0.59 0
 9 5 -2 13 0.61 0
 9 5 0 47.25 1.15 0
 9 5 1 2.42 0.52 0
 9 5 2 58.76 1.43 0
 9 5 3 0.2 0.44 0
 9 5 6 48.67 1.66 0
 9 5 7 0.65 0.68 0
 9 5 8 10.04 1.15 0
 9 5 9 0.96 0.76 0
 9 5 11 0.37 1.08 0
 9 5 12 3.47 1.07 0
 9 5 13 8.66 1.46 0
 9 5 14 99.46 3.19 0
 9 5 15 40.59 2.35 0
 9 5 16 29.67 2.3 0
 9 7 -5 118.31 1.73 0
 9 7 -4 0.32 0.41 0
 9 7 -3 88.79 1.62 0
 9 7 -2 1.56 0.49 0
 9 7 -1 53.51 1.35 0
 9 7 0 4.85 0.67 0
 9 7 4 8.88 0.97 0
 9 7 5 17.84 1.23 0
 9 7 6 6.49 0.92 0
 9 7 7 21.15 1.42 0
 9 7 8 12.6 1.36 0
 9 7 10 0.22 1.12 0
 9 7 11 28.23 1.91 0
 9 7 13 141.18 3.65 0
 9 7 14 3.78 1.31 0
 9 7 15 8.71 1.8 0
 9 9 -1 65.32 1.75 0
 9 9 0 -0.06 0.6 0
 9 9 1 14.36 1.13 0
 9 9 2 2.4 0.77 0
 9 9 3 23.89 1.41 0
 9 9 4 2.04 0.89 0
 9 9 5 74.42 2.27 0
 9 9 6 25.33 1.65 0
 9 9 7 23.7 1.68 0
 9 9 8 0.07 0.92 0
 9 9 11 44.03 2.34 0
 9 9 12 2.66 1.29 0
 9 9 14 17.13 2.07 0
 9 11 -4 10.28 1.16 0
 9 11 -3 49.29 1.76 0
 9 11 -2 18.95 1.29 0
 9 11 0 13.09 1.28 0
 9 11 1 51.8 1.96 0
 9 11 2 6.78 1.17 0
 9 11 4 10.64 1.4 0
 9 11 5 120.09 3.04 0
 9 11 6 -0.03 0.97 0
 9 11 8 28.9 2.01 0
 9 11 9 41.32 2.32 0
 9 11 10 2.64 1.49 0
 9 11 11 3.55 1.49 0
 9 13 -2 -0.69 0.82 0
 9 13 -1 4.2 1.08 0
 9 13 1 10.2 1.4 0
 9 13 2 -0.5 0.96 0
 9 13 3 14.93 1.63 0
 9 13 4 0.44 1.17 0
 9 13 5 0.36 1.08 0
 9 13 6 0.07 1.21 0
 9 13 8 -0.42 1.13 0
 10 2 0 18.35 0.62 0
 10 2 1 15.87 0.69 0
 10 2 2 13.57 0.73 0
 10 2 4 20.93 1.01 0
 10 2 5 1.72 0.56 0
 10 2 7 0.46 0.73 0
 10 2 8 63.27 1.97 0
 10 2 9 7.13 1.03 0
 10 2 10 10.14 1.16 0
 10 2 11 3.77 1.16 0
 10 2 13 13.58 1.63 0
 10 4 -2 130 1.35 0
 10 4 -1 14.86 0.61 0
 10 4 0 19.77 0.76 0
 10 4 1 0.3 0.38 0
 10 4 2 135.6 2.04 0
 10 4 3 64.05 1.52 0
 10 4 6 11.71 1.03 0
 10 4 7 11.29 1.1 0
 10 4 8 9.63 1.14 0
 10 4 9 0.66 0.73 0
 10 4 10 28.3 1.7 0
 10 4 11 4.99 1.11 0
 10 4 12 0.35 1 0
 10 4 13 0.93 1.04 0
 10 4 14 38.84 2.31 0
 10 4 15 3.66 1.37 0
 10 4 16 7.84 1.76 0
 10 6 -1 7.25 0.63 0
 10 6 0 9.4 0.74 0
 10 6 1 34.22 1.19 0
 10 6 4 6.51 0.84 0
 10 6 6 16.69 1.23 0
 10 6 7 37.72 1.68 0
 10 6 8 -0.07 0.73 0
 10 6 11 13.45 1.62 0
 10 6 12 0.88 1.04 0
 10 6 13 20.23 1.93 0
 10 6 14 4.51 1.55 0
 10 6 15 1.76 1.33 0
 10 8 -2 10.56 0.84 0
 10 8 1 0.33 0.58 0
 10 8 2 8.85 1 0
 10 8 3 23.06 1.29 0
 10 8 4 2.15 0.72 0
 10 8 5 14.04 1.27 0
 10 8 7 237.2 4.14 0
 10 8 8 0.14 0.94 0
 10 8 10 7.5 1.47 0
 10 8 11 95.83 3.01 0
 10 8 12 0.72 1.33 0
 10 8 13 51.13 2.57 0
 10 8 14 4.23 1.55 0
 10 10 -2 4.26 0.84 0
 10 10 -1 11.2 1.12 0
 10 10 0 3.54 0.83 0
 10 10 1 69.81 2.05 0
 10 10 2 18.16 1.38 0
 10 10 3 -0.03 0.82 0
 10 10 4 8.03 1.22 0
 10 10 5 107.78 2.81 0
 10 10 6 22.35 1.69 0
 10 10 7 77.58 2.61 0
 10 10 9 0.24 1.06 0
 10 10 11 30.91 2.18 0
 10 10 12 -0.35 1.23 0
 10 12 -1 16.33 1.44 0
 10 12 0 1.29 0.99 0
 10 12 1 0.77 0.91 0
 10 12 2 0.35 0.85 0
 10 12 3 19.32 1.66 0
 10 12 4 6.31 1.31 0
 10 12 5 8.56 1.33 0
 10 12 7 1.59 1.19 0
 10 12 8 3.05 1.34 0
 10 12 9 5.57 1.36 0
 10 14 2 -1.98 0.9 0
 10 14 3 23.26 1.92 0
 11 3 0 226.88 2.07 0
 11 3 2 6.59 0.67 0
 11 3 3 74.31 1.62 0
 11 3 6 0.45 0.64 0
 11 3 7 25.06 1.39 0
 11 3 8 35.78 1.65 0
 11 3 9 0.02 0.94 0
 11 3 10 0.23 0.82 0
 11 3 12 38.12 2.11 0
 11 3 13 1.82 1.11 0
 11 5 1 19.03 0.91 0
 11 5 5 52.22 1.69 0
 11 5 6 0.58 0.68 0
 11 5 7 24.97 1.46 0
 11 5 8 11.65 1.31 0
 11 5 9 51.51 2.12 0
 11 5 10 0.83 0.99 0
 11 5 11 8.41 1.43 0
 11 5 12 4.77 1.35 0
 11 5 14 48.26 2.55 0
 11 5 15 6.49 1.52 0
 11 7 -1 4.28 0.62 0
 11 7 0 1 0.53 0
 11 7 3 36.38 1.47 0
 11 7 4 -0.46 0.61 0
 11 7 5 73.19 2.13 0
 11 7 6 0.29 0.78 0
 11 7 7 41.65 1.89 0
 11 7 8 0.35 0.88 0
 11 7 9 41.71 2.08 0
 11 7 10 0.75 1.1 0
 11 7 11 6.26 1.47 0
 11 7 12 -1.17 1.2 0
 11 7 13 71.22 2.89 0
 11 7 14 7.14 1.77 0
 11 9 0 0.05 0.63 0
 11 9 1 41.15 1.6 0
 11 9 2 7.32 1.01 0
 11 9 4 2.89 0.89 0
 11 9 6 0.52 0.98 0
 11 9 7 24.79 1.73 0
 11 9 8 0.92 1 0
 11 9 9 0.26 1.03 0
 11 9 10 11.12 1.65 0
 11 9 11 0.81 1.19 0
 11 9 12 5.71 1.49 0
 11 11 1 2.12 0.97 0
 11 11 2 42.47 1.84 0
 11 11 3 3.44 1.1 0
 11 11 5 0.75 1.07 0
 11 11 6 9.38 1.37 0
 11 11 7 -0.84 1.03 0
 11 11 8 18.16 1.83 0
 11 11 9 11.96 1.57 0
 11 13 4 2.59 1.17 0
 11 13 5 0.24 1.1 0
 12 2 7 10.16 1.13 0
 12 2 8 10.27 1.19 0
 12 4 2 7.57 0.76 0
 12 4 5 44.06 1.6 0
 12 4 6 33.43 1.53 0
 12 4 7 70.46 2.13 0
 12 4 8 -0.95 0.71 0
 12 4 9 1.47 0.92 0
 12 4 11 19.51 1.72 0
 12 4 12 2.95 1.21 0
 12 4 13 5.42 1.53 0
 12 6 3 5.89 0.81 0
 12 6 4 3.68 0.79 0
 12 6 5 3.17 0.86 0
 12 6 6 0.58 0.85 0
 12 6 7 24.87 1.57 0
 12 6 8 0.42 0.87 0
 12 6 10 11 1.52 0
 12 6 11 40.84 2.2 0
 12 6 12 0.54 1.16 0
 12 6 13 38.78 2.35 0
 12 8 2 7.07 0.96 0
 12 8 3 34.66 1.56 0
 12 8 4 0.01 0.82 0
 12 8 5 22.18 1.52 0
 12 8 6 21.14 1.59 0
 12 8 7 28.02 1.78 0
 12 8 8 8.43 1.39 0
 12 8 9 1.34 1.12 0
 12 8 10 9.15 1.44 0
 12 8 11 93.03 3.06 0
 12 8 12 9.95 1.58 0
 12 10 3 0.09 0.91 0
 12 10 4 1.03 1.03 0
 12 10 5 124.71 2.98 0
 12 10 6 1.4 1.19 0
 12 10 7 56.82 2.36 0
 12 10 8 1.62 1.3 0
 12 10 9 43.8 2.28 0
 12 12 6 37.52 2.23 0
 13 3 5 0.5 0.7 0
 13 3 6 18.83 1.29 0
 13 3 7 22.1 1.43 0
 13 3 8 61.59 2.15 0
 13 5 4 53.64 1.7 0
 13 5 5 52.72 1.78 0
 13 5 6 10.34 1.21 0
 13 5 7 9.14 1.2 0
 13 5 8 15.23 1.44 0
 13 5 9 27.31 1.79 0
 13 5 10 27.23 1.91 0
 13 5 12 22.27 1.94 0
 13 5 13 24.21 2.09 0
 13 7 4 2.92 0.84 0
 13 7 5 33.69 1.66 0
 13 7 6 0.59 0.93 0
 13 7 7 5.65 1.13 0
 13 7 8 8.69 1.38 0
 13 7 9 8.35 1.33 0
 13 7 10 14.07 1.64 0
 13 7 11 22.67 1.95 0
 13 7 12 -0.32 1.37 0
 13 9 6 13.76 1.55 0
 13 9 7 14.43 1.57 0
 13 9 9 16.49 1.81 0
 13 9 10 1.48 1.12 0
 14 4 5 36.52 1.55 0
 14 4 6 31.06 1.53 0
 14 4 8 0.25 0.99 0
 14 6 7 0.63 0.99 0
 14 6 8 5.49 1.21 0
 14 6 9 -0.07 0.96 0
 14 6 10 27.11 1.91 0
 14 6 11 2.14 1.2 0
 14 8 9 3.92 1.25 0
 -17 7 2 0.37 0.8 0
 -17 7 3 1.67 0.89 0
 -16 6 4 -1.04 0.74 0
 -16 8 1 2.22 0.97 0
 -16 8 2 -0.57 0.78 0
 -16 8 4 3.96 0.95 0
 -15 5 5 -0.11 0.57 0
 -15 7 4 0.36 0.81 0
 -15 7 5 21.5 1.39 0
 -15 9 -1 32.06 1.94 0
 -15 9 0 14 1.54 0
 -15 9 1 5.92 1.24 0
 -15 9 2 0.19 0.82 0
 -15 9 3 56.76 2.22 0
 -15 9 4 9.18 1.2 0
 -15 9 5 7.2 1.11 0
 -14 6 5 33.11 1.51 0
 -14 6 6 4.13 0.78 0
 -14 8 2 2.7 0.93 0
 -14 8 3 31.81 1.75 0
 -14 8 4 6.18 1.03 0
 -14 8 5 29.76 1.59 0
 -14 8 6 0.07 0.65 0
 -14 10 -3 0.92 1.03 0
 -14 10 -2 27.42 1.96 0
 -14 10 -1 -0.32 0.92 0
 -14 10 0 7.26 1.27 0
 -14 10 1 13 1.45 0
 -14 10 2 2.93 1.08 0
 -14 10 3 10.94 1.35 0
 -14 10 4 1.2 0.92 0
 -14 10 5 -0.99 0.78 0
 -14 10 6 3.64 1.01 0
 -13 5 5 0.16 0.49 0
 -13 5 6 8.14 0.84 0
 -13 7 4 14.1 1.25 0
 -13 7 5 15.14 1.18 0
 -13 7 6 30.85 1.43 0
 -13 9 0 5.56 1.07 0
 -13 9 2 3.62 0.95 0
 -13 9 3 37.97 1.83 0
 -13 9 4 13.22 1.33 0
 -13 9 5 -0.26 0.66 0
 -13 9 7 14.39 1.24 0
 -13 11 -5 40.53 2.35 0
 -13 11 -4 5.76 1.37 0
 -13 11 -3 28.75 1.98 0
 -13 11 -2 0.52 0.98 0
 -13 11 -1 5.99 1.26 0
 -13 11 1 27.63 1.84 0
 -13 11 2 8.15 1.26 0
 -13 11 3 3.35 1 0
 -13 11 4 4 1.04 0
 -13 11 5 5.4 1.06 0
 -12 6 4 4.93 0.84 0
 -12 6 5 1.81 0.61 0
 -12 6 6 18.28 1.09 0
 -12 6 7 8.08 0.84 0
 -12 8 3 32.27 1.63 0
 -12 8 4 0.46 0.73 0
 -12 8 5 25.04 1.43 0
 -12 8 6 22.94 1.34 0
 -12 8 7 13.42 1.1 0
 -12 10 -3 0.46 0.95 0
 -12 10 -2 23.21 1.75 0
 -12 10 -1 27.79 1.88 0
 -12 10 0 4.77 1.18 0
 -12 10 1 0.74 0.83 0
 -12 10 2 18.98 1.56 0
 -12 10 3 4.73 0.98 0
 -12 10 4 5.77 1.05 0
 -12 10 5 13 1.32 0
 -12 10 6 2.89 0.96 0
 -12 10 7 7.86 1.09 0
 -12 12 -4 2.85 1.16 0
 -12 12 -3 0.68 1 0
 -12 12 -1 3.85 1.12 0
 -12 12 0 1.6 0.93 0
 -12 12 1 4.04 1.1 0
 -12 12 2 60.51 2.47 0
 -12 12 3 4.9 1.14 0
 -12 12 4 7.65 1.34 0
 -12 12 5 13.85 1.48 0
 -12 12 6 23.99 1.65 0
 -12 12 7 14.22 1.4 0
 -11 3 7 0.93 0.35 0
 -11 5 8 2.66 0.51 0
 -11 7 3 0.51 0.59 0
 -11 7 4 45.26 1.66 0
 -11 7 5 32.21 1.42 0
 -11 7 6 1.99 0.68 0
 -11 7 7 0.18 0.55 0
 -11 7 8 32.15 1.31 0
 -11 9 0 -0.1 0.79 0
 -11 9 1 0.05 0.68 0
 -11 9 2 1.4 0.88 0
 -11 9 3 1.95 0.9 0
 -11 9 4 3.83 0.82 0
 -11 9 5 9.48 1.14 0
 -11 9 6 1.2 0.68 0
 -11 9 7 5.84 0.91 0
 -11 9 8 5.27 0.81 0
 -11 11 -9 11.47 1.6 0
 -11 11 -8 16.93 1.8 0
 -11 11 -7 -0.64 1.05 0
 -11 11 -6 9.31 1.4 0
 -11 11 -5 0.71 0.99 0
 -11 11 -4 20.91 1.77 0
 -11 11 -3 4.35 1.11 0
 -11 11 -2 39.31 2.18 0
 -11 11 -1 3.06 0.98 0
 -11 11 0 0.92 0.84 0
 -11 11 1 35.12 1.94 0
 -11 11 2 15.46 1.53 0
 -11 11 3 2.6 1.02 0
 -11 11 4 -0.33 0.79 0
 -11 11 5 0.26 0.92 0
 -11 11 6 0.99 0.8 0
 -11 11 7 2.57 0.85 0
 -11 11 8 0.29 0.7 0
 -11 13 -3 6.36 1.28 0
 -11 13 -2 3.53 1.12 0
 -11 13 -1 -0.7 1.14 0
 -11 13 0 2.61 1.11 0
 -11 13 1 30.15 2 0
 -11 13 2 2.54 1.21 0
 -11 13 3 26.03 1.81 0
 -11 13 4 27.45 1.89 0
 -11 13 5 -0.56 0.94 0
 -11 13 6 6.13 1.23 0
 -10 2 7 21.78 0.68 0
 -10 4 6 5.53 0.59 0
 -10 4 7 15.96 0.77 0
 -10 4 8 9 0.57 0
 -10 8 2 9.44 0.95 0
 -10 8 3 104.19 2.51 0
 -10 8 4 2.89 0.68 0
 -10 8 6 47.23 1.68 0
 -10 8 7 86.5 2.14 0
 -10 8 8 7.72 0.89 0
 -10 8 9 0.97 0.63 0
 -10 10 -3 0.01 0.76 0
 -10 10 -2 19.49 1.59 0
 -10 10 -1 76.43 2.55 0
 -10 10 0 2.92 0.95 0
 -10 10 1 11.53 1.28 0
 -10 10 2 4.35 1.01 0
 -10 10 3 6.07 1.06 0
 -10 10 4 0.07 0.83 0
 -10 10 5 1.26 0.7 0
 -10 10 6 -0.01 0.64 0
 -10 10 7 17.79 1.28 0
 -10 10 8 0.86 0.75 0
 -10 10 9 0.68 0.64 0
 -10 12 -8 4.52 1.33 0
 -10 12 -6 0.47 0.95 0
 -10 12 -5 7.37 1.25 0
 -10 12 -4 6.81 1.23 0
 -10 12 -3 18.9 1.55 0
 -10 12 -2 -0.69 0.91 0
 -10 12 -1 0.36 0.82 0
 -10 12 0 0.69 0.88 0
 -10 12 2 2.44 1.01 0
 -10 12 3 12.03 1.41 0
 -10 12 4 -0.04 0.94 0
 -10 12 7 3.32 1.06 0
 -10 12 8 -0.06 0.83 0
 -10 12 9 10.72 1.26 0
 -10 14 -1 24.02 1.98 0
 -10 14 1 5.1 1.24 0
 -10 14 2 4.38 1.16 0
 -10 14 3 46.85 2.31 0
 -9 1 7 10.28 0.4 0
 -9 3 6 32.04 0.93 0
 -9 3 8 7.56 0.45 0
 -9 5 5 7.74 0.72 0
 -9 5 6 59.05 1.44 0
 -9 5 7 8.3 0.67 0
 -9 5 8 2.2 0.42 0
 -9 5 9 1.27 0.37 0
 -9 7 3 88.42 2.14 0
 -9 7 4 0.25 0.52 0
 -9 7 6 11.07 0.87 0
 -9 7 8 27.36 1.17 0
 -9 7 9 139.78 2.38 0
 -9 7 10 6.59 0.73 0
 -9 9 0 0.56 0.63 0
 -9 9 1 67.17 2.18 0
 -9 9 2 3.27 0.82 0
 -9 9 3 1.57 0.76 0
 -9 9 4 0.08 0.56 0
 -9 9 5 113.96 2.57 0
 -9 9 6 1.63 0.65 0
 -9 9 7 8.18 1.02 0
 -9 9 8 13.8 1.11 0
 -9 9 9 142.46 2.75 0
 -9 9 10 0.44 0.54 0
 -9 11 -11 3.96 1.06 0
 -9 11 -10 2.11 1.22 0
 -9 11 -9 42.64 2.25 0
 -9 11 -7 -0.28 0.92 0
 -9 11 -5 120.26 3.22 0
 -9 11 -4 9.24 1.25 0
 -9 11 -3 20.48 1.63 0
 -9 11 -2 6.65 1.12 0
 -9 11 -1 51.89 2.2 0
 -9 11 0 13.29 1.41 0
 -9 11 1 5.28 1 0
 -9 11 2 18.01 1.5 0
 -9 11 3 46.72 1.99 0
 -9 11 4 11.56 1.25 0
 -9 11 5 4.48 0.99 0
 -9 11 6 11.02 1.17 0
 -9 11 7 23.47 1.51 0
 -9 11 8 3.79 0.83 0
 -9 13 -7 5.2 1.2 0
 -9 13 -6 -0.42 1.06 0
 -9 13 -5 -0.43 0.85 0
 -9 13 -4 0.24 0.85 0
 -9 13 -3 13.51 1.58 0
 -9 13 -2 -0.37 1.1 0
 -9 13 -1 10.1 1.33 0
 -9 13 0 1.87 0.98 0
 -9 13 1 3.6 1.07 0
 -9 13 2 -0.44 0.79 0
 -9 13 3 -0.54 0.93 0
 -9 13 4 9.76 1.26 0
 -9 13 6 3.82 1 0
 -9 13 7 12.26 1.44 0
 -9 13 8 13.14 1.4 0
 -9 13 9 0.83 0.81 0
 -8 2 6 4.01 0.37 0
 -8 2 8 61.8 0.87 0
 -8 4 5 116.75 1.84 0
 -8 4 6 354.71 3.01 0
 -8 4 7 152.04 1.95 0
 -8 4 8 56.01 1.16 0
 -8 4 9 0.93 0.29 0
 -8 6 4 23.12 1.06 0
 -8 6 5 2.14 0.5 0
 -8 6 7 182.86 2.58 0
 -8 6 10 5 0.56 0
 -8 8 1 5.06 0.81 0
 -8 8 2 0.7 0.66 0
 -8 8 4 0.08 0.49 0
 -8 8 5 97.14 2.21 0
 -8 8 6 10.01 0.91 0
 -8 8 7 19.96 1.13 0
 -8 8 8 0.2 0.47 0
 -8 8 9 105.98 2.25 0
 -8 8 10 18.88 1.08 0
 -8 10 -5 2.95 0.92 0
 -8 10 -4 12.59 1.35 0
 -8 10 -3 2.19 0.8 0
 -8 10 -2 51.12 2.07 0
 -8 10 -1 -0.03 0.75 0
 -8 10 0 6.88 1.05 0
 -8 10 1 28.14 1.5 0
 -8 10 3 22.66 1.4 0
 -8 10 4 2.8 0.74 0
 -8 10 5 1.8 0.79 0
 -8 10 7 1.3 0.79 0
 -8 10 8 -0.14 0.56 0
 -8 10 9 3.87 0.89 0
 -8 10 10 9.23 1.06 0
 -8 12 -11 1.12 0.9 0
 -8 12 -10 4.59 1.22 0
 -8 12 -9 27.05 1.84 0
 -8 12 -8 1.95 0.98 0
 -8 12 -7 5.09 1.27 0
 -8 12 -6 0.52 0.85 0
 -8 12 -5 0.59 0.9 0
 -8 12 -4 30.5 1.88 0
 -8 12 -2 19.35 1.62 0
 -8 12 0 22.51 1.54 0
 -8 12 1 56.46 2.24 0
 -8 12 2 55.27 2.28 0
 -8 12 3 57.87 2.21 0
 -8 12 4 0.48 0.77 0
 -8 12 5 0.29 0.74 0
 -8 12 6 25.46 1.62 0
 -8 12 8 3.13 1.01 0
 -8 12 10 0.64 0.75 0
 -8 14 -6 16.89 1.69 0
 -8 14 -5 8.97 1.43 0
 -8 14 -4 3.52 1.31 0
 -8 14 -3 12.45 1.64 0
 -8 14 -2 1.82 1.05 0
 -8 14 -1 -0.41 0.89 0
 -8 14 0 0.02 0.89 0
 -8 14 1 59.44 2.51 0
 -8 14 2 1.17 0.97 0
 -8 14 4 43.14 2.21 0
 -8 14 5 0.61 0.94 0
 -8 14 6 0.65 0.91 0
 -8 14 7 37.96 2.02 0
 -8 14 8 63.79 2.44 0
 -7 1 7 0.17 0.12 0
 -7 3 5 104.5 1.52 0
 -7 3 6 5.38 0.42 0
 -7 3 7 12.7 0.53 0
 -7 3 8 52.59 0.94 0
 -7 3 9 9.92 0.43 0
 -7 5 4 42.33 1.21 0
 -7 5 6 0.41 0.32 0
 -7 5 7 0.39 0.36 0
 -7 5 8 16.21 0.75 0
 -7 5 9 1.18 0.35 0
 -7 5 10 7.76 0.54 0
 -7 9 -2 5.52 0.83 0
 -7 9 -1 135.31 2.85 0
 -7 9 0 2 0.63 0
 -7 9 2 4.97 0.84 0
 -7 9 3 43.02 1.57 0
 -7 9 4 -0.18 0.62 0
 -7 9 5 24.39 1.33 0
 -7 9 6 11.17 1.04 0
 -7 9 8 18.65 1.16 0
 -7 9 10 0.52 0.53 0
 -7 11 -13 9.44 1.25 0
 -7 11 -12 2.93 0.97 0
 -7 11 -10 6.59 1.12 0
 -7 11 -9 0.41 0.91 0
 -7 11 -8 58.69 2.33 0
 -7 11 -7 6.44 1.08 0
 -7 11 -6 1.19 0.92 0
 -7 11 -5 133.55 3.25 0
 -7 11 -4 141.82 3.3 0
 -7 11 -2 2.76 0.96 0
 -7 11 -1 106.37 2.8 0
 -7 11 0 173.11 3.61 0
 -7 11 1 88.85 2.56 0
 -7 11 2 17.5 1.39 0
 -7 11 3 53.22 2.03 0
 -7 11 4 84.12 2.45 0
 -7 11 5 32.28 1.7 0
 -7 11 6 13.05 1.12 0
 -7 11 7 91.15 2.48 0
 -7 11 8 15.09 1.3 0
 -7 11 10 1.19 0.8 0
 -7 11 11 22.8 1.39 0
 -7 13 -10 40.64 2.12 0
 -7 13 -9 3.82 1.15 0
 -7 13 -7 6.52 1.35 0
 -7 13 -6 43.74 2.09 0
 -7 13 -5 6.4 1.31 0
 -7 13 -4 42.28 2.18 0
 -7 13 -3 23.88 1.8 0
 -7 13 -2 6.24 1.12 0
 -7 13 -1 2.11 1.05 0
 -7 13 0 39.93 2.09 0
 -7 13 1 18.28 1.65 0
 -7 13 3 24.49 1.63 0
 -7 13 4 12.82 1.57 0
 -7 13 5 3.47 1.14 0
 -7 13 6 6.8 1.26 0
 -7 13 7 0.92 0.82 0
 -7 13 8 0.36 0.83 0
 -7 13 9 2.9 0.9 0
 -7 13 10 2.44 0.85 0
 -7 13 11 -0.67 0.68 0
 -7 15 -2 11.41 1.54 0
 -7 15 0 5.16 1.21 0
 -7 15 1 6 1.23 0
 -7 15 2 -1.02 0.93 0
 -7 15 5 9.35 1.4 0
 -6 4 4 18.08 0.74 0
 -6 4 5 186.41 2.09 0
 -6 4 6 636.18 3.7 0
 -6 4 7 140.76 1.76 0
 -6 4 8 31.06 0.84 0
 -6 4 10 146.78 1.68 0
 -6 4 11 50.01 1 0
 -6 6 2 -0.03 0.32 0
 -6 6 3 15.07 0.86 0
 -6 6 4 68.91 1.56 0
 -6 6 7 46.16 1.27 0
 -6 6 8 3.34 0.49 0
 -6 6 9 10.86 0.72 0
 -6 6 10 3.64 0.49 0
 -6 6 11 1.49 0.39 0
 -6 8 7 1.11 0.59 0
 -6 8 8 1.33 0.58 0
 -6 8 10 15.26 1.01 0
 -6 8 12 1.27 0.59 0
 -6 10 -13 14.33 1.39 0
 -6 10 -12 5.54 1.11 0
 -6 10 -11 2.3 0.85 0
 -6 10 -9 0.33 0.78 0
 -6 10 -8 3.09 0.99 0
 -6 10 -6 3.6 0.96 0
 -6 10 -5 23.8 1.52 0
 -6 10 -4 -0.03 0.62 0
 -6 10 -3 2.34 0.7 0
 -6 10 -2 1.93 0.66 0
 -6 10 -1 28.14 1.4 0
 -6 10 0 0.99 0.61 0
 -6 10 1 17.93 1.21 0
 -6 10 3 122.93 2.71 0
 -6 10 4 1.44 0.62 0
 -6 10 5 4.62 0.87 0
 -6 10 6 27.02 1.45 0
 -6 10 7 68.4 2.07 0
 -6 10 8 4.11 0.84 0
 -6 10 10 43.8 1.68 0
 -6 10 11 17.29 1.22 0
 -6 10 12 0.45 0.6 0
 -6 12 -12 30.95 1.75 0
 -6 12 -11 0.74 0.8 0
 -6 12 -10 2.05 1.04 0
 -6 12 -9 1.56 0.89 0
 -6 12 -8 25.11 1.72 0
 -6 12 -7 2.33 1.07 0
 -6 12 -6 2.46 0.9 0
 -6 12 -5 6.74 1.1 0
 -6 12 -4 6.76 1.08 0
 -6 12 -2 0.46 0.84 0
 -6 12 -1 0.17 0.8 0
 -6 12 0 0.49 0.77 0
 -6 12 2 2.42 0.83 0
 -6 12 4 -0.14 0.73 0
 -6 12 5 4.03 0.96 0
 -6 12 6 5.62 1.1 0
 -6 12 8 0.15 0.88 0
 -6 12 9 5.86 1.07 0
 -6 12 10 6.27 1.12 0
 -6 12 11 1.29 0.78 0
 -6 12 12 1.4 0.82 0
 -6 14 -8 39.64 2.12 0
 -6 14 -7 1.04 1.07 0
 -6 14 -6 2.04 0.98 0
 -6 14 -5 -0.51 1 0
 -6 14 -4 50.62 2.37 0
 -6 14 -3 2.67 1.18 0
 -6 14 -2 1.99 1 0
 -6 14 1 21.94 1.75 0
 -6 14 2 0.32 0.86 0
 -6 14 3 0.56 0.88 0
 -6 14 4 1.66 1.08 0
 -6 14 5 26.93 1.8 0
 -6 14 7 14.03 1.66 0
 -6 14 8 1.25 0.91 0
 -6 14 9 0.38 1.01 0
 -6 14 10 24.03 1.71 0
 -5 1 6 448.1 1.72 0
 -5 1 7 18.74 0.33 0
 -5 3 8 21.59 0.61 0
 -5 3 9 150.33 1.49 0
 -5 3 10 -0.01 0.17 0
 -5 5 3 38.14 1.07 0
 -5 5 4 0.15 0.28 0
 -5 5 5 19.15 0.79 0
 -5 5 6 98.22 1.63 0
 -5 5 7 49.13 1.16 0
 -5 5 8 14.82 0.71 0
 -5 5 9 0.92 0.37 0
 -5 5 10 2.17 0.42 0
 -5 5 11 2.83 0.43 0
 -5 5 12 1.49 0.36 0
 -5 7 0 176.83 2.67 0
 -5 7 1 55.62 1.53 0
 -5 7 2 3.39 0.55 0
 -5 7 3 31.45 1.12 0
 -5 7 4 41.44 1.32 0
 -5 7 5 350.5 3.59 0
 -5 7 6 6.71 0.7 0
 -5 9 -14 0.39 0.7 0
 -5 9 -13 9.67 1.17 0
 -5 9 -5 94.74 2.37 0
 -5 9 -4 16.58 1.08 0
 -5 9 -3 0.35 0.55 0
 -5 9 -2 3.55 0.71 0
 -5 9 -1 67.37 1.89 0
 -5 9 0 15.7 1.1 0
 -5 9 1 7.76 0.86 0
 -5 9 2 1.28 0.62 0
 -5 9 3 0.84 0.46 0
 -5 9 4 1.35 0.61 0
 -5 9 7 10.5 0.87 0
 -5 9 8 7.97 0.93 0
 -5 9 9 31.65 1.4 0
 -5 9 10 0.64 0.58 0
 -5 9 11 53.8 1.72 0
 -5 9 12 18.66 1.14 0
 -5 11 -13 8.33 1.11 0
 -5 11 -12 70.14 2.29 0
 -5 11 -11 8.49 1.15 0
 -5 11 -9 18.24 1.48 0
 -5 11 -8 21.89 1.55 0
 -5 11 -7 38.5 1.77 0
 -5 11 -6 23.29 1.52 0
 -5 11 -5 14.45 1.34 0
 -5 11 -4 5.92 1.02 0
 -5 11 -3 1.64 0.67 0
 -5 11 -2 2.05 0.83 0
 -5 11 -1 19.01 1.34 0
 -5 11 1 81.66 2.31 0
 -5 11 2 22.12 1.44 0
 -5 11 4 103.5 2.63 0
 -5 11 5 11.94 1.2 0
 -5 11 6 82.03 2.32 0
 -5 11 7 1.64 0.71 0
 -5 11 8 26.53 1.51 0
 -5 11 9 4.26 0.93 0
 -5 11 10 48.01 1.85 0
 -5 11 11 41.25 1.77 0
 -5 11 12 2.05 0.76 0
 -5 13 -11 14.94 1.44 0
 -5 13 -10 54.67 2.24 0
 -5 13 -9 17.83 1.51 0
 -5 13 -8 2.86 0.95 0
 -5 13 -7 71.61 2.51 0
 -5 13 -6 122 3.2 0
 -5 13 -5 9.7 1.35 0
 -5 13 -4 23.83 1.68 0
 -5 13 -3 4.39 1.13 0
 -5 13 -2 72.2 2.53 0
 -5 13 0 68.12 2.4 0
 -5 13 1 20.37 1.53 0
 -5 13 2 4.97 1.09 0
 -5 13 3 14.58 1.42 0
 -5 13 5 -1.04 0.68 0
 -5 13 6 0.47 0.78 0
 -5 13 7 2.71 0.93 0
 -5 13 8 0.14 0.98 0
 -5 13 9 3.56 0.94 0
 -5 13 10 0.39 0.79 0
 -5 13 11 1.52 0.86 0
 -5 13 12 0.98 0.77 0
 -5 15 -6 59.97 2.52 0
 -5 15 -5 2.99 1.12 0
 -5 15 -3 1.37 1.1 0
 -5 15 -2 47.37 2.34 0
 -5 15 -1 4.58 1.06 0
 -5 15 0 0.29 1.04 0
 -5 15 1 24.54 1.82 0
 -5 15 2 13.4 1.44 0
 -5 15 5 0.38 0.92 0
 -5 15 6 21.06 1.8 0
 -5 15 7 13.19 1.6 0
 -4 2 4 70.28 0.95 0
 -4 2 5 748.35 2.83 0
 -4 2 6 53.25 0.77 0
 -4 2 7 130.74 1.18 0
 -4 4 6 34.41 0.86 0
 -4 4 7 0.64 0.3 0
 -4 4 8 28.9 0.81 0
 -4 4 9 84.37 1.36 0
 -4 4 10 3.79 0.42 0
 -4 4 11 11.07 0.58 0
 -4 6 1 287.9 3 0
 -4 6 2 117.5 1.92 0
 -4 6 3 48.47 1.26 0
 -4 6 4 2.97 0.48 0
 -4 6 5 186.69 2.39 0
 -4 6 6 19.93 0.86 0
 -4 6 7 1.06 0.38 0
 -4 6 8 11.13 0.73 0
 -4 6 9 22.71 0.95 0
 -4 6 10 9.08 0.67 0
 -4 8 9 3.17 0.66 0
 -4 8 10 53.97 1.59 0
 -4 8 12 0.5 0.54 0
 -4 8 13 -0.71 0.55 0
 -4 10 -13 23.36 1.42 0
 -4 10 -12 22.01 1.42 0
 -4 10 -11 57.29 2.01 0
 -4 10 -9 27.6 1.44 0
 -4 10 -8 10.49 1.11 0
 -4 10 -7 14.36 1.22 0
 -4 10 -6 4.76 0.87 0
 -4 10 -5 -0.4 0.54 0
 -4 10 -4 -0.38 0.61 0
 -4 10 -3 60.26 1.9 0
 -4 10 -2 1.12 0.55 0
 -4 10 -1 4.73 0.72 0
 -4 10 2 12.03 0.96 0
 -4 10 3 0.65 0.53 0
 -4 10 5 13.11 1.05 0
 -4 10 6 28.52 1.43 0
 -4 10 7 32.87 1.5 0
 -4 10 8 0.74 0.75 0
 -4 10 10 0.62 0.62 0
 -4 10 11 1.04 0.69 0
 -4 10 12 6.1 0.97 0
 -4 12 -12 0.28 0.85 0
 -4 12 -11 0.14 0.84 0
 -4 12 -10 2.86 0.88 0
 -4 12 -9 31.5 1.69 0
 -4 12 -8 3.76 0.92 0
 -4 12 -7 5.61 0.97 0
 -4 12 -6 -0.16 0.86 0
 -4 12 -5 2.93 0.94 0
 -4 12 -3 23.06 1.53 0
 -4 12 -2 5.17 0.92 0
 -4 12 -1 0.18 0.63 0
 -4 12 0 115.43 2.83 0
 -4 12 1 19.37 1.31 0
 -4 12 2 52.23 2.04 0
 -4 12 4 72.54 2.32 0
 -4 12 5 1.82 0.81 0
 -4 12 7 15.56 1.33 0
 -4 12 8 3.9 1.02 0
 -4 12 9 18.9 1.47 0
 -4 12 11 0.33 0.77 0
 -4 12 12 4.92 1.06 0
 -4 12 13 1.2 0.78 0
 -4 14 -10 6.23 1.2 0
 -4 14 -9 7.95 1.15 0
 -4 14 -8 20.45 1.61 0
 -4 14 -6 28.55 1.82 0
 -4 14 -4 12.63 1.49 0
 -4 14 -3 0.67 1 0
 -4 14 -2 19.56 1.57 0
 -4 14 -1 -1.05 0.79 0
 -4 14 0 7.53 1.15 0
 -4 14 1 -0.45 0.81 0
 -4 14 2 2.54 0.96 0
 -4 14 3 2.63 0.92 0
 -4 14 6 2.11 1.06 0
 -4 14 7 0.07 1.04 0
 -4 14 8 18.78 1.67 0
 -4 14 9 1.35 0.9 0
 -4 14 10 16.27 1.59 0
 -4 16 -2 7.45 1.43 0
 -4 16 -1 0.66 1.21 0
 -4 16 1 1.78 1.25 0
 -4 16 2 15.11 1.74 0
 -4 16 3 1.79 1.12 0
 -3 1 5 0.07 0.1 0
 -3 1 6 4.67 0.21 0
 -3 1 7 189.15 1.15 0
 -3 3 3 12.46 0.52 0
 -3 3 4 921.97 3.61 0
 -3 3 10 3.92 0.39 0
 -3 5 5 14.06 0.65 0
 -3 5 7 245.86 2.48 0
 -3 5 8 64.95 1.35 0
 -3 5 9 130.37 1.92 0
 -3 5 10 -0.12 0.34 0
 -3 5 11 17.54 0.8 0
 -3 5 12 0.59 0.35 0
 -3 7 0 7.51 0.61 0
 -3 7 1 236.52 2.84 0
 -3 7 2 76.2 1.64 0
 -3 7 5 10.3 0.78 0
 -3 7 6 25.12 1.04 0
 -3 7 7 52.72 1.44 0
 -3 7 13 214.62 3.04 0
 -3 9 -13 0.89 0.71 0
 -3 9 -12 0.18 0.64 0
 -3 9 -11 24.18 1.34 0
 -3 9 -10 1.07 0.59 0
 -3 9 -9 7.74 0.89 0
 -3 9 -8 2.08 0.6 0
 -3 9 -7 15.1 1.12 0
 -3 9 -6 3.45 0.77 0
 -3 9 -5 76.8 2 0
 -3 9 -4 0.58 0.46 0
 -3 9 4 13.36 0.92 0
 -3 9 5 0.06 0.41 0
 -3 9 6 7.34 0.76 0
 -3 9 8 1.68 0.62 0
 -3 9 9 182.27 3.09 0
 -3 9 10 14.97 1.12 0
 -3 9 11 11.61 1.01 0
 -3 9 12 10.52 1 0
 -3 9 13 69.12 1.98 0
 -3 9 14 -0.37 0.62 0
 -3 11 -12 44.02 1.75 0
 -3 11 -11 52.57 1.89 0
 -3 11 -10 4.04 0.83 0
 -3 11 -9 2.44 0.75 0
 -3 11 -7 95.3 2.49 0
 -3 11 -6 6.75 0.91 0
 -3 11 -5 0.34 0.6 0
 -3 11 -3 49.83 1.85 0
 -3 11 -2 8.22 0.99 0
 -3 11 -1 2.43 0.66 0
 -3 11 0 69.4 2.1 0
 -3 11 2 3.83 0.74 0
 -3 11 3 70.65 2.08 0
 -3 11 4 14 1.1 0
 -3 11 5 -0.01 0.55 0
 -3 11 6 0.72 0.68 0
 -3 11 8 0.54 0.8 0
 -3 11 9 42.49 1.8 0
 -3 11 10 10.88 1.21 0
 -3 11 11 -0.23 0.73 0
 -3 11 12 0.34 0.75 0
 -3 11 13 0.08 0.72 0
 -3 13 -10 1.73 0.96 0
 -3 13 -9 9.83 1.24 0
 -3 13 -8 6.56 1.04 0
 -3 13 -7 6.92 1.11 0
 -3 13 -6 15.63 1.43 0
 -3 13 -5 4.06 0.99 0
 -3 13 -4 1.04 0.84 0
 -3 13 -3 24.81 1.63 0
 -3 13 -1 3.04 0.93 0
 -3 13 0 2.5 0.82 0
 -3 13 1 1.55 0.79 0
 -3 13 2 12.48 1.26 0
 -3 13 3 7.55 1.15 0
 -3 13 4 0.5 0.72 0
 -3 13 5 -1.09 0.77 0
 -3 13 6 12.23 1.42 0
 -3 13 7 12 1.45 0
 -3 13 8 0.91 0.84 0
 -3 13 10 15.93 1.51 0
 -3 13 11 2.6 0.99 0
 -3 13 12 1.02 0.83 0
 -3 13 13 2.03 0.93 0
 -3 15 -8 9.48 1.29 0
 -3 15 -7 0.87 0.95 0
 -3 15 -6 1.12 0.93 0
 -3 15 -5 25.02 1.8 0
 -3 15 -4 32.9 1.87 0
 -3 15 -3 10.08 1.33 0
 -3 15 -2 0.92 0.87 0
 -3 15 -1 0.93 0.94 0
 -3 15 0 36.97 2.06 0
 -3 15 1 0.45 0.98 0
 -3 15 2 2.45 1.02 0
 -3 15 3 2.49 1.06 0
 -3 15 4 -0.14 0.99 0
 -3 15 5 0.18 0.91 0
 -3 15 6 0.96 0.99 0
 -3 15 7 3.57 1.06 0
 -2 2 2 2300.41 4.65 0
 -2 2 3 283.51 1.63 0
 -2 2 4 129.92 1.15 0
 -2 2 5 1357.03 3.7 0
 -2 2 6 159.89 1.36 0
 -2 2 7 5.38 0.32 0
 -2 4 1 768.55 3.68 0
 -2 4 2 357.7 2.51 0
 -2 4 3 1.26 0.27 0
 -2 4 7 29.88 0.83 0
 -2 4 8 2.2 0.36 0
 -2 4 9 396.74 2.99 0
 -2 4 10 55.53 1.2 0
 -2 4 11 98.52 1.67 0
 -2 6 -2 182.92 2.3 0
 -2 6 3 10.13 0.65 0
 -2 6 5 73.67 1.51 0
 -2 6 6 0.26 0.33 0
 -2 6 7 6.75 0.62 0
 -2 6 8 62.85 1.44 0
 -2 6 9 66.08 1.51 0
 -2 6 10 11.42 0.75 0
 -2 8 -13 12.92 0.99 0
 -2 8 -12 7.55 0.85 0
 -2 8 -11 15.72 1.04 0
 -2 8 -10 3.99 0.73 0
 -2 8 -4 47.08 1.45 0
 -2 8 0 97.01 1.98 0
 -2 8 1 53.72 1.49 0
 -2 8 2 22.69 1.05 0
 -2 8 10 29.24 1.27 0
 -2 8 11 1.7 0.68 0
 -2 8 12 12.58 1.04 0
 -2 8 13 46.65 1.64 0
 -2 8 14 69.27 1.93 0
 -2 10 -12 26.66 1.34 0
 -2 10 -11 12.68 1.07 0
 -2 10 -10 4.28 0.73 0
 -2 10 -9 3.65 0.75 0
 -2 10 -8 46.89 1.66 0
 -2 10 -7 5.52 0.82 0
 -2 10 -6 3.83 0.7 0
 -2 10 -5 22.39 1.18 0
 -2 10 -4 39.95 1.55 0
 -2 10 -3 191.53 3.19 0
 -2 10 -2 0.12 0.44 0
 -2 10 -1 0.92 0.5 0
 -2 10 0 0.08 0.47 0
 -2 10 1 430.78 4.65 0
 -2 10 2 3.55 0.68 0
 -2 10 3 150.23 2.82 0
 -2 10 4 35.07 1.45 0
 -2 10 5 94.92 2.27 0
 -2 10 6 53.14 1.79 0
 -2 10 7 87.19 2.26 0
 -2 10 8 14.49 1.14 0
 -2 10 11 29.86 1.54 0
 -2 10 12 -0.44 0.62 0
 -2 10 14 5.58 0.94 0
 -2 12 -11 0.22 0.66 0
 -2 12 -10 13.59 1.25 0
 -2 12 -9 39.52 1.73 0
 -2 12 -8 10.87 1.14 0
 -2 12 -7 33.77 1.63 0
 -2 12 -6 0.4 0.78 0
 -2 12 -5 1.06 0.76 0
 -2 12 -4 0.24 0.73 0
 -2 12 -3 2.41 0.85 0
 -2 12 -2 0.48 0.61 0
 -2 12 -1 1.16 0.68 0
 -2 12 0 50.75 1.94 0
 -2 12 1 71.85 2.23 0
 -2 12 2 27.73 1.5 0
 -2 12 4 97.45 2.62 0
 -2 12 5 22.6 1.41 0
 -2 12 7 2.38 0.84 0
 -2 12 9 24.59 1.48 0
 -2 12 11 0.4 0.85 0
 -2 12 12 0.72 0.84 0
 -2 14 -9 50.96 2.04 0
 -2 14 -8 2.89 1 0
 -2 14 -7 69.66 2.4 0
 -2 14 -6 43.24 2.02 0
 -2 14 -5 -0.41 0.77 0
 -2 14 -4 23.07 1.57 0
 -2 14 -3 27.84 1.7 0
 -2 14 -1 5.66 1.18 0
 -2 14 1 1.1 0.87 0
 -2 14 2 14.72 1.46 0
 -2 14 3 0.14 0.79 0
 -2 14 4 13.54 1.4 0
 -2 14 5 7.23 1.29 0
 -2 14 6 1.05 0.91 0
 -2 14 7 5.61 1.1 0
 -2 14 8 0.86 0.86 0
 -2 14 9 0.11 0.83 0
 -2 14 10 0.57 0.9 0
 -2 14 11 2.61 1.18 0
 -2 16 -4 4.52 1.22 0
 -2 16 -3 2.41 1.04 0
 -2 16 -2 2.69 1.05 0
 -2 16 -1 1.39 1.04 0
 -2 16 0 4.36 1.3 0
 -2 16 1 1.21 0.97 0
 -2 16 2 0.92 1.12 0
 -2 16 3 1.2 1.17 0
 -2 16 5 2.75 1.23 0
 -1 1 2 836.06 1.96 0
 -1 1 3 0.46 0.12 0
 -1 1 4 1355.2 2.98 0
 -1 1 5 142.1 1.11 0
 -1 1 6 579.65 2.38 0
 -1 3 0 502.57 2.51 0
 -1 3 1 1135.51 3.7 0
 -1 3 2 298.52 1.94 0
 -1 3 3 290.38 1.96 0
 -1 3 4 733.36 3.16 0
 -1 3 5 920.3 3.67 0
 -1 3 8 945.91 4.23 0
 -1 5 -1 394.98 2.88 0
 -1 5 6 103.08 1.65 0
 -1 5 7 407.73 3.26 0
 -1 5 8 520.89 3.75 0
 -1 5 9 276.42 2.84 0
 -1 5 10 10.63 0.68 0
 -1 5 11 29.45 1.08 0
 -1 7 -10 0.23 0.44 0
 -1 7 -9 78.24 1.7 0
 -1 7 -8 20.25 0.97 0
 -1 7 -7 248.9 2.94 0
 -1 7 -5 150.78 2.26 0
 -1 7 -4 8.11 0.68 0
 -1 7 -3 290.73 3 0
 -1 7 -2 0.87 0.44 0
 -1 7 -1 55.07 1.35 0
 -1 7 2 4.51 0.48 0
 -1 7 4 9.46 0.7 0
 -1 7 5 476.03 3.99 0
 -1 7 6 8.99 0.75 0
 -1 7 7 239.26 2.98 0
 -1 7 11 16.77 0.99 0
 -1 7 12 12.36 0.94 0
 -1 7 13 4.19 0.69 0
 -1 9 -12 15.92 1.01 0
 -1 9 -11 13.33 0.98 0
 -1 9 -10 4.56 0.75 0
 -1 9 -8 29.28 1.27 0
 -1 9 5 83.26 2.01 0
 -1 9 6 15.99 1.05 0
 -1 9 8 17.64 1.04 0
 -1 9 9 6.81 0.8 0
 -1 9 10 20.64 1.25 0
 -1 9 11 -0.02 0.69 0
 -1 9 12 13.7 1.11 0
 -1 9 13 20.35 1.33 0
 -1 11 -11 26.96 1.36 0
 -1 11 -10 48.4 1.73 0
 -1 11 -9 24.58 1.36 0
 -1 11 -7 28.62 1.42 0
 -1 11 -5 4.81 0.79 0
 -1 11 -4 0.23 0.55 0
 -1 11 -3 102.67 2.44 0
 -1 11 -2 -0.35 0.54 0
 -1 11 0 79.51 2.16 0
 -1 11 1 28.9 1.44 0
 -1 11 2 2.83 0.68 0
 -1 11 3 0.03 0.65 0
 -1 11 4 167.11 3.22 0
 -1 11 6 40.16 1.73 0
 -1 11 7 47.59 1.87 0
 -1 11 8 74.87 2.26 0
 -1 11 11 1.85 0.77 0
 -1 11 12 10.74 1.34 0
 -1 11 13 38.56 1.83 0
 -1 11 14 6.87 1.14 0
 -1 13 -10 0.4 0.79 0
 -1 13 -9 8.88 1.09 0
 -1 13 -8 6.6 1.03 0
 -1 13 -7 59.84 2.11 0
 -1 13 -6 6.84 1.01 0
 -1 13 -5 15.71 1.36 0
 -1 13 -3 3.23 0.98 0
 -1 13 -2 23.54 1.53 0
 -1 13 0 2.13 0.78 0
 -1 13 1 2.71 0.8 0
 -1 13 2 12.93 1.22 0
 -1 13 3 28.59 1.62 0
 -1 13 5 1.2 0.78 0
 -1 13 6 0.49 0.8 0
 -1 13 7 67.27 2.43 0
 -1 13 9 27.62 1.75 0
 -1 13 10 28.58 1.73 0
 -1 13 12 1.68 0.91 0
 -1 13 13 3.28 1.01 0
 -1 15 -8 2.13 0.85 0
 -1 15 -7 31.52 1.78 0
 -1 15 -6 63.81 2.36 0
 -1 15 -5 25.39 1.67 0
 -1 15 -4 6.14 1.21 0
 -1 15 -3 1.39 1.01 0
 -1 15 -2 75.97 2.63 0
 -1 15 -1 8.81 1.39 0
 -1 15 0 14.05 1.36 0
 -1 15 1 -0.35 1.04 0
 -1 15 4 2.02 1.01 0
 -1 15 5 -0.8 1.09 0
 -1 15 8 -0.05 0.92 0
 0 2 -1 187.29 1.16 0
 0 2 0 4228.47 5.52 0
 0 2 2 740.06 2.53 0
 0 2 3 29.76 0.59 0
 0 2 4 283.66 1.79 0
 0 2 5 120.61 1.27 0
 0 2 6 460.47 2.6 0
 0 4 -3 239.94 1.96 0
 0 4 -2 91.21 1.21 0
 0 4 -1 65.85 1.04 0
 0 4 1 64.6 1.08 0
 0 4 3 238.05 2.06 0
 0 4 4 837.07 3.93 0
 0 4 7 54.28 1.16 0
 0 4 8 316.24 2.82 0
 0 4 9 8.29 0.63 0
 0 4 10 12.24 0.75 0
 0 6 -12 91.57 1.65 0
 0 6 -11 13.77 0.75 0
 0 6 -10 25.83 0.92 0
 0 6 -9 34.82 1.04 0
 0 6 -8 -0.08 0.29 0
 0 6 -7 7.66 0.58 0
 0 6 -6 11.98 0.68 0
 0 6 -5 6.4 0.57 0
 0 6 -4 37.58 1.02 0
 0 6 -3 1.94 0.36 0
 0 6 -2 1.81 0.33 0
 0 6 -1 178.47 2.11 0
 0 6 4 38.82 1.08 0
 0 6 5 5.57 0.55 0
 0 6 6 11.43 0.7 0
 0 6 7 7.73 0.61 0
 0 6 8 0.14 0.37 0
 0 6 9 34.2 1.2 0
 0 8 -9 3.85 0.59 0
 0 8 -8 2.2 0.48 0
 0 8 -7 3.15 0.58 0
 0 8 -6 -0.12 0.43 0
 0 8 -5 342.82 3.45 0
 0 8 -4 5.32 0.63 0
 0 8 -3 102.99 1.95 0
 0 8 -2 4.72 0.55 0
 0 8 -1 842.93 5.4 0
 0 8 0 33.93 1.19 0
 0 8 1 861.77 5.53 0
 0 8 2 4.86 0.55 0
 0 8 3 100.67 2 0
 0 8 8 1.55 0.48 0
 0 8 9 2.7 0.58 0
 0 8 10 2.8 0.62 0
 0 8 11 5.62 0.86 0
 0 8 12 19.54 1.22 0
 0 8 13 8.44 1.02 0
 0 10 -11 40.96 1.43 0
 0 10 -10 16.25 1.05 0
 0 10 -9 6.79 0.83 0
 0 10 -8 -0.27 0.45 0
 0 10 -6 1.87 0.6 0
 0 10 -5 176.95 2.94 0
 0 10 -4 10.66 0.84 0
 0 10 -3 2.66 0.7 0
 0 10 -2 0 0.49 0
 0 10 -1 272.55 3.62 0
 0 10 1 272.92 3.64 0
 0 10 2 0.1 0.53 0
 0 10 4 10.95 1.01 0
 0 10 5 171.05 3.1 0
 0 10 6 1.95 0.63 0
 0 10 7 106.55 2.47 0
 0 10 8 0.23 0.64 0
 0 10 9 9.67 1.09 0
 0 10 10 14.21 1.11 0
 0 10 11 39.67 1.74 0
 0 10 12 -0.61 0.69 0
 0 10 13 3.51 0.87 0
 0 12 -10 12.35 1.1 0
 0 12 -9 0.93 0.66 0
 0 12 -8 0.85 0.64 0
 0 12 -7 33.73 1.53 0
 0 12 -6 5.64 0.92 0
 0 12 -5 12.33 1.08 0
 0 12 -4 0.66 0.63 0
 0 12 -3 14.18 1.09 0
 0 12 -2 1.18 0.7 0
 0 12 0 0.2 0.64 0
 0 12 3 12.26 1.18 0
 0 12 4 1.01 0.75 0
 0 12 5 11.56 1.25 0
 0 12 6 5.1 0.91 0
 0 12 8 1.15 0.75 0
 0 12 9 -0.55 0.74 0
 0 12 10 14.13 1.43 0
 0 12 11 0.77 0.82 0
 0 12 12 1.05 0.97 0
 0 12 13 22.08 1.67 0
 0 14 -8 22.37 1.48 0
 0 14 -7 -0.67 0.73 0
 0 14 -6 0.75 0.91 0
 0 14 -5 15.89 1.38 0
 0 14 -4 85.59 2.59 0
 0 14 -3 10.84 1.31 0
 0 14 -2 1.4 0.92 0
 0 14 -1 0.07 0.89 0
 0 14 0 142.08 3.3 0
 0 14 1 0.72 0.85 0
 0 14 2 1.06 1 0
 0 14 4 77.2 2.63 0
 0 14 5 12.93 1.31 0
 0 14 6 1.49 1.07 0
 0 14 7 0.14 0.84 0
 0 14 8 22.94 1.75 0
 0 14 9 25.42 1.85 0
 0 14 10 4.06 1.18 0
 0 14 11 23.22 1.76 0
 0 16 -3 2.84 0.98 0
 0 16 -2 6.13 1.28 0
 0 16 -1 0.89 1.02 0
 0 16 0 56.33 2.37 0
 0 16 1 0.17 0.97 0
 0 16 2 4.49 1.1 0
 0 16 3 2.95 1.26 0
 1 1 0 1999.68 2.82 0
 1 1 3 0.05 0.14 0
 1 3 -4 760.37 2.79 0
 1 3 -3 296.1 1.74 0
 1 3 -2 305.21 1.76 0
 1 3 -1 1167.02 3.47 0
 1 3 0 497.53 2.35 0
 1 3 1 154.67 1.38 0
 1 3 2 1.45 0.25 0
 1 3 3 169.24 1.6 0
 1 3 8 17.57 0.72 0
 1 5 -11 27.79 0.79 0
 1 5 -10 10.37 0.55 0
 1 5 -9 282.61 2.37 0
 1 5 -7 417.76 2.83 0
 1 5 -6 98.9 1.38 0
 1 5 -5 27.99 0.76 0
 1 5 -4 532.86 3.1 0
 1 5 -3 758.2 3.7 0
 1 5 -2 357.21 2.59 0
 1 5 -1 19.85 0.67 0
 1 5 0 219.68 2.11 0
 1 5 1 388.49 2.8 0
 1 5 5 107.72 1.7 0
 1 5 6 307.94 2.9 0
 1 5 7 146.78 2.1 0
 1 5 8 213.63 2.61 0
 1 5 9 3.38 0.51 0
 1 5 10 18.34 0.96 0
 1 7 -11 18.07 0.79 0
 1 7 -10 53.53 1.24 0
 1 7 -9 8.14 0.61 0
 1 7 -8 12.1 0.69 0
 1 7 -7 245.72 2.62 0
 1 7 -6 8.25 0.6 0
 1 7 -5 478.6 3.63 0
 1 7 -4 10.01 0.68 0
 1 7 -3 92.64 1.66 0
 1 7 -2 4.88 0.57 0
 1 7 -1 876.8 4.98 0
 1 7 0 10.19 0.7 0
 1 7 2 0.62 0.35 0
 1 7 3 291.06 3.08 0
 1 7 4 7.91 0.63 0
 1 7 6 16.03 0.86 0
 1 7 10 0.01 0.44 0
 1 7 11 96.81 2.21 0
 1 9 5 1.02 0.47 0
 1 9 7 5.01 0.78 0
 1 9 8 28.36 1.33 0
 1 9 9 4.27 0.76 0
 1 9 10 3.2 0.81 0
 1 9 11 16.3 1.25 0
 1 9 12 15.81 1.27 0
 1 11 -10 45.47 1.55 0
 1 11 -9 95.75 2.15 0
 1 11 -8 75.34 1.96 0
 1 11 -7 46.48 1.6 0
 1 11 -6 40.08 1.55 0
 1 11 -5 9.67 0.92 0
 1 11 -4 169.5 3.01 0
 1 11 -3 -0.61 0.49 0
 1 11 -2 3.26 0.71 0
 1 11 -1 29.03 1.42 0
 1 11 0 76.81 2.11 0
 1 11 2 -0.42 0.55 0
 1 11 3 100.96 2.43 0
 1 11 5 4.18 0.86 0
 1 11 6 11.87 1.18 0
 1 11 7 29.38 1.59 0
 1 11 10 45.18 1.87 0
 1 11 11 25.82 1.66 0
 1 11 12 3.04 0.88 0
 1 13 -9 26.54 1.44 0
 1 13 -8 11.5 1.14 0
 1 13 -7 67.43 2.1 0
 1 13 -6 0.8 0.69 0
 1 13 -5 0.1 0.77 0
 1 13 -4 18.27 1.33 0
 1 13 -3 29.62 1.53 0
 1 13 -2 14.35 1.25 0
 1 13 -1 3.67 0.97 0
 1 13 0 2.83 0.79 0
 1 13 1 5.64 0.99 0
 1 13 2 22.94 1.55 0
 1 13 3 3.73 0.97 0
 1 13 4 0.91 0.75 0
 1 13 6 5.39 1.06 0
 1 13 7 57.68 2.29 0
 1 13 8 4.29 1.01 0
 1 13 10 -0.66 0.77 0
 1 13 11 35.08 2 0
 1 13 12 -0.47 1.05 0
 1 13 13 30.23 1.9 0
 1 15 -7 19.89 1.46 0
 1 15 -6 51.89 2.07 0
 1 15 -5 0.42 0.74 0
 1 15 -4 1.61 0.91 0
 1 15 -3 11.54 1.34 0
 1 15 -2 94.18 2.8 0
 1 15 -1 0.09 0.83 0
 1 15 0 15.33 1.48 0
 1 15 3 1.64 0.94 0
 1 15 4 4.77 1.12 0
 1 15 5 23.71 1.7 0
 1 15 8 2.13 1.03 0
 2 2 -6 157.34 0.9 0
 2 2 -4 128.07 0.78 0
 2 2 -3 284.46 1.19 0
 2 2 -2 2293.49 3.62 0
 2 2 -1 1073.58 2.73 0
 2 2 0 657.68 2.36 0
 2 2 1 566.53 2.37 0
 2 2 2 474.5 2.34 0
 2 2 3 0.56 0.22 0
 2 2 4 387.9 2.47 0
 2 4 -10 60.52 0.87 0
 2 4 -9 394.17 2.15 0
 2 4 -8 1.67 0.24 0
 2 4 -7 29.23 0.63 0
 2 4 -6 72.46 0.97 0
 2 4 -5 737.27 2.99 0
 2 4 -4 2.17 0.27 0
 2 4 -3 0.64 0.24 0
 2 4 -2 369.59 2.27 0
 2 4 -1 785.14 3.37 0
 2 4 0 12.15 0.54 0
 2 4 1 3.96 0.4 0
 2 4 2 0.24 0.21 0
 2 4 3 30.38 0.81 0
 2 4 6 0.94 0.3 0
 2 4 7 97.97 1.69 0
 2 4 8 763.77 4.79 0
 2 6 -10 12.1 0.57 0
 2 6 -9 66.55 1.19 0
 2 6 -8 68.29 1.21 0
 2 6 -7 7.02 0.5 0
 2 6 -6 0.19 0.26 0
 2 6 -5 73.73 1.3 0
 2 6 -4 45.82 1.03 0
 2 6 -3 10.87 0.6 0
 2 6 -2 6.95 0.52 0
 2 6 -1 1.04 0.3 0
 2 6 1 57.15 1.24 0
 2 6 5 16.04 0.81 0
 2 6 6 94.7 1.84 0
 2 6 7 74.78 1.68 0
 2 8 -10 28.19 0.96 0
 2 8 -9 108.98 1.83 0
 2 8 -8 21.98 0.91 0
 2 8 -7 16.32 0.83 0
 2 8 -6 11.56 0.71 0
 2 8 -5 44.32 1.23 0
 2 8 -4 24.97 0.99 0
 2 8 -3 29.21 1.08 0
 2 8 -2 22.31 0.98 0
 2 8 -1 53.76 1.4 0
 2 8 0 96.1 1.88 0
 2 8 1 113.26 2.1 0
 2 8 2 0.61 0.37 0
 2 8 7 1.24 0.5 0
 2 8 8 1.18 0.58 0
 2 8 10 3.02 0.68 0
 2 10 -9 40.52 1.35 0
 2 10 -8 12.61 0.92 0
 2 10 -7 87.1 1.94 0
 2 10 -6 56.74 1.61 0
 2 10 -5 93.17 2.04 0
 2 10 -4 34.2 1.34 0
 2 10 -3 154.15 2.7 0
 2 10 -2 4.11 0.69 0
 2 10 -1 418.83 4.38 0
 2 10 0 0.28 0.48 0
 2 10 1 0.48 0.49 0
 2 10 2 -0.52 0.55 0
 2 10 3 186.79 3.15 0
 2 10 4 39.15 1.57 0
 2 10 5 21.69 1.26 0
 2 10 7 3.48 0.82 0
 2 10 9 2.53 0.78 0
 2 10 10 4.62 0.85 0
 2 10 11 13.24 1.34 0
 2 12 -9 26.06 1.31 0
 2 12 -8 36.69 1.49 0
 2 12 -7 2.08 0.78 0
 2 12 -5 23.99 1.32 0
 2 12 -4 99.45 2.43 0
 2 12 -3 23.1 1.38 0
 2 12 -1 70.31 2.13 0
 2 12 0 49.53 1.88 0
 2 12 1 1.68 0.83 0
 2 12 2 0.29 0.74 0
 2 12 3 2.59 0.9 0
 2 12 4 0.83 0.68 0
 2 12 5 0.52 0.68 0
 2 12 6 -0.29 0.68 0
 2 12 7 35.58 1.84 0
 2 12 10 14.58 1.45 0
 2 12 11 -0.48 0.82 0
 2 12 12 4.47 1.19 0
 2 14 -7 6.36 0.98 0
 2 14 -6 1.64 0.91 0
 2 14 -4 15.46 1.33 0
 2 14 -3 0.06 0.72 0
 2 14 -2 14.12 1.4 0
 2 14 -1 0.52 0.77 0
 2 14 0 42.38 1.93 0
 2 14 2 51.24 2.17 0
 2 14 3 27.71 1.66 0
 2 14 4 20.8 1.51 0
 2 14 5 0.32 0.82 0
 2 14 6 39.83 2.09 0
 2 14 8 1.57 1.01 0
 2 14 10 -0.1 0.97 0
 2 16 -5 3.25 0.94 0
 2 16 -4 4.32 1.01 0
 2 16 -3 1.36 1.06 0
 2 16 -2 0.03 0.91 0
 2 16 -1 0.6 0.9 0
 2 16 0 2.08 1.02 0
 2 16 1 1.49 1.05 0
 2 16 2 1.78 1.06 0
 2 16 3 0.44 1.03 0
 3 3 -8 773.32 1.54 0
 3 3 -7 18.13 0.32 0
 3 3 -6 338.59 1.39 0
 3 3 -5 8 0.27 0
 3 3 -4 946.16 2.7 0
 3 3 -3 11.34 0.38 0
 3 3 -2 1347.22 3.68 0
 3 3 -1 635.22 2.71 0
 3 3 0 352.39 2.16 0
 3 3 1 7.93 0.47 0
 3 3 3 1433.49 5.12 0
 3 3 4 373.18 2.79 0
 3 5 -9 130.18 1.26 0
 3 5 -8 65.26 0.95 0
 3 5 -7 250.03 1.87 0
 3 5 -6 44.88 0.85 0
 3 5 -5 14.17 0.54 0
 3 5 -4 132.02 1.49 0
 3 5 -3 454.85 2.78 0
 3 5 -2 67.4 1.14 0
 3 5 -1 6.11 0.46 0
 3 5 0 137.75 1.72 0
 3 5 5 110.79 1.86 0
 3 5 6 19.6 0.86 0
 3 5 7 17.15 0.88 0
 3 5 8 127.58 2.21 0
 3 7 -9 328.64 2.61 0
 3 7 -8 28.55 0.84 0
 3 7 -7 51.73 1.13 0
 3 7 -6 22.98 0.81 0
 3 7 -5 10.15 0.63 0
 3 7 -4 26.85 0.91 0
 3 7 -3 43.14 1.13 0
 3 7 -2 77.68 1.53 0
 3 7 -1 234.75 2.62 0
 3 7 1 87.72 1.72 0
 3 7 2 197.06 2.58 0
 3 7 3 135.15 2.2 0
 3 7 4 48.13 1.36 0
 3 7 8 36.77 1.4 0
 3 7 10 3.58 0.68 0
 3 9 -8 2.04 0.47 0
 3 9 -6 7.49 0.68 0
 3 9 -5 0.7 0.48 0
 3 9 3 7 0.75 0
 3 9 4 0.64 0.45 0
 3 9 6 3.19 0.74 0
 3 9 7 17.57 1.21 0
 3 9 8 1.29 0.73 0
 3 9 10 0.22 0.63 0
 3 9 11 24.08 1.54 0
 3 11 -8 -0.77 0.52 0
 3 11 -7 95.36 2.08 0
 3 11 -6 0.22 0.52 0
 3 11 -5 0.49 0.62 0
 3 11 -4 13.85 1.05 0
 3 11 -3 73.73 1.99 0
 3 11 0 72.7 2.07 0
 3 11 1 2.73 0.68 0
 3 11 3 48.15 1.81 0
 3 11 5 0.67 0.6 0
 3 11 6 7.2 1.07 0
 3 11 9 2.54 0.82 0
 3 11 10 3.51 0.93 0
 3 11 11 52.06 2.13 0
 3 13 -6 11.32 1.14 0
 3 13 -5 -0.36 0.7 0
 3 13 -4 1.78 0.73 0
 3 13 0 2.85 0.84 0
 3 13 1 3.28 0.91 0
 3 13 2 22.36 1.42 0
 3 13 3 23.21 1.55 0
 3 13 4 0.62 0.79 0
 3 13 6 11.92 1.37 0
 3 13 8 5.99 1.1 0
 3 13 10 1.17 1.19 0
 3 15 -6 1.27 0.72 0
 3 15 -5 -0.12 0.69 0
 3 15 -4 0.26 0.77 0
 3 15 -3 1.26 0.98 0
 3 15 -2 1.76 0.91 0
 3 15 -1 -0.08 0.77 0
 3 15 0 37.75 1.95 0
 3 15 1 -0.35 0.91 0
 3 15 2 0.01 0.9 0
 3 15 5 20.62 1.65 0
 3 15 6 -0.98 0.82 0
 3 15 7 1.12 1.07 0
 4 4 -7 0.86 0.15 0
 4 4 -6 36.52 0.62 0
 4 4 -5 306.85 1.8 0
 4 4 -4 5.14 0.34 0
 4 4 -3 10.21 0.43 0
 4 4 -2 9.48 0.45 0
 4 4 -1 829.88 3.69 0
 4 4 0 27.68 0.77 0
 4 4 1 87.84 1.37 0
 4 4 2 9.92 0.57 0
 4 4 6 18.28 0.88 0
 4 6 -9 21.22 0.57 0
 4 6 -8 10.45 0.47 0
 4 6 -7 2.08 0.31 0
 4 6 -6 18.9 0.65 0
 4 6 -4 3.53 0.44 0
 4 6 -3 48.99 1.09 0
 4 6 -2 119.11 1.71 0
 4 6 -1 288.79 2.69 0
 4 6 1 31.05 1.02 0
 4 6 2 8.23 0.56 0
 4 6 3 239.16 2.75 0
 4 6 4 55.08 1.42 0
 4 8 -9 3.88 0.46 0
 4 8 -8 11.03 0.66 0
 4 8 -7 0.74 0.37 0
 4 8 -6 32.07 1.02 0
 4 8 -5 209.91 2.53 0
 4 8 -4 12.86 0.79 0
 4 8 -3 52.35 1.36 0
 4 8 -1 321.26 3.36 0
 4 8 5 22.72 1.12 0
 4 8 6 8.21 0.86 0
 4 8 7 141.57 2.8 0
 4 8 8 52.88 1.81 0
 4 8 9 65.92 2.05 0
 4 8 10 12.17 1.17 0
 4 10 -5 10.84 0.88 0
 4 10 -4 28.9 1.25 0
 4 10 -3 -0.68 0.38 0
 4 10 -2 11.78 0.96 0
 4 10 -1 28.51 1.3 0
 4 10 0 27.52 1.31 0
 4 10 1 2.95 0.62 0
 4 10 2 1.25 0.53 0
 4 10 3 57.95 1.82 0
 4 10 5 -0.46 0.53 0
 4 10 6 3.58 0.76 0
 4 10 7 12.19 1.07 0
 4 10 8 10.09 1.21 0
 4 12 -7 17.05 1.13 0
 4 12 -6 96.43 2.25 0
 4 12 -5 0.69 0.62 0
 4 12 -4 71.69 2.07 0
 4 12 -2 46.12 1.74 0
 4 12 -1 20.58 1.33 0
 4 12 0 113.04 2.69 0
 4 12 1 0.59 0.63 0
 4 12 3 24.05 1.54 0
 4 12 6 0.3 0.75 0
 4 12 8 3.85 1.07 0
 4 12 10 1.91 0.94 0
 4 12 11 0.75 0.9 0
 4 14 -6 3.03 0.78 0
 4 14 -4 11.61 1.23 0
 4 14 -3 2.91 0.85 0
 4 14 -2 1.75 0.83 0
 4 14 -1 0.18 0.85 0
 4 14 1 -0.15 0.75 0
 4 14 2 19.29 1.62 0
 4 14 3 0.74 0.84 0
 4 14 4 12.65 1.56 0
 4 14 6 30.22 1.94 0
 4 14 7 43.25 2.19 0
 4 14 9 6.08 1.39 0
 4 16 -4 14.02 1.42 0
 4 16 -3 2.01 0.95 0
 4 16 -2 17.12 1.62 0
 4 16 -1 2.07 1.03 0
 4 16 0 26.68 1.78 0
 4 16 1 -1.24 0.81 0
 4 16 2 6.81 1.32 0
 5 3 -3 121.54 1.22 0
 5 3 -2 618.92 2.93 0
 5 3 -1 643.37 3.19 0
 5 3 0 100 1.4 0
 5 5 -8 13.7 0.35 0
 5 5 -6 97.37 1.16 0
 5 5 -5 20.35 0.61 0
 5 5 -4 0.78 0.28 0
 5 5 -3 38.33 0.88 0
 5 5 -2 270.45 2.36 0
 5 5 -1 170.08 1.96 0
 5 5 0 113.02 1.7 0
 5 5 1 50.69 1.19 0
 5 5 3 0.55 0.32 0
 5 5 4 0.21 0.38 0
 5 5 6 83.8 1.82 0
 5 7 -8 9.28 0.5 0
 5 7 -7 2.69 0.37 0
 5 7 -6 5.77 0.5 0
 5 7 -5 354.39 2.93 0
 5 7 -4 41.67 1.09 0
 5 7 -3 32.27 0.99 0
 5 7 -2 4.23 0.5 0
 5 7 -1 54.46 1.35 0
 5 7 0 175.36 2.42 0
 5 7 2 101.49 1.97 0
 5 7 6 183.28 2.98 0
 5 7 7 63.24 1.86 0
 5 7 8 30.6 1.39 0
 5 9 -8 7.29 0.63 0
 5 9 -7 10.94 0.72 0
 5 9 -6 10.25 0.76 0
 5 9 1 65.03 1.77 0
 5 9 2 2.14 0.54 0
 5 9 3 0.28 0.45 0
 5 9 6 1.4 0.58 0
 5 9 7 28.19 1.49 0
 5 9 8 9.48 0.99 0
 5 11 -7 2.41 0.59 0
 5 11 -6 81.36 1.94 0
 5 11 -5 10.99 0.95 0
 5 11 -4 97.49 2.21 0
 5 11 -2 20.67 1.2 0
 5 11 -1 81.76 2.14 0
 5 11 2 1.9 0.68 0
 5 11 4 5.46 0.88 0
 5 11 5 13.22 1.14 0
 5 11 6 20.76 1.45 0
 5 11 8 21.62 1.51 0
 5 11 9 16.3 1.54 0
 5 13 -6 0.47 0.61 0
 5 13 -5 0.08 0.74 0
 5 13 -4 30.82 1.57 0
 5 13 -2 4.96 0.99 0
 5 13 -1 21.29 1.47 0
 5 13 0 67.63 2.28 0
 5 13 1 15.31 1.47 0
 5 13 4 21.66 1.61 0
 5 13 7 69.25 2.6 0
 5 13 8 2.55 1.17 0
 5 13 9 20.84 1.7 0
 5 15 -4 12.15 1.31 0
 5 15 -3 10.89 1.29 0
 5 15 -1 26.9 1.71 0
 5 15 0 1.08 0.98 0
 5 15 1 2.52 1.08 0
 5 15 3 -0.2 0.95 0
 5 15 4 4.84 1.18 0
 5 15 5 3.54 1.28 0
 6 4 -3 51.07 0.97 0
 6 4 -2 671.99 3.58 0
 6 4 -1 123.89 1.67 0
 6 4 0 120.91 1.72 0
 6 4 1 0.73 0.31 0
 6 6 -7 48.45 0.9 0
 6 6 -6 35.08 0.83 0
 6 6 -4 70.3 1.31 0
 6 6 -2 -0.03 0.37 0
 6 6 -1 393.5 3.32 0
 6 6 0 92.87 1.77 0
 6 6 2 153.58 2.39 0
 6 6 3 283.49 3.28 0
 6 8 -7 1.29 0.38 0
 6 8 -6 6.79 0.6 0
 6 8 -5 7.3 0.62 0
 6 8 -4 0.1 0.33 0
 6 8 -3 5.58 0.65 0
 6 8 3 198.46 3.1 0
 6 8 4 50.03 1.61 0
 6 8 6 3.26 0.73 0
 6 8 7 233.27 3.74 0
 6 10 -6 23.87 1.07 0
 6 10 -5 5.22 0.69 0
 6 10 -4 1.22 0.49 0
 6 10 -2 10.54 0.89 0
 6 10 -1 18.16 1.13 0
 6 10 0 -0.29 0.44 0
 6 10 1 28.23 1.36 0
 6 10 3 2.44 0.78 0
 6 10 4 0.06 0.6 0
 6 10 5 24.46 1.42 0
 6 10 6 3.29 0.85 0
 6 10 7 7.41 1.12 0
 6 10 8 1.81 0.78 0
 6 12 -6 5.03 0.76 0
 6 12 -5 3.51 0.81 0
 6 12 -4 -0.71 0.64 0
 6 12 -3 29.74 1.48 0
 6 12 -2 3.27 0.77 0
 6 12 -1 11.74 1.18 0
 6 12 0 1.33 0.75 0
 6 12 1 0.27 0.68 0
 6 12 2 0.37 0.7 0
 6 12 5 3.71 1 0
 6 12 6 1.64 0.89 0
 6 14 -5 29.64 1.57 0
 6 14 -4 1.54 0.84 0
 6 14 -3 0.46 0.85 0
 6 14 -2 0.19 0.82 0
 6 14 -1 21.61 1.58 0
 6 14 2 0.45 0.91 0
 6 14 3 1.84 1.13 0
 6 14 5 -0.24 1.02 0
 6 14 6 0.6 1.15 0
 6 14 7 0.93 1.1 0
 6 14 8 38.06 2.28 0
 7 7 -6 -0.06 0.29 0
 7 7 -5 11.16 0.65 0
 7 7 -1 22.62 1.03 0
 7 7 4 105.96 2.31 0
 7 9 -1 12.07 0.89 0
 7 9 0 1.63 0.56 0
 7 9 1 137 2.75 0
 7 9 2 5.65 0.81 0
 7 9 3 4.37 0.75 0
 7 9 4 11.28 1.13 0
 7 9 5 134.01 2.9 0
 7 9 6 22.22 1.4 0
 7 11 -5 34.14 1.4 0
 7 11 -4 82.04 2.05 0
 7 11 -3 50.57 1.73 0
 7 11 -2 18.17 1.22 0
 7 11 0 175.73 3.36 0
 7 11 2 2.69 0.9 0
 7 11 3 42.08 1.88 0
 7 11 6 0.65 0.79 0
 7 11 7 5.44 1.04 0
 7 13 -5 5.12 0.94 0
 7 13 -2 2.56 0.83 0
 7 13 -1 16.05 1.42 0
 7 13 0 38.51 1.89 0
 7 13 1 1.96 0.86 0
 7 13 3 23.31 1.73 0
 7 13 6 42.16 2.2 0
 7 15 -2 -0.37 0.75 0
 7 15 -1 5.64 1.16 0
 7 15 0 5.19 1.09 0
 7 15 1 7.67 1.38 0
 7 15 3 21.89 1.85 0
 7 15 4 4.07 1.16 0
 8 8 -5 95.64 1.8 0
 8 8 -4 0.52 0.41 0
 8 8 0 13.34 0.92 0
 8 8 1 1.69 0.58 0
 8 8 2 18.49 1.16 0
 8 10 -5 0.97 0.51 0
 8 10 -4 2.08 0.57 0
 8 10 -3 23.92 1.25 0
 8 10 -2 71.03 1.98 0
 8 10 -1 26.79 1.32 0
 8 10 1 0.65 0.66 0
 8 10 2 48.65 1.89 0
 8 10 3 1.22 0.78 0
 8 10 4 11.63 1.15 0
 8 12 -4 -0.14 0.59 0
 8 12 -3 55.38 1.92 0
 8 12 -2 53.49 1.97 0
 8 12 0 20.84 1.5 0
 8 12 1 0.78 0.82 0
 8 12 2 19.67 1.47 0
 8 14 -2 2.03 0.89 0
 8 14 -1 58.43 2.26 0
 8 14 0 -0.46 0.79 0
 8 14 1 -0.38 0.99 0
 8 14 2 1.92 1.04 0
 8 14 3 13.13 1.62 0
 8 14 4 4.3 1.3 0
 9 11 -4 9.05 0.98 0
 9 11 0 12.85 1.25 0
 9 13 -3 0.45 0.83 0
 9 13 -2 -0.62 0.69 0
 9 13 -1 3.7 1 0
 9 13 0 0.37 0.96 0
 -19 -3 0 0.91 1.4 0
 -19 -3 1 4.22 1.69 0
 -19 -3 2 0.69 1.63 0
 -19 -1 -3 3.29 1.36 0
 -19 -1 -2 51.21 2.81 0
 -19 -1 -1 0.63 1.26 0
 -19 -1 0 5.1 1.7 0
 -19 -1 1 5.13 1.72 0
 -19 -1 3 -1.38 1.34 0
 -19 -1 5 2.86 1.46 0
 -19 1 -3 4.5 1.33 0
 -19 1 -2 54.12 2.75 0
 -19 1 -1 -0.33 1.33 0
 -19 1 0 4.51 1.38 0
 -19 1 1 5.36 1.47 0
 -19 1 2 60.6 2.97 0
 -19 1 3 -0.45 1.53 0
 -19 1 4 34.71 2.5 0
 -19 1 5 5.28 1.59 0
 -19 3 -1 7.11 1.57 0
 -19 3 0 0.39 1.23 0
 -19 3 1 3.63 1.35 0
 -19 3 2 0.76 1.24 0
 -19 3 3 0.96 1.25 0
 -18 -6 0 18.63 2.26 0
 -18 -6 1 7.15 1.84 0
 -18 -6 2 -0.42 1.29 0
 -18 -6 3 1.49 1.63 0
 -18 -4 -5 37.64 2.48 0
 -18 -4 -4 37.84 2.5 0
 -18 -4 -3 0.45 1.24 0
 -18 -4 -1 6.71 1.56 0
 -18 -4 0 4.19 1.43 0
 -18 -4 1 -0.39 1.38 0
 -18 -4 2 1 1.37 0
 -18 -4 3 2.13 1.64 0
 -18 -4 4 2.48 1.61 0
 -18 -4 5 4.87 1.79 0
 -18 -4 6 5.6 1.6 0
 -18 -4 7 0.91 1.47 0
 -18 -2 -6 4.74 1.28 0
 -18 -2 -4 8.22 1.61 0
 -18 -2 -3 2.48 1.41 0
 -18 -2 -1 9.85 1.86 0
 -18 -2 0 2.57 1.38 0
 -18 -2 1 -0.05 1.36 0
 -18 -2 2 0.31 1.24 0
 -18 -2 3 0.71 1.46 0
 -18 -2 4 18.13 2.19 0
 -18 -2 5 0.58 1.39 0
 -18 -2 6 19.88 2.3 0
 -18 -2 7 0.79 1.35 0
 -18 -2 8 0.87 1.56 0
 -18 0 -4 7.5 1.45 0
 -18 0 -2 56.08 2.76 0
 -18 0 0 2.97 1.49 0
 -18 0 2 12.73 1.73 0
 -18 0 4 9.42 1.66 0
 -18 0 8 14.07 1.86 0
 -18 2 -5 24.8 1.92 0
 -18 2 -4 10.07 1.48 0
 -18 2 -2 5.87 1.37 0
 -18 2 -1 10.4 1.66 0
 -18 2 0 2.36 1.2 0
 -18 2 1 -0.08 1.28 0
 -18 2 2 2.04 1.31 0
 -18 2 3 -0.21 1.2 0
 -18 2 4 19.92 2.11 0
 -18 2 5 1.87 1.57 0
 -18 2 6 20.53 2.22 0
 -18 2 7 0.34 1.28 0
 -18 2 8 0.82 1.35 0
 -18 4 -4 35.51 2.11 0
 -18 4 -3 -0.74 0.97 0
 -18 4 0 5.16 1.49 0
 -18 4 1 -0.37 1.23 0
 -18 4 2 -0.03 1.3 0
 -18 4 3 1.11 1.5 0
 -18 4 4 0.5 1.2 0
 -18 4 5 6.63 1.72 0
 -18 4 6 9.08 1.84 0
 -18 4 7 1.27 1.58 0
 -18 6 -2 0.98 1.27 0
 -18 6 -1 1.39 1.35 0
 -18 6 2 0.63 1.25 0
 -18 6 3 0.32 1.3 0
 -17 -7 -3 23.63 2.36 0
 -17 -7 -2 0.58 1.53 0
 -17 -7 -1 -0.58 1.42 0
 -17 -7 0 -0.54 1.58 0
 -17 -7 1 4.44 1.54 0
 -17 -7 2 0.03 1.62 0
 -17 -7 3 1.89 1.54 0
 -17 -7 4 -0.03 1.55 0
 -17 -7 5 2.9 1.63 0
 -17 -7 6 0.66 1.44 0
 -17 -5 -6 19.88 1.99 0
 -17 -5 -5 -0.8 1.03 0
 -17 -5 -4 15.61 1.92 0
 -17 -5 -3 4.14 1.54 0
 -17 -5 -2 0.46 1.15 0
 -17 -5 -1 10.09 1.68 0
 -17 -5 0 1.67 1.33 0
 -17 -5 1 -0.39 1.33 0
 -17 -5 2 2.99 1.35 0
 -17 -5 3 23.48 2.32 0
 -17 -5 4 2.52 1.49 0
 -17 -5 5 -0.41 1.23 0
 -17 -5 6 6.67 1.82 0
 -17 -5 7 29.25 2.43 0
 -17 -5 8 9.09 1.67 0
 -17 -5 9 1.07 1.38 0
 -17 -3 -6 0.02 1.03 0
 -17 -3 -4 1.14 1.27 0
 -17 -3 -3 1.01 1.38 0
 -17 -3 -2 8.24 1.52 0
 -17 -3 -1 0.78 1.17 0
 -17 -3 0 23.15 2.09 0
 -17 -3 1 1.45 1.28 0
 -17 -3 3 9.65 1.79 0
 -17 -3 4 17.76 2.16 0
 -17 -3 5 4.33 1.67 0
 -17 -3 6 6.18 1.54 0
 -17 -3 7 26.12 2.39 0
 -17 -3 8 13.25 1.94 0
 -17 -3 10 22.76 2.23 0
 -17 -1 -6 0.93 1 0
 -17 -1 -5 16.68 1.81 0
 -17 -1 -4 -0.24 1.02 0
 -17 -1 -3 0.52 1.07 0
 -17 -1 -2 3.79 1.47 0
 -17 -1 -1 3.93 1.3 0
 -17 -1 1 -1.01 1.12 0
 -17 -1 2 9.41 1.72 0
 -17 -1 3 0.03 1.23 0
 -17 -1 4 1.7 1.22 0
 -17 -1 6 12.51 1.93 0
 -17 -1 7 -0.83 1.12 0
 -17 -1 8 10.51 1.81 0
 -17 -1 9 3.66 1.57 0
 -17 -1 10 2.2 1.41 0
 -17 -1 11 0.99 1.23 0
 -17 1 -6 1.76 1.14 0
 -17 1 -5 15.42 1.67 0
 -17 1 -3 0.03 1 0
 -17 1 -2 3.52 1.22 0
 -17 1 -1 5.3 1.55 0
 -17 1 0 7.82 1.55 0
 -17 1 1 1.61 1.31 0
 -17 1 2 10.03 1.73 0
 -17 1 3 1.26 1.17 0
 -17 1 4 3.65 1.32 0
 -17 1 5 0.35 1.23 0
 -17 1 6 11.99 1.7 0
 -17 1 7 -0.79 1.15 0
 -17 1 8 13.08 1.76 0
 -17 1 9 0.61 1.45 0
 -17 1 10 1.55 1.45 0
 -17 1 11 0.35 1.16 0
 -17 3 -5 13.79 1.59 0
 -17 3 -4 1.23 1.01 0
 -17 3 -3 2.55 1.27 0
 -17 3 -2 9.68 1.64 0
 -17 3 -1 -1.51 1.01 0
 -17 3 0 22.29 2.05 0
 -17 3 1 0.23 1.07 0
 -17 3 2 5.43 1.46 0
 -17 3 4 19.81 2.01 0
 -17 3 5 3.09 1.29 0
 -17 3 6 6.66 1.49 0
 -17 3 7 27.68 2.25 0
 -17 3 8 13.92 2 0
 -17 3 9 9.31 1.69 0
 -17 5 -4 15.38 1.67 0
 -17 5 -3 4 1.31 0
 -17 5 -2 1.09 1.09 0
 -17 5 -1 9.91 1.59 0
 -17 5 0 0.12 1.12 0
 -17 5 1 1.97 1.39 0
 -17 5 2 1.71 1.3 0
 -17 5 3 22.68 2.14 0
 -17 5 4 3.02 1.26 0
 -17 5 5 -0.22 1.42 0
 -17 5 6 6.74 1.66 0
 -17 5 7 29.81 2.41 0
 -17 5 8 10.05 1.72 0
 -17 5 9 -0.1 1.26 0
 -17 7 -3 21.8 1.84 0
 -17 7 -2 -0.49 0.96 0
 -17 7 -1 0.26 1.04 0
 -17 7 0 0.7 1.21 0
 -17 7 1 2.82 1.23 0
 -17 7 2 0.61 1.38 0
 -17 7 3 3.24 1.48 0
 -17 7 4 0.45 1.16 0
 -17 7 5 1.78 1.49 0
 -16 -8 -5 -0.21 1.23 0
 -16 -8 2 0.26 1.38 0
 -16 -8 3 90.78 3.63 0
 -16 -8 4 3.52 1.63 0
 -16 -8 5 24.82 2.42 0
 -16 -8 6 1.5 1.58 0
 -16 -8 7 9.04 1.82 0
 -16 -6 -7 8.83 1.5 0
 -16 -6 -6 1 1.39 0
 -16 -6 -5 2.86 1.48 0
 -16 -6 -4 0.62 1.39 0
 -16 -6 -3 -0.06 1.15 0
 -16 -6 -1 0.08 1.25 0
 -16 -6 0 1.56 1.24 0
 -16 -6 1 -0.07 1.47 0
 -16 -6 3 18.2 2.03 0
 -16 -6 4 0.71 1.29 0
 -16 -6 5 19.11 2.2 0
 -16 -6 6 8.58 1.63 0
 -16 -6 7 0.51 1.24 0
 -16 -6 8 9.01 1.62 0
 -16 -6 9 5.27 1.56 0
 -16 -6 10 3.21 1.41 0
 -16 -4 -7 1.26 1.2 0
 -16 -4 -6 9.77 1.52 0
 -16 -4 -5 2.25 1.35 0
 -16 -4 -4 6.84 1.55 0
 -16 -4 -2 10.3 1.76 0
 -16 -4 -1 8.78 1.66 0
 -16 -4 0 7.77 1.67 0
 -16 -4 1 8.63 1.52 0
 -16 -4 2 7.03 1.66 0
 -16 -4 3 6 1.55 0
 -16 -4 4 1.05 1.41 0
 -16 -4 5 31.5 2.33 0
 -16 -4 6 62.03 2.98 0
 -16 -4 7 34.5 2.33 0
 -16 -4 8 6.29 1.44 0
 -16 -4 9 10.06 1.62 0
 -16 -4 10 48.19 2.7 0
 -16 -4 11 29.22 2.32 0
 -16 -2 -7 2.6 1.23 0
 -16 -2 -6 9.77 1.49 0
 -16 -2 -5 11.11 1.51 0
 -16 -2 -3 -0.04 1.03 0
 -16 -2 -2 1.5 1.23 0
 -16 -2 1 0.32 1.12 0
 -16 -2 2 9.27 1.58 0
 -16 -2 3 0.5 1.1 0
 -16 -2 4 72.14 2.98 0
 -16 -2 5 5.78 1.45 0
 -16 -2 6 25.67 2.21 0
 -16 -2 7 7.32 1.61 0
 -16 -2 8 17.89 2.03 0
 -16 -2 9 2.21 1.28 0
 -16 -2 10 56.06 2.8 0
 -16 -2 11 4.22 1.38 0
 -16 -2 13 -0.22 1.15 0
 -16 0 -6 0.86 0.89 0
 -16 0 -4 3.55 1.14 0
 -16 0 0 41.26 2.37 0
 -16 0 6 0.45 1.06 0
 -16 0 10 12.84 1.83 0
 -16 0 12 1.52 1.31 0
 -16 2 -6 9.37 1.33 0
 -16 2 -5 9.8 1.42 0
 -16 2 -4 1.81 1.06 0
 -16 2 -3 0.98 1.21 0
 -16 2 -2 0.36 1.09 0
 -16 2 -1 1.47 1.05 0
 -16 2 0 2.36 1.09 0
 -16 2 1 0.52 1.05 0
 -16 2 2 7.74 1.38 0
 -16 2 3 0.64 1.32 0
 -16 2 4 83.04 3.13 0
 -16 2 5 4.43 1.32 0
 -16 2 6 26.66 2.21 0
 -16 2 7 5.8 1.51 0
 -16 2 8 18.08 2 0
 -16 2 9 0.44 1.09 0
 -16 2 10 53.9 2.66 0
 -16 2 11 3.76 1.45 0
 -16 2 12 5.3 1.3 0
 -16 2 13 0.22 1.24 0
 -16 4 -5 2.19 0.99 0
 -16 4 -4 9.11 1.39 0
 -16 4 -3 4.36 1.14 0
 -16 4 -2 9.43 1.43 0
 -16 4 -1 7.59 1.33 0
 -16 4 0 9.6 1.6 0
 -16 4 1 8.86 1.56 0
 -16 4 3 7.21 1.51 0
 -16 4 4 -0.23 1.07 0
 -16 4 7 30.54 2.24 0
 -16 4 8 7.13 1.65 0
 -16 4 9 9.65 1.61 0
 -16 4 10 44.94 2.48 0
 -16 4 11 29.45 2.22 0
 -16 4 12 24.49 2.16 0
 -16 6 -5 1.91 0.97 0
 -16 6 -4 0.52 0.88 0
 -16 6 -3 0.77 1.08 0
 -16 6 -2 0.59 0.99 0
 -16 6 -1 1.26 1.07 0
 -16 6 0 0.46 1.22 0
 -16 6 1 0.63 1.02 0
 -16 6 2 -0.03 1.01 0
 -16 6 3 21.11 1.93 0
 -16 6 4 0.07 1.34 0
 -16 6 5 15.8 1.81 0
 -16 6 6 11.87 1.67 0
 -16 6 7 0.74 1.15 0
 -16 6 8 6.39 1.46 0
 -16 6 9 4.13 1.56 0
 -16 6 10 1.44 1.26 0
 -16 8 -4 2.42 1.15 0
 -16 8 -3 2.12 1.09 0
 -16 8 -2 1.79 1.13 0
 -16 8 -1 26.15 1.99 0
 -16 8 0 0.67 1.23 0
 -16 8 1 0.54 1.12 0
 -16 8 2 -0.08 1.38 0
 -16 8 4 4.85 1.51 0
 -16 8 5 27.24 2.2 0
 -16 8 6 0.98 1.24 0
 -16 8 7 7.78 1.71 0
 -15 -9 6 4.51 1.6 0
 -15 -9 7 2.83 1.6 0
 -15 -9 8 -0.49 1.28 0
 -15 -7 -8 5.86 1.4 0
 -15 -7 -7 22.93 2.06 0
 -15 -7 4 0.73 1.28 0
 -15 -7 6 3.01 1.32 0
 -15 -7 7 21.68 2.09 0
 -15 -7 8 6.99 1.5 0
 -15 -7 9 19.05 2.15 0
 -15 -7 10 0.77 1.18 0
 -15 -7 11 1.74 1.25 0
 -15 -5 -8 3.86 1.13 0
 -15 -5 -7 -0.07 0.96 0
 -15 -5 -6 8.85 1.54 0
 -15 -5 -5 10.39 1.65 0
 -15 -5 -4 52 2.6 0
 -15 -5 -3 18.42 1.89 0
 -15 -5 -2 -0.78 1.01 0
 -15 -5 -1 2.33 1.18 0
 -15 -5 0 22.02 2.02 0
 -15 -5 1 9.67 1.67 0
 -15 -5 3 26.42 2.2 0
 -15 -5 4 1.5 1.4 0
 -15 -5 5 -0.12 1.05 0
 -15 -5 6 0.5 1.35 0
 -15 -5 7 16.82 2.02 0
 -15 -5 8 4.41 1.51 0
 -15 -5 9 0.29 1.12 0
 -15 -5 10 18.27 2.04 0
 -15 -5 11 26.36 2.18 0
 -15 -5 12 6.71 1.4 0
 -15 -3 -8 2.87 0.98 0
 -15 -3 -7 13.27 1.54 0
 -15 -3 -6 13.26 1.59 0
 -15 -3 -5 24.32 1.89 0
 -15 -3 -4 37.71 2.2 0
 -15 -3 -3 1.73 0.99 0
 -15 -3 -2 15.37 1.77 0
 -15 -3 -1 19.35 1.9 0
 -15 -3 1 1.93 1.07 0
 -15 -3 3 4.26 1.29 0
 -15 -3 4 35.84 2.22 0
 -15 -3 5 4.97 1.35 0
 -15 -3 6 -0.39 1.01 0
 -15 -3 7 1.4 1.32 0
 -15 -3 8 17.74 1.94 0
 -15 -3 9 3.26 1.2 0
 -15 -3 10 2.58 1.4 0
 -15 -3 11 6.16 1.43 0
 -15 -3 12 33.47 2.25 0
 -15 -3 13 8.28 1.45 0
 -15 -1 -7 0.43 0.92 0
 -15 -1 -6 5.74 1.18 0
 -15 -1 -4 28.57 1.95 0
 -15 -1 -3 -1.27 1.1 0
 -15 -1 -1 6.2 1.28 0
 -15 -1 0 3.59 1.09 0
 -15 -1 1 -0.2 0.93 0
 -15 -1 2 149.29 3.86 0
 -15 -1 3 5.79 1.42 0
 -15 -1 4 54.86 2.6 0
 -15 -1 5 0.12 1.1 0
 -15 -1 6 4.64 1.27 0
 -15 -1 7 2.73 1.17 0
 -15 -1 9 0.01 0.99 0
 -15 -1 10 1.32 1.26 0
 -15 -1 11 0.07 1.07 0
 -15 -1 12 1.75 1.08 0
 -15 -1 13 0.15 1.02 0
 -15 1 -7 0.66 0.85 0
 -15 1 -6 6.26 1.14 0
 -15 1 -5 3.47 0.99 0
 -15 1 -3 -0.87 0.99 0
 -15 1 -1 5.38 1.19 0
 -15 1 0 6.37 1.23 0
 -15 1 1 0.69 0.98 0
 -15 1 2 145.04 3.77 0
 -15 1 3 5.41 1.25 0
 -15 1 4 55.02 2.51 0
 -15 1 5 1.28 1.04 0
 -15 1 6 6.22 1.49 0
 -15 1 7 2.07 1.07 0
 -15 1 8 2.62 1.14 0
 -15 1 9 0.34 1.07 0
 -15 1 10 0.08 0.97 0
 -15 1 11 -0.34 1.23 0
 -15 1 12 -0.6 1.04 0
 -15 1 13 0.25 1.04 0
 -15 1 14 2.03 1.22 0
 -15 3 -6 12.24 1.35 0
 -15 3 -5 20.13 1.59 0
 -15 3 -4 39.57 2.04 0
 -15 3 -3 3.68 1.03 0
 -15 3 -2 15.52 1.58 0
 -15 3 0 0.47 0.92 0
 -15 3 1 1.47 0.95 0
 -15 3 2 18.66 1.76 0
 -15 3 3 3.46 1.19 0
 -15 3 4 37.17 2.27 0
 -15 3 5 6.05 1.39 0
 -15 3 6 0.8 1.16 0
 -15 3 7 1.85 1.15 0
 -15 3 8 16.78 1.9 0
 -15 3 9 1.74 1.15 0
 -15 3 10 1.05 1.12 0
 -15 3 11 4.4 1.46 0
 -15 3 12 29.04 2.09 0
 -15 3 14 0.06 1.01 0
 -15 5 -6 8.13 1.13 0
 -15 5 -5 13.6 1.42 0
 -15 5 -4 53.62 2.24 0
 -15 5 -3 15.91 1.56 0
 -15 5 -2 0.5 0.93 0
 -15 5 -1 1.98 1.01 0
 -15 5 0 22.53 1.86 0
 -15 5 1 10.97 1.44 0
 -15 5 2 -0.07 0.93 0
 -15 5 3 26.36 2.05 0
 -15 5 4 2.45 1.09 0
 -15 5 5 -0.23 1.13 0
 -15 5 6 -0.52 1.19 0
 -15 5 7 17.34 1.81 0
 -15 5 8 2.24 1.17 0
 -15 5 9 -1.39 1.03 0
 -15 5 10 16.33 1.93 0
 -15 5 11 29.32 2.18 0
 -15 5 12 3.92 1.22 0
 -15 5 13 2.16 1.35 0
 -15 7 -5 -0.08 0.86 0
 -15 7 -4 -0.17 0.99 0
 -15 7 -3 158.98 3.59 0
 -15 7 -2 2.47 1.26 0
 -15 7 -1 54.61 2.47 0
 -15 7 0 0.88 1.07 0
 -15 7 1 111.14 3.35 0
 -15 7 2 1.57 1.13 0
 -15 7 3 96.25 3.23 0
 -15 7 4 2.14 1.42 0
 -15 7 5 20.14 1.87 0
 -15 7 6 2.38 1.24 0
 -15 7 7 20.49 1.91 0
 -15 7 8 5.23 1.34 0
 -15 7 9 17.03 1.99 0
 -15 7 10 0.45 1.15 0
 -15 7 11 1.39 1.15 0
 -15 9 -4 7.54 1.24 0
 -15 9 -3 42.23 2.13 0
 -15 9 -2 0.69 1.03 0
 -15 9 -1 32.04 2.07 0
 -15 9 0 14.82 1.7 0
 -15 9 1 6.31 1.43 0
 -15 9 2 0.65 1.12 0
 -15 9 3 59.94 2.7 0
 -15 9 4 7.14 1.45 0
 -15 9 5 10.35 1.77 0
 -15 9 6 3.96 1.3 0
 -15 9 7 1.89 1.3 0
 -14 -10 8 2.89 1.56 0
 -14 -8 7 32.77 2.31 0
 -14 -8 8 7.46 1.59 0
 -14 -8 9 39.63 2.48 0
 -14 -8 10 4.07 1.51 0
 -14 -8 11 0.88 1.12 0
 -14 -6 -8 4.66 1.27 0
 -14 -6 5 31.14 2.22 0
 -14 -6 6 3.83 1.23 0
 -14 -6 7 1.6 1.19 0
 -14 -6 8 7.03 1.59 0
 -14 -6 9 27.65 2.09 0
 -14 -6 10 38.62 2.34 0
 -14 -6 11 6.87 1.45 0
 -14 -4 -8 0.14 0.84 0
 -14 -4 -7 66.71 2.54 0
 -14 -4 -6 29.99 1.97 0
 -14 -4 -5 37.81 2.11 0
 -14 -4 -4 0.76 1.02 0
 -14 -4 -3 27.29 1.94 0
 -14 -4 -2 6.6 1.39 0
 -14 -4 0 3.18 1.12 0
 -14 -4 1 3.73 1.25 0
 -14 -4 3 14.04 1.68 0
 -14 -4 5 7.79 1.34 0
 -14 -4 7 6.39 1.3 0
 -14 -4 8 2.41 1.12 0
 -14 -4 9 9.56 1.61 0
 -14 -4 11 71.05 2.86 0
 -14 -4 13 4.17 1.33 0
 -14 -2 -8 1.61 0.98 0
 -14 -2 -7 36.68 1.92 0
 -14 -2 -6 2.24 0.97 0
 -14 -2 -5 117.33 3.11 0
 -14 -2 -4 2.01 1.01 0
 -14 -2 -2 -0.59 1.01 0
 -14 -2 -1 138.05 3.53 0
 -14 -2 0 0.4 0.96 0
 -14 -2 1 1.68 0.93 0
 -14 -2 2 13.38 1.52 0
 -14 -2 3 74.9 2.77 0
 -14 -2 6 0.15 0.91 0
 -14 -2 7 4.96 1.18 0
 -14 -2 8 26.01 1.92 0
 -14 -2 9 23.25 1.98 0
 -14 -2 10 20 1.82 0
 -14 -2 12 2.56 1.21 0
 -14 -2 13 1.01 1.07 0
 -14 0 -2 4.57 1.12 0
 -14 0 0 44.06 2.09 0
 -14 0 4 194.76 4.21 0
 -14 0 10 0.55 0.92 0
 -14 0 12 57.97 2.53 0
 -14 0 14 6.9 1.39 0
 -14 2 -7 36.93 1.71 0
 -14 2 -6 2.37 0.88 0
 -14 2 -5 120.93 2.95 0
 -14 2 -4 2.4 0.89 0
 -14 2 -3 8.57 1.16 0
 -14 2 -2 -0.41 0.73 0
 -14 2 -1 135.4 3.35 0
 -14 2 0 0.24 1 0
 -14 2 1 1.02 1.08 0
 -14 2 2 13.17 1.49 0
 -14 2 4 24.23 1.84 0
 -14 2 5 27.17 1.91 0
 -14 2 6 -0.46 0.91 0
 -14 2 8 23.01 1.79 0
 -14 2 9 21.78 1.77 0
 -14 2 10 21.93 1.88 0
 -14 2 11 8.58 1.37 0
 -14 2 12 2.84 1.31 0
 -14 2 13 1.92 1.25 0
 -14 2 14 1.3 0.98 0
 -14 4 -6 33.67 1.7 0
 -14 4 -5 36.69 1.81 0
 -14 4 -4 0.72 0.81 0
 -14 4 -3 28.02 1.75 0
 -14 4 -2 9.2 1.33 0
 -14 4 0 3.66 1.04 0
 -14 4 1 3.25 1.01 0
 -14 4 2 11.13 1.44 0
 -14 4 4 0.19 0.9 0
 -14 4 6 9.29 1.46 0
 -14 4 7 7.74 1.47 0
 -14 4 8 2.18 1.1 0
 -14 4 9 9.23 1.41 0
 -14 4 10 54.46 2.5 0
 -14 4 11 70.91 2.78 0
 -14 4 12 80.32 2.88 0
 -14 4 13 2.48 1.25 0
 -14 4 14 2.91 1.23 0
 -14 6 -6 35.35 1.71 0
 -14 6 -5 3.6 1.03 0
 -14 6 -4 23.79 1.64 0
 -14 6 -3 16.89 1.51 0
 -14 6 -2 14.72 1.56 0
 -14 6 -1 0.24 1.03 0
 -14 6 0 22.72 1.69 0
 -14 6 1 8.58 1.39 0
 -14 6 2 8.25 1.41 0
 -14 6 6 6.53 1.28 0
 -14 6 7 1.61 1.01 0
 -14 6 8 8.45 1.47 0
 -14 6 9 25.98 1.93 0
 -14 6 10 40.99 2.35 0
 -14 6 11 6.21 1.36 0
 -14 6 12 15.67 1.78 0
 -14 6 13 0.77 1.26 0
 -14 8 -5 1.44 0.84 0
 -14 8 -4 0.69 0.91 0
 -14 8 -3 42.95 2.06 0
 -14 8 -2 0.17 1.06 0
 -14 8 -1 -0.5 0.97 0
 -14 8 2 2.71 1.11 0
 -14 8 3 28.17 2.02 0
 -14 8 4 5.98 1.32 0
 -14 8 5 28.3 2.11 0
 -14 8 6 0.2 1.12 0
 -14 8 7 28.12 2.13 0
 -14 8 8 4.1 1.4 0
 -14 8 9 40.77 2.36 0
 -14 8 11 1.4 1.15 0
 -14 10 -4 -0.09 1.02 0
 -14 10 -3 1.81 1.15 0
 -14 10 -2 27.67 1.89 0
 -14 10 -1 -1.34 1.08 0
 -14 10 0 9.19 1.5 0
 -14 10 1 10.62 1.48 0
 -14 10 2 1.92 1.31 0
 -14 10 4 1.88 1.42 0
 -14 10 5 0.13 1.06 0
 -14 10 7 4.49 1.42 0
 -13 -9 9 3.15 1.36 0
 -13 -9 10 2.56 1.37 0
 -13 -9 11 0.76 1.17 0
 -13 -7 8 1.6 1.16 0
 -13 -7 9 6.85 1.31 0
 -13 -7 11 27.74 2.06 0
 -13 -5 -9 27.83 1.75 0
 -13 -5 5 0.45 0.86 0
 -13 -5 6 8.59 1.32 0
 -13 -5 7 1.34 0.98 0
 -13 -5 9 0.14 0.96 0
 -13 -5 10 3.74 1.15 0
 -13 -5 11 8.36 1.49 0
 -13 -5 12 31.32 2.06 0
 -13 -5 13 2.9 1.05 0
 -13 -3 -8 59.56 2.19 0
 -13 -3 -6 21.64 1.61 0
 -13 -3 -5 -0.82 0.87 0
 -13 -3 -4 239.62 4.47 0
 -13 -3 -3 16.31 1.51 0
 -13 -3 -2 8.93 1.19 0
 -13 -3 -1 0.78 0.81 0
 -13 -3 1 0.69 0.79 0
 -13 -3 2 48.82 2.18 0
 -13 -3 3 0.92 0.82 0
 -13 -3 4 0.09 0.87 0
 -13 -3 5 30.38 1.86 0
 -13 -3 6 1.7 0.91 0
 -13 -3 7 49.76 2.26 0
 -13 -3 9 9.5 1.34 0
 -13 -3 11 69.94 2.65 0
 -13 -3 12 15.79 1.66 0
 -13 -3 13 0.76 1.04 0
 -13 -1 -8 3.71 0.85 0
 -13 -1 -7 2.43 0.92 0
 -13 -1 -6 67.74 2.27 0
 -13 -1 -5 16.77 1.41 0
 -13 -1 -4 49.74 2.06 0
 -13 -1 -3 -0.3 0.67 0
 -13 -1 -2 19.59 1.57 0
 -13 -1 -1 14.78 1.47 0
 -13 -1 0 13.48 1.43 0
 -13 -1 1 1.74 0.77 0
 -13 -1 2 204.28 4.01 0
 -13 -1 3 1.96 0.91 0
 -13 -1 5 7.04 1.25 0
 -13 -1 7 4.5 1.1 0
 -13 -1 8 48.96 2.32 0
 -13 -1 9 1.62 0.91 0
 -13 -1 10 3 1.13 0
 -13 -1 11 7.47 1.39 0
 -13 -1 12 0.36 0.87 0
 -13 -1 13 -0.68 1.05 0
 -13 -1 14 8.07 1.31 0
 -13 1 -8 2.87 0.81 0
 -13 1 -7 2.86 0.79 0
 -13 1 -6 64.78 2.13 0
 -13 1 -5 16.91 1.36 0
 -13 1 -3 0.39 0.77 0
 -13 1 -2 19.74 1.5 0
 -13 1 -1 13.38 1.35 0
 -13 1 0 15.01 1.39 0
 -13 1 1 0.84 0.94 0
 -13 1 2 220.93 4.27 0
 -13 1 3 2.67 0.91 0
 -13 1 4 67.29 2.44 0
 -13 1 5 6.52 1.1 0
 -13 1 6 42.84 2.09 0
 -13 1 7 4.61 1.2 0
 -13 1 8 49.21 2.28 0
 -13 1 9 0.69 0.91 0
 -13 1 11 5.46 1.12 0
 -13 1 12 0.46 0.9 0
 -13 1 13 -0.85 1.01 0
 -13 1 14 7.5 1.19 0
 -13 3 -7 22.38 1.36 0
 -13 3 -6 18.92 1.36 0
 -13 3 -5 -0.63 0.83 0
 -13 3 -4 240.95 4.09 0
 -13 3 -3 18.1 1.46 0
 -13 3 -2 9.04 1.22 0
 -13 3 -1 -0.31 0.67 0
 -13 3 0 130.55 3.18 0
 -13 3 1 0.38 0.86 0
 -13 3 3 1.06 0.95 0
 -13 3 4 0.48 0.91 0
 -13 3 5 28.94 1.84 0
 -13 3 6 2.62 1 0
 -13 3 7 52.02 2.3 0
 -13 3 8 2.62 0.96 0
 -13 3 9 11.21 1.38 0
 -13 3 11 66.8 2.57 0
 -13 3 13 -0.45 1.05 0
 -13 3 14 -0.82 0.82 0
 -13 5 -6 9.64 1.16 0
 -13 5 -5 51.62 1.95 0
 -13 5 -4 52.7 2.05 0
 -13 5 -3 60.58 2.19 0
 -13 5 -1 6.98 1.22 0
 -13 5 0 24.42 1.63 0
 -13 5 2 26.34 1.64 0
 -13 5 3 3.66 1.08 0
 -13 5 4 -0.57 0.72 0
 -13 5 5 -0.54 0.81 0
 -13 5 7 0.31 0.87 0
 -13 5 8 15.15 1.66 0
 -13 5 9 0.83 1.12 0
 -13 5 10 3.45 1.26 0
 -13 5 11 7.77 1.44 0
 -13 5 13 4.51 1.15 0
 -13 5 14 6.97 1.24 0
 -13 7 -6 0.39 0.71 0
 -13 7 -5 33.12 1.68 0
 -13 7 -4 4.4 0.98 0
 -13 7 -3 49.3 2.08 0
 -13 7 -2 0.51 0.81 0
 -13 7 -1 3.71 0.98 0
 -13 7 0 5.14 1.14 0
 -13 7 1 117.1 3.16 0
 -13 7 2 1 1.03 0
 -13 7 3 147.9 3.6 0
 -13 7 4 15.25 1.66 0
 -13 7 6 30.01 2.01 0
 -13 7 7 89.81 3 0
 -13 7 8 2.87 1.12 0
 -13 7 9 6.68 1.48 0
 -13 7 10 14.88 1.77 0
 -13 7 11 32.42 2.14 0
 -13 7 12 16.14 1.78 0
 -13 7 13 20.83 1.81 0
 -13 7 14 0.61 1.08 0
 -13 9 -3 26.16 1.74 0
 -13 9 -2 12.96 1.48 0
 -13 9 -1 3.93 1.16 0
 -13 9 1 61.73 2.54 0
 -13 9 2 4.64 1.16 0
 -13 9 3 41.21 2.18 0
 -13 9 4 11.51 1.5 0
 -13 9 5 -0.61 1.22 0
 -13 9 6 7.23 1.4 0
 -13 9 7 15.12 1.73 0
 -13 9 8 2.71 1.19 0
 -13 9 10 4.84 1.25 0
 -13 9 11 -1.17 1.04 0
 -13 11 -1 7.81 1.26 0
 -13 11 0 2.38 1.1 0
 -13 11 2 8.27 1.48 0
 -13 11 3 2.31 1.38 0
 -13 11 4 5.01 1.49 0
 -13 11 5 5.1 1.3 0
 -13 11 6 26.15 2.13 0
 -13 11 7 1.52 1.22 0
 -12 -10 10 1.6 1.19 0
 -12 -8 10 -0.27 0.98 0
 -12 -8 11 14.72 1.7 0
 -12 -6 8 42.24 2.2 0
 -12 -6 9 5.92 1.29 0
 -12 -6 10 5.25 1.16 0
 -12 -6 11 16.78 1.71 0
 -12 -6 12 4.12 1.25 0
 -12 -4 -9 0.93 0.88 0
 -12 -4 5 54.61 2.3 0
 -12 -4 6 56.82 2.35 0
 -12 -4 7 63.97 2.45 0
 -12 -4 8 -0 0.9 0
 -12 -4 9 5.07 1.1 0
 -12 -4 10 0.08 0.94 0
 -12 -4 11 2.48 1.05 0
 -12 -4 13 12.59 1.49 0
 -12 -2 -9 0.07 0.65 0
 -12 -2 -8 9.06 1.11 0
 -12 -2 -7 11.04 1.18 0
 -12 -2 -6 145.94 3.07 0
 -12 -2 -5 18.88 1.41 0
 -12 -2 -4 36.47 1.77 0
 -12 -2 -3 16.03 1.36 0
 -12 -2 -2 2.27 0.87 0
 -12 -2 -1 65.07 2.28 0
 -12 -2 0 1.16 0.77 0
 -12 -2 1 18.1 1.46 0
 -12 -2 2 0.04 0.75 0
 -12 -2 3 138.13 3.25 0
 -12 -2 4 4.64 0.93 0
 -12 -2 5 3.25 0.96 0
 -12 -2 6 6 1.1 0
 -12 -2 7 102.42 2.87 0
 -12 -2 8 -0.27 0.89 0
 -12 -2 9 8.97 1.24 0
 -12 -2 10 0.75 0.87 0
 -12 -2 11 15.93 1.54 0
 -12 -2 12 13.62 1.46 0
 -12 -2 13 6.1 1.09 0
 -12 0 -4 55.4 1.96 0
 -12 0 -2 17.76 1.38 0
 -12 0 0 20.87 1.45 0
 -12 0 2 79.81 2.45 0
 -12 0 4 2 0.76 0
 -12 0 6 27.46 1.73 0
 -12 0 8 20.46 1.57 0
 -12 0 10 31.95 1.82 0
 -12 0 12 4.42 1.16 0
 -12 0 14 0.98 0.95 0
 -12 2 -8 11.74 1 0
 -12 2 -7 9.22 1.02 0
 -12 2 -5 18.21 1.26 0
 -12 2 -4 38.89 1.68 0
 -12 2 -3 17.32 1.27 0
 -12 2 -2 2.48 0.74 0
 -12 2 -1 68.06 2.22 0
 -12 2 0 0.87 0.85 0
 -12 2 1 18.75 1.38 0
 -12 2 2 -0.21 0.66 0
 -12 2 4 5.52 0.96 0
 -12 2 5 3.38 0.97 0
 -12 2 6 7.4 1.07 0
 -12 2 7 104.06 2.9 0
 -12 2 8 0.07 0.8 0
 -12 2 9 7.1 1.09 0
 -12 2 10 0.69 1.01 0
 -12 2 11 13.69 1.47 0
 -12 2 12 12.68 1.44 0
 -12 2 13 6.68 1.19 0
 -12 2 14 12.64 1.42 0
 -12 4 -7 66.17 1.87 0
 -12 4 -6 30 1.44 0
 -12 4 -5 44.63 1.74 0
 -12 4 -4 13.27 1.22 0
 -12 4 -2 8.68 1.08 0
 -12 4 0 0.52 0.68 0
 -12 4 1 80.54 2.47 0
 -12 4 3 84.11 2.57 0
 -12 4 4 5.17 1.01 0
 -12 4 5 54.85 2.21 0
 -12 4 6 59.75 2.32 0
 -12 4 7 68.17 2.43 0
 -12 4 8 -0.22 0.78 0
 -12 4 9 4.05 1.03 0
 -12 4 10 1.09 0.84 0
 -12 4 11 3.28 1.21 0
 -12 4 12 28.69 1.84 0
 -12 4 13 9.37 1.33 0
 -12 4 14 0.26 1.05 0
 -12 6 -6 -0.3 0.68 0
 -12 6 -5 2.67 0.87 0
 -12 6 -4 3.22 0.92 0
 -12 6 -3 6.38 1.06 0
 -12 6 -2 0.79 0.85 0
 -12 6 0 0.44 0.76 0
 -12 6 1 6.77 1.2 0
 -12 6 2 16.67 1.48 0
 -12 6 3 25.14 1.68 0
 -12 6 4 5.76 1.07 0
 -12 6 5 2.74 0.88 0
 -12 6 7 8.6 1.28 0
 -12 6 9 3.29 1.19 0
 -12 6 10 7.01 1.34 0
 -12 6 11 16.97 1.71 0
 -12 6 12 2.36 1.02 0
 -12 6 13 1.25 1.15 0
 -12 6 14 13.43 1.55 0
 -12 6 15 1.06 0.93 0
 -12 8 -6 21.03 1.35 0
 -12 8 -5 24.58 1.48 0
 -12 8 -4 0.79 0.86 0
 -12 8 -2 7.48 1.1 0
 -12 8 -1 5.1 1.05 0
 -12 8 0 1.69 0.86 0
 -12 8 1 61 2.4 0
 -12 8 2 23.81 1.78 0
 -12 8 4 -0.86 0.98 0
 -12 8 5 23.86 1.76 0
 -12 8 6 21.7 1.72 0
 -12 8 7 12.75 1.5 0
 -12 8 8 21.57 1.81 0
 -12 8 9 23.31 1.91 0
 -12 8 10 0.38 1.05 0
 -12 8 11 16.69 1.73 0
 -12 8 12 8.19 1.42 0
 -12 8 13 0.44 1.04 0
 -12 8 14 1.62 1.22 0
 -12 10 -4 0.9 0.91 0
 -12 10 -3 0.03 0.87 0
 -12 10 -2 22.96 1.68 0
 -12 10 0 4.77 1.3 0
 -12 10 1 1.19 0.99 0
 -12 10 2 19.26 1.77 0
 -12 10 3 4.9 1.3 0
 -12 10 4 8.2 1.51 0
 -12 10 5 14.94 1.7 0
 -12 10 6 4.31 1.37 0
 -12 10 7 8.55 1.43 0
 -12 10 8 -0.48 1.06 0
 -12 10 9 2.68 1.39 0
 -12 10 10 3.35 1.18 0
 -12 10 11 -2.04 1.12 0
 -11 -9 11 32.22 2.04 0
 -11 -7 10 49.93 2.31 0
 -11 -7 11 2.41 1.16 0
 -11 -7 12 1.18 0.96 0
 -11 -5 8 1.98 0.92 0
 -11 -5 9 1.9 1 0
 -11 -5 10 35.86 1.93 0
 -11 -5 11 51.94 2.19 0
 -11 -5 12 43.28 2.02 0
 -11 -5 13 12.19 1.41 0
 -11 -3 -9 -0.49 0.58 0
 -11 -3 -8 34.78 1.59 0
 -11 -3 4 26.23 1.58 0
 -11 -3 5 6.69 1.09 0
 -11 -3 6 3.39 0.83 0
 -11 -3 7 0.59 0.81 0
 -11 -3 8 19.63 1.5 0
 -11 -3 9 49.09 2.07 0
 -11 -3 10 23.05 1.63 0
 -11 -3 11 82.41 2.56 0
 -11 -3 12 129.68 3.09 0
 -11 -3 13 1.85 0.94 0
 -11 -1 3 44.15 1.8 0
 -11 -1 4 52.55 1.97 0
 -11 -1 5 36.04 1.76 0
 -11 -1 6 53.63 2.04 0
 -11 -1 8 38.66 1.85 0
 -11 -1 9 51.26 2.08 0
 -11 -1 10 74.3 2.42 0
 -11 -1 11 4.18 0.94 0
 -11 -1 12 4.07 0.92 0
 -11 -1 13 16.59 1.41 0
 -11 1 3 41.93 1.7 0
 -11 1 4 49.63 1.9 0
 -11 1 5 36.17 1.71 0
 -11 1 6 57.22 2.1 0
 -11 1 7 3.55 0.84 0
 -11 1 8 36.32 1.76 0
 -11 1 9 51.06 2.04 0
 -11 1 10 80.85 2.49 0
 -11 1 11 4.86 0.99 0
 -11 1 12 3.04 0.87 0
 -11 1 13 13.19 1.36 0
 -11 1 14 0.44 0.76 0
 -11 3 1 59.74 2.02 0
 -11 3 2 98.2 2.56 0
 -11 3 3 81.41 2.37 0
 -11 3 4 26.1 1.54 0
 -11 3 5 5.5 1.01 0
 -11 3 6 5 0.88 0
 -11 3 7 1.63 0.76 0
 -11 3 8 16.03 1.35 0
 -11 3 10 21.4 1.57 0
 -11 3 11 79 2.51 0
 -11 3 12 129.81 3.09 0
 -11 3 13 3.11 0.95 0
 -11 3 14 0.48 0.93 0
 -11 5 -7 24.83 1.24 0
 -11 5 -6 0.99 0.63 0
 -11 5 -5 50.3 1.72 0
 -11 5 -4 49.09 1.76 0
 -11 5 -3 79.62 2.2 0
 -11 5 0 46.12 1.79 0
 -11 5 1 113.89 2.77 0
 -11 5 2 131.7 2.97 0
 -11 5 4 2.94 0.78 0
 -11 5 5 4.6 0.89 0
 -11 5 6 6.04 1 0
 -11 5 7 -0.19 0.81 0
 -11 5 8 1.5 0.89 0
 -11 5 10 31.39 1.86 0
 -11 5 11 54.76 2.2 0
 -11 5 12 43.06 2.06 0
 -11 5 13 15.55 1.5 0
 -11 5 14 3.98 1.04 0
 -11 5 15 21.75 1.6 0
 -11 7 -7 42.69 1.53 0
 -11 7 -6 0.48 0.72 0
 -11 7 -5 72.67 2.07 0
 -11 7 -4 0.52 0.67 0
 -11 7 -3 38.02 1.71 0
 -11 7 -2 2.86 0.78 0
 -11 7 -1 70.11 2.24 0
 -11 7 0 1.3 0.73 0
 -11 7 1 5.01 1.05 0
 -11 7 2 21.07 1.56 0
 -11 7 3 0.55 0.81 0
 -11 7 5 35.38 1.85 0
 -11 7 6 2.15 0.94 0
 -11 7 7 -0.08 0.77 0
 -11 7 8 36.11 1.98 0
 -11 7 9 29.75 1.82 0
 -11 7 10 44.8 2.17 0
 -11 7 11 4.68 1.13 0
 -11 7 12 0.15 0.91 0
 -11 7 13 2.6 1.04 0
 -11 7 14 15.73 1.53 0
 -11 9 -3 22.58 1.49 0
 -11 9 -1 43.43 1.95 0
 -11 9 0 0.32 0.8 0
 -11 9 1 0.38 1.03 0
 -11 9 2 1.88 0.91 0
 -11 9 3 1.24 0.93 0
 -11 9 4 2.13 1.05 0
 -11 9 5 10.45 1.35 0
 -11 9 6 1.32 1.19 0
 -11 9 7 4.94 1.31 0
 -11 9 8 6.6 1.37 0
 -11 9 9 12.66 1.52 0
 -11 9 10 1.94 1.2 0
 -11 9 11 33.26 2.08 0
 -11 9 12 1.37 1.22 0
 -11 11 0 0.54 1.04 0
 -11 11 2 15.02 1.62 0
 -11 11 3 3.3 1.08 0
 -11 11 4 -0.94 0.87 0
 -11 11 5 0.14 1.09 0
 -11 11 6 0.22 0.99 0
 -11 11 7 3.11 1.37 0
 -10 -8 11 80.14 2.68 0
 -10 -6 10 23.44 1.64 0
 -10 -6 11 54.71 2.17 0
 -10 -6 12 2.56 0.91 0
 -10 -4 7 20.04 1.44 0
 -10 -4 9 56.97 2.08 0
 -10 -4 10 35.83 1.77 0
 -10 -4 11 72.54 2.31 0
 -10 -4 12 -0.67 0.77 0
 -10 -4 13 23.83 1.49 0
 -10 -2 8 13.04 1.21 0
 -10 -2 9 41.8 1.81 0
 -10 -2 10 1.53 0.71 0
 -10 -2 11 65.31 2.15 0
 -10 -2 12 6.5 1 0
 -10 -2 13 4.69 0.9 0
 -10 0 -8 501.09 4.44 0
 -10 0 -6 486.85 4.65 0
 -10 0 -4 50.52 1.66 0
 -10 0 -2 218.59 3.41 0
 -10 0 0 15.27 1.12 0
 -10 0 10 20.86 1.42 0
 -10 0 12 32.62 1.62 0
 -10 0 14 30.3 1.53 0
 -10 2 -7 0.62 0.56 0
 -10 2 -5 2.46 0.59 0
 -10 2 -2 12.05 0.98 0
 -10 2 7 24.64 1.41 0
 -10 2 8 13.28 1.2 0
 -10 2 9 45.68 1.86 0
 -10 2 10 2.81 0.77 0
 -10 2 11 66.09 2.16 0
 -10 2 12 6.17 1.03 0
 -10 2 13 4.43 0.99 0
 -10 2 14 0.61 0.78 0
 -10 4 -8 8.92 0.76 0
 -10 4 -7 11.06 0.86 0
 -10 4 -6 10.59 0.92 0
 -10 4 3 7.85 0.98 0
 -10 4 4 45.48 1.81 0
 -10 4 5 50.75 1.92 0
 -10 4 7 18.86 1.33 0
 -10 4 8 9.79 1.21 0
 -10 4 11 68.74 2.27 0
 -10 4 12 -0.8 0.72 0
 -10 4 13 22.09 1.51 0
 -10 4 14 15.08 1.33 0
 -10 6 -5 1.07 0.66 0
 -10 6 -4 8.06 0.95 0
 -10 6 -3 1.61 0.62 0
 -10 6 -2 102.3 2.43 0
 -10 6 1 7.37 1.02 0
 -10 6 2 64.93 2.14 0
 -10 6 5 15.53 1.32 0
 -10 6 6 14.77 1.36 0
 -10 6 7 113.2 2.86 0
 -10 6 8 11.55 1.3 0
 -10 6 9 22.17 1.55 0
 -10 6 10 25.12 1.68 0
 -10 6 12 1.8 0.96 0
 -10 6 13 11.35 1.35 0
 -10 6 14 0.34 0.92 0
 -10 8 -6 25.93 1.31 0
 -10 8 -5 15.6 1.19 0
 -10 8 -4 2.65 0.86 0
 -10 8 -3 24.86 1.47 0
 -10 8 -2 8.16 1 0
 -10 8 -1 0.29 0.77 0
 -10 8 0 0.02 0.67 0
 -10 8 1 1.52 0.8 0
 -10 8 2 10.27 1.16 0
 -10 8 3 104.9 2.78 0
 -10 8 4 2.71 0.98 0
 -10 8 5 2.97 0.88 0
 -10 8 6 46.5 2.07 0
 -10 8 7 90.2 2.72 0
 -10 8 8 8.5 1.23 0
 -10 8 9 -0.67 0.84 0
 -10 8 10 20.55 1.7 0
 -10 8 11 81.4 2.69 0
 -10 8 12 26.22 1.76 0
 -10 10 -3 -0.2 0.88 0
 -10 10 -2 19.47 1.46 0
 -10 10 -1 74.24 2.42 0
 -10 10 0 2.75 1.09 0
 -10 10 1 13.57 1.39 0
 -10 10 2 5.82 1.25 0
 -10 10 4 0.93 1.05 0
 -10 10 5 0.83 0.91 0
 -10 10 6 -0.21 1.06 0
 -10 10 7 18.76 1.73 0
 -10 10 8 -1.18 1.01 0
 -10 10 9 -0.26 1.03 0
 -9 -5 9 0.62 0.75 0
 -9 -5 10 0.51 0.75 0
 -9 -5 11 5.6 0.95 0
 -9 -5 12 6.94 0.98 0
 -9 -3 12 39.96 1.66 0
 -9 -3 13 4.57 0.89 0
 -9 -1 -9 1.06 0.5 0
 -9 -1 -8 11.8 0.88 0
 -9 -1 -7 47.52 1.47 0
 -9 -1 -6 54.94 1.59 0
 -9 -1 -5 0.45 0.49 0
 -9 -1 -1 0.31 0.44 0
 -9 -1 0 73.12 1.92 0
 -9 -1 2 180.37 3.02 0
 -9 -1 3 8.37 0.86 0
 -9 -1 4 149.1 2.77 0
 -9 -1 12 13.88 1.14 0
 -9 -1 13 23.11 1.32 0
 -9 1 -9 0.41 0.4 0
 -9 1 -7 45.77 1.33 0
 -9 1 -6 53.44 1.48 0
 -9 1 -5 0.39 0.47 0
 -9 1 -4 80.01 1.87 0
 -9 1 -3 40.68 1.43 0
 -9 1 -2 31.61 1.27 0
 -9 1 -1 0.29 0.51 0
 -9 1 1 13.02 1.01 0
 -9 1 2 178.75 2.98 0
 -9 1 3 7.36 0.84 0
 -9 1 4 151.01 2.81 0
 -9 1 5 8.82 0.93 0
 -9 1 11 0.42 0.59 0
 -9 1 12 13.07 1.15 0
 -9 1 13 22.2 1.3 0
 -9 1 14 146.31 2.74 0
 -9 3 -8 5.21 0.61 0
 -9 3 -3 43.75 1.46 0
 -9 3 -2 0.23 0.56 0
 -9 3 -1 15.99 0.96 0
 -9 3 0 -0.48 0.44 0
 -9 3 1 0.28 0.47 0
 -9 3 2 34.76 1.47 0
 -9 3 9 9.01 1.07 0
 -9 3 10 3.3 0.87 0
 -9 3 11 6.21 0.91 0
 -9 3 12 38.64 1.64 0
 -9 3 13 3.96 0.82 0
 -9 3 14 3.5 0.8 0
 -9 5 -8 7.9 0.67 0
 -9 5 -7 -0.14 0.41 0
 -9 5 -6 46.87 1.4 0
 -9 5 -5 0.68 0.48 0
 -9 5 -4 0.73 0.57 0
 -9 5 4 18.18 1.24 0
 -9 5 5 7.76 0.96 0
 -9 5 6 62.3 1.99 0
 -9 5 7 7.19 1.01 0
 -9 5 8 2.86 0.89 0
 -9 5 9 1.98 0.82 0
 -9 5 10 -0.32 0.62 0
 -9 5 11 6.39 1.02 0
 -9 5 12 6.87 1.1 0
 -9 5 13 4.81 0.93 0
 -9 5 14 0.99 0.85 0
 -9 5 15 4.18 0.96 0
 -9 7 -4 9.6 0.93 0
 -9 7 -2 24.38 1.36 0
 -9 7 -1 82.83 2.2 0
 -9 7 0 5.57 0.91 0
 -9 7 2 1.57 0.65 0
 -9 7 5 116.95 2.81 0
 -9 7 7 96.41 2.64 0
 -9 7 8 33.43 1.69 0
 -9 7 10 5.04 1.1 0
 -9 7 12 8.51 1.27 0
 -9 7 13 7.32 1.15 0
 -9 7 14 12.13 1.37 0
 -9 9 -4 2.08 0.7 0
 -9 9 -3 23.57 1.39 0
 -9 9 -2 2.58 0.74 0
 -9 9 -1 15.12 1.26 0
 -9 9 0 0.38 0.69 0
 -9 9 2 2.27 0.8 0
 -9 9 3 2.23 0.83 0
 -9 9 4 -0.1 0.67 0
 -9 9 6 1.63 0.88 0
 -9 9 7 5.99 1.07 0
 -9 9 8 13.65 1.53 0
 -9 9 9 136.39 3.28 0
 -9 9 10 1.9 1.13 0
 -9 9 11 112.85 3.1 0
 -8 -6 11 32.94 1.6 0
 -8 -6 12 6.96 0.95 0
 -8 -2 -10 64.29 1.47 0
 -8 -2 5 0.67 0.53 0
 -8 -2 6 2.94 0.7 0
 -8 -2 7 20.57 1.17 0
 -8 -2 8 63.79 1.84 0
 -8 -2 9 38.92 1.52 0
 -8 0 -8 59.77 1.37 0
 -8 0 -6 151.4 2.32 0
 -8 0 -4 69.04 1.63 0
 -8 0 -2 425.33 3.99 0
 -8 0 4 343.15 3.86 0
 -8 0 6 297.95 3.71 0
 -8 0 8 133.37 2.54 0
 -8 2 -8 3.02 0.45 0
 -8 2 -7 86.85 1.6 0
 -8 2 -6 4.71 0.59 0
 -8 2 -5 18.05 0.91 0
 -8 2 -4 2.97 0.58 0
 -8 2 -3 0.61 0.42 0
 -8 2 -2 21.29 0.99 0
 -8 2 0 8.23 0.78 0
 -8 2 1 48.94 1.48 0
 -8 2 2 194.8 2.9 0
 -8 2 3 51.19 1.56 0
 -8 2 5 0.4 0.48 0
 -8 2 7 22.31 1.21 0
 -8 2 8 54.23 1.72 0
 -8 2 12 2.27 0.66 0
 -8 2 13 26.62 1.3 0
 -8 2 14 2.55 0.73 0
 -8 4 -8 1.27 0.38 0
 -8 4 -7 19.46 0.85 0
 -8 4 -5 7.87 0.7 0
 -8 4 -4 127.52 2.2 0
 -8 4 -3 259.43 3.16 0
 -8 4 -2 358.21 3.77 0
 -8 4 0 187.74 2.9 0
 -8 4 1 633.88 5.24 0
 -8 4 2 1120.32 7.04 0
 -8 4 3 244.31 3.39 0
 -8 4 9 0.64 0.56 0
 -8 4 10 13.22 1.1 0
 -8 4 11 1.64 0.64 0
 -8 4 12 0.32 0.6 0
 -8 4 13 0.79 0.61 0
 -8 4 14 3.49 0.75 0
 -8 6 -8 9.39 0.66 0
 -8 6 -7 14.97 0.82 0
 -8 6 -5 14.17 0.9 0
 -8 6 -4 32.87 1.25 0
 -8 6 -3 61.95 1.7 0
 -8 6 5 3.12 0.75 0
 -8 6 6 53.1 1.85 0
 -8 6 7 190.78 3.43 0
 -8 6 8 71.95 2.17 0
 -8 6 9 66.64 2.11 0
 -8 6 10 4.58 0.84 0
 -8 6 11 32.55 1.62 0
 -8 6 12 6.86 1.07 0
 -8 6 13 16.51 1.31 0
 -8 6 14 3.9 0.85 0
 -8 8 -5 7.59 0.88 0
 -8 8 -4 2.17 0.71 0
 -8 8 -3 10.98 0.99 0
 -8 8 -1 1.57 0.65 0
 -8 8 0 13.81 1.15 0
 -8 8 1 5.22 0.87 0
 -8 8 2 0.81 0.74 0
 -8 8 4 0.39 0.61 0
 -8 8 5 102.54 2.64 0
 -8 8 6 10.33 1.17 0
 -8 8 7 23.73 1.54 0
 -8 8 8 -0.13 0.72 0
 -8 8 9 104.24 2.76 0
 -8 8 10 17.84 1.48 0
 -8 8 11 -0.22 0.83 0
 -8 8 12 9.45 1.21 0
 -8 10 0 7.28 0.99 0
 -8 10 3 22.26 1.59 0
 -8 10 4 1.65 0.83 0
 -8 10 5 1.39 0.83 0
 -8 10 6 53.4 2.17 0
 -8 10 7 1.4 1.04 0
 -7 -5 10 8.26 0.95 0
 -7 -3 8 53.36 1.63 0
 -7 -3 9 10.11 0.91 0
 -7 -3 11 28.58 1.25 0
 -7 -3 12 16.49 1.02 0
 -7 -1 -9 18.17 0.77 0
 -7 -1 -8 101.66 1.77 0
 -7 -1 4 66.49 1.64 0
 -7 -1 6 1.91 0.48 0
 -7 -1 7 0.29 0.45 0
 -7 -1 8 147.81 2.54 0
 -7 -1 9 1.51 0.49 0
 -7 -1 10 149.57 2.58 0
 -7 -1 11 0.28 0.48 0
 -7 -1 12 13.47 0.91 0
 -7 -1 13 -0.31 0.45 0
 -7 1 -9 16.27 0.6 0
 -7 1 -8 96.97 1.48 0
 -7 1 -7 0.61 0.35 0
 -7 1 -6 694.6 4.23 0
 -7 1 -5 70.52 1.46 0
 -7 1 -4 30.1 1.02 0
 -7 1 -2 463.76 3.79 0
 -7 1 -1 27.45 1.06 0
 -7 1 0 136.11 2.19 0
 -7 1 5 27.48 1.13 0
 -7 1 7 -0.51 0.38 0
 -7 1 9 1.29 0.58 0
 -7 1 10 151.45 2.63 0
 -7 1 11 0.15 0.51 0
 -7 1 12 11.78 0.89 0
 -7 3 -8 0.9 0.31 0
 -7 3 -7 17.04 0.71 0
 -7 3 -6 25.62 0.89 0
 -7 3 -5 328.66 3.03 0
 -7 3 -4 225.55 2.62 0
 -7 3 -3 479.22 3.85 0
 -7 3 -2 36.73 1.19 0
 -7 3 0 251.73 2.99 0
 -7 3 1 709.88 5.04 0
 -7 3 4 21.24 1.04 0
 -7 3 5 106.62 2.16 0
 -7 3 6 5.63 0.77 0
 -7 3 7 14.43 0.93 0
 -7 3 8 53.28 1.63 0
 -7 3 14 0.65 0.58 0
 -7 5 -8 0.19 0.31 0
 -7 5 -7 1.82 0.42 0
 -7 5 -6 -0.6 0.33 0
 -7 5 -5 104.15 1.85 0
 -7 5 -3 74.72 1.66 0
 -7 5 -2 172.15 2.57 0
 -7 5 -1 29.06 1.14 0
 -7 5 0 27.19 1.16 0
 -7 5 1 124.98 2.39 0
 -7 5 2 232.89 3.19 0
 -7 5 3 1.07 0.57 0
 -7 5 4 40.4 1.45 0
 -7 5 5 5.44 0.81 0
 -7 5 10 8.75 0.99 0
 -7 5 11 -0.33 0.66 0
 -7 5 12 9.72 1 0
 -7 5 13 0.8 0.7 0
 -7 5 14 15.75 1.14 0
 -7 7 -6 23.36 1.02 0
 -7 7 -5 12.57 0.86 0
 -7 7 4 3.09 0.72 0
 -7 7 6 0.4 0.69 0
 -7 7 7 45.04 1.74 0
 -7 7 8 -0.1 0.62 0
 -7 7 9 2.95 0.77 0
 -7 7 10 0.01 0.65 0
 -7 7 11 119.01 2.71 0
 -7 9 -2 5.41 0.89 0
 -7 9 2 5.73 0.87 0
 -7 9 4 0.58 0.63 0
 -7 9 5 26.07 1.51 0
 -7 9 6 12.5 1.26 0
 -7 9 7 34.94 1.75 0
 -7 9 8 21.24 1.53 0
 -6 -4 10 149.14 2.49 0
 -6 -4 11 49.75 1.44 0
 -6 -4 12 -0.1 0.4 0
 -6 -2 7 9.96 0.75 0
 -6 -2 8 180.46 2.58 0
 -6 -2 9 3.28 0.54 0
 -6 -2 10 53.82 1.45 0
 -6 -2 11 9.01 0.75 0
 -6 -2 12 2.08 0.49 0
 -6 0 -8 467.81 2.9 0
 -6 0 -6 8.4 0.54 0
 -6 0 -4 411.67 3.16 0
 -6 0 0 396.9 3.32 0
 -6 0 6 266.07 3 0
 -6 0 10 908.6 5.55 0
 -6 0 12 25.64 1.03 0
 -6 2 -8 97.4 1.19 0
 -6 2 -7 298.97 2.28 0
 -6 2 -6 70.45 1.23 0
 -6 2 -5 0.16 0.31 0
 -6 2 -4 41.55 1.05 0
 -6 2 -3 494.87 3.51 0
 -6 2 -1 118.47 1.83 0
 -6 2 5 0.58 0.46 0
 -6 2 7 9.6 0.74 0
 -6 2 8 176.46 2.56 0
 -6 2 9 1.9 0.49 0
 -6 2 12 1.63 0.52 0
 -6 2 13 6.07 0.71 0
 -6 4 -8 -0.01 0.22 0
 -6 4 -7 23.6 0.73 0
 -6 4 -6 13.3 0.65 0
 -6 4 -5 18.97 0.77 0
 -6 4 -4 0.41 0.33 0
 -6 4 -3 26.58 0.97 0
 -6 4 -2 31.96 1.06 0
 -6 4 -1 0.45 0.43 0
 -6 4 0 122.64 2.06 0
 -6 4 1 122.59 2.1 0
 -6 4 4 16.67 0.87 0
 -6 4 5 189.36 2.74 0
 -6 4 6 635.4 4.98 0
 -6 4 7 134.9 2.38 0
 -6 4 9 33.75 1.31 0
 -6 6 -6 42.95 1.14 0
 -6 6 -5 46.38 1.25 0
 -6 6 -4 6.22 0.66 0
 -6 6 -3 274.03 3.07 0
 -6 6 -1 34.32 1.23 0
 -6 6 0 92.97 1.96 0
 -6 6 1 397.25 3.99 0
 -6 6 2 0.34 0.42 0
 -6 6 3 15.75 0.94 0
 -6 6 4 67.92 1.79 0
 -6 6 9 11.65 1.02 0
 -6 6 10 3.33 0.7 0
 -6 6 11 0.94 0.75 0
 -6 6 12 10.9 1.05 0
 -6 8 2 21.2 1.18 0
 -6 8 4 0.34 0.49 0
 -6 8 5 6.77 0.94 0
 -6 8 7 0.72 0.75 0
 -6 8 8 1.11 0.63 0
 -5 -5 11 2.98 0.53 0
 -5 -3 9 153.32 2.26 0
 -5 -3 10 -0.21 0.39 0
 -5 -3 11 0.19 0.36 0
 -5 -3 12 10.99 0.65 0
 -5 -1 7 19.49 0.84 0
 -5 -1 8 8.34 0.66 0
 -5 -1 9 23.91 0.94 0
 -5 -1 10 355.05 3.17 0
 -5 -1 11 3.53 0.48 0
 -5 1 -8 0.15 0.18 0
 -5 1 -7 246.25 1.82 0
 -5 1 -6 738.62 3.37 0
 -5 1 -5 241.41 2.06 0
 -5 1 -4 235.98 2.1 0
 -5 1 -3 72.67 1.25 0
 -5 1 -2 1049.06 4.64 0
 -5 1 -1 720.07 3.94 0
 -5 1 0 414.29 3.09 0
 -5 1 2 322.68 2.84 0
 -5 1 3 200.36 2.28 0
 -5 1 7 18.98 0.85 0
 -5 1 9 24.37 0.96 0
 -5 1 10 352.64 3.26 0
 -5 1 12 32.09 1.01 0
 -5 1 13 0.63 0.34 0
 -5 3 -8 144.78 1.13 0
 -5 3 -7 375.28 2.17 0
 -5 3 -6 2.92 0.34 0
 -5 3 -5 267.91 2.22 0
 -5 3 -4 0.54 0.27 0
 -5 3 -3 18.69 0.72 0
 -5 3 -1 725.57 4.18 0
 -5 3 0 99.81 1.64 0
 -5 3 1 643.56 4.11 0
 -5 3 5 569.1 4.19 0
 -5 3 6 71.34 1.56 0
 -5 3 7 0.32 0.43 0
 -5 3 8 22.21 1 0
 -5 3 9 151.23 2.33 0
 -5 3 10 0.11 0.46 0
 -5 3 11 0.32 0.49 0
 -5 3 12 11.02 0.8 0
 -5 3 13 29.46 1.08 0
 -5 5 -6 86.44 1.36 0
 -5 5 -5 27.83 0.87 0
 -5 5 -4 0.42 0.31 0
 -5 5 -3 0.47 0.31 0
 -5 5 -2 5.44 0.56 0
 -5 5 -1 49.97 1.28 0
 -5 5 1 171.14 2.4 0
 -5 5 4 0.61 0.36 0
 -5 5 5 19.3 0.97 0
 -5 5 6 93.85 1.93 0
 -5 5 8 15.53 0.96 0
 -5 5 9 1.27 0.5 0
 -5 7 -3 28.27 1.09 0
 -5 7 -2 106.41 2 0
 -5 7 0 180.42 2.69 0
 -5 7 3 30.65 1.26 0
 -5 7 8 10.2 0.95 0
 -5 7 9 345.41 4.16 0
 -4 -4 10 3.52 0.48 0
 -4 -4 11 13.27 0.66 0
 -4 -2 8 44.88 1.1 0
 -4 -2 10 29.95 0.88 0
 -4 -2 11 108.69 1.53 0
 -4 -2 12 0.11 0.25 0
 -4 0 -8 94.32 0.9 0
 -4 0 -6 12.44 0.45 0
 -4 0 2 95.67 1.4 0
 -4 0 4 813.28 4.07 0
 -4 0 10 132.79 1.78 0
 -4 2 -7 8.05 0.28 0
 -4 2 -6 0.59 0.18 0
 -4 2 -5 199.84 1.59 0
 -4 2 -3 686.31 3.26 0
 -4 2 -2 41.18 0.9 0
 -4 2 -1 79.83 1.27 0
 -4 2 0 219.89 2.08 0
 -4 2 1 2000.02 6.3 0
 -4 2 2 0.49 0.33 0
 -4 2 4 70.29 1.32 0
 -4 2 7 125.65 1.83 0
 -4 2 9 65.44 1.36 0
 -4 2 10 29.49 0.97 0
 -4 2 11 111.22 1.79 0
 -4 2 12 0.34 0.35 0
 -4 2 13 5.34 0.51 0
 -4 4 -6 18.29 0.57 0
 -4 4 -5 89.89 1.25 0
 -4 4 -4 0.7 0.28 0
 -4 4 -3 230.25 2.14 0
 -4 4 -2 9.63 0.55 0
 -4 4 0 26.35 0.84 0
 -4 4 1 830 4.53 0
 -4 4 5 308.54 3.04 0
 -4 4 6 34.95 1.1 0
 -4 4 7 0.72 0.38 0
 -4 4 8 29.02 1.06 0
 -4 4 9 82.39 1.68 0
 -4 4 10 3.34 0.55 0
 -4 4 11 11.1 0.79 0
 -4 4 12 0.04 0.38 0
 -4 6 -3 245.25 2.6 0
 -4 6 -2 8.25 0.65 0
 -4 6 -1 32.03 1.07 0
 -4 6 0 45.25 1.25 0
 -4 6 1 283.15 3.05 0
 -4 6 5 188.8 2.69 0
 -4 6 6 20.22 1 0
 -4 6 7 2.16 0.59 0
 -4 6 8 10.19 0.88 0
 -3 -5 11 16.6 0.69 0
 -3 -3 11 7.28 0.41 0
 -3 -1 5 0.24 0.29 0
 -3 -1 6 4.77 0.4 0
 -3 -1 7 193.1 1.85 0
 -3 -1 11 62.12 0.97 0
 -3 1 -6 387.68 1.41 0
 -3 1 -5 22.54 0.46 0
 -3 1 -4 797.69 2.7 0
 -3 1 -3 534.47 2.36 0
 -3 1 -2 678.47 2.77 0
 -3 1 -1 525.56 2.54 0
 -3 1 0 3022.09 6.28 0
 -3 1 1 283.39 2.03 0
 -3 1 2 35.7 0.79 0
 -3 1 3 587.81 3.09 0
 -3 1 4 16.11 0.63 0
 -3 1 5 0.26 0.24 0
 -3 1 6 4.45 0.41 0
 -3 1 10 516.93 3.1 0
 -3 1 11 63.18 1.13 0
 -3 1 12 0.3 0.24 0
 -3 3 -5 72.24 0.9 0
 -3 3 -4 366.12 2.13 0
 -3 3 -3 1399.12 4.35 0
 -3 3 0 345.65 2.48 0
 -3 3 1 645.5 3.47 0
 -3 3 2 1389.37 5.18 0
 -3 3 3 11.44 0.61 0
 -3 3 4 937.98 4.48 0
 -3 3 7 17.01 0.73 0
 -3 3 8 791.52 4.4 0
 -3 3 9 8.64 0.62 0
 -3 3 10 2.58 0.41 0
 -3 3 11 8.12 0.58 0
 -3 5 -3 42.82 0.98 0
 -3 5 -1 90.92 1.49 0
 -3 5 0 134.68 1.85 0
 -3 5 5 13.89 0.77 0
 -3 5 6 42.22 1.21 0
 -3 5 7 241.51 2.8 0
 -3 5 8 61.84 1.46 0
 -3 5 9 128.76 2.12 0
 -3 7 2 76.03 1.7 0
 -3 7 3 43.37 1.34 0
 -2 -2 7 4.81 0.34 0
 -2 -2 8 89.05 1.08 0
 -2 -2 9 575.64 2.49 0
 -2 -2 10 19.88 0.43 0
 -2 0 2 650.69 2.51 0
 -2 0 4 21.86 0.55 0
 -2 0 6 0.58 0.2 0
 -2 0 8 79.76 1.03 0
 -2 2 -4 378.24 1.55 0
 -2 2 -2 482.23 2.09 0
 -2 2 -1 582.78 2.44 0
 -2 2 0 634.98 2.68 0
 -2 2 1 1048.14 3.6 0
 -2 2 2 2321.94 5.51 0
 -2 2 3 290.81 2.07 0
 -2 2 4 124.33 1.41 0
 -2 2 5 1350.36 4.62 0
 -2 2 6 154.59 1.62 0
 -2 2 10 20.51 0.66 0
 -2 4 -3 29.76 0.72 0
 -2 4 -2 0.2 0.29 0
 -2 4 -1 3.13 0.38 0
 -2 4 0 12.42 0.59 0
 -2 4 1 764.65 3.81 0
 -2 4 2 369.77 2.75 0
 -2 4 3 0.39 0.32 0
 -2 4 7 29.27 0.92 0
 -1 -3 9 435.88 1.65 0
 -1 -1 6 568.04 1.98 0
 -1 -1 7 11.23 0.29 0
 -1 -1 8 0.11 0.1 0
 -1 1 -1 8.13 0.23 0
 -1 1 0 2012.23 3.29 0
 -1 1 1 38.47 0.54 0
 -1 1 2 842.33 2.48 0
 -1 1 3 0.42 0.17 0
 -1 1 4 1318.17 3.41 0
 -1 1 5 137.06 1.19 0
 -1 1 6 565.51 2.39 0
 -1 1 7 11.49 0.39 0
 -1 1 8 0.22 0.15 0
 -1 3 -1 154.53 1.36 0
 -1 3 0 500.16 2.47 0
 -1 3 1 1155.66 3.87 0
 -1 3 2 303.08 2.07 0
 -1 3 3 282.46 2.07 0
 -1 3 4 766.21 3.47 0
 -1 3 5 897.02 3.81 0
 -7 -7 11 118.94 3 0
 -7 -7 12 -0.44 0.77 0
 -7 -7 13 0.92 0.91 0
 -7 -7 14 0.63 1 0
 -7 -7 15 137.14 3.53 0
 -7 -7 16 0.15 1.07 0
 -7 -7 17 14.36 1.72 0
 -7 -5 9 1.64 0.72 0
 -7 -5 10 10.09 1.02 0
 -7 -5 11 -0.26 0.58 0
 -7 -5 12 7.82 1.16 0
 -7 -5 13 0.96 0.78 0
 -7 -5 14 16.52 1.41 0
 -7 -5 15 -0.05 0.85 0
 -7 -5 16 19.62 1.68 0
 -7 -5 17 20.75 1.75 0
 -7 -5 18 66.47 2.58 0
 -7 -5 19 29.4 2 0
 -7 -3 11 33.52 1.46 0
 -7 -3 12 16.82 1.13 0
 -7 -3 13 -0.15 0.76 0
 -7 -3 14 -0.24 0.79 0
 -7 -3 15 32.92 1.68 0
 -7 -3 16 2.97 0.97 0
 -7 -3 17 1.89 0.9 0
 -7 -3 18 55.69 2.2 0
 -7 -1 10 153.48 2.47 0
 -7 -1 11 0.15 0.57 0
 -7 -1 13 0.38 0.53 0
 -7 -1 14 247.57 3.61 0
 -7 -1 15 0.47 0.66 0
 -7 -1 16 33.06 1.58 0
 -7 -1 17 0.52 0.74 0
 -7 1 12 12.41 0.79 0
 -7 1 13 0.33 0.42 0
 -6 -8 10 15.09 1.46 0
 -6 -8 11 100.22 2.89 0
 -6 -8 12 1.42 0.9 0
 -6 -8 13 24.65 1.84 0
 -6 -8 14 2.89 1.3 0
 -6 -8 16 0.6 1.04 0
 -6 -8 17 6.75 1.41 0
 -6 -6 8 3.02 0.76 0
 -6 -6 9 9.8 0.99 0
 -6 -6 10 4.07 0.92 0
 -6 -6 11 1.23 0.78 0
 -6 -6 12 9.5 1.18 0
 -6 -6 13 0.07 0.75 0
 -6 -6 14 7.37 1.14 0
 -6 -6 15 0.6 0.88 0
 -6 -6 16 3.64 1.25 0
 -6 -6 17 7.53 1.41 0
 -6 -6 18 6.04 1.42 0
 -6 -6 19 17.77 1.87 0
 -6 -4 7 138.97 2.44 0
 -6 -4 11 51.42 1.78 0
 -6 -4 12 -0.06 0.61 0
 -6 -4 13 39.13 1.69 0
 -6 -4 14 99.81 2.65 0
 -6 -4 15 22.46 1.61 0
 -6 -4 16 3.28 0.97 0
 -6 -4 17 33.74 1.9 0
 -6 -4 18 92.54 2.82 0
 -6 -4 19 19.12 1.7 0
 -6 -2 7 10.4 0.72 0
 -6 -2 8 183.11 2.58 0
 -6 -2 9 2.07 0.47 0
 -6 -2 10 55.92 1.6 0
 -6 -2 13 7.05 0.98 0
 -6 -2 14 6.81 0.97 0
 -6 -2 15 10.5 1.15 0
 -6 -2 16 37.11 1.73 0
 -6 -2 17 4.29 0.96 0
 -6 -2 18 31.83 1.75 0
 -6 0 8 175.66 2.15 0
 -6 0 10 914.73 5.27 0
 -6 0 12 27.83 1.17 0
 -6 0 16 111.28 2.43 0
 -6 2 10 53.7 1.1 0
 -6 2 11 7.75 0.56 0
 -6 2 12 1.88 0.42 0
 -6 2 13 6.16 0.62 0
 -5 -9 8 6.31 1.1 0
 -5 -9 9 32.14 1.64 0
 -5 -9 10 0.55 0.77 0
 -5 -9 11 55.57 2.26 0
 -5 -9 12 20.63 1.78 0
 -5 -9 13 4.03 1.19 0
 -5 -9 14 16.33 1.73 0
 -5 -9 15 5.63 1.49 0
 -5 -9 16 1.79 1.15 0
 -5 -9 17 7.19 1.67 0
 -5 -7 7 3.81 0.78 0
 -5 -7 8 9.82 1.04 0
 -5 -7 9 355.25 4.65 0
 -5 -7 10 2.01 0.72 0
 -5 -7 11 8.45 1.09 0
 -5 -7 12 5.29 1.05 0
 -5 -7 13 101.08 2.95 0
 -5 -7 14 8.88 1.42 0
 -5 -7 15 0.79 0.96 0
 -5 -7 16 2 1.3 0
 -5 -7 17 58.49 2.62 0
 -5 -7 18 1.47 1.16 0
 -5 -5 5 18.06 0.94 0
 -5 -5 6 91.66 1.96 0
 -5 -5 10 2.73 0.66 0
 -5 -5 11 3.56 0.75 0
 -5 -5 12 2.11 0.81 0
 -5 -5 13 1.41 0.92 0
 -5 -5 14 -0.1 0.73 0
 -5 -5 15 0.69 0.84 0
 -5 -5 16 14.43 1.45 0
 -5 -5 17 14.26 1.54 0
 -5 -5 18 41.01 2.16 0
 -5 -5 19 7.62 1.42 0
 -5 -3 5 550.73 3.94 0
 -5 -3 6 69.74 1.5 0
 -5 -3 7 0.21 0.34 0
 -5 -3 8 22.53 1.05 0
 -5 -3 9 157.49 2.61 0
 -5 -3 12 11.28 1.09 0
 -5 -3 13 33.19 1.56 0
 -5 -3 14 1.7 0.7 0
 -5 -3 15 4.52 1.06 0
 -5 -3 16 0.04 0.83 0
 -5 -3 17 0.56 0.98 0
 -5 -3 18 4.5 1.12 0
 -5 -3 20 5.56 1.19 0
 -5 -1 7 17.06 0.77 0
 -5 -1 8 9.1 0.67 0
 -5 -1 9 25.85 1.02 0
 -5 -1 11 2.89 0.56 0
 -5 -1 14 20.53 1.25 0
 -5 -1 15 2.72 0.74 0
 -5 -1 16 2.99 0.81 0
 -5 -1 17 1.67 0.94 0
 -5 -1 18 0.71 0.76 0
 -5 1 8 8.63 0.55 0
 -5 1 9 24.27 0.85 0
 -5 1 10 358.42 3.08 0
 -5 1 11 3.43 0.49 0
 -5 1 12 32.85 1.14 0
 -5 1 13 0.56 0.51 0
 -5 1 15 3.13 0.65 0
 -5 1 16 2.7 0.7 0
 -5 3 10 0.23 0.23 0
 -5 3 11 -0.02 0.25 0
 -5 3 12 10.77 0.59 0
 -4 -10 8 -0.37 0.87 0
 -4 -10 9 106.9 2.89 0
 -4 -10 10 0.17 0.77 0
 -4 -10 11 1.43 1.01 0
 -4 -10 12 7.19 1.27 0
 -4 -10 13 64.08 2.69 0
 -4 -10 14 18.6 1.9 0
 -4 -10 15 36.95 2.3 0
 -4 -10 16 1.92 1.27 0
 -4 -8 6 35.07 1.48 0
 -4 -8 7 0.25 0.68 0
 -4 -8 8 12.33 1.17 0
 -4 -8 9 4.05 0.87 0
 -4 -8 10 55.15 2.1 0
 -4 -8 11 62.77 2.33 0
 -4 -8 12 0.08 0.77 0
 -4 -8 13 0.7 0.88 0
 -4 -8 15 147.81 3.78 0
 -4 -8 16 5.64 1.31 0
 -4 -8 17 25.13 2 0
 -4 -8 18 1.59 1.21 0
 -4 -6 5 192.66 2.77 0
 -4 -6 6 17.88 1.06 0
 -4 -6 10 9.53 0.95 0
 -4 -6 11 34.09 1.67 0
 -4 -6 12 56.13 2.04 0
 -4 -6 13 15.12 1.37 0
 -4 -6 14 0.32 0.95 0
 -4 -6 15 50.66 2.2 0
 -4 -6 17 62.97 2.63 0
 -4 -6 18 68.7 2.73 0
 -4 -6 19 1.11 1.17 0
 -4 -4 6 36.05 1.17 0
 -4 -4 7 1.56 0.48 0
 -4 -4 8 30.31 1.22 0
 -4 -4 9 81.35 1.96 0
 -4 -4 12 0.55 0.58 0
 -4 -4 13 0.04 0.6 0
 -4 -4 14 18.6 1.43 0
 -4 -4 15 3.32 0.86 0
 -4 -4 16 19.58 1.52 0
 -4 -4 17 51.06 2.24 0
 -4 -4 18 153.4 3.61 0
 -4 -4 19 27.05 1.89 0
 -4 -2 4 68.79 1.25 0
 -4 -2 7 127.43 1.93 0
 -4 -2 9 67.82 1.61 0
 -4 -2 13 7.4 0.93 0
 -4 -2 14 63.28 1.99 0
 -4 -2 15 41.31 1.76 0
 -4 -2 16 58 2.11 0
 -4 -2 17 57.27 2.13 0
 -4 -2 18 3.09 1.07 0
 -4 -2 19 0.53 0.92 0
 -4 -2 20 2.65 1.08 0
 -4 0 4 822.51 3.29 0
 -4 0 8 1.46 0.34 0
 -4 0 10 140 2.11 0
 -4 0 12 64.36 1.63 0
 -4 0 16 288.26 3.99 0
 -4 0 18 35.52 1.69 0
 -4 2 9 66.38 1.17 0
 -4 2 10 32.03 0.91 0
 -4 2 11 112.38 1.79 0
 -4 2 12 1.04 0.4 0
 -4 2 13 5.94 0.66 0
 -4 2 14 64.03 1.58 0
 -4 4 10 4.18 0.32 0
 -4 4 11 11.95 0.5 0
 -3 -11 8 1.32 0.98 0
 -3 -11 9 42.79 1.98 0
 -3 -11 10 13.37 1.44 0
 -3 -11 11 -0.92 0.86 0
 -3 -11 13 1.15 1.33 0
 -3 -11 14 16.31 1.89 0
 -3 -11 15 4.81 1.41 0
 -3 -9 5 -0.23 0.48 0
 -3 -9 6 7.68 1 0
 -3 -9 7 76.55 2.23 0
 -3 -9 8 2.7 0.83 0
 -3 -9 11 12.27 1.43 0
 -3 -9 12 9.88 1.41 0
 -3 -9 13 72.28 2.71 0
 -3 -9 14 -0.58 1.14 0
 -3 -9 15 41.88 2.33 0
 -3 -9 16 1.66 1.34 0
 -3 -9 17 4.11 1.37 0
 -3 -7 3 42.01 1.33 0
 -3 -7 4 26.06 1.11 0
 -3 -7 5 9.02 0.72 0
 -3 -7 9 325.3 4.28 0
 -3 -7 10 13.18 1.17 0
 -3 -7 11 35.04 1.74 0
 -3 -7 12 68.93 2.38 0
 -3 -7 13 213.22 4.12 0
 -3 -7 14 4.93 1.07 0
 -3 -7 15 75.19 2.77 0
 -3 -7 16 18.41 1.78 0
 -3 -7 17 61.82 2.68 0
 -3 -5 3 463.4 3.56 0
 -3 -5 6 44.03 1.31 0
 -3 -5 7 237.65 3.1 0
 -3 -5 8 62.48 1.72 0
 -3 -5 11 17.72 1.17 0
 -3 -5 12 1.08 0.65 0
 -3 -5 13 36.15 1.75 0
 -3 -5 14 11.31 1.16 0
 -3 -5 15 1.62 0.88 0
 -3 -5 16 1.76 0.98 0
 -3 -5 17 5.71 1.16 0
 -3 -5 18 16.5 1.73 0
 -3 -5 19 3.7 1.16 0
 -3 -5 20 7.14 1.49 0
 -3 -3 2 1365.91 4.95 0
 -3 -3 4 939.98 4.55 0
 -3 -3 7 18.18 0.85 0
 -3 -3 8 784.42 5.16 0
 -3 -3 9 9.28 0.76 0
 -3 -3 10 3.04 0.59 0
 -3 -3 13 57.75 1.86 0
 -3 -3 14 1.75 0.75 0
 -3 -3 15 -0.52 0.64 0
 -3 -3 16 9.88 1.23 0
 -3 -3 17 55.36 2.24 0
 -3 -3 18 3.57 1.04 0
 -3 -3 19 3.12 1.01 0
 -3 -3 20 9.59 1.37 0
 -3 -1 3 581.98 2.76 0
 -3 -1 4 15.67 0.57 0
 -3 -1 5 0.22 0.24 0
 -3 -1 8 168.38 2.18 0
 -3 -1 9 33.86 1.1 0
 -3 -1 10 512.67 4.2 0
 -3 -1 11 59.65 1.57 0
 -3 -1 14 357.12 4.32 0
 -3 -1 15 16.51 1.18 0
 -3 -1 16 31.55 1.61 0
 -3 -1 17 24.52 1.52 0
 -3 -1 19 3.73 0.99 0
 -3 1 4 15.42 0.42 0
 -3 1 5 0.12 0.17 0
 -3 1 6 4.6 0.34 0
 -3 1 9 32.21 0.94 0
 -3 1 10 521.62 3.75 0
 -3 1 11 59.68 1.42 0
 -3 1 13 40.05 1.35 0
 -3 1 15 16.73 1.12 0
 -3 1 16 28.11 1.39 0
 -3 1 17 25.82 1.41 0
 -3 3 6 340.05 1.52 0
 -3 3 7 18.36 0.47 0
 -3 3 9 9.26 0.48 0
 -3 3 10 2.73 0.37 0
 -3 3 11 7.33 0.55 0
 -3 3 12 112.01 1.8 0
 -3 3 13 56.88 1.36 0
 -3 3 14 0.89 0.47 0
 -2 -12 8 38.4 1.91 0
 -2 -12 9 23.92 1.81 0
 -2 -12 11 0.82 1 0
 -2 -12 12 0.81 1.15 0
 -2 -12 13 35.7 2.25 0
 -2 -12 14 91.12 3.23 0
 -2 -10 5 93.83 2.33 0
 -2 -10 6 55.1 1.9 0
 -2 -10 7 85.89 2.37 0
 -2 -10 9 37.95 1.86 0
 -2 -10 10 62.48 2.36 0
 -2 -10 11 29.62 1.92 0
 -2 -10 12 -0.07 0.97 0
 -2 -10 13 47.59 2.34 0
 -2 -10 14 7.05 1.47 0
 -2 -10 16 -0.3 1.27 0
 -2 -8 3 29.06 1.2 0
 -2 -8 4 25.2 1.19 0
 -2 -8 7 16.42 1.12 0
 -2 -8 8 23.24 1.34 0
 -2 -8 9 104.85 2.56 0
 -2 -8 10 30.26 1.64 0
 -2 -8 11 1.58 0.78 0
 -2 -8 12 12.42 1.41 0
 -2 -8 13 50.37 2.25 0
 -2 -8 14 71.68 2.63 0
 -2 -8 16 4.18 1.44 0
 -2 -8 17 63.03 2.81 0
 -2 -8 18 29.49 2.22 0
 -2 -6 2 7.21 0.6 0
 -2 -6 3 10.49 0.66 0
 -2 -6 4 46.74 1.3 0
 -2 -6 5 74.37 1.67 0
 -2 -6 6 -0.1 0.42 0
 -2 -6 7 6.48 0.77 0
 -2 -6 10 13.28 1.07 0
 -2 -6 11 2.77 0.83 0
 -2 -6 14 36.63 1.93 0
 -2 -6 15 20.81 1.71 0
 -2 -6 17 71.3 2.79 0
 -2 -6 18 4.2 1.22 0
 -2 -6 19 0.1 1.24 0
 -2 -4 1 765.11 3.66 0
 -2 -4 2 362.19 2.67 0
 -2 -4 3 0.94 0.31 0
 -2 -4 7 30.52 1.13 0
 -2 -4 8 2.72 0.55 0
 -2 -4 9 384.15 4 0
 -2 -4 12 9.03 0.99 0
 -2 -4 13 164.46 3.29 0
 -2 -4 14 58.99 2.16 0
 -2 -4 15 109.84 2.9 0
 -2 -4 16 11.47 1.41 0
 -2 -4 17 2.69 1.03 0
 -2 -4 18 3.5 1.09 0
 -2 -4 19 14.49 1.67 0
 -2 -4 20 -0.91 1.1 0
 -2 -2 1 1074.34 3.45 0
 -2 -2 2 2319.25 5.36 0
 -2 -2 3 286.76 2.08 0
 -2 -2 4 129.23 1.54 0
 -2 -2 5 1352.4 5.16 0
 -2 -2 8 86.42 1.69 0
 -2 -2 9 589.78 4.48 0
 -2 -2 10 20.38 1.05 0
 -2 -2 13 158.28 2.94 0
 -2 -2 14 51.19 1.8 0
 -2 -2 15 55.96 2.02 0
 -2 -2 16 43.66 1.87 0
 -2 -2 17 2.05 0.93 0
 -2 -2 18 -0.22 0.88 0
 -2 -2 19 10.29 1.32 0
 -2 -2 20 10.35 1.38 0
 -2 -2 21 7.62 1.41 0
 -2 0 2 665 2.06 0
 -2 0 4 22.32 0.54 0
 -2 0 6 0.89 0.3 0
 -2 0 10 31.87 1.07 0
 -2 0 12 26.37 1.15 0
 -2 0 14 2.76 0.75 0
 -2 0 16 105.82 2.53 0
 -2 0 18 3.02 0.92 0
 -2 2 4 126.12 0.84 0
 -2 2 5 1348 3.35 0
 -2 2 6 157.18 1.38 0
 -2 2 7 5.68 0.36 0
 -2 2 9 591.27 3.6 0
 -2 2 10 18.95 0.8 0
 -2 2 12 5.52 0.67 0
 -2 2 16 42.02 1.56 0
 -2 2 17 1.98 0.71 0
 -2 4 5 704.64 1.7 0
 -2 4 6 74.05 0.77 0
 -2 4 7 28.78 0.57 0
 -2 4 9 399.3 2.57 0
 -2 4 10 56.69 1.09 0
 -2 4 11 98.37 1.54 0
 -2 4 12 9.11 0.62 0
 -2 4 13 159.79 2.21 0
 -2 4 14 55.18 1.4 0
 -2 6 7 6.87 0.23 0
 -1 -13 9 28.22 1.83 0
 -1 -13 10 32.17 2.01 0
 -1 -13 11 3.29 1.14 0
 -1 -13 12 1.95 1.32 0
 -1 -11 5 9.87 1.05 0
 -1 -11 6 42.4 1.79 0
 -1 -11 7 49.85 1.99 0
 -1 -11 8 74.76 2.37 0
 -1 -11 9 93.32 2.76 0
 -1 -11 10 46.93 2.16 0
 -1 -11 11 1.39 0.99 0
 -1 -11 12 9.77 1.39 0
 -1 -11 14 7.99 1.36 0
 -1 -11 15 3.27 1.44 0
 -1 -9 3 2.94 0.6 0
 -1 -9 6 15.23 1.12 0
 -1 -9 7 53.31 1.87 0
 -1 -9 8 18.21 1.22 0
 -1 -9 9 6.52 0.96 0
 -1 -9 10 21.71 1.48 0
 -1 -9 11 1 0.8 0
 -1 -9 12 13.5 1.5 0
 -1 -9 13 20.15 1.74 0
 -1 -9 14 17.3 1.73 0
 -1 -9 15 16.98 1.81 0
 -1 -9 16 11.55 1.74 0
 -1 -9 17 0.32 1.38 0
 -1 -7 3 92.24 1.8 0
 -1 -7 4 10.64 0.79 0
 -1 -7 5 495.78 4.34 0
 -1 -7 6 7.24 0.81 0
 -1 -7 9 9.22 1.03 0
 -1 -7 10 56.13 1.94 0
 -1 -7 11 18.69 1.37 0
 -1 -7 13 6.25 1.05 0
 -1 -7 14 21.42 1.64 0
 -1 -7 15 16.75 1.69 0
 -1 -7 16 70.68 2.78 0
 -1 -7 17 0.11 1.03 0
 -1 -7 18 8.87 1.51 0
 -1 -7 19 1.75 1.29 0
 -1 -5 1 19.57 0.69 0
 -1 -5 2 352.96 2.76 0
 -1 -5 3 764.91 4.25 0
 -1 -5 4 532.3 3.77 0
 -1 -5 5 26.62 0.96 0
 -1 -5 6 101.43 1.91 0
 -1 -5 7 403.7 3.88 0
 -1 -5 8 512.56 4.6 0
 -1 -5 11 29.78 1.41 0
 -1 -5 13 128.73 2.92 0
 -1 -5 14 7.05 1.04 0
 -1 -5 15 4.06 0.95 0
 -1 -5 16 4.26 1.18 0
 -1 -5 17 4.01 1.12 0
 -1 -5 18 40.4 2.25 0
 -1 -5 19 2.78 1.22 0
 -1 -3 1 1147.99 3.74 0
 -1 -3 2 308.09 2.13 0
 -1 -3 3 287.6 2.22 0
 -1 -3 4 747.18 3.83 0
 -1 -3 5 910.46 4.52 0
 -1 -3 8 916.36 5.53 0
 -1 -3 9 430.56 4.05 0
 -1 -3 10 26.68 1.23 0
 -1 -3 13 38.58 1.66 0
 -1 -3 14 47.87 1.9 0
 -1 -3 15 37.41 1.74 0
 -1 -3 16 18.27 1.51 0
 -1 -3 18 2.65 1.16 0
 -1 -3 19 -0.6 1.1 0
 -1 -3 20 35.68 2.09 0
 -1 -1 1 38.34 0.52 0
 -1 -1 2 853.79 2.61 0
 -1 -1 3 0.53 0.21 0
 -1 -1 4 1332.62 4.23 0
 -1 -1 5 139.93 1.59 0
 -1 -1 6 577.62 3.43 0
 -1 -1 8 0.26 0.29 0
 -1 -1 10 2.51 0.49 0
 -1 -1 11 31.92 1.22 0
 -1 -1 14 54.8 1.81 0
 -1 -1 15 24.49 1.39 0
 -1 -1 16 64.13 2.13 0
 -1 -1 17 42.8 1.87 0
 -1 -1 18 1.57 0.95 0
 -1 -1 19 1.47 0.99 0
 -1 -1 20 6.9 1.24 0
 -1 1 3 0.41 0.13 0
 -1 1 4 1346.22 3.42 0
 -1 1 5 134.51 1.3 0
 -1 1 6 582.76 3.01 0
 -1 1 9 23.8 0.89 0
 -1 1 10 2.53 0.53 0
 -1 1 11 33.87 1.17 0
 -1 1 12 0.64 0.46 0
 -1 1 15 23.74 1.29 0
 -1 1 16 63.46 1.99 0
 -1 1 17 44.78 1.79 0
 -1 1 18 1.6 0.92 0
 -1 1 19 1.68 0.89 0
 -1 3 6 171.94 1.44 0
 -1 3 7 10.08 0.43 0
 -1 3 9 440.53 3.11 0
 -1 3 11 23.92 0.94 0
 -1 3 12 308.59 3.23 0
 -1 3 13 39.49 1.31 0
 -1 3 15 33.8 1.35 0
 -1 3 16 19 1.16 0
 -1 5 10 9.4 0.55 0
 -1 5 11 28.66 0.9 0
 -1 5 12 70.62 1.42 0
 -1 5 13 141.19 2.12 0
 -1 7 8 11.67 0.44 0
 0 -14 11 23.96 1.91 0
 0 -12 5 12.95 1.22 0
 0 -12 6 5.87 0.94 0
 0 -12 7 32.72 1.69 0
 0 -12 8 0.27 0.87 0
 0 -12 9 -0.26 0.79 0
 0 -12 10 13.63 1.53 0
 0 -12 11 -0.77 1.15 0
 0 -12 12 1.93 1.1 0
 0 -12 13 22.49 1.9 0
 0 -12 14 19.35 1.99 0
 0 -10 5 175.42 3.08 0
 0 -10 6 1.9 0.66 0
 0 -10 7 106.19 2.56 0
 0 -10 8 0.99 0.83 0
 0 -10 9 8.39 1.21 0
 0 -10 10 14.29 1.39 0
 0 -10 11 40.65 2.09 0
 0 -10 12 0.63 0.98 0
 0 -10 13 6.91 1.43 0
 0 -10 14 7.51 1.38 0
 0 -10 16 0.37 1.14 0
 0 -8 1 838.33 4.8 0
 0 -8 2 3.99 0.55 0
 0 -8 3 99.62 1.91 0
 0 -8 4 4.67 0.65 0
 0 -8 5 327.31 3.72 0
 0 -8 8 1.41 0.6 0
 0 -8 9 3.54 0.78 0
 0 -8 10 3.55 0.81 0
 0 -8 11 7.59 1.1 0
 0 -8 12 18.23 1.49 0
 0 -8 13 8.1 1.22 0
 0 -8 15 7.91 1.43 0
 0 -8 16 2.75 1.3 0
 0 -8 17 26.26 2.06 0
 0 -6 0 12.32 0.56 0
 0 -6 1 184.01 2 0
 0 -6 2 1.51 0.4 0
 0 -6 3 2.01 0.43 0
 0 -6 4 40.06 1.16 0
 0 -6 5 6.04 0.63 0
 0 -6 6 10.96 0.83 0
 0 -6 10 24.79 1.25 0
 0 -6 11 13.99 1.14 0
 0 -6 12 88.1 2.5 0
 0 -6 13 25.42 1.63 0
 0 -6 14 6.02 1.13 0
 0 -6 15 16.46 1.65 0
 0 -6 16 54.32 2.44 0
 0 -6 17 19.13 1.81 0
 0 -6 18 26.44 2 0
 0 -6 19 15.94 1.91 0
 0 -4 0 680.54 2.85 0
 0 -4 1 64.72 1.01 0
 0 -4 2 93.34 1.32 0
 0 -4 3 231.2 2.15 0
 0 -4 4 815.09 4.27 0
 0 -4 8 321.79 3.52 0
 0 -4 12 4.65 0.76 0
 0 -4 14 6.03 1.02 0
 0 -4 15 12.01 1.34 0
 0 -4 16 -0.4 0.91 0
 0 -4 17 30.77 1.9 0
 0 -4 19 25.32 1.89 0
 0 -4 20 1.07 1.15 0
 0 -2 0 4146.67 4.81 0
 0 -2 1 198.92 1.27 0
 0 -2 2 716.16 2.73 0
 0 -2 3 29.07 0.68 0
 0 -2 4 284.48 2.22 0
 0 -2 5 118.83 1.6 0
 0 -2 6 452.17 3.29 0
 0 -2 8 55.4 1.38 0
 0 -2 9 151.67 2.38 0
 0 -2 10 7.22 0.78 0
 0 -2 13 211.06 3.43 0
 0 -2 14 1.85 0.73 0
 0 -2 15 0.01 0.72 0
 0 -2 16 8.36 1.17 0
 0 -2 17 141.21 3.29 0
 0 -2 18 0.32 0.83 0
 0 -2 19 8.9 1.43 0
 0 -2 20 9.28 1.33 0
 0 -2 21 45.2 2.28 0
 0 0 2 1482.97 2.86 0
 0 0 4 9960.28 10.74 0
 0 0 6 1679.11 5.56 0
 0 0 10 74.46 1.67 0
 0 0 14 -0.65 0.48 0
 0 0 16 2.81 0.79 0
 0 0 18 7.86 1.13 0
 0 0 20 -0.02 0.86 0
 0 2 9 147.62 1.99 0
 0 2 11 10.92 0.77 0
 0 2 12 5.41 0.7 0
 0 2 15 0.35 0.62 0
 0 2 16 5.54 0.9 0
 0 2 18 -0.25 0.79 0
 0 4 9 8.27 0.56 0
 0 4 10 12.32 0.7 0
 0 4 11 4.8 0.59 0
 0 4 12 4.27 0.61 0
 0 4 13 21.03 1.04 0
 0 4 15 11.8 1.01 0
 0 4 16 -0.75 0.59 0
 0 6 12 89.9 1.69 0
 1 -13 6 6.43 1.06 0
 1 -13 7 59.27 2.18 0
 1 -13 8 3.8 1.14 0
 1 -13 9 7.05 1.19 0
 1 -13 11 35.19 2.17 0
 1 -13 12 -0.54 0.98 0
 1 -11 4 0.03 0.54 0
 1 -11 6 12.88 1.2 0
 1 -11 7 28.9 1.6 0
 1 -11 8 7.59 1.05 0
 1 -11 9 26.37 1.63 0
 1 -11 10 48.23 2.16 0
 1 -11 11 27.91 1.87 0
 1 -11 12 4.86 1.35 0
 1 -11 14 39.8 2.28 0
 1 -11 15 57.59 2.74 0
 1 -9 1 43.95 1.21 0
 1 -9 2 97.75 1.85 0
 1 -9 3 12.58 0.85 0
 1 -9 4 25.57 1.16 0
 1 -9 6 14.28 1.09 0
 1 -9 7 7.19 0.87 0
 1 -9 9 4.15 0.82 0
 1 -9 10 4.51 1.04 0
 1 -9 11 14.52 1.5 0
 1 -9 12 18.18 1.66 0
 1 -9 13 7.06 1.23 0
 1 -9 15 44.54 2.41 0
 1 -9 16 26.08 2.11 0
 1 -9 17 70.34 2.98 0
 1 -7 0 11.03 0.57 0
 1 -7 1 55.29 1.18 0
 1 -7 2 0.51 0.39 0
 1 -7 3 294.47 2.96 0
 1 -7 5 150.41 2.41 0
 1 -7 6 17.11 1.03 0
 1 -7 9 79.39 2.16 0
 1 -7 10 0.7 0.6 0
 1 -7 11 99.25 2.63 0
 1 -7 12 25.21 1.56 0
 1 -7 13 44.59 2.12 0
 1 -7 14 33.1 1.97 0
 1 -7 15 4.8 1.34 0
 1 -7 16 3.15 1.12 0
 1 -7 17 94.89 3.2 0
 1 -7 18 3.97 1.3 0
 1 -5 0 219.29 1.73 0
 1 -5 1 393.44 2.52 0
 1 -5 2 329.27 2.52 0
 1 -5 3 59.44 1.2 0
 1 -5 4 3.27 0.42 0
 1 -5 6 310.6 3.24 0
 1 -5 7 143.32 2.38 0
 1 -5 8 221.69 3.1 0
 1 -5 11 25.99 1.42 0
 1 -5 12 245.83 3.97 0
 1 -5 13 38.38 1.82 0
 1 -5 14 25.09 1.63 0
 1 -5 15 9.06 1.27 0
 1 -5 16 19.2 1.62 0
 1 -5 17 -0.2 1.12 0
 1 -5 18 1.58 1.25 0
 1 -5 19 -0.17 1.2 0
 1 -3 -1 1136.65 2.38 0
 1 -3 0 494.75 1.92 0
 1 -3 2 1.75 0.25 0
 1 -3 3 176.53 1.75 0
 1 -3 4 126.62 1.66 0
 1 -3 5 2.42 0.36 0
 1 -3 8 18.89 0.91 0
 1 -3 9 144.15 2.43 0
 1 -3 10 0.14 0.43 0
 1 -3 12 45.65 1.7 0
 1 -3 14 63.86 2.19 0
 1 -3 15 50.7 2.11 0
 1 -3 16 3.82 1.14 0
 1 -3 18 -0.16 0.92 0
 1 -3 19 17.12 1.66 0
 1 -3 20 0.59 1.22 0
 1 -1 1 8.29 0.27 0
 1 -1 2 16.31 0.41 0
 1 -1 3 0.23 0.18 0
 1 -1 4 3.86 0.37 0
 1 -1 5 31.48 0.82 0
 1 -1 6 26.64 0.84 0
 1 -1 8 8.54 0.66 0
 1 -1 11 -0.01 0.45 0
 1 -1 13 24.82 1.38 0
 1 -1 14 1.57 0.65 0
 1 -1 15 3.51 0.91 0
 1 -1 16 188.03 3.73 0
 1 -1 17 0.78 0.92 0
 1 -1 18 72.21 2.5 0
 1 -1 19 0.9 1.06 0
 1 -1 21 6.66 1.34 0
 1 1 8 8.39 0.58 0
 1 1 10 33.45 1.14 0
 1 1 11 0.6 0.42 0
 1 1 14 0.88 0.63 0
 1 1 15 3.51 0.81 0
 1 1 16 181.4 3.54 0
 1 1 17 -0.05 0.69 0
 1 1 18 68.52 2.3 0
 1 1 19 1.59 0.93 0
 1 1 20 51.06 2.16 0
 1 3 9 153.5 2.15 0
 1 3 10 0.9 0.38 0
 1 3 11 2.71 0.55 0
 1 3 12 46.4 1.44 0
 1 3 14 62.11 1.83 0
 1 3 15 48.94 1.74 0
 1 3 16 2.81 0.82 0
 1 3 17 10.81 1.14 0
 1 3 18 0.34 0.78 0
 1 5 10 18.3 0.86 0
 1 5 11 24.77 1 0
 1 5 15 7.95 0.95 0
 1 7 11 103.73 1.86 0
 2 -14 8 0.67 0.95 0
 2 -14 9 51.93 2.25 0
 2 -14 10 1.52 0.99 0
 2 -14 11 -0.33 0.97 0
 2 -12 4 0.72 0.65 0
 2 -12 5 1.27 0.69 0
 2 -12 6 0.92 0.8 0
 2 -12 7 35.69 1.77 0
 2 -12 8 12.31 1.35 0
 2 -12 9 41.04 1.99 0
 2 -12 10 15.87 1.6 0
 2 -12 11 1.16 1.03 0
 2 -12 12 4.28 1.37 0
 2 -12 13 11.76 1.67 0
 2 -12 14 22.67 2 0
 2 -10 2 0.03 0.49 0
 2 -10 5 21.6 1.23 0
 2 -10 6 4.05 0.81 0
 2 -10 7 5.81 0.97 0
 2 -10 8 47.41 1.9 0
 2 -10 9 4.06 1.07 0
 2 -10 10 6.31 1.07 0
 2 -10 11 13.63 1.45 0
 2 -10 12 29.76 1.81 0
 2 -10 13 0.73 1.11 0
 2 -10 14 4.45 1.21 0
 2 -10 15 11.47 1.73 0
 2 -10 16 3.58 1.54 0
 2 -8 0 98.39 1.5 0
 2 -8 2 0.38 0.35 0
 2 -8 3 40.67 1.23 0
 2 -8 4 48 1.38 0
 2 -8 5 227.82 3.09 0
 2 -8 8 1.23 0.75 0
 2 -8 10 2.34 0.75 0
 2 -8 11 16.62 1.41 0
 2 -8 12 7.01 1.13 0
 2 -8 13 12.88 1.52 0
 2 -8 14 3.81 1.14 0
 2 -8 16 16.08 1.88 0
 2 -8 17 21.05 1.92 0
 2 -6 -1 1.08 0.23 0
 2 -6 1 56.76 1.08 0
 2 -6 2 179.65 2.01 0
 2 -6 4 49.92 1.27 0
 2 -6 5 15.52 0.86 0
 2 -6 6 90.52 1.91 0
 2 -6 7 72.08 1.81 0
 2 -6 10 11.86 1.04 0
 2 -6 11 6.73 0.91 0
 2 -6 12 27.23 1.58 0
 2 -6 13 40.77 1.89 0
 2 -6 14 24.36 1.65 0
 2 -6 15 71.16 2.65 0
 2 -6 17 -0.01 1.08 0
 2 -6 18 2.83 1.43 0
 2 -6 19 35.04 2.35 0
 2 -4 -1 755.72 2.23 0
 2 -4 0 10.58 0.39 0
 2 -4 1 3.35 0.36 0
 2 -4 2 0.11 0.22 0
 2 -4 3 29.69 0.83 0
 2 -4 4 515.72 3.49 0
 2 -4 5 43.17 1.13 0
 2 -4 6 0.87 0.35 0
 2 -4 7 95.93 1.92 0
 2 -4 8 755.61 5.49 0
 2 -4 11 0.44 0.68 0
 2 -4 12 187.14 3.39 0
 2 -4 14 180.05 3.67 0
 2 -4 15 45.06 2.06 0
 2 -4 16 1.41 0.89 0
 2 -4 17 7.46 1.23 0
 2 -4 19 11.31 1.72 0
 2 -4 20 -0.23 1 0
 2 -2 0 621.12 1.87 0
 2 -2 1 576.87 2.25 0
 2 -2 2 488.01 2.4 0
 2 -2 3 0.64 0.26 0
 2 -2 4 387.13 2.68 0
 2 -2 5 50.6 1.1 0
 2 -2 9 10.6 0.81 0
 2 -2 10 40.05 1.47 0
 2 -2 12 1.48 0.66 0
 2 -2 13 -0.55 0.53 0
 2 -2 15 5.77 1.14 0
 2 -2 17 36.09 1.96 0
 2 -2 18 0.28 1.01 0
 2 -2 19 0.37 1.02 0
 2 -2 20 1.06 1 0
 2 0 8 696.42 4.58 0
 2 0 10 130.15 2.35 0
 2 0 14 11.37 1.16 0
 2 0 16 233.8 4.12 0
 2 0 18 32.77 1.86 0
 2 0 20 30 1.89 0
 2 2 10 38.73 1.27 0
 2 2 11 1.7 0.48 0
 2 2 14 57.81 1.85 0
 2 2 15 5.27 0.98 0
 2 2 16 31.83 1.64 0
 2 2 17 37.45 1.79 0
 2 2 18 -0.14 0.88 0
 2 2 19 0.65 0.82 0
 2 4 11 0.76 0.54 0
 2 4 14 180.62 3.11 0
 2 4 16 0.92 0.78 0
 2 4 17 9.12 1.15 0
 2 6 14 21.26 1.15 0
 3 -13 5 3.58 0.91 0
 3 -13 6 13.73 1.28 0
 3 -13 7 8.13 1.17 0
 3 -13 8 9.97 1.28 0
 3 -13 9 8.69 1.25 0
 3 -13 10 2.94 1.02 0
 3 -13 11 5.65 1.4 0
 3 -11 4 90.38 2.09 0
 3 -11 5 0.34 0.56 0
 3 -11 6 6.63 0.97 0
 3 -11 7 96.3 2.48 0
 3 -11 8 81.7 2.46 0
 3 -11 10 4.55 1.11 0
 3 -11 11 53.99 2.29 0
 3 -11 12 46.3 2.24 0
 3 -11 13 1.53 1.18 0
 3 -11 14 -0.01 1.1 0
 3 -11 15 92.47 3.3 0
 3 -9 0 28.32 0.86 0
 3 -9 1 78.89 1.52 0
 3 -9 3 6.64 0.7 0
 3 -9 4 1.16 0.49 0
 3 -9 6 3.08 0.76 0
 3 -9 7 16.24 1.16 0
 3 -9 8 1.29 0.76 0
 3 -9 9 6.37 0.94 0
 3 -9 10 0.74 0.81 0
 3 -9 11 24.54 1.61 0
 3 -9 12 0.3 0.9 0
 3 -9 13 0.31 0.9 0
 3 -9 14 0.03 1.09 0
 3 -9 15 64.07 2.75 0
 3 -9 16 8.03 1.47 0
 3 -7 -1 246.26 1.84 0
 3 -7 1 87.86 1.41 0
 3 -7 2 194.66 2.23 0
 3 -7 3 134.13 2 0
 3 -7 4 48.46 1.32 0
 3 -7 5 54.25 1.45 0
 3 -7 6 19.54 1.05 0
 3 -7 10 5.32 0.98 0
 3 -7 12 2.48 0.82 0
 3 -7 13 -0.09 0.8 0
 3 -7 15 3.64 1.23 0
 3 -7 16 2.37 1.08 0
 3 -7 17 34.52 2.27 0
 3 -7 18 6.06 1.49 0
 3 -5 -1 5.78 0.29 0
 3 -5 0 137 1.32 0
 3 -5 1 92.65 1.24 0
 3 -5 2 12.54 0.57 0
 3 -5 3 43.85 1.06 0
 3 -5 4 373.6 3.21 0
 3 -5 5 112.34 1.96 0
 3 -5 6 20.75 1 0
 3 -5 7 17.46 1.01 0
 3 -5 10 67.05 1.98 0
 3 -5 11 0.24 0.62 0
 3 -5 12 3.13 0.82 0
 3 -5 13 36.27 1.79 0
 3 -5 14 0.83 0.79 0
 3 -5 15 -0.14 1.03 0
 3 -5 16 12.11 1.6 0
 3 -5 17 25.33 2 0
 3 -5 18 2.63 1.33 0
 3 -5 19 1.08 1.36 0
 3 -3 0 336.91 1.7 0
 3 -3 1 8.29 0.41 0
 3 -3 3 1405.62 5.07 0
 3 -3 4 364.54 2.85 0
 3 -3 5 71.42 1.41 0
 3 -3 6 27.08 0.97 0
 3 -3 8 236.41 3.07 0
 3 -3 11 69.73 2.01 0
 3 -3 12 40.17 1.66 0
 3 -3 13 2.49 0.76 0
 3 -3 14 0.48 0.68 0
 3 -3 15 34.02 1.87 0
 3 -3 17 0.38 0.91 0
 3 -3 18 -0.07 0.97 0
 3 -3 19 14.14 1.67 0
 3 -3 20 33.19 2.24 0
 3 -1 9 1.89 0.46 0
 3 -1 10 54.02 1.58 0
 3 -1 12 -0.05 0.67 0
 3 -1 13 9.66 1.07 0
 3 -1 14 36.11 1.7 0
 3 -1 15 4.09 1.04 0
 3 -1 16 92.49 2.78 0
 3 -1 17 11.75 1.39 0
 3 -1 18 6.83 1.21 0
 3 -1 19 1.67 1.07 0
 3 -1 20 97.41 3.06 0
 3 1 10 58.4 1.64 0
 3 1 13 9.94 1.02 0
 3 1 14 33.11 1.61 0
 3 1 15 3.3 0.84 0
 3 1 18 6.31 1.3 0
 3 1 19 2.14 1 0
 3 1 20 98.44 2.93 0
 3 3 13 1.91 0.71 0
 3 3 14 0.52 0.66 0
 3 3 16 44.86 1.88 0
 3 3 17 0.44 0.92 0
 3 3 18 -0.62 0.8 0
 3 3 19 13.07 1.45 0
 3 5 13 33.75 1.43 0
 3 5 14 0.15 0.71 0
 3 5 15 1.34 0.68 0
 3 5 16 13.75 1.22 0
 3 7 13 -0.06 0.62 0
 4 -14 9 7.12 1.29 0
 4 -14 10 5.34 1.28 0
 4 -12 3 23.78 1.17 0
 4 -12 4 53.66 1.7 0
 4 -12 5 2.55 0.81 0
 4 -12 6 -0.15 0.62 0
 4 -12 7 6.2 0.99 0
 4 -12 8 5.58 1.12 0
 4 -12 9 33.91 1.86 0
 4 -12 10 2.55 1 0
 4 -12 11 1.82 1.08 0
 4 -12 12 -0.89 1.02 0
 4 -12 13 70.33 2.76 0
 4 -10 1 3.92 0.51 0
 4 -10 2 0.52 0.41 0
 4 -10 5 -0.23 0.47 0
 4 -10 7 13.97 1.18 0
 4 -10 8 10.07 1.17 0
 4 -10 9 29.78 1.69 0
 4 -10 10 11.02 1.32 0
 4 -10 11 57.21 2.33 0
 4 -10 12 23.67 1.87 0
 4 -10 13 24.32 1.8 0
 4 -10 14 15.11 1.78 0
 4 -10 15 139.15 3.81 0
 4 -8 -1 335.78 2.18 0
 4 -8 0 90.77 1.36 0
 4 -8 1 74.79 1.36 0
 4 -8 2 28.34 0.97 0
 4 -8 3 187.39 2.5 0
 4 -8 4 171.15 2.54 0
 4 -8 7 140.87 2.77 0
 4 -8 8 54.42 1.83 0
 4 -8 9 65.2 2.08 0
 4 -8 10 9.64 1.2 0
 4 -8 11 4.3 0.91 0
 4 -8 12 15.99 1.56 0
 4 -8 13 19.23 1.73 0
 4 -8 14 0.86 1.17 0
 4 -8 15 43.33 2.3 0
 4 -8 16 21.02 1.98 0
 4 -6 -1 286.22 1.74 0
 4 -6 0 47.27 0.9 0
 4 -6 1 31.13 0.82 0
 4 -6 2 7.71 0.54 0
 4 -6 3 243.94 2.6 0
 4 -6 4 54.29 1.36 0
 4 -6 5 11.26 0.8 0
 4 -6 6 79.62 1.86 0
 4 -6 10 14.41 1.22 0
 4 -6 11 32.51 1.65 0
 4 -6 12 147.69 3.26 0
 4 -6 14 15.83 1.44 0
 4 -6 15 25.62 1.92 0
 4 -6 16 29.66 2.09 0
 4 -6 17 3.28 1.23 0
 4 -6 18 3.87 1.32 0
 4 -4 -1 818.08 2.55 0
 4 -4 1 85.85 1.16 0
 4 -4 3 229.84 2.28 0
 4 -4 4 0.55 0.29 0
 4 -4 5 91.14 1.71 0
 4 -4 6 19.37 0.92 0
 4 -4 7 0.75 0.5 0
 4 -4 8 192.01 2.97 0
 4 -4 10 51.6 1.77 0
 4 -4 11 -0.2 0.54 0
 4 -4 12 232.03 4 0
 4 -4 15 43.55 2.11 0
 4 -4 16 11.96 1.38 0
 4 -4 17 38.36 2.23 0
 4 -4 18 79.25 3 0
 4 -2 8 64.28 1.65 0
 4 -2 11 10.46 1.03 0
 4 -2 12 12.95 1.03 0
 4 -2 13 25.69 1.54 0
 4 -2 14 196.5 3.87 0
 4 -2 15 0.47 0.93 0
 4 -2 16 74.02 2.67 0
 4 -2 17 7.07 1.19 0
 4 -2 18 10.39 1.59 0
 4 -2 19 0.38 1.11 0
 4 -2 20 37.97 2.28 0
 4 0 12 0.22 0.52 0
 4 0 14 23.96 1.48 0
 4 0 16 205.09 4.08 0
 4 0 18 35.47 2.08 0
 4 2 12 12.09 1.09 0
 4 2 13 26.2 1.41 0
 4 2 14 189.31 3.46 0
 4 2 15 0.52 0.72 0
 4 2 16 75.99 2.49 0
 4 2 17 9.65 1.23 0
 4 2 18 9.02 1.38 0
 4 2 19 1.17 0.89 0
 4 2 20 38.66 2.07 0
 4 4 13 132.44 2.75 0
 4 4 14 249.71 3.88 0
 4 4 15 43.22 1.84 0
 4 4 16 14.47 1.34 0
 4 4 17 36.1 1.84 0
 4 4 18 76.38 2.49 0
 4 6 13 107.32 2.48 0
 4 6 14 14.41 1.19 0
 4 6 15 23.76 1.44 0
 5 -13 7 72.69 2.29 0
 5 -13 8 1.4 1 0
 5 -13 9 20.62 1.63 0
 5 -13 10 51.27 2.25 0
 5 -13 11 16.25 1.69 0
 5 -11 4 6.3 0.85 0
 5 -11 5 14.72 1.11 0
 5 -11 6 21.88 1.34 0
 5 -11 7 39.05 1.72 0
 5 -11 8 19.7 1.44 0
 5 -11 9 16.29 1.5 0
 5 -11 11 9.91 1.34 0
 5 -11 14 0.89 1.24 0
 5 -9 0 14.32 0.62 0
 5 -9 1 69.88 1.39 0
 5 -9 2 2.55 0.47 0
 5 -9 3 1.02 0.45 0
 5 -9 6 2.08 0.65 0
 5 -9 7 29.62 1.47 0
 5 -9 8 11.53 1.14 0
 5 -9 9 7.34 1.11 0
 5 -9 10 1.1 0.8 0
 5 -9 11 1.54 0.97 0
 5 -9 13 10.91 1.5 0
 5 -9 14 -0.2 1.04 0
 5 -9 15 1.05 1.07 0
 5 -9 16 5.47 1.45 0
 5 -7 0 184.36 1.79 0
 5 -7 1 55.72 1.14 0
 5 -7 2 103.47 1.68 0
 5 -7 4 26.72 1.06 0
 5 -7 9 20.3 1.35 0
 5 -7 10 27.39 1.53 0
 5 -7 11 2.07 0.85 0
 5 -7 13 19.57 1.68 0
 5 -7 14 2.6 1.2 0
 5 -7 15 1.68 1.06 0
 5 -7 16 5.91 1.3 0
 5 -7 17 18.03 1.95 0
 5 -5 -2 262.6 1.15 0
 5 -5 -1 172.53 1.35 0
 5 -5 0 112.07 1.3 0
 5 -5 2 5.76 0.52 0
 5 -5 3 0.34 0.31 0
 5 -5 4 0.12 0.32 0
 5 -5 5 25.76 1.07 0
 5 -5 6 83.08 1.85 0
 5 -5 7 71.29 1.83 0
 5 -5 9 36.17 1.57 0
 5 -5 10 0.58 0.59 0
 5 -5 11 13.86 1.28 0
 5 -5 13 59.28 2.31 0
 5 -5 14 9.58 1.28 0
 5 -5 15 -0.87 0.83 0
 5 -5 16 20.18 1.73 0
 5 -5 17 28.21 2.08 0
 5 -3 4 -0.29 0.36 0
 5 -3 5 269.5 2.94 0
 5 -3 6 2.62 0.53 0
 5 -3 7 370.64 3.81 0
 5 -3 8 138.8 2.48 0
 5 -3 11 232.02 3.79 0
 5 -3 12 55.38 2.06 0
 5 -3 13 62.15 2.3 0
 5 -3 14 52.46 2.15 0
 5 -3 15 64.39 2.54 0
 5 -3 16 5.53 1.19 0
 5 -3 17 35.13 2.2 0
 5 -3 18 8.35 1.41 0
 5 -3 19 19.24 1.95 0
 5 -1 12 10.09 1.11 0
 5 -1 13 -0.24 0.72 0
 5 -1 14 62.81 2.28 0
 5 -1 15 55.9 2.33 0
 5 -1 16 8.95 1.43 0
 5 -1 17 1.47 1.08 0
 5 1 11 149.01 2.92 0
 5 1 12 8.23 0.9 0
 5 1 13 -0.42 0.74 0
 5 1 14 60.46 2.1 0
 5 1 15 51.92 2.15 0
 5 1 16 6.73 1.15 0
 5 1 17 -0.3 0.86 0
 5 1 18 58.26 2.5 0
 5 1 19 16.88 1.69 0
 5 1 20 7.19 1.45 0
 5 3 13 64.44 2.13 0
 5 3 15 68.44 2.33 0
 5 3 16 6.56 1.17 0
 5 3 17 34.96 1.9 0
 5 3 18 6.62 1.16 0
 5 3 19 17.67 1.65 0
 5 5 13 59.52 2.03 0
 5 5 14 10.88 1.32 0
 5 5 15 1.05 0.75 0
 5 5 16 20.73 1.49 0
 5 5 17 26.12 1.68 0
 5 7 14 2.43 0.83 0
 5 7 15 3.48 0.87 0
 6 -12 6 1.97 0.78 0
 6 -12 7 3.55 0.98 0
 6 -12 9 1.28 0.95 0
 6 -12 10 1.98 1.01 0
 6 -12 11 0.21 1.13 0
 6 -12 12 32.47 2.07 0
 6 -10 2 1.69 0.48 0
 6 -10 5 24.19 1.25 0
 6 -10 6 3.73 0.75 0
 6 -10 7 7.17 0.94 0
 6 -10 8 1.88 0.87 0
 6 -10 9 2.14 0.83 0
 6 -10 10 10.58 1.28 0
 6 -10 11 2.44 1.08 0
 6 -10 12 5.3 1.16 0
 6 -10 13 16.29 1.78 0
 6 -8 -1 138.08 1.33 0
 6 -8 0 -0.29 0.24 0
 6 -8 1 35.54 0.98 0
 6 -8 2 63.13 1.38 0
 6 -8 3 197.04 2.61 0
 6 -8 4 51.82 1.48 0
 6 -8 6 4.2 0.7 0
 6 -8 7 232.56 3.62 0
 6 -8 9 139.44 3.04 0
 6 -8 10 10.75 1.32 0
 6 -8 11 109.66 3 0
 6 -8 12 20.33 1.76 0
 6 -8 13 177.41 3.99 0
 6 -8 14 4.1 1.13 0
 6 -8 16 18.96 1.86 0
 6 -6 -2 0.03 0.12 0
 6 -6 -1 381.39 2.12 0
 6 -6 0 94.27 1.33 0
 6 -6 1 32.68 0.9 0
 6 -6 2 147.34 2 0
 6 -6 3 278.17 2.93 0
 6 -6 4 7.43 0.71 0
 6 -6 5 45.73 1.44 0
 6 -6 9 92.32 2.46 0
 6 -6 10 2.03 0.87 0
 6 -6 11 118.46 2.94 0
 6 -6 12 3.52 1.15 0
 6 -6 15 0.96 1.07 0
 6 -6 16 2.23 1.26 0
 6 -6 17 13 1.74 0
 6 -4 -3 53.19 0.57 0
 6 -4 1 0.03 0.26 0
 6 -4 2 31.98 0.95 0
 6 -4 3 26.11 0.91 0
 6 -4 4 0.44 0.43 0
 6 -4 5 18.76 0.96 0
 6 -4 6 13.18 0.85 0
 6 -4 9 34.43 1.48 0
 6 -4 10 6.88 0.92 0
 6 -4 11 4.57 0.83 0
 6 -4 12 25.9 1.55 0
 6 -4 13 3.14 0.94 0
 6 -4 14 30.72 1.94 0
 6 -4 15 16.28 1.66 0
 6 -4 16 0.56 0.98 0
 6 -4 17 4.65 1.45 0
 6 -4 18 20.81 1.88 0
 6 -2 10 10.65 1.01 0
 6 -2 11 73.08 2.21 0
 6 -2 12 100.47 2.63 0
 6 -2 14 44.5 2.12 0
 6 -2 15 18.46 1.7 0
 6 -2 16 1.43 0.99 0
 6 -2 17 0.3 0.97 0
 6 -2 18 8 1.48 0
 6 -2 19 0.51 1.3 0
 6 0 12 317.87 4.52 0
 6 0 14 91.6 2.72 0
 6 0 16 1.45 0.95 0
 6 0 18 7.16 1.5 0
 6 2 13 1.31 0.71 0
 6 2 14 47.29 2.04 0
 6 2 15 18.07 1.53 0
 6 2 16 1.33 0.88 0
 6 2 17 0.76 1.1 0
 6 2 18 5.93 1.21 0
 6 2 19 1.05 1.16 0
 6 4 14 28.83 1.67 0
 6 4 15 14.88 1.36 0
 6 4 16 -0.58 0.75 0
 6 4 17 5.25 1.08 0
 6 4 19 0.41 0.91 0
 6 6 14 10.6 1.31 0
 6 6 15 0.64 0.78 0
 6 6 16 1.81 0.97 0
 6 8 14 3.49 0.88 0
 7 -11 5 135.88 2.7 0
 7 -11 6 1.3 0.73 0
 7 -11 7 7.19 1.1 0
 7 -11 8 60.22 2.17 0
 7 -11 9 1.24 0.85 0
 7 -11 10 7.63 1.21 0
 7 -11 11 -0.1 0.86 0
 7 -11 12 2.53 1.24 0
 7 -11 13 11.6 1.53 0
 7 -9 1 135.98 1.9 0
 7 -9 2 7.18 0.68 0
 7 -9 3 4.37 0.65 0
 7 -9 5 140.19 2.65 0
 7 -9 6 22.06 1.3 0
 7 -9 8 4.78 1.01 0
 7 -9 9 1.54 0.86 0
 7 -9 10 8.71 1.17 0
 7 -9 11 16.46 1.6 0
 7 -9 12 9.13 1.46 0
 7 -9 13 4.85 1.4 0
 7 -9 14 5.27 1.32 0
 7 -9 15 21.22 1.92 0
 7 -7 -1 21.28 0.58 0
 7 -7 0 31.59 0.82 0
 7 -7 1 -0.26 0.28 0
 7 -7 2 19.33 0.86 0
 7 -7 4 107.69 2.15 0
 7 -7 7 252.45 3.76 0
 7 -7 8 10.69 1.1 0
 7 -7 9 16.45 1.35 0
 7 -7 10 26.53 1.68 0
 7 -7 11 54.68 2.19 0
 7 -7 12 2.62 1.06 0
 7 -7 14 5.96 1.34 0
 7 -7 15 4.2 1.23 0
 7 -7 16 0.01 1.04 0
 7 -5 0 26.7 0.77 0
 7 -5 1 30.28 0.9 0
 7 -5 2 169.4 2.14 0
 7 -5 4 122.52 2.17 0
 7 -5 5 102.24 2.09 0
 7 -5 8 0.4 0.59 0
 7 -5 9 9.48 0.98 0
 7 -5 10 0.68 0.74 0
 7 -5 11 1.5 0.94 0
 7 -5 13 2.61 1.18 0
 7 -5 15 16.37 1.8 0
 7 -5 16 6.05 1.36 0
 7 -5 17 -0.07 1.07 0
 7 -3 6 27.36 1.16 0
 7 -3 9 100.54 2.42 0
 7 -3 11 8.03 1.03 0
 7 -3 12 1.71 0.76 0
 7 -3 13 0.98 0.81 0
 7 -3 18 13.23 1.72 0
 7 -1 10 115.84 2.71 0
 7 -1 11 26.8 1.52 0
 7 -1 13 1.19 0.77 0
 7 -1 14 0.48 0.8 0
 7 -1 16 26.35 1.9 0
 7 -1 17 1.56 1.06 0
 7 -1 18 24.82 1.98 0
 7 -1 19 20.76 1.97 0
 7 1 12 40.99 1.88 0
 7 1 13 0.41 0.71 0
 7 1 14 -0.13 0.83 0
 7 1 15 29.03 1.84 0
 7 1 16 29 1.94 0
 7 1 17 3.22 1.33 0
 7 1 18 23.26 1.89 0
 7 1 19 27.8 2.14 0
 7 3 13 1.2 0.78 0
 7 3 17 1.6 1.07 0
 7 3 18 10.26 1.45 0
 7 5 14 26.14 1.67 0
 7 5 16 5.23 1.11 0
 7 5 17 0.63 1.04 0
 7 5 18 2.36 1.16 0
 7 7 15 4.17 1.02 0
 8 -12 10 4.4 1.15 0
 8 -12 11 1.23 1.03 0
 8 -10 4 12.08 0.96 0
 8 -10 6 4.21 0.84 0
 8 -10 7 0.42 0.75 0
 8 -10 8 0.39 0.72 0
 8 -10 9 47.86 2.04 0
 8 -10 10 1.21 0.87 0
 8 -10 12 20.2 1.79 0
 8 -10 13 8.09 1.36 0
 8 -8 1 1.96 0.42 0
 8 -8 2 22.34 0.93 0
 8 -8 3 9.86 0.8 0
 8 -8 5 7.27 0.87 0
 8 -8 6 23.82 1.34 0
 8 -8 7 6.17 1 0
 8 -8 8 3.29 0.82 0
 8 -8 9 0.4 0.9 0
 8 -8 10 1.5 0.95 0
 8 -8 11 15.57 1.61 0
 8 -8 12 0.94 1.17 0
 8 -8 13 15.74 1.7 0
 8 -8 14 -0.29 1.04 0
 8 -6 -2 222.37 1.51 0
 8 -6 0 50.74 1.08 0
 8 -6 2 7.53 0.65 0
 8 -6 3 61.46 1.52 0
 8 -6 4 31.5 1.24 0
 8 -6 7 16.3 1.13 0
 8 -6 8 9.46 1.09 0
 8 -6 9 3.06 0.93 0
 8 -6 10 14.92 1.34 0
 8 -6 11 34.51 1.92 0
 8 -6 12 16.12 1.65 0
 8 -6 14 13.19 1.57 0
 8 -6 15 15.18 1.69 0
 8 -4 4 129.52 2.29 0
 8 -4 5 7.39 0.82 0
 8 -4 8 0.97 0.55 0
 8 -4 9 2.92 0.75 0
 8 -4 10 52.41 2.04 0
 8 -4 11 0.88 0.86 0
 8 -4 12 0.1 0.8 0
 8 -4 13 17.34 1.63 0
 8 -4 14 9.03 1.57 0
 8 -4 15 1.36 1.04 0
 8 -4 16 1.36 1.18 0
 8 -4 17 35.81 2.31 0
 8 -2 9 0.43 0.68 0
 8 -2 10 66.81 2.2 0
 8 -2 11 133.28 3.09 0
 8 -2 12 13.13 1.27 0
 8 -2 13 17.16 1.45 0
 8 -2 15 97.1 3.18 0
 8 -2 16 11.16 1.61 0
 8 -2 17 37.06 2.34 0
 8 -2 18 1.5 1.15 0
 8 0 12 5.31 0.98 0
 8 0 14 1.85 0.94 0
 8 0 16 13.96 1.66 0
 8 0 18 8.05 1.58 0
 8 2 14 14.66 1.51 0
 8 2 16 10.26 1.4 0
 8 2 17 37.18 2.24 0
 8 2 18 0.37 1.04 0
 8 4 14 9.43 1.31 0
 8 4 15 2.6 1.01 0
 8 4 16 1.39 0.95 0
 8 4 17 33.95 2.04 0
 8 4 18 0.17 1.02 0
 8 6 15 12.73 1.5 0
 8 6 16 24.76 1.82 0
 8 6 17 6.28 1.24 0
 9 -11 9 43.84 1.99 0
 9 -11 10 2.08 1 0
 9 -11 11 3.78 1.04 0
 9 -9 4 1.19 0.57 0
 9 -9 6 27.85 1.45 0
 9 -9 7 23.03 1.47 0
 9 -9 8 -0.29 0.88 0
 9 -9 9 6.81 1.09 0
 9 -9 10 43.28 2.13 0
 9 -9 11 47.37 2.26 0
 9 -9 12 3.37 1.22 0
 9 -9 13 23.77 1.96 0
 9 -9 14 17.26 1.86 0
 9 -7 0 5.43 0.52 0
 9 -7 1 82.61 1.61 0
 9 -7 2 25.57 1.04 0
 9 -7 3 12.67 0.91 0
 9 -7 5 18.09 1.16 0
 9 -7 6 8.54 0.99 0
 9 -7 7 23.51 1.44 0
 9 -7 9 74.4 2.46 0
 9 -7 10 1.18 0.86 0
 9 -7 11 31.61 1.95 0
 9 -7 12 3.59 1.14 0
 9 -7 13 146.06 3.79 0
 9 -7 14 2.65 1.2 0
 9 -7 15 6.62 1.33 0
 9 -5 -2 11.43 0.53 0
 9 -5 -1 13.76 0.64 0
 9 -5 0 49.01 1.17 0
 9 -5 1 2.18 0.5 0
 9 -5 2 59.98 1.47 0
 9 -5 3 -0.52 0.46 0
 9 -5 4 0.98 0.53 0
 9 -5 6 49.45 1.7 0
 9 -5 7 1.55 0.75 0
 9 -5 8 8.88 1.08 0
 9 -5 9 0.62 0.64 0
 9 -5 10 50.06 2.04 0
 9 -5 11 1.49 0.87 0
 9 -5 12 2.78 1 0
 9 -5 15 42.25 2.49 0
 9 -5 16 29.52 2.25 0
 9 -3 8 3.94 0.88 0
 9 -3 9 27.46 1.54 0
 9 -3 10 3.51 0.9 0
 9 -3 11 56.05 2.21 0
 9 -3 12 2.53 0.92 0
 9 -3 13 11.61 1.57 0
 9 -3 14 40.6 2.12 0
 9 -3 15 53.89 2.62 0
 9 -3 16 30.71 2.23 0
 9 -3 17 23.09 1.99 0
 9 -1 11 27.74 1.74 0
 9 -1 12 105.4 3 0
 9 -1 13 -0.45 0.99 0
 9 -1 14 23 1.85 0
 9 -1 15 11.4 1.59 0
 9 -1 16 -0.64 1.13 0
 9 -1 17 1.57 1.24 0
 9 1 13 0.88 0.89 0
 9 1 14 20.63 1.74 0
 9 1 15 12.61 1.59 0
 9 1 16 0.22 0.97 0
 9 1 17 1.15 1.23 0
 9 3 14 43.31 2.15 0
 9 3 15 51.84 2.42 0
 9 3 16 29.96 2.07 0
 9 3 17 24.51 1.95 0
 9 5 15 38.78 2.17 0
 9 5 16 31.05 1.99 0
 9 5 17 1.86 1.05 0
 9 7 15 6.18 1.24 0
 9 7 16 9.27 1.44 0
 10 -10 7 77.53 2.3 0
 10 -10 8 11.62 1.35 0
 10 -10 9 1.06 0.87 0
 10 -10 10 2.9 1.08 0
 10 -10 11 33.93 1.98 0
 10 -10 12 -0.31 1.08 0
 10 -8 2 8.08 0.77 0
 10 -8 4 1.91 0.59 0
 10 -8 5 14.96 1.15 0
 10 -8 6 26.22 1.49 0
 10 -8 7 227.25 3.86 0
 10 -8 8 -0.74 0.86 0
 10 -8 9 20.37 1.61 0
 10 -8 10 7.03 1.19 0
 10 -8 11 102.14 3.09 0
 10 -8 12 0.22 1.14 0
 10 -8 13 48.08 2.41 0
 10 -8 14 5.03 1.46 0
 10 -6 -1 7.42 0.54 0
 10 -6 0 8.67 0.63 0
 10 -6 2 95.17 1.95 0
 10 -6 5 1.1 0.59 0
 10 -6 6 15.95 1.16 0
 10 -6 7 35.85 1.69 0
 10 -6 8 0.48 0.75 0
 10 -6 9 13.79 1.42 0
 10 -6 10 13.79 1.41 0
 10 -6 11 12.88 1.56 0
 10 -6 12 1.57 1.18 0
 10 -6 14 3.95 1.34 0
 10 -4 5 16.97 1.17 0
 10 -4 6 10.81 1.09 0
 10 -4 7 11.53 1.12 0
 10 -4 8 9.85 1.07 0
 10 -4 9 2.35 0.81 0
 10 -4 10 28.31 1.75 0
 10 -4 11 5.54 1.15 0
 10 -4 12 -0.13 0.83 0
 10 -4 14 37.63 2.27 0
 10 -4 15 5.32 1.38 0
 10 -4 16 5.53 1.49 0
 10 -2 10 8.8 1.14 0
 10 -2 11 2.24 1.01 0
 10 -2 12 58.17 2.43 0
 10 -2 13 12.74 1.56 0
 10 -2 14 17.37 1.67 0
 10 -2 15 7.25 1.37 0
 10 -2 16 0.95 1.26 0
 10 -2 17 19.84 2.13 0
 10 0 12 408.54 5.97 0
 10 0 14 3.71 1.16 0
 10 0 16 48.43 2.57 0
 10 2 16 -1.06 1.15 0
 10 2 17 14.9 1.76 0
 10 4 15 3.64 1.25 0
 10 4 16 6.39 1.47 0
 10 6 15 2.66 1.17 0
 11 -9 6 -0.49 0.69 0
 11 -9 7 23.43 1.5 0
 11 -9 8 0.83 0.77 0
 11 -9 9 1.05 1 0
 11 -9 11 -0.17 0.87 0
 11 -9 12 6.31 1.33 0
 11 -7 4 -0.12 0.52 0
 11 -7 5 71.05 2.07 0
 11 -7 6 0.85 0.69 0
 11 -7 7 43.94 1.87 0
 11 -7 8 0.66 0.82 0
 11 -7 9 39.36 1.98 0
 11 -7 10 0.12 1.02 0
 11 -7 11 4.5 1.1 0
 11 -7 12 0.31 1.2 0
 11 -7 13 73.61 2.88 0
 11 -7 14 7.47 1.48 0
 11 -5 4 47.21 1.65 0
 11 -5 6 0.02 0.61 0
 11 -5 8 8.75 1.17 0
 11 -5 9 52.66 2.21 0
 11 -5 10 2.58 1.16 0
 11 -5 12 4.6 1.35 0
 11 -5 13 59.49 2.67 0
 11 -5 14 53.38 2.57 0
 11 -5 15 4.87 1.48 0
 11 -3 9 0.95 0.78 0
 11 -3 10 -0.16 0.96 0
 11 -3 11 0.5 0.86 0
 11 -3 12 41.63 2.23 0
 11 -3 13 0.08 0.99 0
 11 -3 15 26.86 2.2 0
 11 -1 11 8.96 1.29 0
 11 -1 12 1.75 1.07 0
 11 -1 13 0.78 1.09 0
 11 -1 14 20.25 1.9 0
 11 -1 15 20.63 2.01 0
 11 -1 16 2.56 1.41 0
 11 1 13 0.87 1.03 0
 11 1 14 19.49 1.91 0
 11 1 15 21.52 1.92 0
 11 1 16 0.73 1.13 0
 11 3 14 17.29 1.9 0
 11 3 15 32.24 2.13 0
 11 3 16 1.27 1.33 0
 11 5 15 4.52 1.45 0
 12 -8 5 24.29 1.4 0
 12 -8 6 20.28 1.41 0
 12 -8 7 29.4 1.67 0
 12 -8 8 7.32 1.26 0
 12 -8 9 1.21 0.97 0
 12 -8 10 8.69 1.42 0
 12 -8 11 94.02 3.02 0
 12 -8 12 7.5 1.35 0
 12 -6 4 1.85 0.66 0
 12 -6 5 1.74 0.66 0
 12 -6 6 0.27 0.66 0
 12 -6 7 26.78 1.64 0
 12 -6 8 0.45 0.81 0
 12 -6 9 1.66 1.08 0
 12 -6 10 9.23 1.33 0
 12 -6 11 41.03 2.18 0
 12 -6 12 0.83 1.13 0
 12 -6 13 45.09 2.46 0
 12 -4 5 44.08 1.77 0
 12 -4 6 30.85 1.64 0
 12 -4 7 67.52 2.31 0
 12 -4 8 -0.58 0.84 0
 12 -4 9 1.31 1.05 0
 12 -4 10 1.5 0.93 0
 12 -4 11 18.71 1.67 0
 12 -4 12 2.2 1.24 0
 12 -4 13 4.17 1.32 0
 12 -2 10 107.07 3.16 0
 12 -2 11 0.72 1.02 0
 12 -2 12 84.89 2.91 0
 12 -2 13 6.66 1.34 0
 12 -2 14 -0.93 1.27 0
 12 0 12 251.61 5.12 0
 12 0 14 0.5 1.04 0
 12 2 14 0 1.22 0
 13 -7 4 2.02 0.82 0
 13 -7 5 34.69 1.66 0
 13 -7 6 0.57 0.91 0
 13 -7 7 6.35 1.2 0
 13 -7 8 9.53 1.37 0
 13 -7 9 11.12 1.42 0
 13 -7 10 13.2 1.61 0
 13 -7 11 20.62 1.83 0
 13 -7 12 -0.09 1.11 0
 13 -5 1 7.67 0.87 0
 13 -5 2 35.7 1.47 0
 13 -5 3 59.03 1.89 0
 13 -5 4 51.3 1.87 0
 13 -5 5 52.23 1.97 0
 13 -5 6 7.77 1.07 0
 13 -5 8 17.4 1.6 0
 13 -5 9 26.2 1.85 0
 13 -5 10 27.61 1.97 0
 13 -5 11 6.99 1.47 0
 13 -5 13 23.89 2.07 0
 13 -3 9 1.23 1.02 0
 13 -3 10 3.56 1.12 0
 13 -3 11 35.09 2.14 0
 13 -3 12 31.85 2.14 0
 13 -3 13 -1.48 1.02 0
 13 -3 14 0.58 1.11 0
 13 -1 11 4.32 1.19 0
 13 -1 12 18.78 1.77 0
 13 -1 13 7.36 1.35 0
 13 -1 14 5.14 1.34 0
 13 1 13 9.45 1.65 0
 13 1 14 6.17 1.43 0
 13 3 14 1.58 1.22 0
 14 -6 5 2.25 0.94 0
 14 -6 7 1.01 0.88 0
 14 -6 8 3.7 1.1 0
 14 -6 9 -0.05 0.89 0
 14 -6 10 28.9 2.03 0
 14 -6 11 1.6 1.18 0
 14 -4 5 37.84 1.85 0
 14 -4 6 31.02 1.77 0
 14 -4 7 61.93 2.35 0
 14 -4 8 -0.11 0.83 0
 14 -4 9 7.1 1.29 0
 14 -4 10 32.44 2.12 0
 14 -4 11 68.33 2.8 0
 14 -4 12 17.91 1.82 0
 14 -2 9 42.92 2.25 0
 14 -2 10 18.7 1.89 0
 14 -2 11 25.11 1.97 0
 14 -2 13 0.09 1.3 0
 14 0 12 -1.28 1.12 0
 14 2 13 0.31 1.12 0
 15 -7 9 -1 0.86 0
 15 -5 3 16.55 1.3 0
 15 -5 6 7.57 1.23 0
 15 -5 7 0.47 0.86 0
 15 -5 8 4.09 1.1 0
 15 -5 9 -0.11 1.12 0
 15 -5 10 0.52 1.18 0
 15 -3 8 2.53 1.26 0
 15 -3 9 -0.22 0.97 0
 15 -3 10 6.36 1.31 0
 15 -3 11 1.61 1.29 0
 15 -1 10 0.96 1.08 0
 15 -1 11 0.52 1.32 0
 15 -1 12 15.53 1.95 0
 15 1 12 16.48 1.88 0
 16 -6 8 7.55 1.24 0
 16 -4 3 3.69 0.98 0
 16 -4 5 3.12 1.13 0
 16 -4 6 9.63 1.35 0
 16 -4 7 2.01 0.96 0
 16 -4 8 1.39 0.99 0
 16 -4 9 -0.23 0.94 0
 16 -2 8 -0.39 1.24 0
 16 -2 9 32.2 2.12 0
 16 -2 10 4.15 1.43 0
 17 -3 6 -0.26 0.88 0
 17 -3 8 3.76 1.13 0
 -13 11 3 3.09 1.07 0
 -12 10 4 7.45 1.18 0
 -12 10 5 13.06 1.34 0
 -12 10 6 2.93 1.08 0
 -12 12 3 6.95 1.42 0
 -12 12 4 6.36 1.39 0
 -12 12 5 15.71 1.64 0
 -11 3 4 26.63 0.71 0
 -11 5 5 4.27 0.56 0
 -11 5 6 5.25 0.6 0
 -11 7 5 32.87 1.33 0
 -11 7 6 2.8 0.73 0
 -11 7 7 -0.43 0.59 0
 -11 9 6 1.29 0.82 0
 -11 9 7 4.4 0.99 0
 -11 9 8 5.12 0.97 0
 -11 11 5 1.44 1.12 0
 -11 11 6 1.48 0.97 0
 -11 11 7 1.91 1.1 0
 -11 11 8 0.5 0.95 0
 -11 13 2 0.09 1.16 0
 -11 13 3 26.83 2 0
 -11 13 4 26.18 1.97 0
 -11 13 5 0.2 1.09 0
 -11 13 6 5.64 1.29 0
 -11 13 7 6.87 1.31 0
 -10 4 5 47.2 1.06 0
 -10 4 6 5.76 0.52 0
 -10 4 7 17.6 0.72 0
 -10 6 5 14.76 0.92 0
 -10 6 6 11.97 0.89 0
 -10 8 5 2.57 0.72 0
 -10 8 6 47.56 1.65 0
 -10 8 7 86.39 2.1 0
 -10 8 8 7.54 0.94 0
 -10 8 9 0.12 0.71 0
 -10 8 10 20.26 1.31 0
 -10 10 4 1.1 0.94 0
 -10 10 5 1.38 0.86 0
 -10 10 6 -0.53 0.86 0
 -10 10 7 18.43 1.46 0
 -10 10 8 0.31 0.97 0
 -10 10 9 0.08 0.95 0
 -10 10 10 9.53 1.28 0
 -10 12 3 11.84 1.56 0
 -10 12 4 0.64 1.04 0
 -10 12 5 12.8 1.57 0
 -10 12 6 17.73 1.69 0
 -10 12 7 3.35 1.28 0
 -10 12 8 -0.78 1.01 0
 -10 14 2 3.87 1.39 0
 -10 14 3 50.6 2.55 0
 -10 14 4 56.66 2.66 0
 -9 3 6 33.53 0.79 0
 -9 3 8 7.57 0.5 0
 -9 3 9 9.03 0.56 0
 -9 5 5 8.13 0.69 0
 -9 5 6 60.03 1.36 0
 -9 5 7 8.64 0.71 0
 -9 5 8 2.83 0.54 0
 -9 5 9 1.61 0.51 0
 -9 5 10 0.19 0.46 0
 -9 7 8 31.2 1.31 0
 -9 7 10 4.38 0.82 0
 -9 7 11 202.68 3.19 0
 -9 9 5 123.28 2.63 0
 -9 9 6 2.9 0.87 0
 -9 9 7 7.55 1.11 0
 -9 9 8 12.27 1.24 0
 -9 9 10 0.48 0.8 0
 -9 9 11 105.27 2.59 0
 -9 9 12 5.99 1.1 0
 -9 11 4 11.65 1.43 0
 -9 11 5 6.51 1.16 0
 -9 11 6 10.74 1.36 0
 -9 11 7 25.11 1.72 0
 -9 11 8 3.25 1.06 0
 -9 11 9 25.04 1.74 0
 -9 11 10 4.76 1.18 0
 -9 11 11 10.3 1.37 0
 -9 13 3 -0.44 1.13 0
 -9 13 4 9.55 1.48 0
 -9 13 5 8.96 1.55 0
 -9 13 7 9.96 1.52 0
 -9 13 8 11.62 1.6 0
 -9 13 9 1.23 1.21 0
 -8 2 7 22.18 0.6 0
 -8 2 8 63.58 1.06 0
 -8 2 9 38.91 0.85 0
 -8 2 10 18.76 0.67 0
 -8 4 5 119.06 1.68 0
 -8 4 6 354.56 2.83 0
 -8 4 7 155.42 1.98 0
 -8 4 8 53.68 1.22 0
 -8 4 9 0.51 0.43 0
 -8 4 10 14.26 0.82 0
 -8 4 11 1.34 0.5 0
 -8 4 12 0.14 0.5 0
 -8 6 5 2.62 0.59 0
 -8 6 6 51.84 1.4 0
 -8 6 7 181.77 2.62 0
 -8 6 11 32.98 1.39 0
 -8 6 13 14.68 1.18 0
 -8 8 5 103.26 2.24 0
 -8 8 6 9.35 1 0
 -8 8 7 21.63 1.29 0
 -8 8 8 -0.07 0.76 0
 -8 8 10 19.55 1.31 0
 -8 8 11 1.17 0.91 0
 -8 8 12 7.38 1.09 0
 -8 8 13 5.61 1.07 0
 -8 10 5 0.8 0.76 0
 -8 10 6 57.04 2.05 0
 -8 10 7 0.22 0.98 0
 -8 10 10 8.84 1.27 0
 -8 10 11 43.67 2 0
 -8 10 12 2.9 1.06 0
 -8 10 13 20.92 1.7 0
 -8 12 4 0.63 1.1 0
 -8 12 5 0.28 1.08 0
 -8 12 6 26.3 1.88 0
 -8 12 7 15.24 1.68 0
 -8 12 8 4.47 1.34 0
 -8 12 9 9.25 1.44 0
 -8 12 10 -1.17 0.97 0
 -8 12 11 9.07 1.52 0
 -8 12 12 -0.06 1.16 0
 -8 14 2 2.62 1.45 0
 -8 14 3 52.95 2.56 0
 -8 14 4 41.92 2.4 0
 -8 14 5 3.34 1.55 0
 -8 14 6 1.03 1.22 0
 -8 14 7 40.69 2.35 0
 -8 14 8 67.75 2.8 0
 -7 1 4 66.73 0.7 0
 -7 1 5 28.59 0.49 0
 -7 1 6 2.18 0.24 0
 -7 1 9 1.36 0.3 0
 -7 1 10 152.58 1.7 0
 -7 1 11 -0.33 0.31 0
 -7 3 5 108.38 1.43 0
 -7 3 6 5.79 0.47 0
 -7 3 7 14.08 0.63 0
 -7 3 8 55.92 1.23 0
 -7 3 9 10.15 0.64 0
 -7 3 10 0.21 0.4 0
 -7 3 11 29.86 1.03 0
 -7 5 5 5.1 0.59 0
 -7 5 6 0.63 0.43 0
 -7 5 7 0.32 0.43 0
 -7 5 8 17.27 0.88 0
 -7 5 9 0.53 0.47 0
 -7 5 10 8.84 0.83 0
 -7 5 12 7.32 0.87 0
 -7 5 14 16.97 1.16 0
 -7 7 9 3.01 0.73 0
 -7 7 10 -0.15 0.62 0
 -7 7 12 0.27 0.78 0
 -7 7 13 1.48 0.85 0
 -7 7 14 1.12 0.86 0
 -7 7 15 132.28 2.86 0
 -7 9 5 24.96 1.39 0
 -7 9 6 10.61 1.15 0
 -7 9 7 34.56 1.62 0
 -7 9 8 19.54 1.38 0
 -7 9 9 111.8 2.63 0
 -7 9 10 -0.01 0.76 0
 -7 9 11 3.54 1.01 0
 -7 9 12 19.54 1.53 0
 -7 9 13 71.58 2.37 0
 -7 9 14 13.94 1.54 0
 -7 11 4 88.94 2.57 0
 -7 11 5 32.81 1.83 0
 -7 11 6 14.01 1.49 0
 -7 11 7 96.72 2.73 0
 -7 11 8 17.4 1.6 0
 -7 11 9 63.18 2.38 0
 -7 11 10 0.15 1.13 0
 -7 11 11 26.73 1.85 0
 -7 11 12 3.13 1.17 0
 -7 11 13 33 2 0
 -7 11 14 11.84 1.43 0
 -7 13 3 25.46 1.94 0
 -7 13 4 10.84 1.61 0
 -7 13 5 4.51 1.3 0
 -7 13 6 8.84 1.42 0
 -7 13 7 0.07 1.11 0
 -7 13 8 0.3 1.29 0
 -7 13 9 4.17 1.47 0
 -7 13 10 2.6 1.43 0
 -7 13 11 -0.65 1.31 0
 -7 15 1 5.11 1.68 0
 -7 15 2 0.35 1.43 0
 -7 15 4 11.17 1.83 0
 -6 0 6 261.53 1.26 0
 -6 2 4 67.69 0.93 0
 -6 2 5 0.78 0.21 0
 -6 2 8 181.55 1.89 0
 -6 2 10 53.23 1.19 0
 -6 2 11 8.86 0.69 0
 -6 2 12 1.77 0.53 0
 -6 2 13 6.83 0.78 0
 -6 2 15 9.74 0.99 0
 -6 4 5 186.38 2.07 0
 -6 4 6 634.49 3.8 0
 -6 4 7 138.2 1.89 0
 -6 4 8 31.32 1.01 0
 -6 4 9 32.91 1.1 0
 -6 4 11 50.96 1.43 0
 -6 4 13 35.55 1.37 0
 -6 4 14 97.07 2.15 0
 -6 4 15 19.55 1.25 0
 -6 4 16 4.03 0.96 0
 -6 6 5 56.94 1.42 0
 -6 6 7 47.96 1.39 0
 -6 6 8 3.34 0.64 0
 -6 6 11 1.43 0.7 0
 -6 6 12 10.7 1.09 0
 -6 6 13 -0.06 0.75 0
 -6 6 14 7.37 1.09 0
 -6 6 15 0.99 0.82 0
 -6 6 16 3.36 1.06 0
 -6 8 7 2.09 0.75 0
 -6 8 8 1.8 0.76 0
 -6 8 9 156.59 2.95 0
 -6 8 10 16.18 1.3 0
 -6 8 11 97.43 2.46 0
 -6 8 12 1.94 0.91 0
 -6 8 13 21.01 1.53 0
 -6 8 14 1.59 0.89 0
 -6 8 15 71.07 2.37 0
 -6 8 16 0.46 0.93 0
 -6 10 5 5.85 1.08 0
 -6 10 6 24.17 1.5 0
 -6 10 7 65.29 2.19 0
 -6 10 9 75.88 2.39 0
 -6 10 10 45.78 2.01 0
 -6 10 11 18.8 1.65 0
 -6 10 12 0.57 1.12 0
 -6 10 13 -0.5 1 0
 -6 10 14 19.18 1.74 0
 -6 10 15 29.9 1.96 0
 -6 10 16 -0.05 1.02 0
 -6 12 4 -0.28 0.91 0
 -6 12 5 4.81 1.28 0
 -6 12 6 6.76 1.37 0
 -6 12 7 48.79 2.27 0
 -6 12 8 0.66 1.17 0
 -6 12 10 8.98 1.41 0
 -6 12 11 1.37 1.1 0
 -6 12 12 1.01 1.17 0
 -6 12 13 0.88 1.2 0
 -6 14 2 0.23 1.2 0
 -6 14 3 0.22 1.09 0
 -6 14 4 2.92 1.29 0
 -6 14 5 32.38 2.2 0
 -6 14 6 6.27 1.39 0
 -6 14 7 14.08 1.8 0
 -6 14 8 0.57 1.3 0
 -6 14 9 0.42 1.2 0
 -5 1 4 124.83 1 0
 -5 1 5 131.18 1.14 0
 -5 1 6 460.1 2.3 0
 -5 1 9 24.85 0.78 0
 -5 1 10 353.16 2.85 0
 -5 1 11 3.58 0.55 0
 -5 1 12 31.96 1.12 0
 -5 1 13 1.19 0.53 0
 -5 3 7 0.53 0.32 0
 -5 3 8 23.7 0.86 0
 -5 3 9 158.09 2.15 0
 -5 3 10 0.44 0.41 0
 -5 3 11 0.15 0.46 0
 -5 3 12 9.48 0.87 0
 -5 3 14 1.56 0.71 0
 -5 3 15 3.98 0.85 0
 -5 3 16 -0.06 0.68 0
 -5 3 17 -0.07 0.78 0
 -5 5 5 18.72 0.83 0
 -5 5 6 97.85 1.76 0
 -5 5 7 47.99 1.28 0
 -5 5 8 14.24 0.85 0
 -5 5 9 1.56 0.6 0
 -5 5 12 2.79 0.78 0
 -5 5 13 2.09 0.7 0
 -5 5 14 0.69 0.82 0
 -5 5 15 1.04 0.79 0
 -5 5 16 15.39 1.39 0
 -5 7 5 340.61 3.59 0
 -5 7 9 342.42 4.01 0
 -5 7 10 1.7 0.67 0
 -5 7 11 9.2 1.11 0
 -5 7 12 5.35 0.92 0
 -5 7 13 100.81 2.53 0
 -5 7 14 7.77 1.11 0
 -5 7 15 0.95 1.07 0
 -5 7 16 1.54 1.01 0
 -5 7 17 54.82 2.2 0
 -5 9 5 37.39 1.54 0
 -5 9 6 9.59 1.06 0
 -5 9 8 5.67 0.91 0
 -5 9 9 34.19 1.67 0
 -5 9 10 1.87 0.93 0
 -5 9 11 57.82 2.15 0
 -5 9 13 3.67 1.07 0
 -5 9 14 14.92 1.57 0
 -5 9 15 4.27 1.35 0
 -5 9 16 2.28 1.15 0
 -5 9 17 4.98 1.24 0
 -5 11 4 97.7 2.61 0
 -5 11 5 12.75 1.39 0
 -5 11 6 85.78 2.54 0
 -5 11 7 1.62 0.92 0
 -5 11 8 27.15 1.75 0
 -5 11 9 6.44 1.34 0
 -5 11 10 49.64 2.21 0
 -5 11 11 41.35 2.18 0
 -5 11 12 1.71 1.11 0
 -5 11 13 46.07 2.29 0
 -5 11 14 3.67 1.45 0
 -5 11 15 9.3 1.62 0
 -5 13 3 13.88 1.62 0
 -5 13 4 33.47 2.08 0
 -5 13 5 0.51 1.05 0
 -5 13 6 0.31 1.12 0
 -5 13 7 3.23 1.43 0
 -5 13 8 1.11 1.17 0
 -5 13 9 4.99 1.26 0
 -5 13 10 0.06 1.1 0
 -5 13 11 1.15 1.27 0
 -5 13 12 1.15 1.39 0
 -5 15 2 13.75 1.73 0
 -5 15 3 10.72 1.62 0
 -5 15 4 9.33 1.6 0
 -5 15 5 2.14 1.45 0
 -5 15 6 21.52 2.13 0
 -5 15 7 13.67 1.75 0
 -4 0 4 802.29 2 0
 -4 0 6 62.09 0.83 0
 -4 0 10 136.65 1.86 0
 -4 2 5 754.04 3.16 0
 -4 2 8 45.68 1.06 0
 -4 2 9 67.56 1.37 0
 -4 2 11 111.52 2.02 0
 -4 2 12 0.78 0.5 0
 -4 2 14 65.04 1.8 0
 -4 2 15 39.52 1.58 0
 -4 2 16 58.8 1.89 0
 -4 4 6 35.69 0.99 0
 -4 4 7 0.69 0.4 0
 -4 4 8 29.95 1.03 0
 -4 4 9 80.1 1.71 0
 -4 4 10 3.68 0.64 0
 -4 4 13 -0.03 0.65 0
 -4 4 14 16.76 1.22 0
 -4 4 15 2.91 0.95 0
 -4 4 16 20.01 1.42 0
 -4 4 17 50.59 1.98 0
 -4 6 5 190.6 2.51 0
 -4 6 6 18.93 0.96 0
 -4 6 7 1.56 0.58 0
 -4 6 11 33.2 1.44 0
 -4 6 12 58.21 1.89 0
 -4 6 13 17.22 1.3 0
 -4 6 14 1.48 0.81 0
 -4 6 15 48.41 1.99 0
 -4 6 16 83.57 2.46 0
 -4 6 17 63.34 2.28 0
 -4 6 18 65.72 2.35 0
 -4 6 19 -0.07 1.11 0
 -4 8 7 0.04 0.56 0
 -4 8 8 12.89 1.11 0
 -4 8 9 3.7 0.85 0
 -4 8 10 56.24 1.94 0
 -4 8 11 59.43 2.03 0
 -4 8 12 -0.64 0.84 0
 -4 8 13 -0.59 0.93 0
 -4 8 14 37.08 1.95 0
 -4 8 15 147.96 3.34 0
 -4 8 16 4.98 1.31 0
 -4 8 17 25.81 1.86 0
 -4 8 18 2.6 1.29 0
 -4 10 4 29.46 1.49 0
 -4 10 5 13.88 1.23 0
 -4 10 6 28.23 1.54 0
 -4 10 7 31.05 1.64 0
 -4 10 8 0.6 0.82 0
 -4 10 10 1.15 1.1 0
 -4 10 11 0.74 0.99 0
 -4 10 12 5.16 1.14 0
 -4 10 13 59.67 2.42 0
 -4 10 14 14.2 1.7 0
 -4 10 15 35.24 2.16 0
 -4 10 16 2.99 1.43 0
 -4 12 3 -0.29 0.96 0
 -4 12 4 75.24 2.49 0
 -4 12 6 97.03 2.84 0
 -4 12 7 15.19 1.62 0
 -4 12 8 3.96 1.12 0
 -4 12 9 19.84 1.77 0
 -4 12 10 56.87 2.47 0
 -4 12 11 -0.14 1.16 0
 -4 12 12 5.06 1.48 0
 -4 12 13 1.71 1.44 0
 -4 12 14 3.11 1.52 0
 -4 14 1 0.88 1.1 0
 -4 14 2 2.88 1.14 0
 -4 14 3 4.98 1.4 0
 -4 14 4 12.04 1.72 0
 -4 14 5 9.44 1.48 0
 -4 14 6 2.7 1.36 0
 -4 14 7 -0.21 1.19 0
 -4 14 8 17.05 1.95 0
 -4 14 9 1.64 1.28 0
 -4 14 10 18.59 2.05 0
 -4 16 -1 -0.26 1.29 0
 -4 16 0 29.33 2.3 0
 -4 16 2 13.56 1.82 0
 -4 16 3 4.5 1.72 0
 -3 1 3 570.38 1.97 0
 -3 1 5 0.32 0.24 0
 -3 1 6 5.28 0.39 0
 -3 1 9 31.9 0.94 0
 -3 1 10 515.16 3.71 0
 -3 1 11 60.87 1.44 0
 -3 1 12 0.27 0.54 0
 -3 1 14 343.43 3.93 0
 -3 3 4 931.39 3.81 0
 -3 3 7 18.82 0.78 0
 -3 3 8 792.63 4.49 0
 -3 3 9 8 0.69 0
 -3 3 10 3.77 0.61 0
 -3 3 11 8.81 0.83 0
 -3 3 13 54.19 1.67 0
 -3 3 14 1.15 0.71 0
 -3 3 15 -0.21 0.67 0
 -3 3 16 9.37 1.27 0
 -3 3 17 54.71 2.08 0
 -3 5 4 129.08 1.82 0
 -3 5 5 13.19 0.71 0
 -3 5 6 43.7 1.19 0
 -3 5 7 245.93 2.79 0
 -3 5 8 63.33 1.54 0
 -3 5 9 128.77 2.24 0
 -3 5 12 0.33 0.58 0
 -3 5 13 35.56 1.59 0
 -3 5 14 12.58 1.25 0
 -3 5 15 0.93 0.96 0
 -3 5 16 0.81 0.99 0
 -3 5 17 5.53 1.19 0
 -3 5 18 16.54 1.68 0
 -3 5 19 3.33 1.18 0
 -3 7 4 25.17 1.08 0
 -3 7 5 9.72 0.8 0
 -3 7 6 23.72 1.12 0
 -3 7 9 330.48 3.97 0
 -3 7 10 15.21 1.16 0
 -3 7 12 70.91 2.19 0
 -3 7 13 222.16 3.91 0
 -3 7 14 5.91 1.24 0
 -3 7 15 75.94 2.48 0
 -3 7 16 19.05 1.7 0
 -3 7 17 62.04 2.4 0
 -3 7 18 19.58 1.76 0
 -3 7 19 20.3 1.88 0
 -3 9 4 13.71 1.04 0
 -3 9 6 8.24 1.01 0
 -3 9 7 80.47 2.18 0
 -3 9 8 3.56 0.79 0
 -3 9 9 189.29 3.5 0
 -3 9 10 14.33 1.34 0
 -3 9 11 13.38 1.4 0
 -3 9 12 9.59 1.35 0
 -3 9 14 0.27 1 0
 -3 9 15 44.68 2.27 0
 -3 9 16 2.15 1.15 0
 -3 9 17 3.91 1.22 0
 -3 11 3 77.7 2.29 0
 -3 11 4 12.26 1.24 0
 -3 11 5 -0.09 0.69 0
 -3 11 6 0.05 0.72 0
 -3 11 8 -0.41 0.86 0
 -3 11 9 45.35 2.1 0
 -3 11 10 14.23 1.61 0
 -3 11 11 -0.1 1.15 0
 -3 11 13 1.47 1.28 0
 -3 11 14 18.21 1.92 0
 -3 11 15 3.35 1.35 0
 -3 13 2 12.83 1.55 0
 -3 13 3 7.6 1.26 0
 -3 13 4 1.13 1.22 0
 -3 13 5 -0.34 0.94 0
 -3 13 6 11.8 1.6 0
 -3 13 7 11.33 1.56 0
 -3 13 8 0.39 1.05 0
 -3 13 9 10.45 1.68 0
 -3 13 10 14.18 1.82 0
 -3 13 12 2.58 1.43 0
 -3 15 1 -0.26 1.15 0
 -3 15 4 0.23 1.2 0
 -3 15 5 -0.62 1.16 0
 -3 15 8 9.46 1.73 0
 -2 0 4 22.69 0.49 0
 -2 0 6 0.92 0.28 0
 -2 0 10 30.86 1.05 0
 -2 0 12 26.97 1.11 0
 -2 2 3 288.36 1.76 0
 -2 2 4 127.31 1.31 0
 -2 2 5 1331.49 4.44 0
 -2 2 8 88.32 1.53 0
 -2 2 9 587.1 4.03 0
 -2 2 10 21 0.95 0
 -2 2 11 29.52 1.15 0
 -2 2 14 53.07 1.76 0
 -2 2 16 42.56 1.82 0
 -2 4 7 29.26 1 0
 -2 4 8 2.23 0.48 0
 -2 4 9 395.21 3.66 0
 -2 4 10 56.74 1.56 0
 -2 4 12 9.08 1 0
 -2 4 14 58.22 1.93 0
 -2 4 15 106.23 2.57 0
 -2 4 16 11.62 1.36 0
 -2 4 17 2.78 1.12 0
 -2 4 18 4.38 1.23 0
 -2 4 19 12.48 1.52 0
 -2 6 4 45.87 1.21 0
 -2 6 5 72.54 1.57 0
 -2 6 6 -0.2 0.49 0
 -2 6 7 6.44 0.74 0
 -2 6 11 4.23 0.83 0
 -2 6 12 20.09 1.33 0
 -2 6 13 30.16 1.56 0
 -2 6 15 20.53 1.57 0
 -2 6 16 16.03 1.56 0
 -2 6 17 66.73 2.45 0
 -2 6 18 3.72 1.19 0
 -2 6 19 0.65 1.15 0
 -2 8 7 12.62 1.04 0
 -2 8 9 107.84 2.46 0
 -2 8 10 31.4 1.59 0
 -2 8 11 0.4 0.75 0
 -2 8 12 13.78 1.41 0
 -2 8 13 49.42 2.09 0
 -2 8 14 71.75 2.49 0
 -2 8 15 15.83 1.67 0
 -2 8 16 3.7 1.15 0
 -2 8 17 64.28 2.6 0
 -2 8 18 30.42 2.07 0
 -2 10 3 156.2 3 0
 -2 10 4 35.76 1.56 0
 -2 10 5 95.98 2.41 0
 -2 10 6 57.53 1.98 0
 -2 10 8 14.38 1.36 0
 -2 10 9 37.76 1.86 0
 -2 10 10 62.58 2.3 0
 -2 10 11 30.94 1.88 0
 -2 10 12 -0.16 0.99 0
 -2 10 13 47.42 2.29 0
 -2 10 14 6.08 1.47 0
 -2 10 15 43.44 2.35 0
 -2 10 16 0.13 1.29 0
 -2 12 2 29.39 1.68 0
 -2 12 5 24.19 1.68 0
 -2 12 6 139.36 3.28 0
 -2 12 7 1.8 1.18 0
 -2 12 8 36.04 2.02 0
 -2 12 9 26.96 1.94 0
 -2 12 10 177.26 3.91 0
 -2 12 12 -1.83 1.17 0
 -2 12 13 38.7 2.39 0
 -2 12 14 89.66 3.17 0
 -2 14 1 1.27 1.2 0
 -2 14 3 0.7 1.08 0
 -2 14 4 14.77 1.75 0
 -2 14 6 2.1 1.41 0
 -2 14 7 6.62 1.38 0
 -2 14 8 0.77 1.37 0
 -2 14 9 -1.1 1.15 0
 -2 14 10 -0.52 1.34 0
 -2 14 11 3.28 1.44 0
 -2 16 -1 1.38 1.48 0
 -2 16 0 3.07 1.34 0
 -2 16 1 -0.73 1.45 0
 -2 16 2 0.38 1.26 0
 -2 16 3 1.54 1.37 0
 -1 1 2 842.16 2.21 0
 -1 1 3 0.62 0.2 0
 -1 1 4 1352.55 3.83 0
 -1 1 5 138.88 1.44 0
 -1 1 6 579.87 3.14 0
 -1 1 8 0.23 0.31 0
 -1 1 9 22.85 0.89 0
 -1 1 10 3.25 0.57 0
 -1 1 11 34.29 1.2 0
 -1 1 14 56.58 1.81 0
 -1 3 3 285.78 2.05 0
 -1 3 4 736.33 3.46 0
 -1 3 5 908.81 4.1 0
 -1 3 8 947.54 5.15 0
 -1 3 9 442.69 3.79 0
 -1 3 13 38.78 1.54 0
 -1 3 14 50.43 1.79 0
 -1 3 17 29.56 1.78 0
 -1 5 6 101.72 1.81 0
 -1 5 7 409.97 3.62 0
 -1 5 8 514.64 4.24 0
 -1 5 9 267.88 3.32 0
 -1 5 11 27.99 1.36 0
 -1 5 12 70.55 2.01 0
 -1 5 13 141.61 2.97 0
 -1 5 14 6.66 1.04 0
 -1 5 15 3.1 1.1 0
 -1 5 16 4.44 1.05 0
 -1 5 17 4.16 1.28 0
 -1 5 18 40.64 2.17 0
 -1 5 19 2.91 1.34 0
 -1 7 4 10.3 0.79 0
 -1 7 5 462.87 4.11 0
 -1 7 6 6.88 0.81 0
 -1 7 9 10.26 1.02 0
 -1 7 10 57.15 1.85 0
 -1 7 11 17.81 1.31 0
 -1 7 12 13.1 1.31 0
 -1 7 13 4.61 1.07 0
 -1 7 14 20.13 1.6 0
 -1 7 15 16.9 1.65 0
 -1 7 16 68.41 2.53 0
 -1 7 18 7 1.38 0
 -1 7 19 2.17 1.31 0
 -1 9 5 85.17 2.1 0
 -1 9 6 16.33 1.18 0
 -1 9 8 18.39 1.33 0
 -1 9 9 8.17 1.11 0
 -1 9 10 20.7 1.46 0
 -1 9 11 0.23 0.77 0
 -1 9 12 13.46 1.5 0
 -1 9 13 21.48 1.72 0
 -1 9 15 19.09 1.85 0
 -1 9 17 1.4 1.2 0
 -1 11 3 0.54 0.85 0
 -1 11 4 174.16 3.41 0
 -1 11 5 10.31 1.28 0
 -1 11 6 42.11 1.9 0
 -1 11 7 48.84 2.04 0
 -1 11 9 96.43 2.79 0
 -1 11 10 46.71 2.22 0
 -1 11 11 2.51 1.13 0
 -1 11 12 7.55 1.55 0
 -1 11 13 39.01 2.28 0
 -1 11 14 8.56 1.46 0
 -1 11 15 2.12 1.39 0
 -1 13 1 3.11 1.06 0
 -1 13 4 17.07 1.65 0
 -1 13 5 1.1 1.01 0
 -1 13 6 1.32 1.24 0
 -1 13 7 72 2.64 0
 -1 13 8 12.18 1.69 0
 -1 13 10 30.24 2.17 0
 -1 13 11 0.84 1.28 0
 -1 13 12 0.04 1.26 0
 -1 15 -1 9.24 1.44 0
 -1 15 0 17.06 1.87 0
 -1 15 1 -0.19 1.11 0
 -1 15 2 92.52 3.11 0
 -1 15 3 12.03 1.65 0
 -1 15 4 2.77 1.34 0
 -1 15 5 1.43 1.29 0
 -1 15 6 50.25 2.58 0
 -1 15 7 21.04 2.1 0
 -1 15 8 0.89 1.32 0
 0 0 2 1509 2.79 0
 0 0 4 9914.97 10.33 0
 0 0 6 1682.72 5.33 0
 0 2 2 715.43 2.6 0
 0 2 3 28.23 0.65 0
 0 2 4 276.23 2.02 0
 0 2 5 119.56 1.51 0
 0 2 6 442.88 3 0
 0 2 8 52.76 1.27 0
 0 2 9 153.2 2.24 0
 0 2 10 8.04 0.73 0
 0 2 13 213.11 3.32 0
 0 2 14 2.25 0.85 0
 0 2 15 -0 0.76 0
 0 2 16 7.17 1.13 0
 0 4 3 237.11 2.13 0
 0 4 4 825.41 4.08 0
 0 4 7 53.84 1.32 0
 0 4 8 320.07 3.28 0
 0 4 9 8.76 0.8 0
 0 4 12 5.01 0.92 0
 0 4 14 5.12 1.05 0
 0 4 15 13.94 1.36 0
 0 4 16 -0.27 0.85 0
 0 4 17 32.99 1.96 0
 0 4 18 11.8 1.59 0
 0 6 5 5.69 0.66 0
 0 6 6 11.16 0.78 0
 0 6 7 6.69 0.78 0
 0 6 11 15.95 1.21 0
 0 6 12 87.95 2.36 0
 0 6 13 22.84 1.49 0
 0 6 14 7.76 1.12 0
 0 6 16 47.86 2.2 0
 0 6 17 21.21 1.83 0
 0 6 18 25.3 2 0
 0 6 19 15.95 1.87 0
 0 8 7 3.42 0.69 0
 0 8 8 1.99 0.77 0
 0 8 9 3.65 0.88 0
 0 8 10 3.79 0.85 0
 0 8 11 6.86 1.01 0
 0 8 12 20.66 1.5 0
 0 8 13 8.45 1.29 0
 0 8 14 11.26 1.55 0
 0 8 15 7.93 1.32 0
 0 8 16 2.82 1.29 0
 0 8 18 24.33 2.09 0
 0 10 2 -0.12 0.53 0
 0 10 4 10.87 1.11 0
 0 10 5 177.2 3.3 0
 0 10 6 1.09 0.69 0
 0 10 7 111.55 2.68 0
 0 10 8 0.27 0.72 0
 0 10 9 7.56 1.07 0
 0 10 11 43.93 2.11 0
 0 10 12 -0.1 1.18 0
 0 10 13 6.32 1.33 0
 0 10 14 9.22 1.48 0
 0 10 15 34.99 2.26 0
 0 10 16 0.86 1.24 0
 0 12 1 34.39 1.76 0
 0 12 2 0.38 0.76 0
 0 12 3 12.53 1.41 0
 0 12 5 13.73 1.45 0
 0 12 6 6.12 1.21 0
 0 12 7 32.94 1.9 0
 0 12 8 -0.24 1.17 0
 0 12 9 -0.99 0.96 0
 0 12 11 1.34 1.27 0
 0 12 12 2.4 1.24 0
 0 12 13 22.66 2.12 0
 0 12 14 19.13 2.12 0
 0 14 -1 0.29 1.01 0
 0 14 0 146.5 3.47 0
 0 14 1 0.93 1.2 0
 0 14 2 1.37 1.22 0
 0 14 4 82.16 2.85 0
 0 14 5 12.43 1.66 0
 0 14 6 1.63 1.16 0
 0 14 7 1.19 1.2 0
 0 14 8 20.84 2.03 0
 0 14 9 22.43 2.1 0
 0 14 10 3.4 1.39 0
 0 14 11 20.32 2.22 0
 0 16 -4 11.77 1.66 0
 0 16 -3 3.47 1.41 0
 0 16 -2 7.86 1.52 0
 0 16 -1 0.76 1.19 0
 0 16 1 1.13 1.28 0
 0 16 3 4.67 1.41 0
 0 16 4 11.42 1.74 0
 0 16 5 10.72 1.82 0
 1 1 1 7.84 0.26 0
 1 1 2 16.14 0.43 0
 1 1 3 0.35 0.25 0
 1 1 4 3.71 0.41 0
 1 1 6 28.59 0.82 0
 1 1 8 8.66 0.64 0
 1 1 9 56.12 1.39 0
 1 1 10 32.56 1.17 0
 1 1 13 24.84 1.36 0
 1 1 14 1.95 0.76 0
 1 3 2 1.53 0.33 0
 1 3 3 165.12 1.62 0
 1 3 4 121.31 1.51 0
 1 3 5 2.3 0.39 0
 1 3 9 143.53 2.37 0
 1 3 10 0.03 0.52 0
 1 3 12 47.72 1.67 0
 1 3 13 156.68 2.98 0
 1 3 14 61.46 2.06 0
 1 3 15 45.68 1.96 0
 1 3 16 3.79 1.11 0
 1 3 17 10.79 1.48 0
 1 5 2 316.66 2.57 0
 1 5 7 143.66 2.28 0
 1 5 11 26.31 1.39 0
 1 5 12 250.08 3.83 0
 1 5 13 37.95 1.71 0
 1 5 14 26.23 1.62 0
 1 5 15 7.38 1.29 0
 1 5 16 16.64 1.62 0
 1 5 17 -0.91 0.98 0
 1 5 18 0.49 1.34 0
 1 7 3 301.87 3.15 0
 1 7 4 8.74 0.74 0
 1 7 5 153.45 2.42 0
 1 7 9 75.98 2.04 0
 1 7 10 0.07 0.62 0
 1 7 11 99.95 2.53 0
 1 7 12 24.67 1.59 0
 1 7 13 42.75 1.99 0
 1 7 14 35.16 1.92 0
 1 7 15 4.77 1.34 0
 1 7 16 4.4 1.27 0
 1 7 17 101.76 3.12 0
 1 9 5 1.32 0.61 0
 1 9 6 14.17 1.11 0
 1 9 7 6.47 0.93 0
 1 9 8 30.38 1.54 0
 1 9 9 3.65 0.88 0
 1 9 11 14.31 1.47 0
 1 9 12 16.84 1.59 0
 1 9 13 6.6 1.26 0
 1 9 14 9.44 1.6 0
 1 9 15 44.2 2.34 0
 1 9 17 68.35 2.84 0
 1 11 1 32.19 1.52 0
 1 11 2 -0 0.76 0
 1 11 3 100.45 2.51 0
 1 11 4 -0.21 0.65 0
 1 11 6 11.02 1.29 0
 1 11 7 27.17 1.73 0
 1 11 8 7.67 1.2 0
 1 11 10 47.68 2.27 0
 1 11 11 24.38 1.86 0
 1 11 12 3.63 1.41 0
 1 11 14 43.92 2.45 0
 1 11 15 54.68 2.66 0
 1 13 -1 4.24 1.07 0
 1 13 0 1.98 0.98 0
 1 13 1 8.5 1.32 0
 1 13 3 3.43 1.18 0
 1 13 4 0.88 0.95 0
 1 13 5 14.71 1.59 0
 1 13 6 5.2 1.37 0
 1 13 7 57.31 2.47 0
 1 13 8 5.61 1.39 0
 1 13 9 6.76 1.54 0
 1 13 10 1.38 1.17 0
 1 13 11 33.23 2.34 0
 1 13 12 -0.92 1.24 0
 1 15 -2 91.25 2.91 0
 1 15 -1 -0.51 1.02 0
 1 15 1 10.23 1.58 0
 1 15 2 79.41 2.89 0
 1 15 3 -0.36 1.2 0
 1 15 4 7.62 1.61 0
 1 15 5 26.6 2.13 0
 1 15 6 62.14 2.77 0
 1 15 7 30.73 2.27 0
 1 15 8 2.36 1.56 0
 2 0 2 24.86 0.52 0
 2 0 4 4894.5 8.28 0
 2 0 6 710.4 3.84 0
 2 0 8 691.01 4.43 0
 2 0 10 138.04 2.36 0
 2 2 0 641.39 2.04 0
 2 2 1 562.68 2.17 0
 2 2 2 478.25 2.29 0
 2 2 3 0.6 0.28 0
 2 2 4 393.54 2.6 0
 2 2 12 1.33 0.61 0
 2 2 13 -0.04 0.69 0
 2 2 15 5.66 1.03 0
 2 4 1 3.46 0.4 0
 2 4 2 0.56 0.35 0
 2 4 3 31 0.84 0
 2 4 4 500.52 3.3 0
 2 4 8 753.28 5.14 0
 2 4 9 314.24 3.58 0
 2 4 11 1.58 0.76 0
 2 4 12 190.64 3.34 0
 2 4 13 188.31 3.42 0
 2 4 14 187.06 3.68 0
 2 4 15 42.96 1.97 0
 2 4 16 1.84 1.07 0
 2 4 17 10.58 1.53 0
 2 4 18 14.02 1.75 0
 2 6 2 179.01 2.18 0
 2 6 3 38.7 1.11 0
 2 6 4 50.22 1.29 0
 2 6 5 14.8 0.84 0
 2 6 6 94.25 1.9 0
 2 6 7 71.49 1.75 0
 2 6 9 41 1.51 0
 2 6 10 13.19 1.13 0
 2 6 11 5.84 1.02 0
 2 6 12 27.42 1.53 0
 2 6 13 43.36 1.94 0
 2 6 14 22.97 1.64 0
 2 6 15 71.46 2.52 0
 2 6 16 15.49 1.7 0
 2 6 17 2.32 1.34 0
 2 6 19 34.94 2.34 0
 2 8 1 113.74 2.06 0
 2 8 2 0.7 0.51 0
 2 8 3 42.51 1.38 0
 2 8 7 0.97 0.71 0
 2 8 9 37.49 1.67 0
 2 8 10 4.29 0.98 0
 2 8 11 16.41 1.42 0
 2 8 12 6.56 1.27 0
 2 8 13 15.34 1.55 0
 2 8 14 2.47 1.32 0
 2 8 15 40.12 2.22 0
 2 8 16 16.45 1.83 0
 2 8 18 0.82 1.28 0
 2 10 1 1.05 0.66 0
 2 10 2 0.56 0.68 0
 2 10 6 2.57 0.8 0
 2 10 7 4.72 0.88 0
 2 10 8 43.26 1.91 0
 2 10 9 2.68 1.09 0
 2 10 10 4.06 1.02 0
 2 10 11 13.03 1.58 0
 2 10 12 28.76 1.94 0
 2 10 13 0.02 1.29 0
 2 10 14 5.7 1.35 0
 2 10 15 9.38 1.75 0
 2 10 16 1.93 1.36 0
 2 12 -1 74.86 2.25 0
 2 12 0 51.93 1.95 0
 2 12 2 -0.09 0.81 0
 2 12 3 2.72 0.99 0
 2 12 4 0.29 0.79 0
 2 12 5 1.22 1.05 0
 2 12 7 31.88 1.92 0
 2 12 8 8.78 1.3 0
 2 12 9 38.32 2.16 0
 2 12 10 13.57 1.73 0
 2 12 11 0.89 1.13 0
 2 12 12 3.19 1.48 0
 2 12 13 8.41 1.65 0
 2 14 -3 0.4 0.96 0
 2 14 -2 13.24 1.5 0
 2 14 -1 -0.42 0.9 0
 2 14 0 43.56 2.15 0
 2 14 1 7.67 1.39 0
 2 14 3 30.72 1.98 0
 2 14 5 -0.1 1.05 0
 2 14 6 43.83 2.32 0
 2 14 7 67.84 2.77 0
 2 14 8 2.52 1.45 0
 2 14 9 53.26 2.65 0
 2 14 10 1.45 1.41 0
 2 16 -5 3.92 1.28 0
 2 16 -4 6.1 1.47 0
 2 16 -3 0.34 1.3 0
 2 16 -1 0.1 1.28 0
 2 16 0 4.63 1.32 0
 2 16 1 2.29 1.41 0
 2 16 2 4.12 1.34 0
 2 16 3 0.18 1.39 0
 2 16 4 4.88 1.41 0
 3 1 0 2963.55 3.7 0
 3 1 1 537.16 2.02 0
 3 1 2 689.17 2.69 0
 3 1 3 531.31 2.68 0
 3 1 4 799.9 3.65 0
 3 1 5 24.38 0.79 0
 3 1 9 2.17 0.57 0
 3 1 12 0.82 0.58 0
 3 1 13 11.28 1.1 0
 3 3 0 344.66 1.89 0
 3 3 1 8.54 0.44 0
 3 3 3 1407.2 4.89 0
 3 3 4 374.8 2.78 0
 3 3 5 74.18 1.4 0
 3 3 8 234.57 2.91 0
 3 3 9 84.27 1.88 0
 3 3 12 36.56 1.56 0
 3 3 13 3.47 0.84 0
 3 3 14 0.2 0.95 0
 3 3 15 32.07 1.84 0
 3 3 16 44.02 2.14 0
 3 3 17 -0.14 1.01 0
 3 5 1 95 1.42 0
 3 5 2 12.19 0.62 0
 3 5 4 360.43 3.1 0
 3 5 5 108.11 1.91 0
 3 5 6 17.98 0.92 0
 3 5 7 16.36 0.98 0
 3 5 10 63.2 1.87 0
 3 5 11 0.33 0.6 0
 3 5 12 4.45 0.93 0
 3 5 13 32.82 1.76 0
 3 5 14 1.7 1.11 0
 3 5 15 0.67 1.16 0
 3 5 16 13.37 1.66 0
 3 5 18 2.31 1.52 0
 3 7 1 84.94 1.64 0
 3 7 2 193.41 2.48 0
 3 7 3 136.55 2.23 0
 3 7 4 51.11 1.43 0
 3 7 5 56.3 1.56 0
 3 7 8 37.62 1.51 0
 3 7 9 4.45 0.81 0
 3 7 10 4.7 0.88 0
 3 7 11 36.05 1.72 0
 3 7 12 3.02 1 0
 3 7 13 0.8 0.86 0
 3 7 14 1.23 1.09 0
 3 7 15 4.7 1.39 0
 3 7 16 1.9 1.26 0
 3 7 17 30.97 2.18 0
 3 7 18 6.59 1.53 0
 3 9 4 0.64 0.61 0
 3 9 5 76.69 2.02 0
 3 9 6 3.4 0.83 0
 3 9 7 14.43 1.24 0
 3 9 8 1.23 0.77 0
 3 9 9 7.95 1.09 0
 3 9 10 0.36 0.96 0
 3 9 11 23.51 1.68 0
 3 9 12 0.31 1 0
 3 9 13 -0.07 1.19 0
 3 9 14 0.33 1.05 0
 3 9 16 8.4 1.75 0
 3 9 17 38.34 2.41 0
 3 11 -1 8.4 1.07 0
 3 11 0 72.11 2.06 0
 3 11 1 3.01 0.89 0
 3 11 2 7.69 0.97 0
 3 11 3 46.71 1.82 0
 3 11 4 88.72 2.4 0
 3 11 5 0.01 0.76 0
 3 11 6 6.75 1.16 0
 3 11 7 94.26 2.67 0
 3 11 9 3.44 1.26 0
 3 11 10 4.25 1.13 0
 3 11 11 52.16 2.45 0
 3 11 12 47.01 2.43 0
 3 11 13 0.8 1.17 0
 3 11 14 0.35 1.3 0
 3 11 15 88.62 3.25 0
 3 13 -3 9.06 1.16 0
 3 13 -2 13.86 1.39 0
 3 13 -1 2.43 1.03 0
 3 13 3 24.15 1.72 0
 3 13 4 1.31 1.07 0
 3 13 5 3.67 1.29 0
 3 13 8 6.09 1.27 0
 3 13 10 0.54 1.22 0
 3 13 11 7.77 1.74 0
 3 13 12 9.36 1.9 0
 3 15 -6 1.03 1.17 0
 3 15 -5 1.31 1.12 0
 3 15 -2 3.6 1.27 0
 3 15 -1 0.16 1.21 0
 3 15 0 39.6 2.21 0
 3 15 1 -0.87 1.21 0
 3 15 2 1.26 1.13 0
 3 15 3 8.79 1.45 0
 3 15 5 25.24 2.07 0
 3 15 6 0.87 1.27 0
 3 15 7 -0.4 1.17 0
 4 0 4 267.8 2.27 0
 4 0 8 95.68 1.9 0
 4 2 -2 0.22 0.11 0
 4 2 -1 1958.85 3.19 0
 4 2 0 226.1 1.35 0
 4 2 1 78.04 0.94 0
 4 2 3 689.54 3.35 0
 4 2 4 22.58 0.77 0
 4 2 5 201.15 2.21 0
 4 2 6 1.11 0.41 0
 4 2 7 8.05 0.67 0
 4 2 9 1.84 0.53 0
 4 2 12 12.25 1.18 0
 4 2 13 27.34 1.56 0
 4 2 15 0.87 0.95 0
 4 4 -1 815.14 3.15 0
 4 4 0 28.26 0.69 0
 4 4 1 86.29 1.22 0
 4 4 2 9.41 0.54 0
 4 4 3 233.38 2.26 0
 4 4 4 0.54 0.39 0
 4 4 5 92.44 1.7 0
 4 4 6 17.46 0.9 0
 4 4 7 0.83 0.44 0
 4 4 8 187.39 2.77 0
 4 4 10 52.7 1.72 0
 4 4 11 -0.05 0.61 0
 4 4 12 225.83 3.75 0
 4 4 13 129.62 2.91 0
 4 4 14 253.34 4.33 0
 4 4 15 45.9 2.17 0
 4 4 16 13.3 1.63 0
 4 4 17 39.72 2.23 0
 4 6 0 45.8 1.07 0
 4 6 1 32.41 0.97 0
 4 6 2 8.43 0.64 0
 4 6 3 245.81 2.7 0
 4 6 4 53.31 1.39 0
 4 6 5 9.41 0.77 0
 4 6 9 108.87 2.39 0
 4 6 10 14.04 1.2 0
 4 6 11 33.36 1.66 0
 4 6 12 145.96 3.14 0
 4 6 13 106.84 2.86 0
 4 6 14 15.41 1.59 0
 4 6 15 22.58 1.81 0
 4 6 16 29.93 2.07 0
 4 6 17 3.39 1.45 0
 4 6 18 5.18 1.58 0
 4 8 -1 323.87 3.21 0
 4 8 0 93.44 1.86 0
 4 8 1 74.07 1.66 0
 4 8 2 28.27 1.15 0
 4 8 6 10.32 1 0
 4 8 7 142.53 2.92 0
 4 8 8 51.77 1.86 0
 4 8 9 68.01 2.15 0
 4 8 10 10.89 1.33 0
 4 8 11 3.01 0.94 0
 4 8 12 13.44 1.49 0
 4 8 13 21.79 1.81 0
 4 8 14 0.36 1.31 0
 4 8 15 48.97 2.45 0
 4 8 16 22.18 2.03 0
 4 8 17 28.19 2.19 0
 4 10 0 28.14 1.33 0
 4 10 1 4.59 0.81 0
 4 10 2 0.54 0.6 0
 4 10 3 61.68 1.89 0
 4 10 4 -0.22 0.75 0
 4 10 5 0.14 0.63 0
 4 10 6 4.75 1.04 0
 4 10 7 13.6 1.35 0
 4 10 8 9.99 1.36 0
 4 10 9 28.49 1.77 0
 4 10 10 9.83 1.3 0
 4 10 11 54.34 2.37 0
 4 10 12 22.52 1.93 0
 4 10 14 13.78 1.65 0
 4 12 -3 0.19 0.72 0
 4 12 -1 21.23 1.41 0
 4 12 0 114.27 2.66 0
 4 12 1 0.74 0.79 0
 4 12 4 51.54 2.09 0
 4 12 5 2.23 1.14 0
 4 12 6 -0.73 0.9 0
 4 12 8 4.81 1.2 0
 4 12 10 1.44 1.4 0
 4 12 11 -0.4 1.38 0
 4 12 12 0.34 1.38 0
 4 12 13 66.75 2.9 0
 4 14 -6 3.81 1.16 0
 4 14 -5 10.51 1.4 0
 4 14 -3 5.63 1.28 0
 4 14 -2 1.99 1.01 0
 4 14 -1 0.29 1.01 0
 4 14 0 10.6 1.36 0
 4 14 1 -0.68 1.11 0
 4 14 3 1.04 1.03 0
 4 14 4 13.49 1.63 0
 4 14 6 30.91 2.14 0
 4 14 7 46.86 2.44 0
 4 14 8 22.57 2.05 0
 4 14 9 6.52 1.59 0
 4 16 -4 14.66 1.82 0
 4 16 -3 3.59 1.26 0
 4 16 -1 3.86 1.33 0
 4 16 0 29.79 2.08 0
 4 16 1 -1.68 1.03 0
 4 16 3 6.83 1.46 0
 5 1 0 402.41 1.73 0
 5 1 1 708.32 2.72 0
 5 1 2 1007.54 3.67 0
 5 1 3 72.48 1.2 0
 5 1 4 238.31 2.24 0
 5 1 5 236.22 2.4 0
 5 1 6 725.88 4.43 0
 5 1 7 244.16 2.84 0
 5 1 8 0.2 0.42 0
 5 1 11 146.31 2.83 0
 5 1 12 8.98 1.01 0
 5 3 -3 123.49 0.86 0
 5 3 -2 616.09 2.03 0
 5 3 -1 636.55 2.32 0
 5 3 0 99.65 1.11 0
 5 3 1 716.29 3.13 0
 5 3 3 19.03 0.7 0
 5 3 4 0.17 0.31 0
 5 3 5 264.48 2.71 0
 5 3 6 2.59 0.5 0
 5 3 7 378.62 3.63 0
 5 3 8 143.48 2.48 0
 5 3 10 50.12 1.66 0
 5 3 11 233 3.54 0
 5 3 12 53.32 1.93 0
 5 3 13 60.42 2.15 0
 5 3 14 51.36 2.15 0
 5 3 15 64.14 2.43 0
 5 5 -2 264.46 2.01 0
 5 5 -1 172.29 1.72 0
 5 5 0 113.5 1.47 0
 5 5 1 48.91 1.05 0
 5 5 2 5.71 0.54 0
 5 5 4 0.4 0.41 0
 5 5 5 25.97 1.06 0
 5 5 6 88.11 1.85 0
 5 5 9 36.02 1.51 0
 5 5 10 0.43 0.72 0
 5 5 11 13.2 1.24 0
 5 5 12 116.88 2.78 0
 5 5 13 60.16 2.21 0
 5 5 14 11.54 1.49 0
 5 5 15 0.05 1.08 0
 5 5 16 20.08 1.87 0
 5 5 17 27.84 2.1 0
 5 5 18 1.53 1.43 0
 5 7 -2 4.56 0.56 0
 5 7 -1 53.7 1.23 0
 5 7 0 179.51 2.27 0
 5 7 2 103.66 1.86 0
 5 7 3 28.99 1.12 0
 5 7 4 25.17 1.13 0
 5 7 7 62.94 1.85 0
 5 7 8 33.66 1.52 0
 5 7 9 21.33 1.41 0
 5 7 11 1.55 0.97 0
 5 7 12 23.05 1.68 0
 5 7 13 19.59 1.7 0
 5 7 14 2.51 1.31 0
 5 7 15 1.56 1.43 0
 5 7 16 4.21 1.56 0
 5 7 17 16.03 1.98 0
 5 9 3 0.4 0.57 0
 5 9 4 18.32 1.18 0
 5 9 5 94.92 2.29 0
 5 9 6 2.74 0.76 0
 5 9 7 29.76 1.56 0
 5 9 10 1.1 0.88 0
 5 9 11 0.48 0.92 0
 5 9 12 19.53 1.76 0
 5 9 13 8.82 1.46 0
 5 9 14 -0.32 1.22 0
 5 9 15 0.87 1.36 0
 5 9 16 5.21 1.66 0
 5 11 -4 101.34 2.22 0
 5 11 -3 7.76 0.92 0
 5 11 -2 21.97 1.31 0
 5 11 0 78.62 2.1 0
 5 11 1 19.01 1.28 0
 5 11 2 3.17 0.83 0
 5 11 3 3.2 0.92 0
 5 11 4 5.33 1.06 0
 5 11 5 13.74 1.35 0
 5 11 8 21.12 1.67 0
 5 11 9 16.74 1.66 0
 5 11 10 8.36 1.47 0
 5 11 11 8.57 1.6 0
 5 11 12 77.51 2.94 0
 5 13 -6 -0.03 0.84 0
 5 13 -5 0.6 0.86 0
 5 13 -4 31.58 1.63 0
 5 13 -3 12.84 1.36 0
 5 13 -2 6.71 1.18 0
 5 13 -1 22.78 1.61 0
 5 13 0 68.25 2.26 0
 5 13 1 14.14 1.43 0
 5 13 3 5.9 1.1 0
 5 13 4 23.28 1.76 0
 5 13 5 10.3 1.44 0
 5 13 6 123.73 3.26 0
 5 13 7 72.32 2.71 0
 5 13 9 20.86 2 0
 5 13 10 54.23 2.64 0
 5 15 -3 12.63 1.52 0
 5 15 -2 15.21 1.59 0
 5 15 -1 27.75 1.86 0
 5 15 0 0.9 1.06 0
 5 15 1 4.16 1.21 0
 5 15 2 44.87 2.23 0
 5 15 3 1.35 1.12 0
 5 15 4 5.54 1.54 0
 5 15 5 2.97 1.29 0
 5 15 6 59.33 2.67 0
 6 2 -1 104.98 0.83 0
 6 2 0 68.77 0.85 0
 6 2 1 120.62 1.27 0
 6 2 2 154.57 1.62 0
 6 2 3 498.09 3.09 0
 6 2 4 41.51 1.04 0
 6 2 5 0.61 0.44 0
 6 2 6 72.94 1.55 0
 6 2 7 294.05 3.2 0
 6 2 10 11.55 1.07 0
 6 2 11 74.44 2.14 0
 6 2 12 103.83 2.59 0
 6 2 13 3.36 0.91 0
 6 4 -4 17.44 0.41 0
 6 4 -2 667.92 2.56 0
 6 4 -1 121.67 1.28 0
 6 4 0 125.19 1.42 0
 6 4 1 0.25 0.3 0
 6 4 2 31.25 0.88 0
 6 4 3 26.4 0.9 0
 6 4 4 -0.24 0.32 0
 6 4 5 20.35 0.92 0
 6 4 6 13.84 0.86 0
 6 4 7 21.57 1.11 0
 6 4 9 31.91 1.39 0
 6 4 11 5.57 0.97 0
 6 4 12 26.19 1.55 0
 6 4 14 30.07 1.86 0
 6 4 16 0.72 1.06 0
 6 6 -3 16.56 0.64 0
 6 6 -2 0.04 0.3 0
 6 6 -1 394.25 2.84 0
 6 6 0 93.73 1.52 0
 6 6 1 33.42 1 0
 6 6 2 151.36 2.13 0
 6 6 3 273.59 2.94 0
 6 6 4 6.46 0.77 0
 6 6 5 44.11 1.4 0
 6 6 8 17.28 1.2 0
 6 6 10 1.96 0.87 0
 6 6 11 112.28 2.76 0
 6 6 12 3 0.94 0
 6 6 13 118.14 3.07 0
 6 6 14 8.62 1.41 0
 6 6 15 1.9 1.13 0
 6 6 16 2.56 1.43 0
 6 6 17 13.25 1.88 0
 6 8 -4 0.31 0.43 0
 6 8 -3 5.24 0.63 0
 6 8 -1 137.7 2.12 0
 6 8 0 -0.13 0.41 0
 6 8 1 35.81 1.23 0
 6 8 2 60.45 1.57 0
 6 8 5 65.68 1.84 0
 6 8 6 3.96 0.86 0
 6 8 7 231.8 3.66 0
 6 8 8 65.59 2.11 0
 6 8 9 142.68 3.06 0
 6 8 10 10.26 1.33 0
 6 8 11 107.59 2.93 0
 6 8 12 18.38 1.73 0
 6 8 13 173.85 3.82 0
 6 8 14 6.09 1.37 0
 6 8 16 20.04 2.05 0
 6 10 0 0.65 0.67 0
 6 10 1 28.54 1.36 0
 6 10 2 2.59 0.73 0
 6 10 3 3.33 0.89 0
 6 10 4 -0.03 0.76 0
 6 10 5 25.99 1.52 0
 6 10 6 2.74 0.85 0
 6 10 7 8.4 1.14 0
 6 10 8 2.32 0.96 0
 6 10 9 0.75 0.94 0
 6 10 10 9.32 1.32 0
 6 10 12 5.78 1.36 0
 6 10 13 13.25 1.72 0
 6 10 14 3.49 1.5 0
 6 12 -5 5.12 0.96 0
 6 12 -4 -0.86 0.65 0
 6 12 -3 31.81 1.51 0
 6 12 -2 2.19 0.8 0
 6 12 -1 12.37 1.21 0
 6 12 0 0.3 0.87 0
 6 12 1 -0.8 0.75 0
 6 12 2 0.31 0.81 0
 6 12 3 5.79 1.06 0
 6 12 4 7.37 1.18 0
 6 12 5 4.96 1.21 0
 6 12 6 1.52 1.2 0
 6 12 7 2.69 1.25 0
 6 12 8 25.15 1.91 0
 6 12 9 0.04 1.1 0
 6 12 10 -0.46 1.07 0
 6 12 11 -0.17 1.16 0
 6 12 12 27.86 2.23 0
 6 14 -3 -0.99 0.84 0
 6 14 -2 -0.67 0.86 0
 6 14 -1 24.16 1.64 0
 6 14 0 39.71 1.95 0
 6 14 1 24.59 1.77 0
 6 14 2 0.7 1.14 0
 6 14 3 3.31 1.12 0
 6 14 5 0.69 1.15 0
 6 14 6 0.92 1.17 0
 6 14 8 36.79 2.28 0
 7 1 6 682.36 4.68 0
 7 1 7 0.64 0.56 0
 7 3 -2 56.82 0.58 0
 7 3 -1 697.91 2.44 0
 7 3 0 249.37 1.77 0
 7 3 1 140.22 1.54 0
 7 3 2 35.59 0.87 0
 7 3 3 475.14 3.26 0
 7 3 4 222.92 2.47 0
 7 3 5 334.12 3.19 0
 7 3 6 26.46 1.09 0
 7 3 7 16.99 1.01 0
 7 3 9 93.34 2.17 0
 7 3 10 5.47 0.93 0
 7 3 12 2.83 1.06 0
 7 3 13 0.64 1.06 0
 7 3 14 79.6 2.55 0
 7 5 -6 0.35 0.2 0
 7 5 -5 5.29 0.32 0
 7 5 -3 1.63 0.28 0
 7 5 -2 230.57 1.79 0
 7 5 -1 126.65 1.49 0
 7 5 0 27.5 0.8 0
 7 5 2 171.43 2.11 0
 7 5 3 75.32 1.56 0
 7 5 5 104.09 2.09 0
 7 5 8 -0.04 0.54 0
 7 5 9 8.3 1.07 0
 7 5 10 1.41 0.76 0
 7 5 11 0.53 0.78 0
 7 5 12 28.91 1.75 0
 7 5 13 3.98 1.07 0
 7 5 15 16.64 1.79 0
 7 5 16 6.51 1.54 0
 7 7 -6 0.49 0.33 0
 7 7 -4 4.19 0.5 0
 7 7 -3 46.47 1.05 0
 7 7 -1 21.77 0.83 0
 7 7 1 0.15 0.44 0
 7 7 2 19.41 0.96 0
 7 7 3 84.53 1.79 0
 7 7 6 24.14 1.27 0
 7 7 7 259.19 3.76 0
 7 7 8 9.62 1.14 0
 7 7 10 27.53 1.67 0
 7 7 11 54.44 2.17 0
 7 7 12 1.75 1.14 0
 7 7 13 20.56 1.79 0
 7 7 14 5.82 1.52 0
 7 7 15 4.16 1.4 0
 7 7 16 0.24 1.22 0
 7 9 -6 10.84 0.79 0
 7 9 -4 0.18 0.49 0
 7 9 -3 44.18 1.29 0
 7 9 -2 5.88 0.71 0
 7 9 -1 11.26 0.86 0
 7 9 3 4.94 0.81 0
 7 9 4 11.38 1.08 0
 7 9 5 143.73 2.94 0
 7 9 9 0.54 1.07 0
 7 9 11 16.17 1.69 0
 7 9 12 9.09 1.41 0
 7 9 13 3.09 1.41 0
 7 9 14 3.66 1.46 0
 7 9 15 20.25 2.06 0
 7 11 -4 88.83 2.01 0
 7 11 -3 57.11 1.68 0
 7 11 -2 17.55 1.17 0
 7 11 -1 88.08 2.12 0
 7 11 0 177.42 3.14 0
 7 11 1 105.62 2.4 0
 7 11 2 3.74 0.93 0
 7 11 3 44.81 1.84 0
 7 11 4 135.5 2.94 0
 7 11 5 133.41 2.99 0
 7 11 6 1.33 1.09 0
 7 11 7 6.07 1.24 0
 7 11 8 58.74 2.38 0
 7 11 10 8.2 1.59 0
 7 11 11 -0.45 1.21 0
 7 11 12 1.95 1.21 0
 7 11 13 10.9 1.67 0
 7 13 -2 2.91 0.91 0
 7 13 -1 18.09 1.39 0
 7 13 0 43.28 1.86 0
 7 13 2 7.9 1.3 0
 7 13 3 23.51 1.72 0
 7 13 4 41.45 2.04 0
 7 13 5 6.01 1.23 0
 7 13 7 5.26 1.42 0
 7 13 8 4.19 1.22 0
 7 13 9 3.29 1.49 0
 7 13 10 39.09 2.39 0
 7 15 2 12.12 1.55 0
 7 15 3 20.9 1.79 0
 8 2 2 23.74 0.77 0
 8 2 3 0.94 0.39 0
 8 2 4 2.31 0.45 0
 8 2 5 19.46 0.95 0
 8 2 9 0.9 0.6 0
 8 2 10 66.2 2.01 0
 8 4 -2 1132.26 2.89 0
 8 4 -1 637.28 2.7 0
 8 4 0 190.43 1.75 0
 8 4 1 11.13 0.59 0
 8 4 2 358.47 2.86 0
 8 4 3 259.56 2.65 0
 8 4 4 130.84 2.1 0
 8 4 5 7.62 0.74 0
 8 4 8 1.85 0.65 0
 8 4 9 3.42 0.77 0
 8 4 10 52.34 1.89 0
 8 4 11 0.5 0.78 0
 8 4 12 1.03 0.97 0
 8 4 13 18.23 1.67 0
 8 4 14 8.06 1.3 0
 8 6 -3 244.81 1.88 0
 8 6 -1 106.24 1.55 0
 8 6 0 51.32 1.14 0
 8 6 2 8.35 0.73 0
 8 6 3 65.22 1.54 0
 8 6 7 16.25 1.17 0
 8 6 8 8.72 1.08 0
 8 6 9 3.89 0.87 0
 8 6 10 13.17 1.32 0
 8 6 11 32.09 1.81 0
 8 6 13 17.4 1.69 0
 8 6 14 15.64 1.82 0
 8 6 15 13.59 1.66 0
 8 6 16 27.09 2.2 0
 8 8 -4 0.25 0.4 0
 8 8 -3 52.98 1.19 0
 8 8 -2 0.93 0.45 0
 8 8 -1 5.55 0.65 0
 8 8 0 14.72 0.87 0
 8 8 1 2.72 0.6 0
 8 8 4 2.09 0.69 0
 8 8 5 8.03 0.96 0
 8 8 7 6.83 0.98 0
 8 8 8 4.64 1.11 0
 8 8 9 0.32 0.8 0
 8 8 10 -0.21 1.07 0
 8 8 11 18.63 1.71 0
 8 8 12 0.74 1.26 0
 8 8 13 18.15 1.83 0
 8 8 14 0.51 1.4 0
 8 8 15 10.68 1.69 0
 8 10 -1 28.39 1.28 0
 8 10 0 8.37 0.97 0
 8 10 1 -0.43 0.65 0
 8 10 3 2.25 0.91 0
 8 10 4 12.39 1.23 0
 8 10 6 3.09 1.03 0
 8 10 7 1.24 0.92 0
 8 10 8 1.08 1.16 0
 8 10 10 2.36 1.25 0
 8 10 11 13.14 1.65 0
 8 10 12 16.2 1.87 0
 8 10 13 9.05 1.7 0
 8 12 -1 59.25 1.9 0
 8 12 0 19.91 1.41 0
 8 12 1 0.46 0.84 0
 8 12 2 18.56 1.44 0
 8 12 3 5.45 1.09 0
 8 12 4 29.65 1.75 0
 8 12 5 0.65 0.93 0
 8 12 6 0.45 1.14 0
 8 12 7 5.41 1.21 0
 8 12 8 1.32 1.34 0
 8 12 9 28.24 2.09 0
 8 12 10 6.61 1.59 0
 8 12 11 0.51 1.19 0
 8 14 2 0.67 1.11 0
 8 14 3 12.68 1.53 0
 8 14 4 3.46 1.2 0
 8 14 5 7.81 1.34 0
 8 14 6 16.11 1.76 0
 9 3 1 17.35 0.66 0
 9 3 3 44.35 1.15 0
 9 3 4 35.9 1.16 0
 9 3 5 27.96 1.11 0
 9 3 8 4.56 0.82 0
 9 3 9 27.3 1.47 0
 9 3 10 3.08 0.91 0
 9 3 11 54.15 1.99 0
 9 5 -2 12.46 0.44 0
 9 5 -1 15.12 0.56 0
 9 5 0 49.02 1 0
 9 5 1 2 0.43 0
 9 5 2 58.94 1.31 0
 9 5 3 0.01 0.41 0
 9 5 4 2.12 0.54 0
 9 5 7 0.65 0.72 0
 9 5 8 8.39 1.01 0
 9 5 9 0.84 0.72 0
 9 5 10 55.32 2.07 0
 9 5 11 1.82 0.96 0
 9 5 12 3.8 1.15 0
 9 5 13 9.39 1.42 0
 9 5 14 97.06 3 0
 9 7 -2 0.95 0.38 0
 9 7 0 6.6 0.65 0
 9 7 1 78.56 1.59 0
 9 7 2 25.81 1.1 0
 9 7 5 18.83 1.16 0
 9 7 8 11.07 1.27 0
 9 7 9 71.67 2.3 0
 9 7 10 1.28 0.97 0
 9 7 11 30.98 1.86 0
 9 7 12 3.7 1.3 0
 9 7 13 142.04 3.56 0
 9 7 14 2.67 1.43 0
 9 7 15 10.2 1.78 0
 9 9 2 2.87 0.74 0
 9 9 4 2.37 0.79 0
 9 9 5 74.16 2.15 0
 9 9 6 29.3 1.59 0
 9 9 7 24.21 1.58 0
 9 9 8 -0.32 0.88 0
 9 9 9 5.24 1.13 0
 9 9 12 2.1 1.27 0
 9 11 1 50.86 1.77 0
 9 11 2 6.68 1.01 0
 9 11 3 21.85 1.43 0
 9 11 4 12.69 1.33 0
 9 11 5 122.81 2.88 0
 9 11 6 0.33 0.91 0
 9 11 7 1.21 1.14 0
 9 11 8 28.85 1.89 0
 9 11 9 42.48 2.2 0
 9 11 10 1.69 1.34 0
 9 13 3 15.46 1.54 0
 9 13 4 -0.48 1.04 0
 9 13 5 0.81 1.05 0
 9 13 6 0.8 1.04 0
 9 13 8 -0.69 1.23 0
 10 4 1 0.37 0.35 0
 10 4 2 138.2 1.94 0
 10 4 3 63.36 1.43 0
 10 4 7 11.99 1.07 0
 10 4 8 10.58 1.14 0
 10 4 9 1.51 0.89 0
 10 4 10 27.1 1.66 0
 10 4 11 4.39 1.16 0
 10 6 0 9.18 0.6 0
 10 6 1 34.31 1.02 0
 10 6 3 1.11 0.55 0
 10 6 5 0.62 0.61 0
 10 6 6 16.64 1.18 0
 10 6 7 36.86 1.58 0
 10 6 8 1.18 0.81 0
 10 6 9 10.78 1.34 0
 10 6 10 11.59 1.4 0
 10 6 12 0.79 1.22 0
 10 6 13 19.82 1.87 0
 10 6 14 4.69 1.48 0
 10 8 1 -0.09 0.51 0
 10 8 4 1.48 0.73 0
 10 8 5 13.06 1.15 0
 10 8 6 27.05 1.51 0
 10 8 7 231.61 3.88 0
 10 8 9 19.32 1.61 0
 10 8 10 6.52 1.21 0
 10 8 11 95.21 2.88 0
 10 8 12 0.44 1.21 0
 10 8 13 52.94 2.51 0
 10 8 14 3.85 1.47 0
 10 10 3 -0.06 0.72 0
 10 10 4 8.27 1.06 0
 10 10 5 104.48 2.58 0
 10 10 6 21.96 1.61 0
 10 10 8 12.24 1.42 0
 10 10 9 -0.04 0.97 0
 10 10 10 2.04 1.1 0
 10 10 11 32.89 2.08 0
 10 12 6 1.26 1.15 0
 10 12 8 5.36 1.33 0
 10 12 9 5.99 1.35 0
 11 5 1 18.94 0.78 0
 11 5 2 34.89 1.07 0
 11 5 6 0.35 0.7 0
 11 5 7 26.88 1.46 0
 11 5 9 51.74 2.01 0
 11 5 10 2.36 1.11 0
 11 7 2 3.22 0.62 0
 11 7 4 -0.1 0.57 0
 11 7 6 0.33 0.75 0
 11 7 7 43.16 1.75 0
 11 7 8 0.7 0.8 0
 11 7 9 42.7 1.96 0
 11 7 10 -0.94 0.96 0
 11 7 11 5.21 1.2 0
 11 7 12 1.42 1.17 0
 11 7 13 74.02 2.74 0
 11 9 4 2.66 0.88 0
 11 9 5 13.1 1.28 0
 11 9 6 0.26 0.93 0
 11 9 7 22.21 1.6 0
 11 9 8 1.33 0.99 0
 11 9 9 -1.08 1.02 0
 11 9 10 11.61 1.55 0
 11 9 11 0.92 1.32 0
 11 9 12 5.33 1.56 0
 11 11 7 -0.55 0.97 0
 11 11 9 13.51 1.59 0
 12 6 4 3.16 0.75 0
 12 6 5 3.22 0.82 0
 12 6 6 -0.99 0.66 0
 12 6 7 26.13 1.5 0
 12 6 8 0.27 0.95 0
 12 6 9 1.55 1.02 0
 12 8 6 18.59 1.4 0
 12 8 8 6.36 1.23 0
 12 8 9 -0.25 0.94 0
 12 8 10 10.48 1.51 0
 12 8 11 92.87 2.89 0
 12 8 12 10.01 1.48 0
 12 10 10 2.01 1.23 0
 -15 9 2 0.27 1.07 0
 -14 6 3 11.87 1.11 0
 -14 8 3 32.23 1.73 0
 -14 8 4 6.81 1.13 0
 -14 8 5 32.03 1.71 0
 -14 10 2 -0.21 1.05 0
 -14 10 3 9.35 1.49 0
 -14 10 4 2.33 1.24 0
 -14 10 5 -0.28 1.14 0
 -13 7 4 16.17 1.31 0
 -13 7 5 16.25 1.27 0
 -13 7 6 27.02 1.5 0
 -13 9 3 41.16 2 0
 -13 9 4 14.13 1.48 0
 -13 9 5 -0.19 0.93 0
 -13 9 6 7.08 1.25 0
 -13 9 7 12.96 1.53 0
 -13 9 8 1.84 1.06 0
 -13 11 2 9.96 1.54 0
 -13 11 3 4.45 1.39 0
 -13 11 4 4.21 1.24 0
 -13 11 5 5.46 1.34 0
 -13 11 6 29.38 2.04 0
 -13 11 8 5.64 1.33 0
 -12 2 3 137.37 1.71 0
 -12 4 4 5.74 0.69 0
 -12 4 5 50.42 1.34 0
 -12 4 6 56.59 1.42 0
 -12 6 4 6.54 0.9 0
 -12 6 5 2.53 0.71 0
 -12 6 6 18.34 1.21 0
 -12 6 7 8.61 1.01 0
 -12 6 8 39.2 1.56 0
 -12 6 9 5.73 0.94 0
 -12 8 4 -0.3 0.78 0
 -12 8 5 25.42 1.54 0
 -12 8 6 22.54 1.52 0
 -12 8 7 12.7 1.37 0
 -12 8 8 23.35 1.58 0
 -12 8 9 22.05 1.58 0
 -12 8 10 -0.54 0.88 0
 -12 10 3 4.34 1.13 0
 -12 10 4 6.93 1.21 0
 -12 10 6 3.86 1.19 0
 -12 10 7 9.59 1.47 0
 -12 10 8 -0.65 1.04 0
 -12 10 9 2.29 1.08 0
 -12 10 10 0.72 1.11 0
 -12 10 11 -2.09 1.04 0
 -12 12 2 62.84 2.72 0
 -12 12 3 6.3 1.45 0
 -12 12 4 6.6 1.53 0
 -12 12 5 15.9 1.93 0
 -12 12 6 21.92 2.01 0
 -12 12 7 19.68 1.98 0
 -11 3 4 27.07 0.93 0
 -11 3 5 6.42 0.6 0
 -11 3 7 0.63 0.39 0
 -11 3 8 16.77 0.82 0
 -11 5 9 2.97 0.73 0
 -11 5 10 33.19 1.39 0
 -11 7 4 46.14 1.71 0
 -11 7 6 2.36 0.78 0
 -11 7 7 -1.26 0.78 0
 -11 7 8 34.26 1.61 0
 -11 7 9 29.07 1.57 0
 -11 7 10 46.97 1.85 0
 -11 7 11 2.66 0.99 0
 -11 7 12 0.98 0.98 0
 -11 9 4 4.46 1.18 0
 -11 9 5 12.69 1.46 0
 -11 9 6 1.65 1.02 0
 -11 9 7 5.15 1.09 0
 -11 9 8 6.16 1.27 0
 -11 9 9 11.15 1.31 0
 -11 9 10 3.08 1.17 0
 -11 9 11 31.99 1.92 0
 -11 9 12 0.82 1.07 0
 -11 9 13 6.15 1.28 0
 -11 11 3 2.75 1.34 0
 -11 11 4 -0.12 1.13 0
 -11 11 5 -0.41 1.04 0
 -11 11 7 2.29 1.17 0
 -11 11 8 0.93 1.13 0
 -11 11 9 1.14 1.16 0
 -11 11 10 19.11 1.85 0
 -11 11 11 46.67 2.35 0
 -11 13 1 31.2 2.27 0
 -11 13 3 28.65 2.24 0
 -11 13 5 0.09 1.48 0
 -11 13 6 6.09 1.49 0
 -10 2 4 34.01 0.86 0
 -10 2 6 1.02 0.34 0
 -10 2 7 22.96 0.77 0
 -10 2 8 11.21 0.64 0
 -10 2 10 1.24 0.44 0
 -10 4 4 45.24 1.25 0
 -10 4 6 5.67 0.67 0
 -10 4 7 17.72 0.95 0
 -10 4 8 9.64 0.81 0
 -10 4 11 71.68 1.8 0
 -10 4 12 0.45 0.7 0
 -10 4 13 19.09 1.26 0
 -10 6 6 11.65 1.04 0
 -10 6 8 10.82 1.08 0
 -10 6 9 20.31 1.27 0
 -10 6 10 20.82 1.34 0
 -10 6 11 50.83 1.84 0
 -10 6 12 1.86 0.91 0
 -10 6 13 12.65 1.28 0
 -10 6 14 -0.05 0.8 0
 -10 8 4 2.41 0.85 0
 -10 8 5 2.92 0.84 0
 -10 8 6 47.05 1.89 0
 -10 8 7 93.56 2.51 0
 -10 8 9 -0.48 0.96 0
 -10 8 10 21.06 1.54 0
 -10 8 11 81.15 2.49 0
 -10 8 12 27.91 1.73 0
 -10 8 13 0.32 0.96 0
 -10 8 14 1.01 1.08 0
 -10 10 4 0.75 0.92 0
 -10 10 5 1.45 0.96 0
 -10 10 6 -0.25 0.92 0
 -10 10 7 18.2 1.7 0
 -10 10 8 0.94 1.12 0
 -10 10 9 0.79 0.99 0
 -10 10 10 8.63 1.4 0
 -10 10 11 10.94 1.57 0
 -10 10 12 -0.65 1.17 0
 -10 10 13 1.87 1.21 0
 -10 12 3 10.95 1.54 0
 -10 12 4 -0.19 1.25 0
 -10 12 5 12.68 1.56 0
 -10 12 7 1.91 1.42 0
 -10 12 8 1.56 1.33 0
 -10 12 9 9.15 1.55 0
 -10 14 1 7.01 1.76 0
 -10 14 3 45.37 2.7 0
 -10 14 4 50.99 2.8 0
 -9 1 6 334.38 2.19 0
 -9 1 7 12.03 0.54 0
 -9 1 9 25.61 0.81 0
 -9 1 10 577.77 3.6 0
 -9 1 11 0.14 0.41 0
 -9 3 4 0.64 0.39 0
 -9 3 6 34.21 1.04 0
 -9 3 8 8.06 0.68 0
 -9 3 9 11.14 0.81 0
 -9 3 10 2.98 0.65 0
 -9 3 13 4.06 0.78 0
 -9 3 14 2.86 0.8 0
 -9 5 5 7.98 0.82 0
 -9 5 6 59.72 1.58 0
 -9 5 10 -0.11 0.57 0
 -9 5 11 5.57 0.84 0
 -9 5 12 5.11 0.86 0
 -9 5 13 5.65 1.02 0
 -9 5 14 0.01 0.78 0
 -9 5 15 4.51 1.08 0
 -9 7 8 33.16 1.57 0
 -9 7 10 4.72 0.89 0
 -9 7 11 199.07 3.66 0
 -9 7 12 7.54 1.24 0
 -9 7 13 7.83 1.14 0
 -9 7 14 13.27 1.46 0
 -9 7 15 63.37 2.31 0
 -9 7 16 0.15 0.99 0
 -9 9 4 0.33 0.8 0
 -9 9 5 120.09 2.85 0
 -9 9 6 3.12 0.94 0
 -9 9 8 14.88 1.51 0
 -9 9 11 106.94 2.92 0
 -9 9 12 4.68 1.3 0
 -9 9 13 2.61 1.11 0
 -9 9 14 0.15 1.04 0
 -9 9 15 45.7 2.25 0
 -9 11 3 49.34 2.23 0
 -9 11 4 9.07 1.29 0
 -9 11 6 12.95 1.59 0
 -9 11 7 24.67 1.93 0
 -9 11 8 4.59 1.29 0
 -9 11 9 23.06 1.93 0
 -9 11 10 4.16 1.27 0
 -9 11 11 9.95 1.47 0
 -9 11 12 1.12 1.15 0
 -9 11 13 0.75 1.21 0
 -9 13 2 -1.33 1.25 0
 -9 13 3 0.55 1.45 0
 -9 13 4 10.26 1.59 0
 -9 13 5 7.34 1.61 0
 -9 13 6 3.58 1.41 0
 -9 13 8 12.61 1.73 0
 -9 13 9 1.67 1.49 0
 -8 0 4 344.61 1.54 0
 -8 0 8 138.34 1.49 0
 -8 0 10 238.85 2.28 0
 -8 2 4 104.3 1.41 0
 -8 2 5 0.1 0.3 0
 -8 2 6 3.4 0.44 0
 -8 2 8 62.4 1.33 0
 -8 2 9 38.27 1.12 0
 -8 2 10 19.67 0.93 0
 -8 2 11 6.36 0.76 0
 -8 2 14 4.04 0.85 0
 -8 2 15 40.37 1.58 0
 -8 4 5 116.34 1.93 0
 -8 4 6 364.33 3.36 0
 -8 4 7 156.67 2.38 0
 -8 4 8 52.91 1.45 0
 -8 4 9 0.94 0.53 0
 -8 4 12 1.15 0.7 0
 -8 4 13 0.91 0.75 0
 -8 4 14 3.27 0.87 0
 -8 4 15 12.54 1.27 0
 -8 4 16 0.58 0.9 0
 -8 4 17 0.28 0.93 0
 -8 6 8 68.76 1.89 0
 -8 6 9 67.35 1.91 0
 -8 6 10 5.87 0.94 0
 -8 6 11 32.27 1.55 0
 -8 6 12 7.04 1.07 0
 -8 6 13 16.4 1.41 0
 -8 6 14 5.94 1.06 0
 -8 6 15 31.76 1.78 0
 -8 6 16 2.33 1.14 0
 -8 6 17 6.36 1.27 0
 -8 8 4 0.76 0.68 0
 -8 8 5 98.24 2.39 0
 -8 8 7 21.56 1.4 0
 -8 8 8 0.08 0.72 0
 -8 8 9 105.93 2.67 0
 -8 8 10 18.13 1.5 0
 -8 8 11 -0.09 0.84 0
 -8 8 12 9.34 1.34 0
 -8 8 13 5.06 1.25 0
 -8 8 14 2.22 1.06 0
 -8 8 15 19.1 1.81 0
 -8 8 16 2.92 1.18 0
 -8 8 17 0.09 1.17 0
 -8 10 4 3.26 0.94 0
 -8 10 5 0.36 0.89 0
 -8 10 6 55.96 2.23 0
 -8 10 7 -0.06 0.98 0
 -8 10 8 0.58 0.94 0
 -8 10 9 2.95 1.16 0
 -8 10 10 8.99 1.49 0
 -8 10 11 40.79 2.17 0
 -8 10 12 1.68 1.16 0
 -8 10 13 22.99 1.96 0
 -8 10 14 3.82 1.27 0
 -8 10 15 6.36 1.39 0
 -8 12 3 55.9 2.47 0
 -8 12 4 -0.14 1.29 0
 -8 12 5 -0 1.11 0
 -8 12 6 23.74 1.99 0
 -8 12 8 4.76 1.56 0
 -8 12 9 8.73 1.66 0
 -8 12 10 0.78 1.25 0
 -8 12 11 8.88 1.56 0
 -8 12 12 0.73 1.29 0
 -8 14 1 61.46 2.79 0
 -8 14 2 3.32 1.49 0
 -8 14 3 52.42 2.68 0
 -8 14 4 44.01 2.56 0
 -8 14 5 0.39 1.29 0
 -8 14 6 1.45 1.64 0
 -7 -1 6 2.09 0.22 0
 -7 1 7 0.28 0.28 0
 -7 1 8 146.65 1.81 0
 -7 1 9 0.97 0.41 0
 -7 1 10 146.88 2.04 0
 -7 1 11 0.19 0.42 0
 -7 1 12 13.64 0.9 0
 -7 1 14 236.4 3.24 0
 -7 1 15 -0.02 0.66 0
 -7 3 4 20.38 0.77 0
 -7 3 5 107.66 1.66 0
 -7 3 6 5.86 0.61 0
 -7 3 7 13.2 0.74 0
 -7 3 8 53.15 1.32 0
 -7 3 9 10.53 0.8 0
 -7 3 10 -0.38 0.46 0
 -7 3 13 -0.77 0.56 0
 -7 3 14 0.02 0.66 0
 -7 3 15 33.38 1.59 0
 -7 3 16 1.88 0.94 0
 -7 3 17 0.16 0.95 0
 -7 5 5 5.5 0.65 0
 -7 5 6 -0.02 0.51 0
 -7 5 7 -0.02 0.51 0
 -7 5 10 7.99 0.93 0
 -7 5 12 8.26 0.97 0
 -7 5 13 1.82 0.92 0
 -7 5 14 16.13 1.39 0
 -7 5 15 1.48 0.89 0
 -7 5 17 19.65 1.65 0
 -7 5 18 63.27 2.37 0
 -7 7 6 0.34 0.6 0
 -7 7 8 0.2 0.61 0
 -7 7 9 2.84 0.78 0
 -7 7 10 -0.2 0.72 0
 -7 7 12 0.3 0.79 0
 -7 7 13 1.23 0.97 0
 -7 7 14 1.31 1.14 0
 -7 7 15 133.01 3.2 0
 -7 7 16 1.02 1.16 0
 -7 7 17 18.07 1.73 0
 -7 7 18 2.89 1.3 0
 -7 9 4 0.38 0.85 0
 -7 9 5 25.56 1.48 0
 -7 9 6 11.43 1.25 0
 -7 9 7 34.5 1.76 0
 -7 9 8 20.83 1.52 0
 -7 9 9 114.72 2.92 0
 -7 9 10 -0.33 0.89 0
 -7 9 11 3.15 1.03 0
 -7 9 12 19.76 1.72 0
 -7 9 13 77.42 2.69 0
 -7 9 14 12.3 1.64 0
 -7 9 15 48.45 2.36 0
 -7 9 16 2.41 1.43 0
 -7 11 4 85.96 2.67 0
 -7 11 5 32.71 1.94 0
 -7 11 7 92.64 2.88 0
 -7 11 8 16.03 1.72 0
 -7 11 10 1.38 1.23 0
 -7 11 11 25.39 2.01 0
 -7 11 12 5.72 1.51 0
 -7 11 13 35.97 2.26 0
 -7 13 2 3.73 1.25 0
 -7 13 3 27.41 2.07 0
 -7 13 4 12.71 1.71 0
 -7 13 5 4.34 1.38 0
 -7 13 6 8.06 1.6 0
 -7 13 7 -1.16 1.26 0
 -7 13 8 0.26 1.19 0
 -7 13 9 2.25 1.59 0
 -7 13 10 3.41 1.43 0
 -7 13 11 -0.5 1.25 0
 -7 15 0 5.09 1.51 0
 -7 15 2 -0.39 1.57 0
 -7 15 3 34.56 2.47 0
 -7 15 4 10.31 1.95 0
 -6 0 4 113.84 0.97 0
 -6 0 8 170.23 1.81 0
 -6 0 10 901.5 4.67 0
 -6 0 12 26.99 1.1 0
 -6 2 6 57.08 1.16 0
 -6 2 7 9.7 0.6 0
 -6 2 8 181.4 2.19 0
 -6 2 9 2.57 0.51 0
 -6 2 10 54.28 1.38 0
 -6 2 11 8.33 0.84 0
 -6 2 13 6.13 0.81 0
 -6 2 14 6.23 0.87 0
 -6 2 15 9.54 1.11 0
 -6 2 16 41.01 1.76 0
 -6 2 17 3.84 0.98 0
 -6 4 4 17.84 0.8 0
 -6 4 5 182.96 2.27 0
 -6 4 6 644.28 4.31 0
 -6 4 7 142.59 2.21 0
 -6 4 8 32.73 1.16 0
 -6 4 9 33.89 1.24 0
 -6 4 12 -0.03 0.57 0
 -6 4 13 38.23 1.6 0
 -6 4 14 101.59 2.44 0
 -6 4 15 19.35 1.43 0
 -6 4 16 3.76 0.97 0
 -6 4 17 33.33 1.87 0
 -6 4 18 93.75 2.71 0
 -6 4 19 17.69 1.7 0
 -6 6 5 57.01 1.55 0
 -6 6 6 35.68 1.34 0
 -6 6 10 3.69 0.73 0
 -6 6 11 0.88 0.69 0
 -6 6 12 11.29 1.2 0
 -6 6 13 0.98 0.88 0
 -6 6 14 6.13 1.07 0
 -6 6 15 0.76 0.92 0
 -6 6 17 6.61 1.33 0
 -6 6 18 5.37 1.37 0
 -6 6 19 19.16 1.83 0
 -6 8 4 0.89 0.66 0
 -6 8 5 6.95 0.9 0
 -6 8 6 6.36 0.89 0
 -6 8 7 1.29 0.74 0
 -6 8 8 1.29 0.87 0
 -6 8 10 16.04 1.37 0
 -6 8 11 98.49 2.67 0
 -6 8 12 0.15 1.02 0
 -6 8 13 20.17 1.65 0
 -6 8 14 2.08 1.07 0
 -6 8 15 72.09 2.64 0
 -6 8 16 0.63 1.09 0
 -6 8 17 5.94 1.4 0
 -6 10 4 1.53 0.89 0
 -6 10 5 7.03 1.17 0
 -6 10 8 4.07 1.22 0
 -6 10 9 73.57 2.52 0
 -6 10 10 44.19 2.15 0
 -6 10 11 17.97 1.72 0
 -6 10 12 0.64 1.02 0
 -6 10 13 0.81 1.08 0
 -6 10 14 21.07 1.96 0
 -6 10 15 32.79 2.24 0
 -6 12 3 33.23 1.99 0
 -6 12 4 -0.53 0.9 0
 -6 12 5 5.8 1.36 0
 -6 12 7 46.03 2.33 0
 -6 12 8 1.12 1.13 0
 -6 12 9 5.98 1.37 0
 -6 12 10 7.89 1.61 0
 -6 12 11 1.9 1.48 0
 -6 12 12 1.38 1.24 0
 -6 12 13 1.68 1.32 0
 -6 14 1 23.4 2.03 0
 -6 14 2 0.9 1.16 0
 -6 14 3 1.07 1.21 0
 -6 14 4 3.23 1.49 0
 -6 14 5 28.81 2.26 0
 -6 14 6 7.44 1.52 0
 -6 14 8 1.67 1.42 0
 -6 14 9 -0.62 1.33 0
 -5 -1 4 122.36 0.77 0
 -5 -1 6 448.46 2.18 0
 -5 -1 8 8.13 0.52 0
 -5 -1 9 23.77 0.8 0
 -5 -1 10 356.38 2.99 0
 -5 1 3 198.98 1.44 0
 -5 1 4 126.55 1.26 0
 -5 1 5 133.08 1.39 0
 -5 1 8 8.38 0.58 0
 -5 1 9 25.2 0.91 0
 -5 1 10 352.1 3.22 0
 -5 1 11 3.5 0.62 0
 -5 1 14 17.41 1.15 0
 -5 1 16 4.29 1.04 0
 -5 3 6 70.39 1.38 0
 -5 3 7 0.24 0.38 0
 -5 3 8 21.81 0.92 0
 -5 3 9 152.41 2.31 0
 -5 3 10 0.28 0.45 0
 -5 3 14 0.96 0.72 0
 -5 3 15 4.08 1.05 0
 -5 3 16 1.24 0.84 0
 -5 3 17 -0.07 1.02 0
 -5 3 18 5.79 1.21 0
 -5 5 4 0.77 0.45 0
 -5 5 7 47.54 1.41 0
 -5 5 8 14 0.95 0
 -5 5 11 3.4 0.8 0
 -5 5 12 2.17 0.75 0
 -5 5 13 1.65 0.76 0
 -5 5 14 -0.77 0.72 0
 -5 5 15 1.07 0.82 0
 -5 5 16 15.85 1.55 0
 -5 5 19 8.88 1.43 0
 -5 7 8 10.49 1.03 0
 -5 7 9 355.3 4.37 0
 -5 7 10 1.74 0.69 0
 -5 7 12 6.73 1.07 0
 -5 7 13 102.6 2.76 0
 -5 7 15 0.42 0.95 0
 -5 7 16 1.76 1.07 0
 -5 7 17 54.98 2.41 0
 -5 7 18 0.16 1.32 0
 -5 9 6 8.71 1.02 0
 -5 9 7 11.49 1.24 0
 -5 9 8 6.54 0.98 0
 -5 9 9 32.65 1.77 0
 -5 9 10 0.93 0.84 0
 -5 9 12 22.46 1.72 0
 -5 9 14 15.13 1.71 0
 -5 9 15 6.34 1.36 0
 -5 9 16 1.3 1.18 0
 -5 11 3 6.54 1.13 0
 -5 11 5 11.79 1.39 0
 -5 11 6 83.2 2.63 0
 -5 11 7 0.86 0.96 0
 -5 11 9 6.24 1.28 0
 -5 11 10 49.24 2.32 0
 -5 11 11 40.57 2.25 0
 -5 11 12 2.09 1.44 0
 -5 11 13 46.31 2.46 0
 -5 11 14 3.28 1.32 0
 -5 11 15 9.97 1.66 0
 -5 13 2 5.71 1.21 0
 -5 13 3 11.89 1.6 0
 -5 13 4 33.2 2.13 0
 -5 13 5 -0.19 1.05 0
 -5 13 7 4.88 1.48 0
 -5 13 8 0.99 1.18 0
 -5 13 9 4.95 1.59 0
 -5 13 10 -0.13 1.16 0
 -5 13 11 1.48 1.41 0
 -5 13 12 0.35 1.41 0
 -5 15 1 27.95 2.22 0
 -5 15 2 12.12 1.87 0
 -5 15 3 12.98 1.93 0
 -5 15 4 9.83 1.79 0
 -5 15 5 1.94 1.64 0
 -5 15 6 20.67 2.21 0
 -5 15 7 12.4 1.85 0
 -4 0 2 93.2 0.68 0
 -4 0 4 818.7 2.61 0
 -4 0 6 64.48 1.01 0
 -4 0 8 2.02 0.39 0
 -4 0 10 136.13 2.04 0
 -4 0 14 333.45 3.96 0
 -4 2 4 71.13 1.11 0
 -4 2 7 127.39 1.76 0
 -4 2 8 45.02 1.15 0
 -4 2 10 31.22 1.15 0
 -4 2 11 108.81 2.15 0
 -4 2 13 6.43 0.91 0
 -4 2 14 68.01 1.99 0
 -4 2 15 41.51 1.72 0
 -4 2 16 58.94 2.06 0
 -4 4 5 305.28 2.8 0
 -4 4 6 36.25 1.08 0
 -4 4 7 1.66 0.47 0
 -4 4 8 31.25 1.13 0
 -4 4 9 79.82 1.77 0
 -4 4 12 0.06 0.59 0
 -4 4 13 -0.74 0.68 0
 -4 4 14 16.37 1.31 0
 -4 4 15 3.33 0.94 0
 -4 4 16 17.86 1.56 0
 -4 4 17 51.31 2.2 0
 -4 4 19 30.25 2 0
 -4 6 4 3.35 0.56 0
 -4 6 5 190.67 2.65 0
 -4 6 6 19.66 1.03 0
 -4 6 7 1.14 0.54 0
 -4 6 10 9.77 1.03 0
 -4 6 11 31.42 1.52 0
 -4 6 12 58.35 1.99 0
 -4 6 14 1.11 0.84 0
 -4 6 15 48 2.09 0
 -4 6 16 84.25 2.7 0
 -4 6 17 60.26 2.45 0
 -4 6 19 1.17 1.38 0
 -4 8 6 32.78 1.43 0
 -4 8 7 1.53 0.64 0
 -4 8 8 11.68 1.17 0
 -4 8 9 4.32 0.89 0
 -4 8 12 -0.22 0.81 0
 -4 8 13 0.62 0.92 0
 -4 8 14 34.63 2.01 0
 -4 8 15 148.43 3.55 0
 -4 8 16 7.05 1.52 0
 -4 8 17 22.15 2 0
 -4 8 18 2.06 1.27 0
 -4 10 3 0.05 0.66 0
 -4 10 5 12.88 1.25 0
 -4 10 6 29.2 1.64 0
 -4 10 7 33.19 1.75 0
 -4 10 8 0.49 0.9 0
 -4 10 10 1.51 1.15 0
 -4 10 11 1.03 1.21 0
 -4 10 12 6.23 1.46 0
 -4 10 13 60.75 2.57 0
 -4 10 14 16.77 1.86 0
 -4 10 15 33.81 2.27 0
 -4 10 16 1.07 1.52 0
 -4 12 3 -0.23 0.82 0
 -4 12 4 73.17 2.53 0
 -4 12 5 1.55 1.08 0
 -4 12 7 17.32 1.7 0
 -4 12 8 6.18 1.46 0
 -4 12 11 -0.07 1.16 0
 -4 12 12 6.41 1.67 0
 -4 12 13 2.4 1.35 0
 -4 14 0 10.69 1.69 0
 -4 14 1 -0.56 1.19 0
 -4 14 2 3.23 1.43 0
 -4 14 4 10.99 1.56 0
 -4 14 5 10.27 1.54 0
 -4 14 6 2.01 1.48 0
 -4 14 7 1.16 1.29 0
 -4 14 8 16.25 1.94 0
 -4 14 9 2.18 1.53 0
 -4 14 10 19.67 2.11 0
 -4 16 -2 7.66 1.57 0
 -4 16 -1 0.31 1.52 0
 -4 16 1 2.21 1.59 0
 -4 16 2 13.34 1.81 0
 -4 16 3 2.66 1.45 0
 -3 -1 4 15.29 0.4 0
 -3 -1 5 0.43 0.23 0
 -3 -1 6 4.78 0.37 0
 -3 -1 8 166.45 1.9 0
 -3 -1 9 32.11 0.97 0
 -3 -1 10 515.11 3.8 0
 -3 1 3 578.73 2.33 0
 -3 1 4 15 0.5 0
 -3 1 5 0.04 0.26 0
 -3 1 8 165.77 2.04 0
 -3 1 10 516.85 3.99 0
 -3 1 11 60.59 1.54 0
 -3 1 13 38.27 1.47 0
 -3 1 14 359.44 4.25 0
 -3 1 15 15.85 1.29 0
 -3 1 16 30.74 1.66 0
 -3 3 4 930.67 4.1 0
 -3 3 7 18.44 0.82 0
 -3 3 8 777.35 4.73 0
 -3 3 9 8.72 0.75 0
 -3 3 10 4.05 0.7 0
 -3 3 13 56.49 1.82 0
 -3 3 14 1.24 0.71 0
 -3 3 15 -0.61 0.8 0
 -3 3 16 11.47 1.37 0
 -3 3 17 57.91 2.25 0
 -3 3 18 3.11 1.12 0
 -3 5 5 13.71 0.79 0
 -3 5 6 44.84 1.28 0
 -3 5 7 254.31 3.02 0
 -3 5 8 63.53 1.63 0
 -3 5 11 19.1 1.2 0
 -3 5 12 0.54 0.65 0
 -3 5 13 34.46 1.63 0
 -3 5 14 10.06 1.25 0
 -3 5 15 2.04 1.03 0
 -3 5 16 -0.48 0.88 0
 -3 5 17 4.2 1.3 0
 -3 5 18 14.55 1.72 0
 -3 5 20 6 1.53 0
 -3 7 4 26.58 1.14 0
 -3 7 8 27.12 1.32 0
 -3 7 9 334.42 4.19 0
 -3 7 10 15.71 1.24 0
 -3 7 11 36.53 1.67 0
 -3 7 13 228.05 4.16 0
 -3 7 14 4.96 1.2 0
 -3 7 15 73.64 2.6 0
 -3 7 16 19.81 1.8 0
 -3 9 3 41.49 1.55 0
 -3 9 4 13.24 1.08 0
 -3 9 5 -0.16 0.52 0
 -3 9 6 7.69 1.05 0
 -3 9 7 81.7 2.29 0
 -3 9 8 2.82 0.94 0
 -3 9 9 179.5 3.5 0
 -3 9 10 12.77 1.33 0
 -3 9 11 11.59 1.41 0
 -3 9 12 8.31 1.28 0
 -3 9 13 74.49 2.64 0
 -3 9 15 41.73 2.33 0
 -3 9 16 1.19 1.25 0
 -3 9 17 3.09 1.32 0
 -3 11 3 73.64 2.29 0
 -3 11 4 14.17 1.33 0
 -3 11 5 0.96 0.8 0
 -3 11 6 -0.07 0.78 0
 -3 11 7 100.19 2.83 0
 -3 11 8 -0.43 0.85 0
 -3 11 9 45.99 2.19 0
 -3 11 10 14.44 1.64 0
 -3 11 11 -0.98 1.2 0
 -3 11 12 -0.36 1.23 0
 -3 11 13 0.42 1.14 0
 -3 11 14 15.78 1.92 0
 -3 11 15 2.53 1.51 0
 -3 13 1 1.16 1.17 0
 -3 13 2 11.21 1.38 0
 -3 13 3 8.27 1.51 0
 -3 13 4 1.19 1.07 0
 -3 13 5 -1.09 1.11 0
 -3 13 6 11.82 1.51 0
 -3 13 7 14.03 1.78 0
 -3 13 8 0.59 1.08 0
 -3 13 10 16.28 1.91 0
 -3 13 11 1.68 1.53 0
 -3 13 12 2.53 1.33 0
 -3 15 -1 0.22 1.1 0
 -3 15 1 -0.19 1.35 0
 -3 15 2 2.76 1.4 0
 -3 15 3 2.69 1.45 0
 -3 15 4 0.66 1.36 0
 -3 15 5 0.6 1.51 0
 -3 15 6 2.11 1.55 0
 -3 15 7 5.25 1.52 0
 -3 15 8 10.55 1.67 0
 -2 0 2 644.56 1.63 0
 -2 0 6 0.58 0.27 0
 -2 0 8 80.02 1.44 0
 -2 0 10 30.47 1.08 0
 -2 2 3 282.21 1.89 0
 -2 2 4 129.61 1.42 0
 -2 2 5 1357.88 4.79 0
 -2 2 8 91.45 1.69 0
 -2 2 9 583.48 4.22 0
 -2 2 10 20.79 1 0
 -2 2 13 155.38 2.82 0
 -2 2 14 53.33 1.85 0
 -2 2 17 3.04 1.15 0
 -2 4 3 1 0.29 0
 -2 4 7 29.68 1.04 0
 -2 4 8 2.28 0.55 0
 -2 4 9 386.38 3.8 0
 -2 4 12 8.74 1 0
 -2 4 13 162.49 3.09 0
 -2 4 14 57.68 2.01 0
 -2 4 15 111.98 2.78 0
 -2 4 16 12.68 1.48 0
 -2 4 17 2.86 1.08 0
 -2 4 18 3.69 1.38 0
 -2 4 19 14.65 1.8 0
 -2 6 5 72.46 1.61 0
 -2 6 6 0.16 0.44 0
 -2 6 7 7.6 0.79 0
 -2 6 10 12.89 1.05 0
 -2 6 11 4.08 0.91 0
 -2 6 12 20.19 1.38 0
 -2 6 13 33.87 1.74 0
 -2 6 14 36.26 1.84 0
 -2 6 15 19.2 1.63 0
 -2 6 16 16.83 1.68 0
 -2 6 17 64.96 2.57 0
 -2 6 18 3.67 1.33 0
 -2 6 19 0.95 1.42 0
 -2 8 3 27.42 1.2 0
 -2 8 9 108.02 2.53 0
 -2 8 10 28.72 1.58 0
 -2 8 11 1.99 0.88 0
 -2 8 12 12.27 1.4 0
 -2 8 13 49.5 2.21 0
 -2 8 14 74.23 2.61 0
 -2 8 15 14.03 1.68 0
 -2 8 16 2.53 1.43 0
 -2 8 17 64.83 2.69 0
 -2 10 3 152.79 3.03 0
 -2 10 5 98.54 2.48 0
 -2 10 7 89.15 2.49 0
 -2 10 8 12.6 1.36 0
 -2 10 9 40.37 1.95 0
 -2 10 10 60.27 2.33 0
 -2 10 11 29.5 1.84 0
 -2 10 12 -0.93 0.89 0
 -2 10 13 46.43 2.32 0
 -2 10 14 6.97 1.54 0
 -2 10 16 -0.71 1.44 0
 -2 12 1 72.32 2.36 0
 -2 12 2 28.19 1.72 0
 -2 12 3 19.21 1.53 0
 -2 12 4 99.1 2.8 0
 -2 12 6 134.01 3.3 0
 -2 12 7 2.49 1.17 0
 -2 12 8 35.03 2.09 0
 -2 12 9 25.91 1.95 0
 -2 12 10 171.1 3.9 0
 -2 12 11 -0.33 1.16 0
 -2 12 12 -0.32 1.14 0
 -2 12 13 36.04 2.4 0
 -2 12 14 86.83 3.21 0
 -2 14 0 41.93 2.21 0
 -2 14 1 0.04 0.98 0
 -2 14 2 15.06 1.75 0
 -2 14 3 0.11 1.09 0
 -2 14 4 16.52 1.85 0
 -2 14 5 7.84 1.5 0
 -2 14 6 -0 1.11 0
 -2 14 8 0.18 1.25 0
 -2 14 9 0.35 1.18 0
 -2 14 10 0.29 1.51 0
 -2 16 -3 2.12 1.34 0
 -2 16 -2 2.44 1.5 0
 -2 16 -1 2.46 1.33 0
 -2 16 0 3.19 1.44 0
 -2 16 1 -0.01 1.14 0
 -2 16 2 0.05 1.36 0
 -2 16 3 1.99 1.56 0
 -2 16 4 6.76 1.69 0
 -1 -1 4 1340.92 3.63 0
 -1 -1 5 136.31 1.41 0
 -1 -1 6 573.85 3.07 0
 -1 -1 8 0.6 0.33 0
 -1 -1 9 23.05 0.91 0
 -1 -1 10 2.53 0.54 0
 -1 1 2 870.36 2.44 0
 -1 1 3 0.52 0.22 0
 -1 1 4 1345.87 3.99 0
 -1 1 5 135.56 1.48 0
 -1 1 6 579.6 3.25 0
 -1 1 9 22.29 0.93 0
 -1 1 10 1.84 0.55 0
 -1 1 11 33.76 1.28 0
 -1 1 13 5.16 0.78 0
 -1 1 14 55.26 1.87 0
 -1 1 15 26.53 1.54 0
 -1 3 3 284.12 2.12 0
 -1 3 4 760.15 3.68 0
 -1 3 5 928.59 4.33 0
 -1 3 8 942.41 5.27 0
 -1 3 9 435.41 3.86 0
 -1 3 10 27.02 1.18 0
 -1 3 12 312.4 3.89 0
 -1 3 13 39.02 1.6 0
 -1 3 14 47.13 1.84 0
 -1 3 15 36.27 1.78 0
 -1 3 18 1.64 1.33 0
 -1 5 7 405.78 3.71 0
 -1 5 8 508.4 4.31 0
 -1 5 11 30.04 1.4 0
 -1 5 12 70.48 2.05 0
 -1 5 13 136.19 2.88 0
 -1 5 14 5.4 1.05 0
 -1 5 15 3.25 1.05 0
 -1 5 17 2.28 1.22 0
 -1 5 18 41.47 2.27 0
 -1 7 3 93.39 1.9 0
 -1 7 5 478.07 4.23 0
 -1 7 6 7.66 0.85 0
 -1 7 10 58.11 1.89 0
 -1 7 11 16.72 1.28 0
 -1 7 12 14.13 1.32 0
 -1 7 13 5.46 1.04 0
 -1 7 14 20.52 1.68 0
 -1 7 15 19.67 1.72 0
 -1 7 16 68.8 2.63 0
 -1 7 17 0.7 1.13 0
 -1 7 18 6.67 1.52 0
 -1 9 7 51.34 1.83 0
 -1 9 9 6.06 1.07 0
 -1 9 10 19.81 1.5 0
 -1 9 11 1.35 1.06 0
 -1 9 13 23.1 1.81 0
 -1 9 14 17.6 1.77 0
 -1 9 15 17.91 1.82 0
 -1 9 16 12.49 1.76 0
 -1 9 17 0.69 1.19 0
 -1 11 2 3.5 0.88 0
 -1 11 4 166.08 3.37 0
 -1 11 5 10.39 1.28 0
 -1 11 6 41.8 1.92 0
 -1 11 7 45.9 2.05 0
 -1 11 8 71.32 2.48 0
 -1 11 9 91.54 2.78 0
 -1 11 12 8.43 1.49 0
 -1 11 13 38.45 2.29 0
 -1 13 1 4.14 1.03 0
 -1 13 2 12.56 1.51 0
 -1 13 4 18.94 1.68 0
 -1 13 5 0.09 1.11 0
 -1 13 8 12.06 1.57 0
 -1 13 9 30.84 2.14 0
 -1 13 10 28.29 2.13 0
 -1 13 11 2.32 1.56 0
 -1 13 12 0.67 1.26 0
 -1 15 -2 80.37 2.81 0
 -1 15 -1 8.88 1.4 0
 -1 15 0 16.3 1.81 0
 -1 15 1 -0.42 1.25 0
 -1 15 3 10.67 1.76 0
 -1 15 5 0.71 1.43 0
 -1 15 6 49.83 2.54 0
 -1 15 7 21.15 2.07 0
 -1 15 8 0.83 1.28 0
 0 0 2 1518.57 2.86 0
 0 0 4 9614.71 10.35 0
 0 0 6 1689.19 5.46 0
 0 2 2 715.68 2.64 0
 0 2 3 29.49 0.68 0
 0 2 4 273.75 2.04 0
 0 2 5 120.33 1.54 0
 0 2 6 452.63 3.1 0
 0 2 8 54.18 1.31 0
 0 2 9 148.77 2.28 0
 0 2 10 8.22 0.78 0
 0 2 12 5.73 0.87 0
 0 2 13 210.45 3.4 0
 0 2 14 1.73 0.73 0
 0 2 15 -0.1 0.72 0
 0 2 16 6.17 1.25 0
 0 4 2 92.78 1.3 0
 0 4 3 240.32 2.15 0
 0 4 8 314.78 3.28 0
 0 4 9 8.95 0.83 0
 0 4 11 5.79 0.76 0
 0 4 12 4.94 0.89 0
 0 4 13 19.27 1.31 0
 0 4 14 5.98 1.04 0
 0 4 15 12.62 1.39 0
 0 4 16 1.47 1.12 0
 0 4 18 12.65 1.71 0
 0 4 19 21.66 2.02 0
 0 6 4 36.47 1.12 0
 0 6 5 5.66 0.66 0
 0 6 6 12.77 0.87 0
 0 6 7 8.01 0.81 0
 0 6 10 25.51 1.31 0
 0 6 11 13.96 1.17 0
 0 6 12 88.51 2.39 0
 0 6 14 6.8 1.23 0
 0 6 15 15.67 1.56 0
 0 6 16 50.46 2.27 0
 0 6 17 19.47 1.85 0
 0 6 19 16.01 1.94 0
 0 8 2 4.6 0.69 0
 0 8 3 102.88 2.05 0
 0 8 4 5.35 0.72 0
 0 8 7 3.17 0.71 0
 0 8 8 1.38 0.71 0
 0 8 9 4.06 0.81 0
 0 8 10 2.81 0.79 0
 0 8 11 7.45 1.17 0
 0 8 12 16.77 1.52 0
 0 8 13 5.94 1.1 0
 0 8 14 10.02 1.53 0
 0 8 15 9.18 1.37 0
 0 8 16 2.88 1.36 0
 0 8 17 24.23 2.06 0
 0 8 18 26.1 2.21 0
 0 10 3 2.1 0.74 0
 0 10 4 11.77 1.1 0
 0 10 5 177.69 3.32 0
 0 10 8 0.05 0.9 0
 0 10 9 8.05 1.27 0
 0 10 10 15.71 1.48 0
 0 10 11 41.05 2.04 0
 0 10 12 0.06 1.18 0
 0 10 14 7.99 1.6 0
 0 10 16 0.78 1.36 0
 0 12 0 -0.07 0.7 0
 0 12 2 1.35 0.86 0
 0 12 3 13.06 1.37 0
 0 12 5 13.22 1.46 0
 0 12 6 6.34 1.13 0
 0 12 7 34.7 1.97 0
 0 12 8 1.46 1.11 0
 0 12 9 0.53 1.01 0
 0 12 10 12.43 1.67 0
 0 12 12 0.53 1.2 0
 0 12 14 16.54 1.85 0
 0 14 -2 2.46 1 0
 0 14 -1 0.04 0.93 0
 0 14 0 150.26 3.42 0
 0 14 1 0.72 1 0
 0 14 2 2.1 1.06 0
 0 14 4 81.87 2.81 0
 0 14 5 15 1.76 0
 0 14 6 0.96 1.09 0
 0 14 7 -0.32 1.06 0
 0 14 8 21.42 2.01 0
 0 14 9 21.32 2.04 0
 0 14 10 2.68 1.29 0
 0 16 -4 11.46 1.58 0
 0 16 -2 5.39 1.4 0
 0 16 -1 0.44 1.3 0
 0 16 0 55.72 2.55 0
 0 16 1 0.73 1.28 0
 0 16 2 6.07 1.59 0
 0 16 3 4.01 1.39 0
 0 16 4 10.35 1.58 0
 0 16 5 11.5 1.66 0
 1 1 1 7.7 0.24 0
 1 1 2 15.69 0.41 0
 1 1 3 0.1 0.18 0
 1 1 4 3.82 0.38 0
 1 1 5 31.3 0.79 0
 1 1 6 27.4 0.81 0
 1 1 9 58.54 1.44 0
 1 1 13 25.01 1.38 0
 1 1 14 0.65 0.8 0
 1 3 1 151.73 1.3 0
 1 3 3 174.47 1.67 0
 1 3 4 124.25 1.54 0
 1 3 5 2.9 0.37 0
 1 3 9 144.56 2.32 0
 1 3 12 45.57 1.62 0
 1 3 13 156.99 3.12 0
 1 3 14 62.24 2.11 0
 1 3 15 50.55 2.06 0
 1 3 17 10.35 1.36 0
 1 5 2 321.26 2.57 0
 1 5 3 60.87 1.24 0
 1 5 4 3.66 0.47 0
 1 5 5 106.49 1.82 0
 1 5 6 308.42 3.1 0
 1 5 7 146.59 2.3 0
 1 5 8 222.03 2.94 0
 1 5 11 25.48 1.31 0
 1 5 12 243.08 3.76 0
 1 5 13 36.42 1.71 0
 1 5 14 26.81 1.66 0
 1 5 16 17 1.63 0
 1 5 17 -0.82 1.02 0
 1 5 18 1.55 1.23 0
 1 5 19 1.38 1.3 0
 1 7 2 0.91 0.45 0
 1 7 3 296.54 3.09 0
 1 7 4 8.43 0.73 0
 1 7 5 148.1 2.44 0
 1 7 6 16.44 0.98 0
 1 7 10 0.37 0.59 0
 1 7 11 100.74 2.54 0
 1 7 12 24.36 1.62 0
 1 7 13 46.07 2.01 0
 1 7 14 32.45 1.91 0
 1 7 15 5.11 1.36 0
 1 7 16 4.45 1.32 0
 1 7 17 95.32 3.09 0
 1 7 18 3.23 1.32 0
 1 9 5 1.42 0.58 0
 1 9 6 13.02 1.11 0
 1 9 7 7.23 1.01 0
 1 9 8 30.18 1.55 0
 1 9 9 4.68 1.02 0
 1 9 10 3.46 0.93 0
 1 9 11 15.57 1.45 0
 1 9 12 17.71 1.62 0
 1 9 14 10.31 1.51 0
 1 9 15 41.56 2.32 0
 1 9 16 28.87 2.17 0
 1 9 17 67.82 2.84 0
 1 11 0 77.58 2.1 0
 1 11 1 32.47 1.51 0
 1 11 2 -0.24 0.61 0
 1 11 3 101.94 2.48 0
 1 11 4 0.3 0.68 0
 1 11 5 4.35 0.89 0
 1 11 6 11.14 1.32 0
 1 11 9 22.81 1.66 0
 1 11 10 46.99 2.22 0
 1 11 11 25.76 1.88 0
 1 11 12 3.77 1.31 0
 1 11 13 31.65 2.17 0
 1 11 14 41.2 2.42 0
 1 11 15 54.32 2.66 0
 1 13 -1 3.52 1.05 0
 1 13 0 1.17 1.07 0
 1 13 1 8.5 1.2 0
 1 13 2 25.87 1.68 0
 1 13 3 4.14 1.23 0
 1 13 4 1.84 0.95 0
 1 13 5 13.1 1.56 0
 1 13 6 5.83 1.28 0
 1 13 7 55.27 2.34 0
 1 13 8 4.95 1.41 0
 1 13 9 8.47 1.45 0
 1 13 10 0.5 1.12 0
 1 13 11 35.33 2.3 0
 1 13 12 0.43 1.43 0
 1 15 -4 4.58 1.22 0
 1 15 -3 10.84 1.53 0
 1 15 -2 91.84 2.83 0
 1 15 -1 -0.95 1.1 0
 1 15 0 16.09 1.71 0
 1 15 1 7.63 1.38 0
 1 15 2 80.88 2.81 0
 1 15 3 0.15 1.04 0
 1 15 4 8.79 1.45 0
 1 15 5 26.2 2.07 0
 1 15 6 62.01 2.69 0
 1 15 7 29.28 2.18 0
 1 15 8 3.02 1.38 0
 2 0 2 24.09 0.5 0
 2 0 4 4886.48 8.16 0
 2 0 10 135.27 2.33 0
 2 2 0 625.66 1.81 0
 2 2 1 570.32 2.05 0
 2 2 2 480.82 2.18 0
 2 2 3 0.83 0.24 0
 2 2 4 389.19 2.51 0
 2 2 5 50.47 1.06 0
 2 2 9 10.23 0.79 0
 2 2 12 1.71 0.64 0
 2 2 13 0.32 0.7 0
 2 2 14 59.47 2.06 0
 2 2 15 3.66 0.97 0
 2 4 1 3.78 0.4 0
 2 4 2 0.8 0.32 0
 2 4 3 30.72 0.83 0
 2 4 4 507.73 3.27 0
 2 4 5 41.07 1.06 0
 2 4 6 0.62 0.33 0
 2 4 7 95.48 1.78 0
 2 4 8 754.98 5.1 0
 2 4 12 190.95 3.3 0
 2 4 13 188.4 3.48 0
 2 4 14 177.74 3.56 0
 2 4 16 0.88 0.99 0
 2 4 17 8.59 1.53 0
 2 4 18 15.25 1.83 0
 2 6 1 55.65 1.17 0
 2 6 2 179.18 2.13 0
 2 6 3 38.08 1.08 0
 2 6 4 50.77 1.28 0
 2 6 5 16.14 0.87 0
 2 6 6 88.52 1.81 0
 2 6 7 72.83 1.73 0
 2 6 10 12.05 1.11 0
 2 6 11 5.58 0.89 0
 2 6 12 24.44 1.47 0
 2 6 13 40.78 1.89 0
 2 6 14 21.38 1.67 0
 2 6 15 70.46 2.55 0
 2 6 16 16.51 1.76 0
 2 6 17 2.25 1.43 0
 2 6 18 3.24 1.51 0
 2 6 19 31.6 2.31 0
 2 8 1 112.33 1.99 0
 2 8 2 0.18 0.43 0
 2 8 3 39.29 1.31 0
 2 8 4 49.32 1.5 0
 2 8 8 1.32 0.71 0
 2 8 9 36.64 1.64 0
 2 8 10 2.68 0.83 0
 2 8 11 16.28 1.43 0
 2 8 12 7.6 1.13 0
 2 8 14 2.55 1.17 0
 2 8 15 40.94 2.2 0
 2 8 16 13.6 1.62 0
 2 8 17 19.11 1.97 0
 2 10 4 36.35 1.55 0
 2 10 5 23.3 1.37 0
 2 10 6 3.51 0.95 0
 2 10 7 4.74 0.97 0
 2 10 8 44.3 1.88 0
 2 10 9 4.59 1.07 0
 2 10 10 5.3 1.09 0
 2 10 11 13.4 1.56 0
 2 10 12 29.14 1.95 0
 2 10 13 2.17 1.31 0
 2 10 14 7.34 1.6 0
 2 10 16 1.2 1.28 0
 2 12 -1 73.02 2.12 0
 2 12 0 50.07 1.89 0
 2 12 1 1.11 0.89 0
 2 12 2 0.72 0.79 0
 2 12 3 1.11 0.85 0
 2 12 5 -0.09 0.78 0
 2 12 6 0.48 1.09 0
 2 12 7 33.58 1.89 0
 2 12 8 9.7 1.47 0
 2 12 9 38.44 2.08 0
 2 12 10 12.53 1.48 0
 2 12 11 -0.51 1.18 0
 2 12 12 2.73 1.48 0
 2 12 13 11.1 1.65 0
 2 14 -4 16.52 1.5 0
 2 14 -3 0.57 0.94 0
 2 14 -2 13.12 1.43 0
 2 14 4 22.62 1.77 0
 2 14 5 -0.46 1.04 0
 2 14 6 43.98 2.24 0
 2 14 8 0.91 1.19 0
 2 14 9 50.67 2.48 0
 2 14 10 0.51 1.43 0
 2 16 -3 2.28 1.17 0
 2 16 -2 0.16 1.16 0
 2 16 -1 -0.01 1 0
 2 16 0 3.21 1.33 0
 2 16 2 1.47 1.25 0
 2 16 3 0.88 1.26 0
 2 16 4 5.01 1.32 0
 2 16 5 0.3 1.23 0
 3 1 1 518.36 1.78 0
 3 1 2 674.07 2.48 0
 3 1 3 540.81 2.6 0
 3 1 4 789.87 3.49 0
 3 1 5 24.36 0.78 0
 3 1 6 394.52 2.99 0
 3 1 7 153.19 2.04 0
 3 1 8 26.76 1 0
 3 1 9 2.11 0.5 0
 3 1 12 0.06 0.59 0
 3 3 0 346.88 1.69 0
 3 3 1 8.8 0.41 0
 3 3 2 28.91 0.67 0
 3 3 3 1419.41 4.65 0
 3 3 4 367.86 2.63 0
 3 3 5 72.98 1.33 0
 3 3 6 27.22 0.92 0
 3 3 7 386.76 3.37 0
 3 3 8 232.29 2.82 0
 3 3 9 83.92 1.83 0
 3 3 11 69.19 1.89 0
 3 3 12 38.65 1.6 0
 3 3 13 2 0.91 0
 3 3 14 1.12 0.77 0
 3 3 16 45.62 2.16 0
 3 5 0 134.17 1.48 0
 3 5 1 93.94 1.33 0
 3 5 2 13.68 0.62 0
 3 5 3 43.21 1.03 0
 3 5 4 370.19 3.02 0
 3 5 5 108.65 1.85 0
 3 5 6 20.94 0.94 0
 3 5 7 17.35 0.95 0
 3 5 8 126.58 2.33 0
 3 5 10 66.82 1.89 0
 3 5 11 0.1 0.61 0
 3 5 12 3.64 0.86 0
 3 5 13 33.63 1.72 0
 3 5 14 0.45 1.04 0
 3 5 15 1.52 1.08 0
 3 5 16 11.51 1.44 0
 3 5 17 26.49 1.99 0
 3 5 18 3.02 1.48 0
 3 7 0 8.13 0.6 0
 3 7 1 89.88 1.61 0
 3 7 2 194.09 2.41 0
 3 7 3 138.9 2.15 0
 3 7 5 55.66 1.49 0
 3 7 8 37.95 1.49 0
 3 7 9 4.92 0.9 0
 3 7 10 5.08 0.85 0
 3 7 12 1.77 0.98 0
 3 7 13 0.32 0.92 0
 3 7 14 2.14 1.03 0
 3 7 15 5.38 1.27 0
 3 7 16 2.2 1.26 0
 3 7 17 30.46 2.15 0
 3 7 18 6.25 1.62 0
 3 9 0 30.29 1.18 0
 3 9 1 77.69 1.76 0
 3 9 2 22.76 1.12 0
 3 9 6 4.13 0.88 0
 3 9 7 15.98 1.22 0
 3 9 9 7.79 1.14 0
 3 9 10 1.43 0.82 0
 3 9 11 23.24 1.67 0
 3 9 13 -0.87 1.05 0
 3 9 15 65.27 2.7 0
 3 9 16 7.76 1.45 0
 3 11 0 72.17 1.95 0
 3 11 1 3.73 0.89 0
 3 11 2 7.85 1.03 0
 3 11 4 90.09 2.34 0
 3 11 5 -0.12 0.84 0
 3 11 6 7.12 1.05 0
 3 11 7 95.56 2.58 0
 3 11 8 78.09 2.45 0
 3 11 9 1.87 1.17 0
 3 11 10 4.47 1.2 0
 3 11 11 52.1 2.36 0
 3 11 12 43.58 2.27 0
 3 11 13 1.54 1.34 0
 3 13 -3 8.32 1.13 0
 3 13 -2 11.83 1.32 0
 3 13 -1 1.22 0.8 0
 3 13 0 2.37 0.93 0
 3 13 1 3.6 1.05 0
 3 13 2 22.01 1.57 0
 3 13 3 26.34 1.7 0
 3 13 5 5.15 1.29 0
 3 13 6 15.23 1.57 0
 3 13 7 6.24 1.23 0
 3 13 8 6.56 1.25 0
 3 13 9 8.97 1.43 0
 3 13 10 2.61 1.3 0
 3 13 11 6.1 1.57 0
 3 15 -3 2.87 1.04 0
 3 15 -2 2.3 1.18 0
 3 15 -1 0.41 0.93 0
 3 15 0 41.37 2.07 0
 3 15 1 0.4 1.15 0
 3 15 2 -0.21 1.03 0
 3 15 3 10.78 1.43 0
 3 15 4 34.14 2.07 0
 3 15 5 22.78 1.88 0
 3 15 6 -0.32 1.21 0
 3 15 7 0.58 1.33 0
 3 15 8 9.64 1.68 0
 4 2 0 218.52 1.06 0
 4 2 1 79.2 0.87 0
 4 2 2 41.39 0.74 0
 4 2 3 681.81 3.1 0
 4 2 4 21.55 0.7 0
 4 2 5 198.94 2.11 0
 4 2 6 0.85 0.38 0
 4 2 7 8.97 0.7 0
 4 2 8 64.42 1.53 0
 4 2 9 2.39 0.58 0
 4 2 11 10.02 0.96 0
 4 2 12 12.2 1.1 0
 4 2 13 26.81 1.48 0
 4 4 -1 821.32 2.75 0
 4 4 1 87 1.1 0
 4 4 2 9.7 0.49 0
 4 4 3 233.47 2.12 0
 4 4 4 0.8 0.32 0
 4 4 5 93.65 1.65 0
 4 4 6 19.27 0.89 0
 4 4 7 0.39 0.5 0
 4 4 8 190.26 2.7 0
 4 4 11 -0.52 0.68 0
 4 4 12 222.31 3.69 0
 4 4 13 135.54 2.97 0
 4 4 14 261.64 4.39 0
 4 4 15 40.63 2.05 0
 4 4 16 14.37 1.63 0
 4 6 -1 284.22 2.24 0
 4 6 0 46.94 1.01 0
 4 6 1 32.83 0.9 0
 4 6 2 8.18 0.58 0
 4 6 3 245.34 2.53 0
 4 6 4 53.66 1.3 0
 4 6 5 10.22 0.78 0
 4 6 6 77.64 1.72 0
 4 6 9 108.58 2.32 0
 4 6 10 12.11 1.12 0
 4 6 11 30.64 1.53 0
 4 6 13 107.63 2.79 0
 4 6 14 15.87 1.6 0
 4 6 15 26.26 1.89 0
 4 6 16 31.38 2.06 0
 4 6 17 1.66 1.2 0
 4 6 18 3.73 1.58 0
 4 8 -1 325 2.97 0
 4 8 0 95.23 1.76 0
 4 8 1 74.25 1.56 0
 4 8 2 29.21 1.13 0
 4 8 3 183.16 2.59 0
 4 8 4 175.01 2.68 0
 4 8 7 141.54 2.74 0
 4 8 8 53.17 1.81 0
 4 8 9 65.89 2.05 0
 4 8 10 11.25 1.26 0
 4 8 11 3.52 1.02 0
 4 8 12 14.48 1.46 0
 4 8 13 21.01 1.68 0
 4 8 14 0.18 1.1 0
 4 8 15 43.26 2.28 0
 4 8 16 23.09 2.04 0
 4 8 17 32.72 2.28 0
 4 10 3 59.9 1.77 0
 4 10 4 0.48 0.69 0
 4 10 5 -0.12 0.71 0
 4 10 6 3.86 0.85 0
 4 10 8 10.58 1.2 0
 4 10 9 27.64 1.67 0
 4 10 10 9.85 1.36 0
 4 10 11 58.7 2.36 0
 4 10 12 23.82 1.86 0
 4 10 13 25.23 1.97 0
 4 10 14 16.62 1.86 0
 4 10 15 137.6 3.63 0
 4 12 -4 70.04 1.94 0
 4 12 -3 -0.65 0.63 0
 4 12 -2 50.56 1.71 0
 4 12 -1 22.46 1.35 0
 4 12 1 0.12 0.83 0
 4 12 2 5.84 0.95 0
 4 12 3 23.83 1.48 0
 4 12 4 51.15 1.95 0
 4 12 5 3.08 0.93 0
 4 12 6 0.02 0.93 0
 4 12 7 4.98 1.23 0
 4 12 8 4.32 1.19 0
 4 12 9 29.93 1.92 0
 4 12 10 4.22 1.2 0
 4 12 11 1.77 1.11 0
 4 12 12 0.63 1.16 0
 4 14 -2 1.7 0.98 0
 4 14 -1 0.08 0.82 0
 4 14 0 12.39 1.43 0
 4 14 1 -0.64 0.91 0
 4 14 2 21.28 1.61 0
 4 14 3 -0.09 1.04 0
 4 14 4 12.54 1.5 0
 4 14 5 12.46 1.55 0
 4 14 6 29.6 1.91 0
 4 14 7 45.73 2.22 0
 4 14 8 21.45 1.85 0
 4 14 9 8.12 1.44 0
 4 14 10 4.99 1.36 0
 5 1 4 238.77 2.12 0
 5 1 5 240.82 2.33 0
 5 1 6 739.18 4.35 0
 5 1 7 242.63 2.76 0
 5 1 8 -0.21 0.45 0
 5 1 9 11.88 0.92 0
 5 3 -1 643.53 1.63 0
 5 3 0 97.83 0.88 0
 5 3 1 707.87 2.66 0
 5 3 2 50.25 0.87 0
 5 3 3 18.57 0.64 0
 5 3 4 0.1 0.27 0
 5 3 5 265.98 2.55 0
 5 3 6 2.7 0.45 0
 5 3 7 373.2 3.45 0
 5 3 8 147.84 2.43 0
 5 3 11 228.66 3.53 0
 5 3 12 52.93 1.87 0
 5 3 13 57.37 2.06 0
 5 3 14 53.65 2.12 0
 5 5 -2 266.65 1.69 0
 5 5 -1 176.19 1.49 0
 5 5 0 117.54 1.34 0
 5 5 1 49.33 0.96 0
 5 5 3 0.29 0.36 0
 5 5 4 0.61 0.39 0
 5 5 6 84.09 1.71 0
 5 5 7 72.32 1.68 0
 5 5 10 0.04 0.61 0
 5 5 11 13.57 1.21 0
 5 5 12 119.68 2.75 0
 5 5 13 61.6 2.22 0
 5 5 14 11.68 1.41 0
 5 5 15 1.11 1.15 0
 5 5 16 18.84 1.78 0
 5 7 -2 3.93 0.47 0
 5 7 -1 53.73 1.17 0
 5 7 0 185.08 2.08 0
 5 7 1 53.58 1.21 0
 5 7 2 106.24 1.77 0
 5 7 3 27.38 0.99 0
 5 7 4 27.41 1.07 0
 5 7 5 106.1 2.09 0
 5 7 8 31.65 1.42 0
 5 7 9 21.26 1.31 0
 5 7 10 26.91 1.49 0
 5 7 11 1.6 0.79 0
 5 7 12 21.24 1.55 0
 5 7 13 18.69 1.63 0
 5 7 14 2.22 1.16 0
 5 7 15 2 1.1 0
 5 7 16 4.61 1.41 0
 5 7 17 15.75 1.96 0
 5 9 -3 1.14 0.48 0
 5 9 -2 0.78 0.46 0
 5 9 -1 7.2 0.72 0
 5 9 0 15.51 0.9 0
 5 9 1 65.72 1.57 0
 5 9 2 3.57 0.68 0
 5 9 6 1.83 0.68 0
 5 9 7 30.48 1.47 0
 5 9 8 9.01 1.12 0
 5 9 10 0.78 0.89 0
 5 9 11 1.64 1.01 0
 5 9 12 19.31 1.67 0
 5 9 13 10.09 1.54 0
 5 9 14 -0.21 1.19 0
 5 9 16 7.68 1.47 0
 5 11 0 78.41 1.93 0
 5 11 1 17.48 1.18 0
 5 11 2 2.95 0.79 0
 5 11 3 2.17 0.75 0
 5 11 4 5.87 1 0
 5 11 7 39.93 1.84 0
 5 11 8 20.51 1.57 0
 5 11 9 17.42 1.57 0
 5 11 10 7.92 1.36 0
 5 11 11 8.84 1.44 0
 5 11 13 6.77 1.37 0
 5 11 14 1.51 1.21 0
 5 13 -2 5.98 1.05 0
 5 13 -1 21.71 1.39 0
 5 13 0 70.61 2.11 0
 5 13 1 13.61 1.3 0
 5 13 3 5.64 1.07 0
 5 13 5 9.27 1.21 0
 5 13 6 120.28 2.98 0
 5 13 7 72.52 2.51 0
 5 13 8 2.07 1.06 0
 5 13 9 20.16 1.79 0
 5 13 10 47.59 2.32 0
 5 13 11 16.65 1.84 0
 5 15 5 1.45 1.08 0
 5 15 6 57.41 2.39 0
 5 15 7 8.03 1.5 0
 6 2 2 155.39 1.47 0
 6 2 3 498.24 2.84 0
 6 2 4 42.35 0.98 0
 6 2 5 0.53 0.33 0
 6 2 6 70.39 1.45 0
 6 2 7 296.68 3.12 0
 6 2 8 99.81 2.08 0
 6 2 10 11.02 1.04 0
 6 4 -1 121.51 0.9 0
 6 4 0 121.67 1.1 0
 6 4 2 30.38 0.75 0
 6 4 4 0.36 0.34 0
 6 4 5 17.87 0.82 0
 6 4 7 22.96 1.04 0
 6 4 10 6.2 0.92 0
 6 4 11 5.18 0.99 0
 6 4 12 24.16 1.51 0
 6 4 13 3.95 1.15 0
 6 4 14 27.77 1.79 0
 6 6 -3 16.21 0.5 0
 6 6 -1 397.09 2.38 0
 6 6 0 93.62 1.3 0
 6 6 1 33.5 0.86 0
 6 6 2 146.75 1.84 0
 6 6 3 275.37 2.65 0
 6 6 4 7.02 0.66 0
 6 6 10 1.96 0.84 0
 6 6 11 111.11 2.62 0
 6 6 12 2.62 1.07 0
 6 6 13 112.56 2.92 0
 6 6 15 2.1 1.12 0
 6 8 -4 0.46 0.36 0
 6 8 -3 6.46 0.54 0
 6 8 -2 22.1 0.8 0
 6 8 -1 142.33 1.91 0
 6 8 1 35.12 1.07 0
 6 8 2 65.08 1.45 0
 6 8 3 196.14 2.6 0
 6 8 8 63.41 1.95 0
 6 8 10 11.98 1.3 0
 6 8 11 103.8 2.7 0
 6 8 14 5.54 1.41 0
 6 8 15 -0.21 1.25 0
 6 8 16 20.25 2 0
 6 10 -4 1.66 0.55 0
 6 10 -3 123.94 2.04 0
 6 10 -2 10.87 0.83 0
 6 10 -1 16.98 0.95 0
 6 10 0 0.12 0.5 0
 6 10 3 2.53 0.73 0
 6 10 4 0.3 0.6 0
 6 10 5 23.12 1.34 0
 6 10 6 3.83 0.85 0
 6 10 7 8.36 1.04 0
 6 10 8 2.91 0.9 0
 6 10 9 1.52 0.95 0
 6 10 10 9.99 1.4 0
 6 10 11 3.35 1.18 0
 6 10 12 6.5 1.25 0
 6 10 13 17.14 1.79 0
 6 10 14 1.35 1.42 0
 6 12 -1 12.44 1.12 0
 6 12 0 1.12 0.69 0
 6 12 1 0.33 0.67 0
 6 12 2 0.65 0.72 0
 6 12 3 5.55 0.94 0
 6 12 4 7.61 1.02 0
 6 12 5 7.21 1.07 0
 6 12 6 2.82 1.01 0
 6 12 7 2.38 1.1 0
 6 12 8 24.9 1.72 0
 6 12 9 0.64 1.01 0
 6 12 10 0.99 1.04 0
 6 12 11 -0.86 1.15 0
 6 12 12 26.33 1.98 0
 6 14 7 -0.8 0.92 0
 6 14 8 35.27 2.04 0
 6 14 9 -0.4 1.16 0
 7 3 3 482.73 2.95 0
 7 3 4 218.04 2.23 0
 7 3 5 335.77 2.97 0
 7 3 6 28.17 1.04 0
 7 3 7 18.76 0.98 0
 7 3 10 5.78 0.94 0
 7 5 -1 124.64 1.01 0
 7 5 0 26.87 0.6 0
 7 5 1 29.04 0.71 0
 7 5 2 178.25 1.84 0
 7 5 3 78.92 1.37 0
 7 5 4 120.51 1.83 0
 7 5 5 107.19 1.87 0
 7 5 6 -0.42 0.49 0
 7 5 9 9.58 1.04 0
 7 5 10 1.35 0.69 0
 7 5 11 0.09 0.7 0
 7 5 12 28.19 1.67 0
 7 5 13 3.26 0.97 0
 7 5 14 28.12 1.89 0
 7 7 -3 48.58 0.84 0
 7 7 0 29.94 0.82 0
 7 7 1 -0.17 0.34 0
 7 7 2 21.15 0.84 0
 7 7 3 87.44 1.66 0
 7 7 4 110.26 2.01 0
 7 7 7 250.62 3.39 0
 7 7 8 10.08 1.04 0
 7 7 9 15.2 1.24 0
 7 7 10 27.02 1.54 0
 7 7 11 55.76 2.07 0
 7 7 12 1.79 0.92 0
 7 7 13 19.54 1.67 0
 7 7 14 7.01 1.42 0
 7 7 15 4.79 1.28 0
 7 7 16 1.59 1.41 0
 7 9 -2 5.53 0.6 0
 7 9 0 1.32 0.48 0
 7 9 1 134.54 2.12 0
 7 9 2 6.38 0.72 0
 7 9 5 145.76 2.69 0
 7 9 6 22.09 1.27 0
 7 9 7 107.18 2.43 0
 7 9 8 4.35 1.01 0
 7 9 9 1.49 0.87 0
 7 9 10 10.23 1.31 0
 7 9 11 13.09 1.46 0
 7 9 12 9.91 1.39 0
 7 9 13 3.82 1.25 0
 7 9 15 18.85 1.92 0
 7 11 1 109.46 2.27 0
 7 11 2 4.17 0.78 0
 7 11 3 44.37 1.59 0
 7 11 6 0.33 0.87 0
 7 11 7 6.32 1.11 0
 7 11 8 56.11 2.12 0
 7 11 9 1.17 1.11 0
 7 11 10 6.61 1.2 0
 7 11 11 -0.36 1.17 0
 7 11 12 1.25 1.11 0
 7 11 13 11.19 1.54 0
 7 13 6 41.65 1.95 0
 7 13 8 5.31 1.21 0
 7 13 9 4.81 1.27 0
 7 13 10 41.39 2.14 0
 8 4 2 355.57 2.38 0
 8 4 3 264.72 2.33 0
 8 4 4 130.94 1.87 0
 8 4 6 43.4 1.28 0
 8 4 9 3.63 0.82 0
 8 4 10 51.75 1.82 0
 8 6 -1 103.9 0.96 0
 8 6 1 3.45 0.42 0
 8 6 2 7.78 0.57 0
 8 6 3 65.65 1.39 0
 8 6 4 32.78 1.05 0
 8 6 8 10.14 1.03 0
 8 6 9 3.34 0.89 0
 8 6 10 15.92 1.29 0
 8 6 11 30.77 1.67 0
 8 6 12 16.39 1.53 0
 8 6 13 17.71 1.67 0
 8 8 0 12.41 0.65 0
 8 8 1 1.9 0.44 0
 8 8 2 19 0.87 0
 8 8 3 9.74 0.79 0
 8 8 4 2 0.56 0
 8 8 6 26.15 1.27 0
 8 8 7 6.81 0.93 0
 8 8 8 2.76 0.87 0
 8 8 9 0.05 0.89 0
 8 8 10 1.62 1 0
 8 8 11 15.23 1.5 0
 8 8 12 0.79 0.93 0
 8 8 13 17.61 1.71 0
 8 8 14 0.03 1.28 0
 8 8 15 10.82 1.56 0
 8 10 3 1.82 0.66 0
 8 10 4 12.01 1.04 0
 8 10 5 2.74 0.82 0
 8 10 7 0.68 0.8 0
 8 10 9 47.76 1.96 0
 8 10 10 3.41 1.04 0
 8 10 11 12.52 1.57 0
 8 10 12 19.8 1.75 0
 8 10 13 8.48 1.4 0
 8 12 8 0.04 0.99 0
 8 12 10 4.1 1.21 0
 8 12 11 -0.04 1.11 0
 9 5 3 -0 0.35 0
 9 5 4 1.79 0.46 0
 9 5 5 0.77 0.49 0
 9 5 6 46.27 1.38 0
 9 5 8 8.83 0.97 0
 9 5 9 1.63 0.84 0
 9 7 2 24.12 0.83 0
 9 7 3 12.15 0.74 0
 9 7 4 8.2 0.75 0
 9 7 7 22.51 1.22 0
 9 7 8 11.87 1.14 0
 9 7 9 68.6 2.06 0
 9 7 10 0.29 0.92 0
 9 7 11 30.02 1.75 0
 9 7 12 1.98 1.01 0
 9 9 5 71.34 1.79 0
 9 9 7 25 1.41 0
 9 9 8 -0.7 0.71 0
 9 9 9 5.26 1.04 0
 9 9 10 40.01 1.91 0
 9 9 11 47.07 2.09 0
 9 9 12 2.62 1.11 0
 9 9 13 21.38 1.86 0
 9 9 14 17.06 1.86 0
 10 6 4 7.11 0.68 0
 10 6 5 0.78 0.56 0
 10 6 7 35.76 1.41 0
 10 8 6 25.62 1.27 0
 10 8 7 232.94 3.38 0
 10 8 8 -0.36 0.83 0
 10 8 9 20.2 1.45 0
 10 8 10 5.64 1.16 0
 10 8 11 97.21 2.68 0
 -11 9 5 10.32 1.11 0
 -11 11 4 0.71 0.97 0
 -11 13 3 29.4 1.95 0
 -10 4 4 45.34 0.97 0
 -10 4 5 50.23 0.96 0
 -10 6 5 16.1 0.81 0
 -10 6 6 13.03 0.75 0
 -10 6 7 118.01 1.92 0
 -10 8 5 2.58 0.7 0
 -10 8 6 45.78 1.53 0
 -10 8 7 89.36 1.95 0
 -10 10 5 2.61 0.97 0
 -10 10 6 -0.01 0.78 0
 -10 10 7 19.93 1.41 0
 -10 12 4 0.32 1.07 0
 -10 12 5 12.05 1.39 0
 -10 12 6 19.56 1.61 0
 -10 14 3 48.44 2.36 0
 -10 14 4 55.84 2.48 0
 -10 14 5 9.82 1.54 0
 -9 3 6 34.12 0.69 0
 -9 3 7 103.35 1.17 0
 -9 5 5 8.23 0.58 0
 -9 5 6 65.36 1.37 0
 -9 5 7 7.47 0.6 0
 -9 5 8 3.52 0.5 0
 -9 5 9 1.47 0.44 0
 -9 7 5 118.98 2.22 0
 -9 7 6 11.48 0.85 0
 -9 7 10 5.35 0.81 0
 -9 9 6 2.71 0.76 0
 -9 9 7 5.91 0.95 0
 -9 9 8 14.64 1.23 0
 -9 9 10 1.06 0.84 0
 -9 11 5 5.85 1.12 0
 -9 11 6 11.11 1.38 0
 -9 11 7 25.04 1.65 0
 -9 11 8 4.15 1.1 0
 -9 11 9 23.81 1.62 0
 -9 13 4 10.8 1.56 0
 -9 13 5 6.65 1.41 0
 -9 13 6 4.23 1.34 0
 -9 13 7 10.09 1.42 0
 -9 13 8 14.8 1.72 0
 -8 2 5 0.72 0.17 0
 -8 2 8 62.53 0.95 0
 -8 2 9 37.72 0.79 0
 -8 2 10 18.87 0.67 0
 -8 4 5 116.13 1.5 0
 -8 4 6 353.45 2.58 0
 -8 4 7 154.36 1.83 0
 -8 4 8 54.7 1.14 0
 -8 4 9 0.54 0.37 0
 -8 4 10 13.1 0.73 0
 -8 4 11 1.77 0.5 0
 -8 6 5 3.4 0.57 0
 -8 6 6 49.97 1.3 0
 -8 6 7 181.81 2.46 0
 -8 6 8 66.1 1.54 0
 -8 8 7 22.47 1.24 0
 -8 8 8 -0.57 0.59 0
 -8 8 9 103.06 2.26 0
 -8 8 10 17.93 1.26 0
 -8 8 11 0.15 0.81 0
 -8 8 12 8.84 1.07 0
 -8 10 5 1.47 0.85 0
 -8 10 6 55.2 1.94 0
 -8 10 7 -0.12 0.82 0
 -8 10 8 0.32 0.9 0
 -8 10 9 3.36 1.05 0
 -8 10 10 7.79 1.19 0
 -8 10 11 43.7 1.88 0
 -8 10 12 1.83 0.97 0
 -8 12 5 -0.32 0.92 0
 -8 12 6 24 1.76 0
 -8 12 7 15.31 1.57 0
 -8 12 8 3.26 1.11 0
 -8 12 9 8.56 1.4 0
 -8 12 10 1.18 1 0
 -8 12 11 6.77 1.35 0
 -8 14 3 53.26 2.45 0
 -8 14 4 44.69 2.37 0
 -8 14 5 2.31 1.39 0
 -8 14 6 0.75 1.3 0
 -8 14 7 35.94 2.18 0
 -7 1 6 1.98 0.2 0
 -7 1 7 -0.06 0.17 0
 -7 1 9 1.48 0.3 0
 -7 1 10 148.91 1.68 0
 -7 1 11 0.11 0.34 0
 -7 3 6 5.62 0.43 0
 -7 3 7 13.15 0.58 0
 -7 3 8 55.11 1.15 0
 -7 3 9 10.3 0.63 0
 -7 3 10 -0.63 0.33 0
 -7 3 11 28.09 1 0
 -7 3 12 15.12 0.87 0
 -7 5 5 4.74 0.56 0
 -7 5 6 0.34 0.37 0
 -7 5 7 0.57 0.4 0
 -7 5 8 15.52 0.85 0
 -7 5 9 0.52 0.5 0
 -7 5 10 9.94 0.81 0
 -7 5 13 2.32 0.69 0
 -7 5 14 16.79 1.18 0
 -7 7 6 -0.26 0.47 0
 -7 7 10 1 0.69 0
 -7 7 12 0.81 0.74 0
 -7 7 13 1.38 0.79 0
 -7 7 14 -0.01 0.88 0
 -7 9 6 11.2 1.09 0
 -7 9 7 35.06 1.53 0
 -7 9 8 17.63 1.31 0
 -7 9 9 113.13 2.56 0
 -7 9 10 0.62 0.84 0
 -7 9 11 3.92 0.99 0
 -7 9 12 18.2 1.46 0
 -7 9 14 14.13 1.52 0
 -7 11 5 33.81 1.78 0
 -7 11 6 12.4 1.41 0
 -7 11 7 96.53 2.66 0
 -7 11 8 15.83 1.5 0
 -7 11 9 66.14 2.32 0
 -7 11 10 -0.8 0.85 0
 -7 11 11 24.02 1.73 0
 -7 11 12 4.68 1.17 0
 -7 13 4 10.18 1.42 0
 -7 13 5 4.92 1.2 0
 -7 13 6 8.95 1.39 0
 -7 13 7 0.14 1.04 0
 -7 13 8 -0.2 1.08 0
 -7 13 9 1.93 1.25 0
 -7 13 10 2.78 1.38 0
 -7 15 3 38.32 2.37 0
 -7 15 4 8.68 1.65 0
 -7 15 5 10.1 1.64 0
 -6 2 4 66.58 0.84 0
 -6 2 8 179.54 1.83 0
 -6 2 9 2.48 0.42 0
 -6 2 10 56.1 1.23 0
 -6 2 11 8.15 0.7 0
 -6 2 12 2.68 0.59 0
 -6 2 13 6.06 0.73 0
 -6 2 15 10.65 1 0
 -6 4 5 189.83 1.96 0
 -6 4 6 634.64 3.62 0
 -6 4 7 141.69 1.91 0
 -6 4 8 31.6 0.98 0
 -6 4 9 32.49 1.07 0
 -6 4 11 49.63 1.41 0
 -6 4 14 95.18 2.14 0
 -6 4 15 17.46 1.24 0
 -6 4 16 2.99 0.89 0
 -6 6 5 57.25 1.36 0
 -6 6 6 37.89 1.18 0
 -6 6 7 48.98 1.35 0
 -6 6 8 3.43 0.59 0
 -6 6 11 1.91 0.65 0
 -6 6 12 10.96 1.08 0
 -6 6 13 0.2 0.72 0
 -6 6 14 7.2 1.07 0
 -6 6 15 0.44 0.87 0
 -6 6 16 2.94 0.96 0
 -6 8 7 0.76 0.6 0
 -6 8 8 1.17 0.73 0
 -6 8 10 17.08 1.27 0
 -6 8 11 103.38 2.46 0
 -6 8 12 1.45 0.8 0
 -6 8 13 22.63 1.54 0
 -6 8 14 1.97 0.99 0
 -6 8 15 70.14 2.35 0
 -6 8 16 1.17 1.06 0
 -6 10 5 5.18 1.01 0
 -6 10 6 25.85 1.51 0
 -6 10 7 67.32 2.14 0
 -6 10 8 4.06 0.97 0
 -6 10 9 78.9 2.4 0
 -6 10 10 45.66 1.96 0
 -6 10 11 18.21 1.54 0
 -6 10 12 0.74 0.93 0
 -6 10 13 0.14 1.16 0
 -6 10 15 30.29 1.92 0
 -6 12 5 6.04 1.17 0
 -6 12 6 6.17 1.31 0
 -6 12 7 44.66 2.13 0
 -6 12 8 -0.24 0.93 0
 -6 12 9 4.82 1.23 0
 -6 12 10 7.75 1.46 0
 -6 12 11 0.51 1.11 0
 -6 12 12 0.11 1.05 0
 -6 12 13 2.26 1.23 0
 -6 14 4 4.08 1.29 0
 -6 14 5 30.1 2.09 0
 -6 14 6 6.03 1.58 0
 -6 14 7 14.56 1.78 0
 -6 14 9 0.14 1.15 0
 -5 1 3 202.34 1.01 0
 -5 1 4 124.44 0.91 0
 -5 1 5 133.59 1.11 0
 -5 1 6 453.75 2.25 0
 -5 1 8 8.26 0.52 0
 -5 1 9 24.81 0.82 0
 -5 1 10 354.74 2.95 0
 -5 1 11 4.3 0.57 0
 -5 1 12 32.98 1.15 0
 -5 3 4 48.66 0.88 0
 -5 3 7 0.4 0.33 0
 -5 3 8 22.84 0.85 0
 -5 3 9 155.88 2.11 0
 -5 3 10 0.17 0.4 0
 -5 3 11 0.12 0.5 0
 -5 3 12 9.89 0.9 0
 -5 3 14 2.04 0.73 0
 -5 3 15 3.48 0.87 0
 -5 3 16 0.35 0.76 0
 -5 3 17 0.8 0.91 0
 -5 5 5 19.17 0.8 0
 -5 5 6 96.12 1.71 0
 -5 5 7 49.72 1.27 0
 -5 5 8 14.36 0.82 0
 -5 5 9 1.6 0.58 0
 -5 5 10 2.94 0.59 0
 -5 5 12 3.29 0.7 0
 -5 5 13 1.52 0.82 0
 -5 5 14 -0.37 0.67 0
 -5 5 15 0.97 0.76 0
 -5 5 16 17.46 1.45 0
 -5 7 6 4.79 0.65 0
 -5 7 10 2.31 0.71 0
 -5 7 11 10.63 1.15 0
 -5 7 12 6.76 0.98 0
 -5 7 13 101.2 2.5 0
 -5 7 14 6.97 1.07 0
 -5 7 15 0.15 0.9 0
 -5 7 16 1.41 1.13 0
 -5 7 17 52.72 2.18 0
 -5 9 6 8.41 0.96 0
 -5 9 7 10.4 1.1 0
 -5 9 8 7.16 1.07 0
 -5 9 9 31.73 1.6 0
 -5 9 10 0.84 0.85 0
 -5 9 11 55.5 2.06 0
 -5 9 13 4.74 1.07 0
 -5 9 14 15.24 1.56 0
 -5 9 15 4.88 1.16 0
 -5 9 16 0.86 1.06 0
 -5 9 17 7.66 1.47 0
 -5 11 8 28.79 1.74 0
 -5 11 10 52.56 2.23 0
 -5 11 11 41.67 2.1 0
 -5 11 12 3.43 1.18 0
 -5 11 13 43.83 2.23 0
 -5 11 14 2.02 1.28 0
 -5 11 15 8.98 1.52 0
 -5 13 4 29.25 1.93 0
 -5 13 5 0.21 0.93 0
 -5 13 8 1.06 1.16 0
 -5 13 9 6.04 1.39 0
 -5 13 10 -1.44 1.12 0
 -5 13 11 0.93 1.24 0
 -5 13 12 1.09 1.22 0
 -5 15 3 15.86 1.9 0
 -5 15 4 13.09 1.87 0
 -5 15 5 1.18 1.23 0
 -5 15 6 22.74 2.1 0
 -5 15 7 9.72 1.61 0
 -4 0 4 802.4 2.04 0
 -4 0 6 63.32 0.92 0
 -4 0 10 133.09 1.91 0
 -4 2 4 70.97 0.92 0
 -4 2 5 766.95 3.14 0
 -4 2 9 67.47 1.38 0
 -4 2 10 32.49 1.06 0
 -4 2 11 112.13 2.06 0
 -4 2 12 0.6 0.51 0
 -4 2 14 67.1 1.87 0
 -4 2 15 42.38 1.65 0
 -4 2 16 59.9 1.97 0
 -4 2 17 57.06 1.99 0
 -4 4 6 36.1 0.98 0
 -4 4 7 1.18 0.38 0
 -4 4 8 29.09 1 0
 -4 4 9 83.5 1.72 0
 -4 4 10 3.06 0.61 0
 -4 4 13 0.36 0.63 0
 -4 4 14 18.18 1.27 0
 -4 4 16 20.85 1.47 0
 -4 4 18 149.94 3.2 0
 -4 4 19 25.59 1.75 0
 -4 6 5 187.96 2.4 0
 -4 6 6 20.12 0.95 0
 -4 6 7 1.62 0.54 0
 -4 6 8 10.83 0.85 0
 -4 6 11 33.48 1.45 0
 -4 6 12 53.8 1.81 0
 -4 6 13 14.91 1.32 0
 -4 6 14 1.99 0.88 0
 -4 6 15 51.31 2.01 0
 -4 6 16 82.42 2.49 0
 -4 6 19 0.56 1.09 0
 -4 8 8 13.51 1.1 0
 -4 8 9 3.61 0.83 0
 -4 8 10 57.57 1.92 0
 -4 8 11 59.41 2.02 0
 -4 8 12 0.54 0.8 0
 -4 8 13 -0.46 0.98 0
 -4 8 14 37.61 1.94 0
 -4 8 15 148.32 3.33 0
 -4 8 16 4.82 1.26 0
 -4 8 17 21.2 1.8 0
 -4 8 18 3.07 1.34 0
 -4 10 5 14.09 1.22 0
 -4 10 6 29.7 1.56 0
 -4 10 7 31.82 1.64 0
 -4 10 8 0.03 0.9 0
 -4 10 9 107.83 2.74 0
 -4 10 10 0.9 1.04 0
 -4 10 11 0.71 0.89 0
 -4 10 12 6.54 1.33 0
 -4 10 13 60.87 2.41 0
 -4 10 15 35.22 2.15 0
 -4 10 16 2.49 1.25 0
 -4 12 5 1.55 0.99 0
 -4 12 7 15.85 1.63 0
 -4 12 8 5.82 1.18 0
 -4 12 9 18.88 1.75 0
 -4 12 10 56.24 2.44 0
 -4 12 12 6.63 1.54 0
 -4 12 13 2.93 1.41 0
 -4 12 14 2.69 1.41 0
 -4 14 3 3.58 1.31 0
 -4 14 4 11.93 1.68 0
 -4 14 5 9.65 1.54 0
 -4 14 6 2.01 1.21 0
 -4 14 7 1.36 1.43 0
 -4 16 2 15.82 2.06 0
 -3 1 3 570.76 1.91 0
 -3 1 4 15.57 0.43 0
 -3 1 5 0.26 0.21 0
 -3 1 6 5.04 0.38 0
 -3 1 8 165.38 1.93 0
 -3 1 9 33.97 1.01 0
 -3 1 10 529.44 3.89 0
 -3 1 11 62.92 1.51 0
 -3 1 12 0.81 0.53 0
 -3 1 14 347.54 4.05 0
 -3 3 4 936.57 3.72 0
 -3 3 8 784.46 4.46 0
 -3 3 9 8.12 0.7 0
 -3 3 10 3.7 0.64 0
 -3 3 11 7.18 0.82 0
 -3 3 13 59.18 1.76 0
 -3 3 14 1.04 0.69 0
 -3 3 15 0.26 0.82 0
 -3 3 16 10.62 1.21 0
 -3 3 18 3.79 1.14 0
 -3 5 5 13.14 0.7 0
 -3 5 7 248.41 2.79 0
 -3 5 8 64 1.54 0
 -3 5 9 127.1 2.22 0
 -3 5 12 0.11 0.58 0
 -3 5 13 32.48 1.54 0
 -3 5 14 10.37 1.2 0
 -3 5 15 0.45 0.88 0
 -3 5 16 0.85 0.88 0
 -3 5 17 4.3 1.14 0
 -3 5 19 4.79 1.23 0
 -3 7 5 10.57 0.83 0
 -3 7 10 14.45 1.14 0
 -3 7 11 37.06 1.61 0
 -3 7 12 69.81 2.14 0
 -3 7 13 223.69 3.91 0
 -3 7 15 73.96 2.49 0
 -3 7 16 22.66 1.76 0
 -3 7 17 62.43 2.48 0
 -3 7 18 17.03 1.82 0
 -3 7 19 25.68 2.04 0
 -3 9 5 0.36 0.69 0
 -3 9 6 9 1.02 0
 -3 9 7 85 2.23 0
 -3 9 8 4.02 0.95 0
 -3 9 11 12.06 1.33 0
 -3 9 12 9.72 1.35 0
 -3 9 13 71.91 2.49 0
 -3 9 14 -0.35 0.94 0
 -3 9 16 0.86 1.14 0
 -3 9 17 4.57 1.34 0
 -3 11 5 0.51 0.76 0
 -3 11 7 99.5 2.7 0
 -3 11 8 1.14 0.87 0
 -3 11 9 44.11 2.11 0
 -3 11 10 17.42 1.65 0
 -3 11 11 0.57 1.04 0
 -3 11 12 -0.27 1 0
 -3 11 13 0.01 1.06 0
 -3 11 15 3.61 1.28 0
 -3 13 5 -0.02 0.92 0
 -3 13 6 11.48 1.49 0
 -3 13 7 12.2 1.64 0
 -3 13 8 1.8 1.36 0
 -3 13 9 11.48 1.66 0
 -3 13 11 2.5 1.25 0
 -3 13 12 3.03 1.3 0
 -3 15 2 1.7 1.22 0
 -3 15 3 4.19 1.53 0
 -3 15 4 0.62 1.45 0
 -3 15 5 -0.02 1.23 0
 -3 15 6 0.86 1.28 0
 -3 15 7 4.02 1.62 0
 -3 15 8 11.75 1.76 0
 -2 0 6 0.75 0.26 0
 -2 0 10 30.69 1.06 0
 -2 0 12 26.42 1.18 0
 -2 0 14 3.24 0.8 0
 -2 2 3 287.21 1.73 0
 -2 2 4 126.28 1.3 0
 -2 2 5 1347.68 4.48 0
 -2 2 8 90.68 1.58 0
 -2 2 9 586.68 4.07 0
 -2 2 10 19.58 0.96 0
 -2 2 11 29.48 1.2 0
 -2 2 14 53.28 1.8 0
 -2 2 15 58.75 1.97 0
 -2 2 16 42.04 1.84 0
 -2 4 7 28.47 0.96 0
 -2 4 8 2.04 0.51 0
 -2 4 9 388.46 3.64 0
 -2 4 10 60.04 1.59 0
 -2 4 12 10.27 1.02 0
 -2 4 13 165.25 3.07 0
 -2 4 14 59.09 1.96 0
 -2 4 15 110.14 2.68 0
 -2 4 16 9.85 1.32 0
 -2 4 17 3.04 1.07 0
 -2 4 18 3.31 1.15 0
 -2 4 19 14.2 1.65 0
 -2 4 20 1.42 1.12 0
 -2 6 5 74.28 1.62 0
 -2 6 6 0.33 0.4 0
 -2 6 7 7.23 0.73 0
 -2 6 8 61.78 1.64 0
 -2 6 11 3.44 0.76 0
 -2 6 13 32.81 1.66 0
 -2 6 14 33.53 1.78 0
 -2 6 15 19.36 1.56 0
 -2 6 16 16.87 1.62 0
 -2 6 17 68.32 2.53 0
 -2 6 18 2.75 1.15 0
 -2 6 19 0.35 1.18 0
 -2 8 8 21.7 1.26 0
 -2 8 9 108.88 2.47 0
 -2 8 11 2.71 0.94 0
 -2 8 12 11.7 1.37 0
 -2 8 13 47.55 2.07 0
 -2 8 16 5.1 1.25 0
 -2 8 18 29.06 2.07 0
 -2 10 5 98.18 2.44 0
 -2 10 6 54.38 1.95 0
 -2 10 7 85.08 2.38 0
 -2 10 9 39.83 1.89 0
 -2 10 10 59.95 2.27 0
 -2 10 12 0.78 0.96 0
 -2 10 13 45.97 2.27 0
 -2 10 14 6.05 1.3 0
 -2 10 15 47.01 2.44 0
 -2 10 16 0.12 1.15 0
 -2 12 4 97.18 2.77 0
 -2 12 5 26.76 1.78 0
 -2 12 6 131.2 3.22 0
 -2 12 7 2.63 1.23 0
 -2 12 8 39.24 2.15 0
 -2 12 9 26.93 1.97 0
 -2 12 10 178.53 3.93 0
 -2 12 11 0.26 1.16 0
 -2 12 12 -1.19 1.11 0
 -2 14 3 -0.75 0.98 0
 -2 14 4 16.97 1.86 0
 -2 14 5 7.79 1.53 0
 -2 14 6 -0.02 1.15 0
 -2 14 7 7.66 1.52 0
 -2 14 8 -0.71 1.3 0
 -2 14 9 0.72 1.21 0
 -2 14 10 -0.44 1.43 0
 -2 14 11 5.63 1.61 0
 -2 16 1 0.91 1.24 0
 -2 16 2 -0.31 1.31 0
 -2 16 3 2 1.49 0
 -2 16 4 7.33 1.72 0
 -1 -1 4 1332.26 3.67 0
 -1 -1 5 139.78 1.42 0
 -1 -1 6 572.75 3.08 0
 -1 -1 8 0.22 0.29 0
 -1 -1 9 21.16 0.88 0
 -1 -1 10 2.92 0.54 0
 -1 -1 11 35.63 1.26 0
 -1 1 2 843.13 2.21 0
 -1 1 3 0.43 0.2 0
 -1 1 4 1339.66 3.84 0
 -1 1 5 142 1.5 0
 -1 1 6 576.19 3.18 0
 -1 1 8 0.33 0.39 0
 -1 1 9 22.1 0.91 0
 -1 1 10 2.31 0.52 0
 -1 1 11 32.88 1.25 0
 -1 1 13 6.08 0.82 0
 -1 1 14 54.1 1.82 0
 -1 1 15 25.95 1.5 0
 -1 1 16 65.43 2.2 0
 -1 3 3 296.7 2.08 0
 -1 3 4 748.57 3.49 0
 -1 3 5 913.02 4.13 0
 -1 3 8 918.87 5.08 0
 -1 3 9 431.24 3.75 0
 -1 3 13 39 1.56 0
 -1 3 14 50.52 1.85 0
 -1 3 15 35.22 1.69 0
 -1 3 16 17.06 1.5 0
 -1 3 17 27.28 1.75 0
 -1 3 18 2.61 1.25 0
 -1 3 19 0.03 1.25 0
 -1 5 6 100.47 1.77 0
 -1 5 7 410.87 3.64 0
 -1 5 8 527.23 4.31 0
 -1 5 11 27.07 1.33 0
 -1 5 12 70.8 2.05 0
 -1 5 13 134.64 2.82 0
 -1 5 14 7.71 1.21 0
 -1 5 15 3.4 0.98 0
 -1 5 16 5.71 1.26 0
 -1 5 17 4.5 1.15 0
 -1 5 19 2.35 1.19 0
 -1 5 20 1.81 1.39 0
 -1 7 5 473.43 4.13 0
 -1 7 6 7.41 0.8 0
 -1 7 9 9.42 0.99 0
 -1 7 10 55.68 1.83 0
 -1 7 11 16.94 1.27 0
 -1 7 12 12.95 1.29 0
 -1 7 13 4.6 1.16 0
 -1 7 14 20.31 1.65 0
 -1 7 15 19.93 1.72 0
 -1 7 17 0.81 1.12 0
 -1 7 18 9.62 1.64 0
 -1 7 19 2.29 1.34 0
 -1 9 6 16.84 1.14 0
 -1 9 7 53.31 1.83 0
 -1 9 8 17.1 1.31 0
 -1 9 10 23.36 1.56 0
 -1 9 11 0.64 0.99 0
 -1 9 12 12.5 1.47 0
 -1 9 13 20.21 1.71 0
 -1 9 14 17.14 1.75 0
 -1 9 15 17.65 1.83 0
 -1 9 16 11.7 1.74 0
 -1 9 17 0.14 1.22 0
 -1 11 4 170.04 3.38 0
 -1 11 6 41.11 1.87 0
 -1 11 7 48.86 2.05 0
 -1 11 9 90.91 2.77 0
 -1 11 10 43.41 2.16 0
 -1 11 11 0.58 1 0
 -1 11 12 8.76 1.42 0
 -1 11 13 40.8 2.32 0
 -1 11 14 7.21 1.51 0
 -1 11 15 2.24 1.48 0
 -1 13 3 28.52 1.87 0
 -1 13 5 1.24 1.02 0
 -1 13 6 0.75 1.05 0
 -1 13 7 71.05 2.7 0
 -1 13 8 13.14 1.66 0
 -1 13 9 29.48 2.13 0
 -1 13 11 2.24 1.44 0
 -1 13 12 1.6 1.26 0
 -1 13 13 3.52 1.51 0
 -1 15 3 13.36 1.86 0
 -1 15 5 0.39 1.37 0
 -1 15 6 49.71 2.62 0
 -1 15 8 -0.33 1.47 0
 0 0 2 1484.7 2.84 0
 0 0 4 9739.61 10.48 0
 0 0 6 1708.79 5.54 0
 0 0 10 74.81 1.67 0
 0 0 14 0.08 0.63 0
 0 2 2 702.69 2.57 0
 0 2 3 28.57 0.65 0
 0 2 4 276.44 2.01 0
 0 2 5 118.69 1.49 0
 0 2 6 443.45 3.01 0
 0 2 8 53.29 1.28 0
 0 2 9 154.51 2.29 0
 0 2 10 7.07 0.77 0
 0 2 13 210.01 3.32 0
 0 2 14 2.32 0.9 0
 0 2 15 -0.14 0.84 0
 0 2 16 6.24 1.17 0
 0 2 17 140.86 3.25 0
 0 2 18 0.15 0.96 0
 0 4 3 233.99 2.11 0
 0 4 4 829.68 4.1 0
 0 4 8 315.46 3.27 0
 0 4 9 9.22 0.84 0
 0 4 12 4.78 0.92 0
 0 4 13 20.08 1.33 0
 0 4 14 5.96 1.09 0
 0 4 16 0.75 0.99 0
 0 4 17 29.56 1.92 0
 0 4 18 12.91 1.57 0
 0 4 19 24.43 1.99 0
 0 4 20 0.92 1.28 0
 0 6 5 5.66 0.62 0
 0 6 6 13.03 0.81 0
 0 6 7 6.44 0.79 0
 0 6 10 24.96 1.27 0
 0 6 11 15.27 1.19 0
 0 6 12 92.22 2.41 0
 0 6 13 22.37 1.51 0
 0 6 14 6.42 1.12 0
 0 6 15 16.52 1.62 0
 0 6 16 51.27 2.3 0
 0 8 7 3.53 0.81 0
 0 8 8 1.47 0.65 0
 0 8 9 4.2 0.87 0
 0 8 10 2.17 0.77 0
 0 8 11 7.75 1.11 0
 0 8 12 19.8 1.58 0
 0 8 13 6.69 1.25 0
 0 8 14 8.87 1.29 0
 0 8 15 7.68 1.31 0
 0 8 17 25.9 2.06 0
 0 8 18 24.97 2.15 0
 0 10 5 178.96 3.33 0
 0 10 8 -0.13 0.91 0
 0 10 9 6.47 1.12 0
 0 10 10 14.57 1.51 0
 0 10 11 41.29 2.08 0
 0 10 12 0.24 1.1 0
 0 10 13 5.1 1.48 0
 0 10 14 9 1.59 0
 0 10 15 35.69 2.29 0
 0 10 16 0.43 1.27 0
 0 12 3 12.85 1.39 0
 0 12 4 0.7 1.04 0
 0 12 6 6.46 1.18 0
 0 12 7 32.31 1.94 0
 0 12 8 1.3 1.05 0
 0 12 9 0.3 1.24 0
 0 12 10 12.12 1.75 0
 0 12 11 1.21 1.14 0
 0 12 12 1.48 1.17 0
 0 12 13 20.23 2.07 0
 0 12 14 18.61 2.07 0
 0 14 2 1.69 1.31 0
 0 14 3 10.08 1.65 0
 0 14 4 83.66 2.89 0
 0 14 6 0.41 1.35 0
 0 14 7 0.03 1.15 0
 0 14 8 19.57 2.03 0
 0 14 9 25.5 2.16 0
 0 14 10 4.42 1.69 0
 0 14 11 25.85 2.31 0
 0 16 0 54.98 2.71 0
 0 16 1 0.09 1.5 0
 0 16 2 7.03 1.66 0
 0 16 5 12.09 1.81 0
 1 -1 3 -0.1 0.23 0
 1 -1 4 3.76 0.37 0
 1 -1 5 31.24 0.8 0
 1 -1 6 28.32 0.82 0
 1 -1 8 7.95 0.65 0
 1 -1 9 59.44 1.44 0
 1 -1 10 33.45 1.21 0
 1 1 1 8.06 0.26 0
 1 1 2 16.15 0.43 0
 1 1 3 0.02 0.23 0
 1 1 4 4.24 0.39 0
 1 1 6 28.04 0.82 0
 1 1 8 8.39 0.66 0
 1 1 9 57.11 1.42 0
 1 1 10 35.45 1.29 0
 1 1 13 22.65 1.35 0
 1 1 14 1.8 0.75 0
 1 1 15 4.28 0.98 0
 1 1 16 188.11 3.85 0
 1 3 2 1.99 0.31 0
 1 3 3 169.15 1.66 0
 1 3 4 122.01 1.53 0
 1 3 5 2.65 0.37 0
 1 3 8 18.7 0.91 0
 1 3 9 142.25 2.3 0
 1 3 10 0.72 0.48 0
 1 3 12 46.22 1.67 0
 1 3 14 62.75 2.12 0
 1 3 15 48.55 2.02 0
 1 3 16 4.82 1.25 0
 1 3 17 12.23 1.6 0
 1 3 18 0.24 1.2 0
 1 3 19 15.83 1.83 0
 1 5 7 146.99 2.31 0
 1 5 8 213.73 2.91 0
 1 5 11 26.79 1.37 0
 1 5 12 243.15 3.79 0
 1 5 13 34.64 1.69 0
 1 5 14 25.97 1.66 0
 1 5 15 9.08 1.25 0
 1 5 16 18.23 1.71 0
 1 5 17 -0.23 1.03 0
 1 7 4 8.42 0.8 0
 1 7 5 147.88 2.44 0
 1 7 9 79.54 2.12 0
 1 7 10 -0.57 0.65 0
 1 7 11 101.88 2.56 0
 1 7 12 24.38 1.58 0
 1 7 13 43.94 2.02 0
 1 7 14 36.04 1.96 0
 1 7 16 3.35 1.33 0
 1 7 17 97.84 3.14 0
 1 7 18 3.45 1.44 0
 1 9 4 25.29 1.26 0
 1 9 5 1.33 0.7 0
 1 9 7 6.76 1.01 0
 1 9 8 29.81 1.55 0
 1 9 9 3.64 0.86 0
 1 9 11 15.85 1.46 0
 1 9 12 17.16 1.62 0
 1 9 13 7.28 1.32 0
 1 9 14 10.05 1.59 0
 1 9 15 44.35 2.36 0
 1 9 16 25.27 2.09 0
 1 9 17 70.1 2.91 0
 1 11 3 101.89 2.54 0
 1 11 4 -0.23 0.75 0
 1 11 5 4.48 1 0
 1 11 7 29.86 1.76 0
 1 11 9 23.66 1.77 0
 1 11 10 45.47 2.18 0
 1 11 12 3.18 1.27 0
 1 11 13 32.13 2.24 0
 1 11 14 42.57 2.47 0
 1 11 15 60.76 2.77 0
 1 13 2 24.31 1.73 0
 1 13 3 4.32 1.31 0
 1 13 4 1.13 0.96 0
 1 13 5 13.91 1.68 0
 1 13 6 6.02 1.27 0
 1 13 7 58.59 2.54 0
 1 13 9 7.44 1.64 0
 1 13 10 2.05 1.24 0
 1 13 11 36.98 2.36 0
 1 13 12 0.82 1.3 0
 1 15 1 8.62 1.66 0
 1 15 2 79.86 2.97 0
 1 15 4 8.98 1.75 0
 1 15 5 26.7 2.16 0
 1 15 6 58.43 2.75 0
 1 15 8 3.52 1.51 0
 2 0 2 24.72 0.53 0
 2 0 4 4872.9 8.39 0
 2 0 10 134.99 2.34 0
 2 0 12 293.75 3.8 0
 2 2 1 575.15 2.26 0
 2 2 2 478.47 2.3 0
 2 2 3 0.73 0.26 0
 2 2 4 393.07 2.6 0
 2 2 9 10.2 0.81 0
 2 2 13 0.31 0.64 0
 2 2 14 59.39 2.08 0
 2 2 15 5.79 1.13 0
 2 2 17 36.16 2.04 0
 2 2 18 1.27 1.21 0
 2 4 2 0.33 0.26 0
 2 4 3 30.38 0.84 0
 2 4 8 737.53 5.13 0
 2 4 9 311.58 3.62 0
 2 4 11 0.88 0.67 0
 2 4 12 190 3.4 0
 2 4 15 44.8 2.08 0
 2 4 16 0.52 1.2 0
 2 4 17 8.29 1.54 0
 2 4 18 14.14 1.77 0
 2 4 19 12.55 1.77 0
 2 4 20 -0.45 1.36 0
 2 6 3 39.93 1.15 0
 2 6 4 52.27 1.34 0
 2 6 5 15.11 0.85 0
 2 6 6 88.77 1.86 0
 2 6 7 71.64 1.75 0
 2 6 10 10.66 1.05 0
 2 6 11 6.09 0.89 0
 2 6 12 27.56 1.58 0
 2 6 13 40.1 1.93 0
 2 6 14 22.8 1.64 0
 2 6 15 70.83 2.58 0
 2 6 16 17.11 1.8 0
 2 6 17 -0.09 1.11 0
 2 6 18 2.48 1.34 0
 2 6 19 29.7 2.28 0
 2 8 8 1.27 0.69 0
 2 8 9 35.09 1.65 0
 2 8 10 3.01 0.98 0
 2 8 11 16.26 1.44 0
 2 8 12 6.59 1.1 0
 2 8 14 2.16 1.21 0
 2 8 15 40.7 2.27 0
 2 8 16 16.32 1.9 0
 2 8 17 19.54 2.02 0
 2 8 18 0.4 1.32 0
 2 10 3 186.12 3.24 0
 2 10 4 38.32 1.63 0
 2 10 5 20.75 1.34 0
 2 10 6 2.72 0.85 0
 2 10 7 3.86 0.97 0
 2 10 8 44.51 1.97 0
 2 10 9 3.01 0.93 0
 2 10 10 4.77 1.07 0
 2 10 11 14.69 1.62 0
 2 10 12 25.44 1.97 0
 2 10 13 1.55 1.12 0
 2 10 14 5.64 1.57 0
 2 10 15 9.32 1.58 0
 2 10 16 1.89 1.54 0
 2 12 2 -0.72 0.91 0
 2 12 3 1.15 0.81 0
 2 12 4 1.03 1.01 0
 2 12 5 0.96 0.93 0
 2 12 6 -0.36 0.82 0
 2 12 7 34.26 2.03 0
 2 12 8 12.28 1.51 0
 2 12 9 43.63 2.24 0
 2 12 10 12.93 1.75 0
 2 12 11 0.43 1.11 0
 2 12 12 6.34 1.67 0
 2 12 14 24.43 2.3 0
 2 14 1 7.82 1.37 0
 2 14 2 54.17 2.43 0
 2 14 3 28.69 2.04 0
 2 14 4 24.14 1.98 0
 2 14 5 -0.72 1.14 0
 2 14 6 41.22 2.34 0
 2 14 7 71.03 2.86 0
 2 14 8 2.87 1.52 0
 2 14 9 55.52 2.75 0
 2 14 10 1.35 1.44 0
 2 16 -1 0.11 1.2 0
 2 16 0 2.73 1.53 0
 2 16 1 0.52 1.25 0
 2 16 2 0.87 1.31 0
 2 16 3 1.85 1.61 0
 2 16 4 5.4 1.68 0
 3 -1 4 801.89 3.67 0
 3 -1 9 2.33 0.59 0
 3 1 0 2972.19 3.72 0
 3 1 1 525.77 1.97 0
 3 1 2 696.96 2.71 0
 3 1 3 535.79 2.71 0
 3 1 4 799.8 3.67 0
 3 1 5 24.21 0.81 0
 3 1 9 1.43 0.46 0
 3 1 13 9.36 1.09 0
 3 1 14 33.53 1.68 0
 3 1 15 3.99 1.17 0
 3 1 16 87.28 2.71 0
 3 3 2 28.82 0.73 0
 3 3 3 1398.77 4.93 0
 3 3 4 359.91 2.73 0
 3 3 6 25.78 0.92 0
 3 3 8 232.59 2.94 0
 3 3 9 84.01 1.89 0
 3 3 11 69.3 1.95 0
 3 3 12 38.54 1.63 0
 3 3 13 1.32 0.93 0
 3 3 14 0.57 0.87 0
 3 3 15 33.76 1.85 0
 3 3 16 48.28 2.21 0
 3 3 17 -0.37 1.15 0
 3 3 18 -0.02 1.38 0
 3 3 19 15.39 1.89 0
 3 5 2 12.91 0.66 0
 3 5 3 43.23 1.08 0
 3 5 4 366.05 3.16 0
 3 5 5 105.73 1.85 0
 3 5 6 18.21 0.92 0
 3 5 7 17.55 0.98 0
 3 5 11 -0.63 0.58 0
 3 5 12 4.48 1 0
 3 5 13 33.57 1.73 0
 3 5 14 0.62 0.86 0
 3 5 15 1.6 1.09 0
 3 5 16 13.65 1.68 0
 3 5 17 26.55 2.04 0
 3 5 18 3.17 1.57 0
 3 5 19 1.72 1.49 0
 3 7 2 196.63 2.58 0
 3 7 3 135.45 2.24 0
 3 7 4 49.66 1.44 0
 3 7 5 53.69 1.57 0
 3 7 8 38.92 1.55 0
 3 7 9 5.6 0.92 0
 3 7 10 5.95 1.04 0
 3 7 11 37.78 1.76 0
 3 7 12 1.27 0.82 0
 3 7 13 0.69 1.08 0
 3 7 14 0.83 1.02 0
 3 7 16 2.15 1.47 0
 3 7 17 30.81 2.2 0
 3 9 4 0.77 0.62 0
 3 9 5 74.44 2.05 0
 3 9 6 3.51 0.8 0
 3 9 8 1.21 0.81 0
 3 9 9 6.97 1.06 0
 3 9 10 -0.17 0.76 0
 3 9 11 23.29 1.72 0
 3 9 12 -0.45 0.93 0
 3 9 14 0.3 1.16 0
 3 9 15 63.72 2.76 0
 3 9 16 6.15 1.45 0
 3 9 17 35.74 2.48 0
 3 11 2 8.25 1.13 0
 3 11 3 47.82 1.9 0
 3 11 4 89.72 2.48 0
 3 11 5 -0.29 0.73 0
 3 11 6 7.77 1.15 0
 3 11 7 98.73 2.81 0
 3 11 8 79.42 2.6 0
 3 11 9 3.3 1.11 0
 3 11 10 4.63 1.4 0
 3 11 11 52.33 2.43 0
 3 11 13 0.59 1.16 0
 3 11 14 2.06 1.5 0
 3 13 1 4.47 1.29 0
 3 13 2 23.09 1.74 0
 3 13 3 26.92 1.85 0
 3 13 4 0.35 1.07 0
 3 13 5 5.44 1.38 0
 3 13 6 15 1.74 0
 3 13 7 6.89 1.5 0
 3 13 8 9.45 1.58 0
 3 13 9 10.4 1.53 0
 3 13 10 2.15 1.54 0
 3 13 11 6.78 1.53 0
 3 13 12 7.94 1.65 0
 3 15 -1 1.04 1.36 0
 3 15 0 38.2 2.23 0
 3 15 1 0.65 1.09 0
 3 15 2 0.78 1.3 0
 3 15 3 9.9 1.73 0
 3 15 4 37.08 2.35 0
 3 15 5 22.49 2.1 0
 3 15 6 0.09 1.48 0
 3 15 7 -0.63 1.52 0
 4 0 2 54.96 0.85 0
 4 0 4 263.18 2.23 0
 4 0 8 93.4 1.85 0
 4 2 -1 1951.5 3.44 0
 4 2 0 224.67 1.37 0
 4 2 1 77.81 0.96 0
 4 2 2 42.76 0.88 0
 4 2 3 682.32 3.35 0
 4 2 4 22.45 0.76 0
 4 2 5 201.72 2.23 0
 4 2 7 9.09 0.71 0
 4 2 8 63.78 1.58 0
 4 2 11 11.63 1.09 0
 4 2 12 12.66 1.14 0
 4 2 13 25.44 1.53 0
 4 2 14 193.92 3.8 0
 4 2 15 0.09 0.88 0
 4 2 16 75.47 2.65 0
 4 2 17 10.04 1.47 0
 4 4 1 85.37 1.24 0
 4 4 2 8.97 0.54 0
 4 4 3 236.54 2.32 0
 4 4 4 0.28 0.36 0
 4 4 5 91.39 1.67 0
 4 4 6 19.17 0.93 0
 4 4 7 0.32 0.51 0
 4 4 8 181.86 2.77 0
 4 4 10 50.8 1.68 0
 4 4 11 -0.09 0.56 0
 4 4 12 222.87 3.81 0
 4 4 13 128 2.97 0
 4 4 14 259.25 4.42 0
 4 4 15 42.86 2.12 0
 4 4 16 11.61 1.61 0
 4 4 17 39.8 2.31 0
 4 4 18 76.24 2.92 0
 4 4 19 28.82 2.24 0
 4 6 1 31.47 0.99 0
 4 6 2 8.09 0.64 0
 4 6 3 243.16 2.72 0
 4 6 4 51.79 1.39 0
 4 6 5 9.76 0.8 0
 4 6 6 75.61 1.8 0
 4 6 9 109.68 2.44 0
 4 6 10 13.1 1.21 0
 4 6 11 32.54 1.63 0
 4 6 12 147.73 3.2 0
 4 6 13 109.46 2.91 0
 4 6 14 16.65 1.6 0
 4 6 15 21.8 1.85 0
 4 6 16 32.95 2.14 0
 4 6 18 3.77 1.44 0
 4 8 2 28.01 1.21 0
 4 8 6 8.6 1 0
 4 8 7 137.2 2.86 0
 4 8 8 51.42 1.86 0
 4 8 9 64.02 2.11 0
 4 8 11 2.94 1.01 0
 4 8 12 13.19 1.53 0
 4 8 13 20.95 1.77 0
 4 8 14 0.82 1.32 0
 4 8 15 47.14 2.47 0
 4 8 16 22.15 2.08 0
 4 8 17 29.65 2.3 0
 4 10 1 4.23 0.76 0
 4 10 2 0.38 0.59 0
 4 10 3 61.44 1.93 0
 4 10 4 -0.16 0.64 0
 4 10 5 0.16 0.74 0
 4 10 7 13.88 1.37 0
 4 10 8 9.67 1.2 0
 4 10 9 26.72 1.79 0
 4 10 10 10.73 1.36 0
 4 10 11 59.11 2.49 0
 4 10 12 22.14 1.93 0
 4 10 13 24.55 2.05 0
 4 10 14 13.81 1.79 0
 4 12 0 109.76 2.71 0
 4 12 1 0.1 0.96 0
 4 12 2 6.26 1.03 0
 4 12 4 49.79 2.09 0
 4 12 5 2.75 1.07 0
 4 12 7 5.2 1.23 0
 4 12 8 4.98 1.44 0
 4 12 10 2.89 1.34 0
 4 12 11 1.81 1.45 0
 4 12 12 0.56 1.25 0
 4 12 13 66.56 2.95 0
 4 14 -1 -0.1 1.09 0
 4 14 1 -0.64 1.04 0
 4 14 2 20.42 1.81 0
 4 14 3 0.67 1.1 0
 4 14 5 14.22 1.76 0
 4 14 6 29.14 2.18 0
 4 14 7 45.76 2.51 0
 4 14 8 22.62 2.1 0
 4 14 9 4.85 1.49 0
 4 16 -3 2.95 1.42 0
 4 16 -2 15.22 1.8 0
 4 16 0 27.94 2.14 0
 4 16 1 0.73 1.33 0
 4 16 2 7.62 1.68 0
 5 -1 6 740.88 4.5 0
 5 -1 7 245.75 2.83 0
 5 1 -1 56.45 0.49 0
 5 1 0 403.76 1.67 0
 5 1 1 705.58 2.65 0
 5 1 2 1009.84 3.62 0
 5 1 3 71.61 1.16 0
 5 1 4 243.67 2.26 0
 5 1 5 235.45 2.4 0
 5 1 6 743.66 4.51 0
 5 1 7 248.3 2.87 0
 5 1 8 0.26 0.43 0
 5 1 11 149.24 2.87 0
 5 1 12 9.34 1.13 0
 5 1 13 0.42 0.9 0
 5 1 14 61.16 2.24 0
 5 1 15 51.78 2.21 0
 5 3 -1 655.68 2.56 0
 5 3 0 95.29 1.1 0
 5 3 1 716.18 3.18 0
 5 3 2 49.98 0.98 0
 5 3 3 18.42 0.69 0
 5 3 4 0.22 0.36 0
 5 3 5 261.59 2.7 0
 5 3 6 3.16 0.59 0
 5 3 7 381.02 3.65 0
 5 3 8 145.35 2.5 0
 5 3 11 238.08 3.66 0
 5 3 12 53.74 1.95 0
 5 3 13 57.56 2.14 0
 5 3 14 50.67 2.13 0
 5 3 15 66.23 2.47 0
 5 3 16 5.83 1.39 0
 5 3 17 37.22 2.22 0
 5 3 18 7.6 1.69 0
 5 5 0 113.17 1.56 0
 5 5 2 6.59 0.56 0
 5 5 3 0.27 0.33 0
 5 5 4 0.38 0.38 0
 5 5 6 83.85 1.82 0
 5 5 9 35.75 1.49 0
 5 5 10 0.44 0.74 0
 5 5 11 15.67 1.33 0
 5 5 12 121.91 2.9 0
 5 5 13 62.48 2.33 0
 5 5 14 11.76 1.57 0
 5 5 15 -0.77 1.06 0
 5 5 17 26.41 2.14 0
 5 5 18 1.26 1.27 0
 5 7 1 55.48 1.4 0
 5 7 2 106.79 2.01 0
 5 7 3 29.73 1.15 0
 5 7 8 29.79 1.48 0
 5 7 9 22.71 1.4 0
 5 7 10 26.14 1.63 0
 5 7 11 0.83 0.91 0
 5 7 12 20.95 1.64 0
 5 7 13 17.85 1.66 0
 5 7 14 2.21 1.22 0
 5 7 15 2.24 1.38 0
 5 7 16 4.44 1.6 0
 5 7 17 14.38 1.94 0
 5 9 3 0.57 0.7 0
 5 9 4 18.36 1.23 0
 5 9 5 91.35 2.29 0
 5 9 6 3.16 0.88 0
 5 9 7 29.7 1.61 0
 5 9 8 12.07 1.31 0
 5 9 9 6.8 1.13 0
 5 9 11 1.03 0.96 0
 5 9 12 20.76 1.83 0
 5 9 13 9.99 1.67 0
 5 9 14 1.21 1.27 0
 5 9 15 -0.44 1.15 0
 5 9 16 7.84 1.66 0
 5 11 1 19.09 1.35 0
 5 11 2 3 0.88 0
 5 11 3 1.46 0.83 0
 5 11 4 5.21 1.09 0
 5 11 5 13.19 1.36 0
 5 11 6 23.4 1.66 0
 5 11 7 37.93 1.99 0
 5 11 10 9.67 1.46 0
 5 11 11 8.49 1.47 0
 5 11 12 72.92 2.89 0
 5 11 13 9.28 1.78 0
 5 11 14 1.84 1.4 0
 5 13 -1 23.29 1.69 0
 5 13 0 71.27 2.45 0
 5 13 1 12.87 1.55 0
 5 13 3 5.21 1.29 0
 5 13 4 22.11 1.8 0
 5 13 5 8.59 1.34 0
 5 13 6 125 3.38 0
 5 13 7 75.15 2.8 0
 5 13 8 1.64 1.36 0
 5 13 9 19.29 2.03 0
 5 13 10 49.59 2.57 0
 5 15 -4 10.77 1.57 0
 5 15 -3 15.28 1.72 0
 5 15 -2 14.22 1.77 0
 5 15 -1 25.56 1.96 0
 5 15 0 0.76 1.23 0
 5 15 1 3.89 1.41 0
 5 15 2 46.3 2.41 0
 5 15 3 0.39 1.33 0
 5 15 4 5.15 1.64 0
 5 15 5 3.5 1.47 0
 6 0 2 34.51 0.76 0
 6 0 4 415.72 2.99 0
 6 0 6 7.55 0.69 0
 6 0 8 473.99 4.24 0
 6 0 12 314.05 4.31 0
 6 2 -2 481.09 1.33 0
 6 2 -1 102.62 0.86 0
 6 2 0 70.24 0.89 0
 6 2 1 121.76 1.29 0
 6 2 2 151.6 1.58 0
 6 2 3 506.48 3.14 0
 6 2 4 41.9 1.04 0
 6 2 5 0.22 0.35 0
 6 2 6 70.23 1.54 0
 6 2 7 299.6 3.3 0
 6 2 8 91.31 1.96 0
 6 2 10 11.8 1.08 0
 6 2 11 73.93 2.15 0
 6 2 12 103.81 2.6 0
 6 2 13 3.18 0.99 0
 6 2 14 42.47 2 0
 6 2 16 3.3 1.34 0
 6 4 -2 672.81 2.9 0
 6 4 -1 122.39 1.36 0
 6 4 0 123.49 1.47 0
 6 4 1 0.69 0.3 0
 6 4 2 31.06 0.9 0
 6 4 3 26 0.89 0
 6 4 4 0.3 0.43 0
 6 4 5 19.39 0.92 0
 6 4 6 14.08 0.9 0
 6 4 7 22.39 1.13 0
 6 4 9 33.96 1.45 0
 6 4 10 6.95 0.88 0
 6 4 11 5.38 1.05 0
 6 4 12 25.61 1.6 0
 6 4 14 29.75 1.91 0
 6 4 15 13.62 1.63 0
 6 4 17 5.28 1.56 0
 6 4 18 21.26 2.09 0
 6 6 -1 387.38 3 0
 6 6 0 91.26 1.6 0
 6 6 1 35.76 1.08 0
 6 6 2 152.1 2.2 0
 6 6 3 276.28 3 0
 6 6 4 7.58 0.75 0
 6 6 5 45.23 1.44 0
 6 6 8 17.11 1.2 0
 6 6 9 90.64 2.34 0
 6 6 11 114.68 2.82 0
 6 6 12 3.2 0.99 0
 6 6 13 113.04 3.06 0
 6 6 14 10.03 1.53 0
 6 6 15 1.44 1.38 0
 6 6 16 3.72 1.5 0
 6 6 17 11.74 1.82 0
 6 8 0 0.23 0.45 0
 6 8 1 35.89 1.29 0
 6 8 5 63.4 1.86 0
 6 8 6 3.35 0.82 0
 6 8 8 64.8 2.13 0
 6 8 9 141.52 3.1 0
 6 8 10 9.48 1.24 0
 6 8 11 110.18 2.98 0
 6 8 12 18.06 1.72 0
 6 8 13 172.61 3.87 0
 6 8 14 4.82 1.47 0
 6 8 15 0.86 1.45 0
 6 8 16 18.51 2.1 0
 6 10 0 0.34 0.72 0
 6 10 1 26.56 1.38 0
 6 10 2 1.93 0.8 0
 6 10 3 2.81 0.86 0
 6 10 5 26.17 1.56 0
 6 10 6 4.29 0.96 0
 6 10 7 6.45 1.15 0
 6 10 8 3.52 1.18 0
 6 10 9 1.5 0.99 0
 6 10 10 8.79 1.32 0
 6 10 11 1.82 1.23 0
 6 10 12 4.5 1.54 0
 6 10 14 2.19 1.41 0
 6 12 -2 3.49 1.07 0
 6 12 -1 12.62 1.34 0
 6 12 0 0.38 0.99 0
 6 12 1 0.36 0.95 0
 6 12 2 0.29 0.91 0
 6 12 4 7.66 1.22 0
 6 12 5 6.79 1.3 0
 6 12 6 2.92 1.31 0
 6 12 7 1.62 1.22 0
 6 12 9 2.44 1.16 0
 6 12 10 -0.18 1.11 0
 6 12 11 0.28 1.25 0
 6 12 12 27.68 2.29 0
 6 14 -4 3.96 1.16 0
 6 14 -3 -0.17 1.1 0
 6 14 -2 -0.37 0.98 0
 6 14 -1 24.13 1.8 0
 6 14 0 38.23 2.09 0
 6 14 1 25.11 1.85 0
 6 14 2 1.75 1.23 0
 6 14 3 2.97 1.22 0
 6 14 5 0.77 1.19 0
 6 14 6 0.68 1.27 0
 6 14 7 1.25 1.37 0
 6 14 8 37.76 2.38 0
 7 1 0 134.8 1.1 0
 7 1 1 26.22 0.62 0
 7 1 2 463.3 2.72 0
 7 1 4 30.86 0.95 0
 7 1 5 72.07 1.48 0
 7 1 6 679.64 4.59 0
 7 1 7 1.05 0.58 0
 7 1 10 118.04 2.51 0
 7 1 11 27.45 1.49 0
 7 1 12 40.16 1.79 0
 7 1 13 -0.15 0.78 0
 7 3 -3 11.3 0.3 0
 7 3 -1 711.61 2.66 0
 7 3 0 251.09 1.82 0
 7 3 1 143.09 1.58 0
 7 3 3 479.11 3.31 0
 7 3 4 219.94 2.48 0
 7 3 5 338.05 3.25 0
 7 3 6 27.59 1.11 0
 7 3 9 94.85 2.23 0
 7 3 10 5.19 0.86 0
 7 3 11 7.22 1.07 0
 7 3 12 1.52 1.02 0
 7 3 13 1.67 0.96 0
 7 3 14 82.82 2.7 0
 7 3 15 9.84 1.57 0
 7 3 16 27.06 2.03 0
 7 3 17 0.64 1.15 0
 7 5 -3 1.5 0.32 0
 7 5 -2 231.12 1.99 0
 7 5 -1 122.27 1.59 0
 7 5 1 29.26 0.9 0
 7 5 2 175.43 2.21 0
 7 5 3 77.52 1.64 0
 7 5 4 120.81 2.07 0
 7 5 5 107.67 2.09 0
 7 5 9 8.34 1.03 0
 7 5 10 1.79 0.76 0
 7 5 13 3.03 1.04 0
 7 5 14 26.2 1.96 0
 7 5 16 7.23 1.45 0
 7 5 17 -0.12 1.45 0
 7 7 -2 55.13 1.29 0
 7 7 -1 22.42 0.93 0
 7 7 0 30.5 1.07 0
 7 7 1 0.35 0.49 0
 7 7 2 20.21 1.01 0
 7 7 3 81.33 1.81 0
 7 7 6 24.17 1.3 0
 7 7 7 256.56 3.78 0
 7 7 8 11.32 1.21 0
 7 7 9 15.57 1.37 0
 7 7 10 25.95 1.66 0
 7 7 12 0.12 0.95 0
 7 7 13 16.73 1.75 0
 7 7 14 7.96 1.6 0
 7 7 15 5.87 1.57 0
 7 7 16 1.58 1.42 0
 7 9 2 6.49 0.91 0
 7 9 3 5.22 0.83 0
 7 9 4 11.04 1.13 0
 7 9 5 146.37 3.05 0
 7 9 6 22.25 1.49 0
 7 9 7 106.11 2.68 0
 7 9 8 4.12 0.99 0
 7 9 9 0.39 0.87 0
 7 9 10 11.04 1.4 0
 7 9 12 7.37 1.39 0
 7 9 13 3.42 1.3 0
 7 9 14 4.98 1.45 0
 7 11 -3 55.35 1.82 0
 7 11 -2 16.77 1.26 0
 7 11 -1 90.75 2.28 0
 7 11 1 110.56 2.59 0
 7 11 2 3.82 0.92 0
 7 11 3 46.01 1.9 0
 7 11 4 137.78 3.05 0
 7 11 5 131.96 3.07 0
 7 11 6 2.03 1 0
 7 11 7 6.35 1.17 0
 7 11 8 58.83 2.42 0
 7 11 9 2.45 1.15 0
 7 11 10 8.85 1.49 0
 7 11 11 0.69 1.2 0
 7 11 12 3.09 1.39 0
 7 11 13 12.38 1.85 0
 7 13 -5 4.85 1.12 0
 7 13 -4 12.44 1.43 0
 7 13 -3 28.57 1.7 0
 7 13 -2 2.03 1.04 0
 7 13 -1 18.2 1.54 0
 7 13 0 36.3 1.92 0
 7 13 1 2.31 1.07 0
 7 13 2 8.16 1.39 0
 7 13 5 7.06 1.39 0
 7 13 6 44.81 2.29 0
 7 13 7 5.3 1.3 0
 7 13 8 6.26 1.41 0
 7 13 9 2.87 1.28 0
 7 13 10 38.49 2.48 0
 7 15 -3 36.22 2.08 0
 7 15 -2 0.03 1.04 0
 7 15 -1 6.05 1.37 0
 7 15 0 6.45 1.42 0
 7 15 2 11.87 1.7 0
 7 15 4 5.22 1.56 0
 8 2 0 7.48 0.38 0
 8 2 1 1.94 0.32 0
 8 2 3 1.06 0.36 0
 8 2 4 2.88 0.51 0
 8 2 5 19.09 0.93 0
 8 2 9 1.13 0.63 0
 8 2 12 14.35 1.38 0
 8 2 13 20.75 1.63 0
 8 2 14 15.54 1.63 0
 8 2 15 100.6 3.04 0
 8 4 -5 119.15 0.88 0
 8 4 -4 9.75 0.33 0
 8 4 -3 246.42 1.49 0
 8 4 -2 1139.03 3.48 0
 8 4 -1 637.5 2.93 0
 8 4 0 188.32 1.82 0
 8 4 1 9.63 0.58 0
 8 4 2 363.05 2.93 0
 8 4 3 263.41 2.7 0
 8 4 4 127.66 2.05 0
 8 4 6 39.36 1.38 0
 8 4 8 1.56 0.7 0
 8 4 9 4.04 0.91 0
 8 4 10 50.75 1.9 0
 8 4 11 -0.06 0.73 0
 8 4 12 0.94 1.01 0
 8 4 13 17.02 1.64 0
 8 4 14 10.88 1.41 0
 8 4 15 2.95 1.27 0
 8 4 16 2.53 1.45 0
 8 6 -4 23.8 0.76 0
 8 6 -3 241.81 2.2 0
 8 6 -2 220.86 2.19 0
 8 6 -1 109.76 1.7 0
 8 6 0 54.7 1.24 0
 8 6 1 3.29 0.54 0
 8 6 2 8.08 0.72 0
 8 6 3 65.52 1.56 0
 8 6 7 15.97 1.18 0
 8 6 9 3.59 0.89 0
 8 6 10 13.56 1.39 0
 8 6 11 34.27 1.88 0
 8 6 12 16.51 1.63 0
 8 6 13 15.84 1.72 0
 8 6 14 17.13 1.82 0
 8 6 15 12.64 1.63 0
 8 8 -4 0.1 0.48 0
 8 8 -3 54.39 1.36 0
 8 8 -2 0.79 0.53 0
 8 8 -1 5.08 0.7 0
 8 8 0 13.47 0.92 0
 8 8 5 9.1 1.08 0
 8 8 6 24.96 1.42 0
 8 8 7 6.71 1.07 0
 8 8 9 0.11 0.81 0
 8 8 10 1.35 0.95 0
 8 8 11 15.15 1.63 0
 8 8 12 0.83 1.29 0
 8 8 13 16.49 1.87 0
 8 8 14 0.07 1.24 0
 8 8 15 9.34 1.55 0
 8 10 -4 2.4 0.75 0
 8 10 -3 21.65 1.23 0
 8 10 -2 72.71 1.9 0
 8 10 -1 26.93 1.33 0
 8 10 0 8.5 1 0
 8 10 1 0.6 0.77 0
 8 10 2 49.73 1.79 0
 8 10 3 1.53 0.76 0
 8 10 4 10.17 1.27 0
 8 10 5 3.02 0.94 0
 8 10 6 3.44 1 0
 8 10 7 1.2 0.94 0
 8 10 8 0.83 0.99 0
 8 10 9 48.86 2.25 0
 8 10 10 2.24 1.09 0
 8 10 11 14.63 1.79 0
 8 10 13 10.92 1.78 0
 8 12 -4 0.07 0.81 0
 8 12 -3 58.42 1.97 0
 8 12 -2 55.55 1.98 0
 8 12 -1 59.04 2.03 0
 8 12 0 22.41 1.49 0
 8 12 1 1.24 0.89 0
 8 12 2 19.06 1.57 0
 8 12 3 6.83 1.24 0
 8 12 4 28.91 1.81 0
 8 12 5 -0.91 1.12 0
 8 12 6 0.53 1.08 0
 8 12 7 7.01 1.38 0
 8 12 8 0.65 1.06 0
 8 12 11 -0.84 1.35 0
 8 14 -2 1.4 1.05 0
 8 14 -1 58.5 2.25 0
 8 14 0 0.72 1.06 0
 8 14 1 1.08 1.09 0
 8 14 2 1.91 1.19 0
 8 14 3 13.86 1.68 0
 8 14 4 3.6 1.27 0
 8 14 5 8.14 1.55 0
 8 14 6 15.88 1.85 0
 9 1 3 39.32 1.01 0
 9 1 4 81.23 1.63 0
 9 1 5 -0.21 0.41 0
 9 1 6 52.65 1.47 0
 9 1 9 0.88 0.76 0
 9 1 10 32.43 1.57 0
 9 3 -1 0.57 0.21 0
 9 3 0 0.02 0.25 0
 9 3 1 17.53 0.66 0
 9 3 2 0.2 0.36 0
 9 3 4 37.53 1.16 0
 9 3 5 27.13 1.11 0
 9 3 6 20.52 1.12 0
 9 3 8 4.43 0.77 0
 9 3 9 28.68 1.48 0
 9 3 10 3.21 0.85 0
 9 3 11 57.28 2.1 0
 9 3 12 2.43 1 0
 9 3 13 13.17 1.56 0
 9 3 14 44.02 2.25 0
 9 3 15 51.92 2.46 0
 9 5 -3 2.2 0.31 0
 9 5 -2 12.02 0.53 0
 9 5 -1 14.63 0.63 0
 9 5 0 47.6 1.05 0
 9 5 1 2.91 0.48 0
 9 5 2 57.67 1.32 0
 9 5 4 1.65 0.51 0
 9 5 7 1.75 0.74 0
 9 5 8 10.58 1.14 0
 9 5 10 51.09 2 0
 9 5 11 0.41 1 0
 9 5 12 3.25 1.05 0
 9 5 13 8.58 1.4 0
 9 5 14 98.06 3.08 0
 9 5 15 38.42 2.31 0
 9 7 -4 -0.45 0.37 0
 9 7 -3 88.63 1.53 0
 9 7 -2 1.09 0.42 0
 9 7 0 4.91 0.62 0
 9 7 1 78.26 1.66 0
 9 7 5 18.94 1.2 0
 9 7 6 7.59 0.94 0
 9 7 7 22.22 1.39 0
 9 7 8 12.94 1.28 0
 9 7 9 72.29 2.35 0
 9 7 10 0.66 1.12 0
 9 7 11 28.82 1.89 0
 9 7 12 3.64 1.38 0
 9 7 13 143.1 3.57 0
 9 7 14 3.97 1.43 0
 9 7 15 10.51 1.79 0
 9 9 0 0.44 0.57 0
 9 9 2 2.54 0.74 0
 9 9 3 23.19 1.36 0
 9 9 4 2.5 0.8 0
 9 9 5 73.36 2.18 0
 9 9 6 26.52 1.58 0
 9 9 7 22.65 1.59 0
 9 9 8 -0.01 0.9 0
 9 9 9 7.52 1.26 0
 9 9 10 42.82 2.2 0
 9 9 11 49.8 2.36 0
 9 9 12 3.83 1.27 0
 9 9 13 22.55 2.02 0
 9 9 14 16.76 2.04 0
 9 11 -2 17.42 1.24 0
 9 11 -1 5.92 0.97 0
 9 11 0 13.54 1.27 0
 9 11 1 48.73 1.84 0
 9 11 3 23.31 1.57 0
 9 11 4 12.58 1.46 0
 9 11 5 121.48 2.94 0
 9 11 6 -0.13 1.09 0
 9 11 7 0.49 1.03 0
 9 11 8 28.01 2 0
 9 11 9 41.46 2.23 0
 9 11 10 1.96 1.41 0
 9 11 11 3.51 1.36 0
 9 13 0 1.48 0.96 0
 9 13 1 10.63 1.36 0
 9 13 4 -0.39 0.99 0
 9 13 5 0.57 1.18 0
 9 13 6 0.2 1.15 0
 9 13 7 5.53 1.3 0
 9 13 8 -0.47 1.33 0
 10 2 2 12.37 0.64 0
 10 2 4 20.5 0.93 0
 10 2 5 1.89 0.59 0
 10 2 9 6.98 0.98 0
 10 2 10 8.11 1.05 0
 10 2 11 1.95 0.88 0
 10 2 12 60.91 2.3 0
 10 4 -1 14.68 0.5 0
 10 4 0 18.93 0.65 0
 10 4 1 -0.15 0.32 0
 10 4 2 133.11 1.9 0
 10 4 7 11.07 1.04 0
 10 4 8 10.13 1.14 0
 10 4 10 28.24 1.64 0
 10 4 11 4.96 1.14 0
 10 4 12 0.1 0.92 0
 10 4 13 0.22 0.99 0
 10 4 14 38.61 2.16 0
 10 4 15 1.93 1.23 0
 10 6 -1 7.46 0.59 0
 10 6 0 9.77 0.67 0
 10 6 1 33.91 1.09 0
 10 6 2 100.19 1.95 0
 10 6 3 1.7 0.57 0
 10 6 5 1.15 0.61 0
 10 6 6 16.88 1.21 0
 10 6 7 37.74 1.61 0
 10 6 8 0.27 0.89 0
 10 6 10 13.45 1.45 0
 10 6 11 13.62 1.62 0
 10 6 12 2.16 1.13 0
 10 6 13 20.3 1.87 0
 10 6 14 4.71 1.39 0
 10 6 15 3.98 1.39 0
 10 8 -1 1.64 0.57 0
 10 8 2 8.27 0.93 0
 10 8 3 24.47 1.28 0
 10 8 4 2.01 0.75 0
 10 8 6 25.84 1.54 0
 10 8 7 230.96 3.94 0
 10 8 8 0.6 0.87 0
 10 8 11 95.68 2.94 0
 10 8 12 0.07 1.17 0
 10 8 13 52.02 2.51 0
 10 8 14 4.77 1.44 0
 10 10 0 2.48 0.82 0
 10 10 1 73.06 2.02 0
 10 10 3 -1.05 0.69 0
 10 10 4 7.83 1.2 0
 10 10 5 106.81 2.69 0
 10 10 6 18.81 1.56 0
 10 10 7 80.08 2.55 0
 10 10 8 11.94 1.51 0
 10 10 9 0.87 1.08 0
 10 10 10 1.95 1.2 0
 10 10 11 32.81 2.16 0
 10 10 12 1 1.25 0
 10 12 2 -0.27 0.98 0
 10 12 3 19.1 1.6 0
 10 12 4 5.91 1.28 0
 10 12 5 9.31 1.38 0
 10 12 6 0.34 1.1 0
 10 12 7 2.85 1.23 0
 10 12 8 4.45 1.36 0
 10 12 9 5.08 1.34 0
 11 3 2 7.41 0.59 0
 11 3 3 75.2 1.47 0
 11 3 4 122.83 2.09 0
 11 3 7 25.8 1.35 0
 11 3 8 36.23 1.59 0
 11 3 9 0.98 0.76 0
 11 3 10 0.23 0.77 0
 11 3 11 0.01 1.03 0
 11 3 12 39.88 2.06 0
 11 5 1 19.06 0.81 0
 11 5 2 35.39 1.09 0
 11 5 6 0.8 0.71 0
 11 5 7 26.74 1.43 0
 11 5 8 10.63 1.19 0
 11 5 9 51.22 2.02 0
 11 5 10 3 1.12 0
 11 5 11 7.89 1.36 0
 11 5 12 5.34 1.35 0
 11 5 13 62.27 2.53 0
 11 5 14 50.93 2.47 0
 11 5 15 6.07 1.64 0
 11 7 4 -0.32 0.6 0
 11 7 5 71.81 2 0
 11 7 6 1.29 0.81 0
 11 7 7 41.24 1.79 0
 11 7 8 0.14 0.9 0
 11 7 11 3.73 1.14 0
 11 7 12 0.04 1.12 0
 11 7 13 74.91 2.78 0
 11 7 14 8.75 1.63 0
 11 9 2 6.89 0.96 0
 11 9 3 23.67 1.36 0
 11 9 4 2.7 0.92 0
 11 9 5 12.97 1.32 0
 11 9 7 24.66 1.7 0
 11 9 8 1.48 1.1 0
 11 9 9 0.86 1.19 0
 11 9 10 9.96 1.41 0
 11 9 11 1.08 1.19 0
 11 11 4 19.38 1.58 0
 11 11 5 0.28 0.95 0
 11 11 7 -1.89 1.07 0
 11 11 8 19.01 1.79 0
 11 11 9 11.32 1.6 0
 12 4 6 30.29 1.38 0
 12 4 7 70.88 2.01 0
 12 4 8 -0.23 0.82 0
 12 4 9 1.59 0.88 0
 12 4 10 2.3 0.98 0
 12 4 11 18.24 1.61 0
 12 4 12 2.53 1.11 0
 12 6 5 3.87 0.83 0
 12 6 6 -0.17 0.78 0
 12 6 7 24 1.49 0
 12 6 8 -0.33 0.87 0
 12 6 9 3.62 1.01 0
 12 6 11 42.09 2.1 0
 12 6 12 0.29 1.15 0
 12 6 13 39.09 2.23 0
 12 8 5 21.75 1.36 0
 12 8 6 19.08 1.44 0
 12 8 7 27.85 1.69 0
 12 8 8 6.51 1.15 0
 12 8 9 -0.75 0.95 0
 12 8 10 11.07 1.46 0
 12 8 11 92.87 2.92 0
 12 8 12 8.8 1.45 0
 12 10 8 0.11 1.13 0
 12 10 9 43.19 2.14 0
 12 10 10 1.07 1.25 0
 13 5 6 8.36 1.03 0
 13 5 7 11.97 1.23 0
 13 5 8 15.94 1.36 0
 13 5 9 28.49 1.68 0
 13 5 10 27.65 1.78 0
 13 5 11 4.41 1.21 0
 13 5 12 22.08 1.8 0
 13 7 8 6.94 1.18 0
 13 7 9 9.53 1.3 0
 13 7 10 10.74 1.43 0
 13 7 11 17.85 1.76 0
 13 7 12 -0.12 1.04 0
 -19 -3 1 2.81 1.38 0
 -19 -3 2 0.26 1.21 0
 -19 -3 3 1.94 1.52 0
 -19 -1 -2 54.74 2.89 0
 -19 -1 -1 -0.06 1.34 0
 -19 -1 0 6.2 1.66 0
 -19 -1 1 5.27 1.61 0
 -19 -1 3 0.38 1.38 0
 -19 -1 4 39.34 2.6 0
 -19 -1 5 3.67 1.48 0
 -19 1 -2 55.36 2.89 0
 -19 1 1 3.64 1.35 0
 -19 1 2 58.7 2.93 0
 -19 1 3 0.21 1.41 0
 -19 1 4 36.3 2.57 0
 -19 1 5 4.03 1.42 0
 -19 3 0 0.5 1.2 0
 -19 3 1 3.99 1.37 0
 -19 3 2 1.37 1.24 0
 -19 3 3 2.74 1.54 0
 -18 -4 3 -0.92 1.25 0
 -18 -4 4 3.71 1.51 0
 -18 -4 5 6.26 1.41 0
 -18 -4 6 5.66 1.45 0
 -18 -4 7 0.42 1.14 0
 -18 -4 8 -1.68 0.88 0
 -18 -2 -1 8.33 1.6 0
 -18 -2 0 1.01 1.2 0
 -18 -2 1 1.35 1.15 0
 -18 -2 2 1.81 1.37 0
 -18 -2 3 0.23 1.19 0
 -18 -2 4 20.85 2.09 0
 -18 -2 5 2.26 1.43 0
 -18 -2 7 0.94 1.32 0
 -18 -2 8 -0.07 1.17 0
 -18 -2 9 1.93 1.32 0
 -18 0 -6 3.92 1.4 0
 -18 0 -4 7.97 1.59 0
 -18 0 2 13.72 1.82 0
 -18 0 4 6.68 1.47 0
 -18 0 6 19.75 2.07 0
 -18 0 8 11.8 1.75 0
 -18 2 -6 6.57 1.5 0
 -18 2 -5 24.73 2.02 0
 -18 2 -4 6.97 1.43 0
 -18 2 -3 -0.45 1.07 0
 -18 2 -2 5.77 1.4 0
 -18 2 -1 10.17 1.64 0
 -18 2 0 2.58 1.24 0
 -18 2 1 0.73 1.23 0
 -18 2 2 0.25 1.3 0
 -18 2 3 0.62 1.12 0
 -18 2 5 0.97 1.34 0
 -18 2 6 19.6 2.04 0
 -18 2 7 -0.34 1.05 0
 -18 2 8 1.54 1.3 0
 -18 4 -5 35.53 2.25 0
 -18 4 -3 -0.05 1 0
 -18 4 -2 5.69 1.36 0
 -18 4 -1 7.26 1.59 0
 -18 4 1 0 1.09 0
 -18 4 2 -0.4 1.2 0
 -18 4 3 0.45 1.38 0
 -18 4 4 0.67 1.13 0
 -18 4 5 6.07 1.52 0
 -18 4 6 8.74 1.71 0
 -18 4 7 1.82 1.46 0
 -18 6 -1 0.11 1.28 0
 -18 6 0 16.48 1.81 0
 -18 6 2 1.36 1.48 0
 -18 6 3 -0.15 1.34 0
 -17 -7 6 0.19 0.98 0
 -17 -7 7 5.12 1.22 0
 -17 -5 5 -1.75 0.89 0
 -17 -5 6 5.04 1.23 0
 -17 -5 7 27.31 2.02 0
 -17 -5 8 9.03 1.4 0
 -17 -5 9 -0.33 0.88 0
 -17 -3 3 8.54 1.51 0
 -17 -3 4 22.03 2.01 0
 -17 -3 5 1.66 1.26 0
 -17 -3 6 6.15 1.43 0
 -17 -3 7 26.68 2.04 0
 -17 -3 9 7.82 1.45 0
 -17 -3 10 22.93 1.86 0
 -17 -1 -9 5.93 1.33 0
 -17 -1 -1 4.31 1.25 0
 -17 -1 0 6.93 1.38 0
 -17 -1 1 0.62 1.26 0
 -17 -1 2 6.33 1.34 0
 -17 -1 3 1.3 1.08 0
 -17 -1 4 1.81 1.1 0
 -17 -1 5 -0.47 1 0
 -17 -1 7 1.08 1.08 0
 -17 -1 9 1.55 1.16 0
 -17 -1 10 -0.2 1.04 0
 -17 -1 11 0.88 1.09 0
 -17 1 -9 6.09 1.25 0
 -17 1 -8 2.2 1.08 0
 -17 1 -7 4.65 1.2 0
 -17 1 -6 1.87 1.23 0
 -17 1 -5 16.92 1.84 0
 -17 1 -4 -0.34 1.19 0
 -17 1 -3 0.45 1.02 0
 -17 1 -2 2.68 1.39 0
 -17 1 -1 3.43 1.26 0
 -17 1 0 5.24 1.41 0
 -17 1 1 -1.15 1.17 0
 -17 1 2 7.32 1.36 0
 -17 1 3 1.25 1.2 0
 -17 1 4 0.99 1.31 0
 -17 1 5 1.58 1.3 0
 -17 1 6 14.3 1.7 0
 -17 1 7 -1.52 1 0
 -17 1 8 10.08 1.51 0
 -17 1 9 1.58 1.08 0
 -17 1 10 0.52 0.98 0
 -17 1 11 -0.44 0.99 0
 -17 3 -7 24.11 1.88 0
 -17 3 -6 0.8 1.07 0
 -17 3 -4 -0.45 0.95 0
 -17 3 -3 1.29 1.25 0
 -17 3 -2 11.1 1.54 0
 -17 3 -1 -1.1 1.16 0
 -17 3 0 25.68 2.1 0
 -17 3 1 1.15 1.27 0
 -17 3 2 5.5 1.4 0
 -17 3 3 10.07 1.59 0
 -17 3 5 4.37 1.39 0
 -17 3 6 7.52 1.46 0
 -17 3 7 25.72 2.02 0
 -17 3 10 21.37 1.94 0
 -17 5 -6 18.74 1.74 0
 -17 5 -5 -0.06 0.96 0
 -17 5 -4 19.83 1.78 0
 -17 5 -3 4.01 1.19 0
 -17 5 0 0.12 0.99 0
 -17 5 1 1.85 1.09 0
 -17 5 2 1.93 1.16 0
 -17 5 3 24.33 2.11 0
 -17 5 4 1.95 1.19 0
 -17 5 5 1.14 1.25 0
 -17 5 6 6.81 1.49 0
 -17 5 7 26.73 2.1 0
 -17 5 8 8.07 1.57 0
 -17 5 9 0.49 1.22 0
 -17 7 -3 21.29 1.81 0
 -17 7 -2 0.88 1.02 0
 -17 7 -1 0.94 1.01 0
 -17 7 0 -0.57 1.07 0
 -17 7 1 4.45 1.24 0
 -17 7 2 -0.4 1.03 0
 -17 7 3 0.51 1.1 0
 -17 7 4 0.78 1.04 0
 -17 7 5 4.11 1.43 0
 -16 -8 7 8.42 1.41 0
 -16 -6 7 0.39 0.98 0
 -16 -6 8 7.67 1.36 0
 -16 -4 5 31.31 2.1 0
 -16 -4 6 60.37 2.66 0
 -16 -4 7 31.61 2.09 0
 -16 -4 8 3.89 1.12 0
 -16 -4 9 12.95 1.54 0
 -16 -4 10 40.56 2.11 0
 -16 -2 3 0.83 1.26 0
 -16 -2 4 77 2.95 0
 -16 -2 6 23.8 1.88 0
 -16 -2 7 5.42 1.25 0
 -16 -2 8 16.82 1.65 0
 -16 -2 9 0.83 1.04 0
 -16 -2 11 4.19 1.08 0
 -16 0 -10 0.68 1.09 0
 -16 0 -8 19.42 1.81 0
 -16 0 -2 62.34 2.71 0
 -16 0 0 44.01 2.41 0
 -16 0 2 122.83 3.61 0
 -16 0 4 214.8 4.63 0
 -16 0 6 0.51 0.89 0
 -16 0 8 82.73 2.99 0
 -16 0 10 14.52 1.77 0
 -16 0 12 0.58 0.91 0
 -16 2 -8 0.43 0.87 0
 -16 2 -7 0.6 0.91 0
 -16 2 -6 9.82 1.46 0
 -16 2 -4 2.04 1.2 0
 -16 2 -3 -0.16 0.9 0
 -16 2 -2 0.16 1.12 0
 -16 2 -1 0.79 1.04 0
 -16 2 0 2.2 1.12 0
 -16 2 1 1.29 1.16 0
 -16 2 2 7.71 1.3 0
 -16 2 3 0.47 0.98 0
 -16 2 4 77.03 3.01 0
 -16 2 5 5.37 1.29 0
 -16 2 7 6.85 1.43 0
 -16 2 8 15.83 1.75 0
 -16 2 9 2.27 1.06 0
 -16 2 10 51.68 2.45 0
 -16 2 11 2.59 1.12 0
 -16 2 12 4.57 1.1 0
 -16 2 13 -0.76 1.01 0
 -16 4 -7 2.68 1.1 0
 -16 4 -6 12.64 1.51 0
 -16 4 -5 2.63 1.19 0
 -16 4 -3 3.86 1.23 0
 -16 4 -2 10 1.46 0
 -16 4 -1 8.62 1.51 0
 -16 4 0 8.04 1.34 0
 -16 4 1 6.87 1.36 0
 -16 4 2 8.28 1.54 0
 -16 4 3 6.68 1.28 0
 -16 4 4 0.51 1.13 0
 -16 4 5 32.22 2.23 0
 -16 4 6 63.32 2.84 0
 -16 4 7 34.61 2.29 0
 -16 4 8 6.42 1.34 0
 -16 4 9 10.27 1.59 0
 -16 4 10 42.78 2.43 0
 -16 6 -6 -0.39 0.75 0
 -16 6 -5 2.89 1.03 0
 -16 6 -4 -0.23 0.93 0
 -16 6 -2 1.23 1.12 0
 -16 6 -1 2.47 1.05 0
 -16 6 0 1.04 1.22 0
 -16 6 1 -1.14 1.01 0
 -16 6 2 0.86 1.15 0
 -16 6 3 20.91 1.97 0
 -16 6 4 0.04 0.97 0
 -16 6 5 16.51 1.84 0
 -16 6 6 9.9 1.61 0
 -16 6 7 -0.49 1.04 0
 -16 6 8 7.83 1.58 0
 -16 6 9 2.8 1.35 0
 -16 6 10 3.74 1.28 0
 -16 8 -4 1.72 1.01 0
 -16 8 -3 0.95 0.99 0
 -16 8 -2 0.58 0.96 0
 -16 8 -1 24.14 1.89 0
 -16 8 0 1.06 1.16 0
 -16 8 1 0.83 1.09 0
 -16 8 2 -0.7 1.18 0
 -16 8 3 92.07 3.3 0
 -16 8 4 4.75 1.38 0
 -16 8 5 22.85 1.89 0
 -16 8 6 0.55 1.33 0
 -16 8 7 8.55 1.59 0
 -15 -7 8 6.41 1.19 0
 -15 -5 7 18.76 1.74 0
 -15 -5 8 2.83 0.98 0
 -15 -5 9 0.37 0.8 0
 -15 -3 5 3.13 1.02 0
 -15 -3 6 0.29 0.85 0
 -15 -3 7 0.56 0.88 0
 -15 -3 8 14.9 1.57 0
 -15 -3 9 2.18 1.11 0
 -15 -3 10 0.6 1.03 0
 -15 -3 11 7.57 1.2 0
 -15 -1 2 148.29 3.77 0
 -15 -1 3 6.16 1.33 0
 -15 -1 4 55.05 2.39 0
 -15 -1 5 0.03 0.99 0
 -15 -1 7 1.99 0.96 0
 -15 -1 8 3.06 1.12 0
 -15 -1 9 0.55 0.87 0
 -15 -1 10 0.66 1.04 0
 -15 -1 11 -0.76 0.94 0
 -15 -1 12 -0.18 0.77 0
 -15 1 -10 0.42 0.92 0
 -15 1 -9 2.1 1.02 0
 -15 1 -8 0.95 1 0
 -15 1 -7 0.9 0.91 0
 -15 1 -6 7.05 1.34 0
 -15 1 -5 1.87 1.13 0
 -15 1 -4 34.12 2.03 0
 -15 1 -3 -0.77 0.83 0
 -15 1 -1 5.88 1.14 0
 -15 1 0 4.93 1.12 0
 -15 1 1 0.11 0.97 0
 -15 1 3 5.09 1.15 0
 -15 1 4 56.03 2.5 0
 -15 1 5 0.51 1.06 0
 -15 1 6 6.17 1.21 0
 -15 1 7 1.1 0.92 0
 -15 1 8 3.8 1.1 0
 -15 1 9 -0.23 0.83 0
 -15 1 10 -0.26 0.93 0
 -15 1 11 0.68 0.88 0
 -15 1 12 0.26 0.89 0
 -15 1 13 -1.25 0.71 0
 -15 3 -8 2.65 0.93 0
 -15 3 -7 14 1.49 0
 -15 3 -6 9.73 1.37 0
 -15 3 -5 21.93 1.78 0
 -15 3 -4 37.83 2.12 0
 -15 3 -3 4.45 1.11 0
 -15 3 -2 12.94 1.59 0
 -15 3 -1 19.47 1.7 0
 -15 3 0 0.67 0.93 0
 -15 3 1 1.45 1.07 0
 -15 3 2 19.31 1.62 0
 -15 3 3 5.26 1.32 0
 -15 3 4 34.83 2.14 0
 -15 3 5 4.9 1.36 0
 -15 3 6 1.01 1 0
 -15 3 7 0.18 0.94 0
 -15 3 8 17.77 1.68 0
 -15 3 9 1.84 1.12 0
 -15 3 10 1.55 1.05 0
 -15 3 11 6.78 1.25 0
 -15 3 12 31.4 2.06 0
 -15 3 14 0.1 0.84 0
 -15 5 -7 -0.56 0.72 0
 -15 5 -6 8.59 1.22 0
 -15 5 -5 12.86 1.52 0
 -15 5 -3 17 1.63 0
 -15 5 -2 0.84 1.1 0
 -15 5 -1 1.82 0.95 0
 -15 5 0 19.99 1.72 0
 -15 5 1 10.05 1.41 0
 -15 5 2 1.58 0.96 0
 -15 5 3 25.45 1.98 0
 -15 5 4 2.26 1.04 0
 -15 5 5 -0.16 0.9 0
 -15 5 8 3.39 1.19 0
 -15 5 9 0.33 1.03 0
 -15 5 10 16.76 1.84 0
 -15 5 11 25.27 2.01 0
 -15 5 12 3.32 1.26 0
 -15 5 13 2.42 1.18 0
 -15 7 -5 0.05 0.78 0
 -15 7 -4 0.54 0.99 0
 -15 7 -2 2.74 1.03 0
 -15 7 -1 55.94 2.5 0
 -15 7 0 0.69 1 0
 -15 7 2 0.84 1.17 0
 -15 7 3 95.21 3.23 0
 -15 7 4 0.74 1.03 0
 -15 7 6 2.54 1.11 0
 -15 7 7 19.97 1.8 0
 -15 7 9 18.2 1.86 0
 -15 7 10 1.52 1.32 0
 -15 7 11 3.22 1.21 0
 -15 9 -4 8.09 1.2 0
 -15 9 -3 43.1 2.13 0
 -15 9 -2 0.36 0.93 0
 -15 9 0 13.93 1.57 0
 -15 9 1 5.11 1.31 0
 -15 9 2 0.34 1 0
 -15 9 3 56.17 2.6 0
 -15 9 5 8.31 1.44 0
 -15 9 6 4 1.46 0
 -15 9 7 2.34 1.17 0
 -14 -6 8 7.05 1.12 0
 -14 -6 9 24.9 1.68 0
 -14 -4 7 6.25 1.21 0
 -14 -4 8 1.87 0.99 0
 -14 -4 9 10.11 1.33 0
 -14 -2 5 26.64 1.74 0
 -14 -2 6 -0.09 0.76 0
 -14 -2 7 3.15 1.07 0
 -14 -2 8 22.01 1.59 0
 -14 -2 9 21.14 1.58 0
 -14 -2 10 20.11 1.54 0
 -14 -2 11 6.2 1.16 0
 -14 -2 12 1.57 0.84 0
 -14 0 2 19.65 1.59 0
 -14 0 4 185.84 3.94 0
 -14 0 6 8.71 1.25 0
 -14 0 8 253.61 4.72 0
 -14 0 10 1.51 0.88 0
 -14 0 12 53.14 2.18 0
 -14 2 -9 42.33 1.97 0
 -14 2 -8 0.96 0.89 0
 -14 2 -7 37.73 1.97 0
 -14 2 -6 1.69 0.91 0
 -14 2 -5 113.38 3.08 0
 -14 2 -4 4.04 1.14 0
 -14 2 -2 -0.22 0.84 0
 -14 2 -1 134.14 3.37 0
 -14 2 0 -0.71 0.66 0
 -14 2 1 1.58 0.96 0
 -14 2 2 12.87 1.34 0
 -14 2 4 21.07 1.63 0
 -14 2 5 26.2 1.82 0
 -14 2 6 0.57 0.8 0
 -14 2 7 2.95 1 0
 -14 2 8 26.13 1.84 0
 -14 2 9 23.18 1.7 0
 -14 2 10 22.85 1.76 0
 -14 2 12 2.43 1.09 0
 -14 2 13 0.34 0.98 0
 -14 2 14 0.21 0.81 0
 -14 4 -8 1.35 0.93 0
 -14 4 -7 65.17 2.34 0
 -14 4 -6 32.35 1.83 0
 -14 4 -4 -0.26 0.83 0
 -14 4 -3 27.86 1.8 0
 -14 4 -2 6.8 1.12 0
 -14 4 -1 27.73 1.77 0
 -14 4 0 3.33 0.96 0
 -14 4 1 4.09 1 0
 -14 4 2 9.07 1.37 0
 -14 4 3 13.31 1.47 0
 -14 4 4 -0.03 0.77 0
 -14 4 5 9.67 1.29 0
 -14 4 6 10.05 1.42 0
 -14 4 7 5.33 1.18 0
 -14 4 8 3.04 1.12 0
 -14 4 9 7.79 1.27 0
 -14 4 12 79.78 2.82 0
 -14 4 13 2.9 0.99 0
 -14 4 14 2.1 0.92 0
 -14 6 -7 1.45 0.81 0
 -14 6 -6 36.19 1.84 0
 -14 6 -5 3.11 0.98 0
 -14 6 -4 28.04 1.77 0
 -14 6 -3 16.9 1.54 0
 -14 6 -2 16.68 1.46 0
 -14 6 -1 0.36 0.99 0
 -14 6 0 21.69 1.7 0
 -14 6 2 9.46 1.35 0
 -14 6 3 12.9 1.57 0
 -14 6 4 38.21 2.11 0
 -14 6 5 31.84 2.03 0
 -14 6 6 6.65 1.31 0
 -14 6 7 1.35 0.95 0
 -14 6 8 9.9 1.46 0
 -14 6 9 24.09 1.97 0
 -14 6 11 5.69 1.25 0
 -14 6 12 13.53 1.62 0
 -14 6 13 1.59 1.01 0
 -14 8 -5 2.53 1 0
 -14 8 -4 -0.31 0.79 0
 -14 8 -3 40.42 2.06 0
 -14 8 -2 -0.88 0.77 0
 -14 8 0 0.19 1.05 0
 -14 8 1 10.19 1.43 0
 -14 8 2 2.2 1.04 0
 -14 8 3 30.33 1.97 0
 -14 8 4 6.2 1.33 0
 -14 8 5 29.59 2.1 0
 -14 8 6 -0.02 1.03 0
 -14 8 7 31.02 2.01 0
 -14 8 8 5.83 1.27 0
 -14 8 9 37.71 2.21 0
 -14 8 10 4.73 1.34 0
 -14 8 11 2.8 1.21 0
 -14 10 -3 1.42 0.86 0
 -14 10 -2 30.31 1.9 0
 -14 10 -1 0.84 0.92 0
 -14 10 0 7.37 1.25 0
 -14 10 2 1.44 1 0
 -14 10 3 8.95 1.56 0
 -14 10 4 0.36 1.26 0
 -14 10 5 -0.25 1.22 0
 -14 10 6 2.86 1.14 0
 -14 10 7 4.78 1.4 0
 -13 -5 9 -0.37 0.71 0
 -13 -5 10 4.45 0.89 0
 -13 -3 6 1.93 0.81 0
 -13 -3 7 50.13 2.08 0
 -13 -3 8 3.6 0.95 0
 -13 -3 10 13.66 1.34 0
 -13 -3 11 66.9 2.23 0
 -13 -1 4 67.22 2.36 0
 -13 -1 5 6.01 0.98 0
 -13 -1 6 44.08 2.01 0
 -13 -1 7 3.74 1.01 0
 -13 -1 8 43.43 1.97 0
 -13 -1 9 1.84 0.81 0
 -13 -1 10 3.65 0.98 0
 -13 -1 12 2.06 0.91 0
 -13 1 -1 12.12 1.16 0
 -13 1 0 14.87 1.39 0
 -13 1 1 2.5 0.78 0
 -13 1 2 212.29 4.09 0
 -13 1 3 1.27 0.77 0
 -13 1 5 7.86 1.18 0
 -13 1 6 44.22 2.01 0
 -13 1 7 3.14 0.96 0
 -13 1 8 44.99 2.09 0
 -13 1 9 2.82 0.91 0
 -13 1 10 3.06 0.9 0
 -13 1 11 7.66 1.14 0
 -13 1 12 1.07 0.81 0
 -13 1 13 0.12 0.89 0
 -13 3 -9 1.57 0.8 0
 -13 3 -8 60.41 2.17 0
 -13 3 -7 24.88 1.58 0
 -13 3 -6 17.11 1.4 0
 -13 3 -4 232.77 4.22 0
 -13 3 -3 17.78 1.46 0
 -13 3 -1 0.32 0.8 0
 -13 3 1 -0.39 0.63 0
 -13 3 2 48.03 2.05 0
 -13 3 3 1.49 0.79 0
 -13 3 4 0.9 0.72 0
 -13 3 5 28.25 1.74 0
 -13 3 6 1.95 0.86 0
 -13 3 7 48.05 2.21 0
 -13 3 8 2.29 1 0
 -13 3 10 11.91 1.44 0
 -13 3 11 66.19 2.47 0
 -13 3 12 12.63 1.38 0
 -13 3 13 0.91 0.87 0
 -13 3 14 -0.45 0.71 0
 -13 5 -8 14.45 1.28 0
 -13 5 -7 10.49 1.2 0
 -13 5 -6 10.69 1.19 0
 -13 5 -5 54.97 2.14 0
 -13 5 -4 49.19 2.06 0
 -13 5 -3 61.54 2.3 0
 -13 5 0 25.49 1.74 0
 -13 5 4 0.16 0.84 0
 -13 5 5 -1.14 0.74 0
 -13 5 7 1.92 0.93 0
 -13 5 9 -0.22 0.8 0
 -13 5 10 5.4 1.12 0
 -13 5 11 7.71 1.22 0
 -13 5 12 32.7 1.97 0
 -13 5 13 5.35 1.3 0
 -13 5 14 9.48 1.36 0
 -13 5 15 -1.36 0.72 0
 -13 7 -6 0.53 0.71 0
 -13 7 -5 33.31 1.73 0
 -13 7 -4 2.82 1.01 0
 -13 7 -3 45.2 2.06 0
 -13 7 -2 0.25 0.86 0
 -13 7 -1 3.83 1.02 0
 -13 7 0 5.37 1.12 0
 -13 7 3 149.37 3.66 0
 -13 7 4 13.39 1.49 0
 -13 7 6 28.29 1.92 0
 -13 7 7 90.95 3.03 0
 -13 7 8 1.76 1.1 0
 -13 7 10 13.32 1.59 0
 -13 7 11 27.39 1.97 0
 -13 7 13 22.95 1.86 0
 -13 9 -5 73.59 2.34 0
 -13 9 -4 9.36 1.17 0
 -13 9 -3 24.53 1.67 0
 -13 9 -2 8.41 1.18 0
 -13 9 -1 5.64 1.09 0
 -13 9 0 6.21 1.17 0
 -13 9 1 58.93 2.48 0
 -13 9 2 5.58 1.23 0
 -13 9 4 14.43 1.6 0
 -13 9 5 -1.06 1.06 0
 -13 9 6 6.16 1.24 0
 -13 9 7 15.8 1.79 0
 -13 9 8 1.42 1.15 0
 -13 9 9 3.25 1.27 0
 -13 9 10 4.75 1.39 0
 -13 9 11 0.07 0.99 0
 -13 11 -3 29.1 1.72 0
 -13 11 -2 0.16 0.86 0
 -13 11 -1 6.63 1.14 0
 -13 11 0 0.96 0.98 0
 -13 11 1 28.59 1.9 0
 -13 11 3 3.48 1.19 0
 -13 11 4 2.43 1.27 0
 -13 11 5 7.5 1.53 0
 -13 11 6 28.64 2.08 0
 -13 11 7 4.81 1.28 0
 -12 -6 9 3.92 0.84 0
 -12 -4 8 0.57 0.74 0
 -12 -4 9 4.49 0.84 0
 -12 -4 10 1.69 0.78 0
 -12 -4 11 2.21 0.7 0
 -12 -2 6 7.16 0.97 0
 -12 -2 7 99.67 2.63 0
 -12 -2 8 -0.02 0.63 0
 -12 -2 10 -0.04 0.64 0
 -12 -2 11 15.44 1.25 0
 -12 -2 12 12.29 1.14 0
 -12 0 4 1.69 0.7 0
 -12 0 6 25.4 1.54 0
 -12 0 8 21.34 1.48 0
 -12 0 10 31.09 1.66 0
 -12 0 12 3.78 0.85 0
 -12 2 -10 106.47 2.58 0
 -12 2 -9 -0.54 0.56 0
 -12 2 -8 10.59 1.1 0
 -12 2 -7 10.28 1.19 0
 -12 2 -6 141.61 3.06 0
 -12 2 -5 16.56 1.33 0
 -12 2 -4 37.98 1.76 0
 -12 2 -3 19.02 1.39 0
 -12 2 -2 2.45 0.79 0
 -12 2 0 1.58 0.68 0
 -12 2 1 18.31 1.31 0
 -12 2 2 -0.13 0.56 0
 -12 2 4 5.6 1.03 0
 -12 2 5 2.38 0.77 0
 -12 2 6 7.16 1.03 0
 -12 2 7 100.75 2.75 0
 -12 2 8 0.14 0.84 0
 -12 2 9 7.62 1.03 0
 -12 2 10 -0.95 0.73 0
 -12 2 11 16.53 1.46 0
 -12 2 12 13.2 1.33 0
 -12 2 13 6.96 1.05 0
 -12 2 14 11.68 1.27 0
 -12 4 -9 1.3 0.75 0
 -12 4 -8 -0.31 0.58 0
 -12 4 -5 43.21 1.79 0
 -12 4 -4 14.42 1.27 0
 -12 4 -3 58.77 2.12 0
 -12 4 -2 7.19 1 0
 -12 4 -1 58.91 2.11 0
 -12 4 0 1.47 0.78 0
 -12 4 1 84.8 2.53 0
 -12 4 3 84.81 2.58 0
 -12 4 4 5.09 1.01 0
 -12 4 6 53.8 2.17 0
 -12 4 7 66 2.36 0
 -12 4 8 -0.47 0.76 0
 -12 4 9 6.06 1.09 0
 -12 4 10 1.8 0.88 0
 -12 4 11 1.66 0.91 0
 -12 4 12 26.3 1.73 0
 -12 4 13 13.24 1.46 0
 -12 4 14 0.86 0.97 0
 -12 4 15 1.24 0.87 0
 -12 6 -7 24.93 1.42 0
 -12 6 -6 0.46 0.69 0
 -12 6 -5 3.32 0.92 0
 -12 6 -4 2.97 0.84 0
 -12 6 -3 5.97 0.97 0
 -12 6 -2 0.42 0.81 0
 -12 6 -1 9.1 1.06 0
 -12 6 0 0.67 0.72 0
 -12 6 1 5.91 0.96 0
 -12 6 2 19.8 1.52 0
 -12 6 3 23.47 1.65 0
 -12 6 4 5.6 1.1 0
 -12 6 5 2.74 0.9 0
 -12 6 6 21.25 1.64 0
 -12 6 7 7.29 1.25 0
 -12 6 8 40.91 2.03 0
 -12 6 9 6.57 1.33 0
 -12 6 10 4.88 1.09 0
 -12 6 11 18.11 1.6 0
 -12 6 12 3.82 1.07 0
 -12 6 13 0.01 0.98 0
 -12 6 14 16.05 1.52 0
 -12 6 15 3.01 1.14 0
 -12 8 -6 18.86 1.32 0
 -12 8 -5 25.95 1.51 0
 -12 8 -4 0.11 0.7 0
 -12 8 -1 5.02 1.07 0
 -12 8 0 2.32 0.87 0
 -12 8 1 57.99 2.32 0
 -12 8 2 23.55 1.73 0
 -12 8 4 0.48 0.81 0
 -12 8 5 22.87 1.78 0
 -12 8 6 21.75 1.75 0
 -12 8 7 11.81 1.38 0
 -12 8 8 22.87 1.7 0
 -12 8 9 22.82 1.82 0
 -12 8 11 15.56 1.59 0
 -12 8 12 7.75 1.31 0
 -12 8 13 -0.12 1.09 0
 -12 8 14 1.06 1.1 0
 -12 10 -4 -0.53 0.66 0
 -12 10 -3 -0.44 0.71 0
 -12 10 -2 22.5 1.6 0
 -12 10 -1 25.5 1.67 0
 -12 10 0 4.97 1.06 0
 -12 10 2 21.4 1.71 0
 -12 10 3 5.95 1.33 0
 -12 10 4 6.53 1.36 0
 -12 10 5 14.59 1.67 0
 -12 10 6 3.13 1.09 0
 -12 10 7 9.7 1.57 0
 -12 10 8 -0.37 0.93 0
 -12 10 10 1.22 1.01 0
 -12 10 11 -0.23 1.06 0
 -12 12 -2 72.97 2.41 0
 -12 12 -1 3.38 1 0
 -12 12 0 -0.24 0.88 0
 -12 12 1 4.6 1.24 0
 -12 12 3 4.39 1.22 0
 -12 12 4 8.29 1.33 0
 -12 12 5 13.73 1.7 0
 -12 12 6 24.5 1.97 0
 -12 12 7 18.58 1.81 0
 -11 -5 9 1.3 0.67 0
 -11 -5 10 32.47 1.46 0
 -11 -3 7 0.45 0.56 0
 -11 -3 8 18.43 1.28 0
 -11 -3 10 20.56 1.27 0
 -11 -1 5 31.86 1.57 0
 -11 -1 7 5.83 0.85 0
 -11 -1 9 49.2 1.83 0
 -11 -1 11 5.54 0.89 0
 -11 -1 12 4.75 0.81 0
 -11 -1 13 13.62 1.12 0
 -11 1 6 53.9 1.92 0
 -11 1 7 3.87 0.8 0
 -11 1 8 40 1.77 0
 -11 1 10 75.78 2.29 0
 -11 1 11 5.81 0.91 0
 -11 1 12 5.04 0.88 0
 -11 1 13 13.9 1.21 0
 -11 1 14 0.12 0.63 0
 -11 3 -9 0.28 0.58 0
 -11 3 -8 34.73 1.53 0
 -11 3 -7 25 1.35 0
 -11 3 -6 0.28 0.59 0
 -11 3 -5 2.63 0.75 0
 -11 3 -4 121.85 2.7 0
 -11 3 -3 73.07 2.13 0
 -11 3 -2 6.28 0.85 0
 -11 3 0 227.12 3.74 0
 -11 3 1 58.81 1.99 0
 -11 3 2 97.26 2.51 0
 -11 3 5 5.76 0.9 0
 -11 3 6 3.75 0.8 0
 -11 3 7 1.43 0.69 0
 -11 3 8 16.39 1.28 0
 -11 3 9 48.72 2.01 0
 -11 3 10 18.53 1.38 0
 -11 3 11 73.73 2.34 0
 -11 3 13 1.83 0.79 0
 -11 3 14 0.8 0.84 0
 -11 5 -8 11.99 1.04 0
 -11 5 -7 23.82 1.32 0
 -11 5 -6 0.06 0.54 0
 -11 5 -4 48.08 1.85 0
 -11 5 -3 81.74 2.32 0
 -11 5 -2 36.16 1.65 0
 -11 5 -1 19.5 1.27 0
 -11 5 1 113.42 2.8 0
 -11 5 2 132.23 2.99 0
 -11 5 3 3.44 0.81 0
 -11 5 4 3.19 0.78 0
 -11 5 5 3.14 0.78 0
 -11 5 6 5.41 1.06 0
 -11 5 7 1.07 0.71 0
 -11 5 8 1.87 0.88 0
 -11 5 9 1.79 0.95 0
 -11 5 10 31.16 1.83 0
 -11 5 11 52.06 2.15 0
 -11 5 12 40.3 1.96 0
 -11 5 14 3.99 1.1 0
 -11 7 -7 41.44 1.59 0
 -11 7 -6 0.08 0.56 0
 -11 7 -4 -0.08 0.61 0
 -11 7 -3 38.46 1.68 0
 -11 7 -2 3.71 0.82 0
 -11 7 -1 71.15 2.29 0
 -11 7 0 1.47 0.71 0
 -11 7 1 5.52 0.92 0
 -11 7 2 17.38 1.32 0
 -11 7 3 -0.17 0.76 0
 -11 7 5 31.19 1.76 0
 -11 7 6 3.22 1 0
 -11 7 7 0.13 0.79 0
 -11 7 9 29.18 1.87 0
 -11 7 11 3.06 1.05 0
 -11 7 12 0.82 1.04 0
 -11 7 13 2.56 1.04 0
 -11 7 15 6.81 1.29 0
 -11 9 -5 14.41 1.2 0
 -11 9 -4 2.75 0.9 0
 -11 9 -2 6.08 1.06 0
 -11 9 -1 43.02 1.95 0
 -11 9 0 -0.55 0.82 0
 -11 9 1 0.26 0.71 0
 -11 9 2 2.26 0.99 0
 -11 9 3 1.93 1.02 0
 -11 9 4 4.8 1.08 0
 -11 9 5 10.35 1.32 0
 -11 9 6 2.58 1.13 0
 -11 9 7 5.39 1.2 0
 -11 9 8 5.37 1.17 0
 -11 9 10 1.56 1.11 0
 -11 9 11 30.49 2 0
 -11 9 12 -0.17 0.94 0
 -11 9 13 5.41 1.17 0
 -11 11 -3 3.78 0.87 0
 -11 11 -2 38.53 1.82 0
 -11 11 -1 2.1 1 0
 -11 11 0 2.25 1.01 0
 -11 11 1 33.45 1.93 0
 -11 11 2 15.04 1.47 0
 -11 11 3 4.01 1.16 0
 -11 11 4 0.73 0.91 0
 -11 11 5 1.43 0.95 0
 -11 11 6 0.61 1.02 0
 -11 11 7 3.1 1.16 0
 -11 11 8 0.66 1 0
 -11 11 9 1.43 1.05 0
 -11 11 10 17.51 1.79 0
 -11 13 -1 -0.38 0.85 0
 -11 13 0 1.98 0.93 0
 -11 13 1 30.22 1.87 0
 -11 13 2 1.29 0.99 0
 -11 13 3 27.95 1.87 0
 -11 13 5 -0.54 0.96 0
 -10 -2 12 4.68 0.71 0
 -10 0 10 20.59 1.23 0
 -10 0 12 33.16 1.48 0
 -10 2 7 22.34 1.24 0
 -10 2 8 12.84 1.15 0
 -10 2 9 43.53 1.76 0
 -10 2 10 1.23 0.71 0
 -10 2 12 4.9 0.93 0
 -10 2 13 3.62 0.76 0
 -10 2 14 0.9 0.61 0
 -10 4 3 8.73 0.93 0
 -10 4 4 43.42 1.71 0
 -10 4 5 51.64 1.89 0
 -10 4 7 16.98 1.29 0
 -10 4 8 9.67 1.14 0
 -10 4 9 58.3 2.05 0
 -10 4 10 33.24 1.68 0
 -10 4 11 68.57 2.25 0
 -10 4 12 -0.6 0.79 0
 -10 4 13 21.37 1.47 0
 -10 4 14 15.33 1.34 0
 -10 6 -6 14.47 1.06 0
 -10 6 -4 6.06 0.78 0
 -10 6 -2 99.9 2.46 0
 -10 6 0 10.17 1.02 0
 -10 6 1 6.53 0.88 0
 -10 6 2 62.83 2.12 0
 -10 6 3 224.23 3.86 0
 -10 6 5 15.76 1.15 0
 -10 6 6 13.48 1.24 0
 -10 6 9 21.15 1.48 0
 -10 6 10 25.02 1.66 0
 -10 6 12 0.42 0.77 0
 -10 6 14 0.41 0.81 0
 -10 6 15 33.95 1.83 0
 -10 6 16 -0.55 0.86 0
 -10 8 -6 25.73 1.28 0
 -10 8 -5 13.28 1.1 0
 -10 8 -4 1.67 0.66 0
 -10 8 -3 25.63 1.45 0
 -10 8 -2 9.92 1.15 0
 -10 8 -1 -0.25 0.74 0
 -10 8 1 1.32 0.78 0
 -10 8 2 9.23 1.16 0
 -10 8 3 100.1 2.75 0
 -10 8 4 1.63 0.75 0
 -10 8 5 2.39 0.87 0
 -10 8 7 92.38 2.81 0
 -10 8 8 7.06 1.25 0
 -10 8 9 0.13 0.87 0
 -10 8 10 19.72 1.55 0
 -10 8 11 81.8 2.76 0
 -10 8 13 -1.04 0.81 0
 -10 8 14 -0.86 0.84 0
 -10 8 15 61.99 2.41 0
 -10 10 -5 102.38 2.36 0
 -10 10 -4 9.45 1.17 0
 -10 10 -3 0.2 0.79 0
 -10 10 -2 19.65 1.4 0
 -10 10 -1 75.42 2.38 0
 -10 10 0 2.17 0.9 0
 -10 10 1 13.05 1.4 0
 -10 10 2 3.8 0.92 0
 -10 10 3 5.16 1.02 0
 -10 10 4 1.01 0.85 0
 -10 10 5 1.34 0.84 0
 -10 10 6 0.34 0.88 0
 -10 10 8 -0.11 1.06 0
 -10 10 9 1.2 1.02 0
 -10 10 10 9.5 1.51 0
 -10 10 11 10.93 1.57 0
 -10 10 12 -1.62 0.81 0
 -10 10 13 -0.18 1.08 0
 -10 12 -3 21.56 1.43 0
 -10 12 -2 0.16 0.79 0
 -10 12 -1 -0.01 0.9 0
 -10 12 0 0.6 0.79 0
 -10 12 2 1.74 0.91 0
 -10 12 3 8.99 1.39 0
 -10 12 4 1.09 0.92 0
 -10 12 6 18.4 1.63 0
 -10 12 8 0.13 1.19 0
 -10 12 9 8.02 1.37 0
 -10 12 10 43.99 2.36 0
 -10 14 0 25.32 1.68 0
 -10 14 1 6.39 1.18 0
 -10 14 2 4.44 1.11 0
 -10 14 3 45.33 2.19 0
 -9 -5 9 0.57 0.46 0
 -9 -5 10 0.08 0.41 0
 -9 -3 10 3.28 0.6 0
 -9 -3 11 7.16 0.75 0
 -9 -1 6 339.25 3.96 0
 -9 -1 7 10.14 0.91 0
 -9 -1 8 86.18 2.06 0
 -9 1 3 8.49 0.82 0
 -9 1 4 149.39 2.69 0
 -9 1 5 7.94 0.83 0
 -9 1 11 0.2 0.61 0
 -9 1 12 15.15 1.09 0
 -9 1 13 20.32 1.18 0
 -9 3 -10 2.22 0.52 0
 -9 3 -9 27.34 1.17 0
 -9 3 -7 62.34 1.7 0
 -9 3 -6 20.94 1.09 0
 -9 3 -5 27.62 1.24 0
 -9 3 -4 35.92 1.35 0
 -9 3 -3 44.33 1.51 0
 -9 3 -2 0.46 0.45 0
 -9 3 -1 18.48 1.13 0
 -9 3 0 0.13 0.49 0
 -9 3 9 8.91 1.02 0
 -9 3 10 2.96 0.76 0
 -9 3 12 38.65 1.66 0
 -9 3 13 3.34 0.74 0
 -9 3 14 3.04 0.81 0
 -9 3 15 4.45 0.88 0
 -9 5 -8 8.17 0.77 0
 -9 5 -7 0.61 0.45 0
 -9 5 -5 0.45 0.51 0
 -9 5 -4 0.82 0.51 0
 -9 5 7 8.87 1.05 0
 -9 5 8 2.13 0.81 0
 -9 5 9 1.41 0.78 0
 -9 5 10 0.17 0.62 0
 -9 5 11 6.44 0.97 0
 -9 5 12 7.2 1.05 0
 -9 5 13 4.01 1 0
 -9 5 14 0.25 0.73 0
 -9 5 15 4.62 1 0
 -9 5 16 22.53 1.44 0
 -9 7 -2 27.11 1.38 0
 -9 7 -1 83.65 2.2 0
 -9 7 0 5.42 0.91 0
 -9 7 2 1.36 0.7 0
 -9 7 4 0.17 0.64 0
 -9 7 5 121.47 2.89 0
 -9 7 7 98.6 2.69 0
 -9 7 12 6.18 1.04 0
 -9 7 13 6.65 1.08 0
 -9 7 16 -0.56 0.79 0
 -9 9 -6 27.37 1.25 0
 -9 9 -5 74.22 1.94 0
 -9 9 -4 1.79 0.62 0
 -9 9 -3 26.28 1.36 0
 -9 9 -2 2.05 0.82 0
 -9 9 -1 16.65 1.29 0
 -9 9 1 68.46 2.18 0
 -9 9 2 3.03 0.89 0
 -9 9 3 1.24 0.88 0
 -9 9 4 -0.01 0.71 0
 -9 9 6 2.1 0.99 0
 -9 9 7 5.3 1.04 0
 -9 9 8 14.16 1.41 0
 -9 9 10 -0.19 0.96 0
 -9 9 11 113.28 3.14 0
 -9 9 13 3.54 0.99 0
 -9 9 14 1.53 0.92 0
 -9 9 15 48.28 2.16 0
 -9 11 -4 11.37 1.1 0
 -9 11 -3 24.12 1.42 0
 -9 11 0 13.47 1.35 0
 -9 11 1 3.79 1.07 0
 -9 11 3 49.4 2.16 0
 -9 11 5 6.01 1.1 0
 -9 11 6 11.89 1.45 0
 -9 11 8 4.96 1.13 0
 -9 11 9 25.26 1.86 0
 -9 11 10 5.39 1.36 0
 -9 11 11 10.76 1.55 0
 -9 11 12 -0.04 0.9 0
 -9 13 -2 -0.32 0.68 0
 -9 13 0 0.8 0.8 0
 -9 13 1 4.05 1.07 0
 -9 13 2 -0.08 0.95 0
 -9 13 3 0.25 0.86 0
 -9 13 4 8.96 1.37 0
 -9 13 5 7.67 1.29 0
 -9 13 6 3.08 1.16 0
 -9 13 7 8.32 1.31 0
 -9 13 9 1.55 1.18 0
 -8 -4 9 0.46 0.39 0
 -8 -4 10 13.64 0.81 0
 -8 -2 7 21.5 1.05 0
 -8 -2 8 59.29 1.58 0
 -8 -2 11 7.75 0.72 0
 -8 -2 12 2.67 0.49 0
 -8 0 4 359.1 3.78 0
 -8 0 6 298.96 3.5 0
 -8 0 8 139.11 2.49 0
 -8 0 10 237.01 3.19 0
 -8 2 0 7.85 0.72 0
 -8 2 1 51.91 1.52 0
 -8 2 3 53.9 1.56 0
 -8 2 5 0.68 0.43 0
 -8 2 7 20.89 1.11 0
 -8 2 12 2.47 0.68 0
 -8 2 13 27.13 1.29 0
 -8 2 14 2.47 0.65 0
 -8 4 -9 2.72 0.49 0
 -8 4 -8 1.24 0.44 0
 -8 4 -7 18.56 0.94 0
 -8 4 -6 42.62 1.33 0
 -8 4 -5 7.82 0.77 0
 -8 4 -4 129.56 2.32 0
 -8 4 -2 359.52 3.85 0
 -8 4 0 195.65 2.97 0
 -8 4 1 630.44 5.24 0
 -8 4 2 1147.81 7.12 0
 -8 4 3 237.89 3.36 0
 -8 4 4 10.08 0.84 0
 -8 4 9 0.4 0.55 0
 -8 4 10 14.02 1.16 0
 -8 4 11 1.51 0.65 0
 -8 4 12 0.05 0.56 0
 -8 4 13 0.87 0.71 0
 -8 4 14 2.86 0.81 0
 -8 4 15 12.02 1.11 0
 -8 6 -8 8.99 0.69 0
 -8 6 -6 29.7 1.15 0
 -8 6 -5 13.26 0.9 0
 -8 6 -3 62 1.7 0
 -8 6 -2 7.18 0.78 0
 -8 6 -1 2.71 0.6 0
 -8 6 5 2.57 0.71 0
 -8 6 6 52.18 1.83 0
 -8 6 7 187.88 3.42 0
 -8 6 9 69.04 2.16 0
 -8 6 10 4.71 0.86 0
 -8 6 11 32.14 1.6 0
 -8 6 12 5.41 0.93 0
 -8 6 13 13.93 1.31 0
 -8 6 14 5.56 0.99 0
 -8 6 15 33.27 1.68 0
 -8 6 16 2.53 0.83 0
 -8 8 -2 22.38 1.25 0
 -8 8 -1 1.57 0.65 0
 -8 8 0 15.23 1.12 0
 -8 8 1 5.6 0.89 0
 -8 8 2 0.75 0.61 0
 -8 8 4 -0.11 0.56 0
 -8 8 6 9.98 1.1 0
 -8 8 7 20.34 1.31 0
 -8 8 8 0.29 0.68 0
 -8 8 9 108.59 2.89 0
 -8 8 10 18.44 1.42 0
 -8 8 11 0.66 0.93 0
 -8 8 13 2.74 0.94 0
 -8 8 14 1.16 0.89 0
 -8 10 -5 1.88 0.6 0
 -8 10 -4 10.78 0.99 0
 -8 10 -3 1.63 0.63 0
 -8 10 -2 47.56 1.71 0
 -8 10 -1 -0.47 0.68 0
 -8 10 1 30.35 1.61 0
 -8 10 2 73.32 2.28 0
 -8 10 4 2.97 0.97 0
 -8 10 5 1.03 0.88 0
 -8 10 6 51.99 2.11 0
 -8 10 7 -0.06 0.83 0
 -8 10 8 0.61 0.77 0
 -8 10 9 3.29 0.97 0
 -8 10 10 7.76 1.2 0
 -8 10 11 43.43 2.11 0
 -8 10 12 0.9 1.08 0
 -8 10 13 19.79 1.59 0
 -8 10 14 4.71 1.24 0
 -8 12 -3 6.24 0.9 0
 -8 12 -2 21.48 1.4 0
 -8 12 -1 1.59 0.92 0
 -8 12 0 18.88 1.4 0
 -8 12 1 61.18 2.25 0
 -8 12 2 55.76 2.19 0
 -8 12 3 58.68 2.23 0
 -8 12 4 -0.6 0.94 0
 -8 12 5 0.5 0.93 0
 -8 12 6 22.03 1.74 0
 -8 12 7 16.03 1.68 0
 -8 12 8 4.42 1.11 0
 -8 12 9 8.58 1.37 0
 -8 12 10 1.24 0.97 0
 -8 12 12 0.5 0.99 0
 -8 14 -1 0.94 0.76 0
 -8 14 0 0.85 0.85 0
 -8 14 1 60.3 2.26 0
 -8 14 2 1.56 0.99 0
 -8 14 3 53.89 2.32 0
 -8 14 5 2.39 1.01 0
 -8 14 6 -0.29 1.09 0
 -8 14 7 38.93 2.26 0
 -7 -5 9 1.03 0.39 0
 -7 -5 10 7.51 0.56 0
 -7 -3 8 52.33 1.35 0
 -7 -3 9 9.91 0.69 0
 -7 -3 10 -0.17 0.32 0
 -7 -3 11 30.03 0.94 0
 -7 -1 6 1.29 0.46 0
 -7 -1 7 -0.16 0.41 0
 -7 -1 9 0.68 0.42 0
 -7 -1 10 154.02 2.33 0
 -7 -1 11 -0.23 0.33 0
 -7 -1 12 11.71 0.71 0
 -7 1 4 67.18 1.58 0
 -7 1 7 0.47 0.51 0
 -7 1 8 144.07 2.39 0
 -7 1 9 1.55 0.48 0
 -7 1 10 147.48 2.47 0
 -7 1 11 0.04 0.46 0
 -7 1 12 11.73 0.85 0
 -7 3 -10 3.75 0.49 0
 -7 3 -9 98.47 1.73 0
 -7 3 -8 1.43 0.41 0
 -7 3 -6 28.29 1.02 0
 -7 3 -5 341.88 3.33 0
 -7 3 -4 219.23 2.7 0
 -7 3 -3 491.71 4.03 0
 -7 3 -2 36.43 1.2 0
 -7 3 -1 142.57 2.27 0
 -7 3 0 246.02 2.97 0
 -7 3 1 715.46 5.07 0
 -7 3 7 13.86 0.96 0
 -7 3 8 51.41 1.6 0
 -7 3 12 17.11 1.08 0
 -7 3 13 -0.01 0.51 0
 -7 3 14 0.33 0.52 0
 -7 3 15 32.09 1.34 0
 -7 5 -8 0.02 0.33 0
 -7 5 -7 1.49 0.41 0
 -7 5 -6 -0.4 0.37 0
 -7 5 -5 105.61 1.95 0
 -7 5 -4 122.06 2.11 0
 -7 5 -3 75.08 1.69 0
 -7 5 -2 172.7 2.58 0
 -7 5 -1 30.38 1.21 0
 -7 5 0 26.17 1.1 0
 -7 5 1 123.67 2.29 0
 -7 5 2 229.29 3.17 0
 -7 5 3 1.21 0.48 0
 -7 5 4 41.06 1.45 0
 -7 5 9 0.77 0.6 0
 -7 5 10 7.44 0.85 0
 -7 5 11 0.14 0.66 0
 -7 5 12 8.28 0.96 0
 -7 5 13 1.11 0.62 0
 -7 5 14 18.44 1.25 0
 -7 5 15 1.06 0.64 0
 -7 5 16 20.31 1.29 0
 -7 7 -6 24.79 1 0
 -7 7 -4 109.21 2.16 0
 -7 7 -3 84.86 1.9 0
 -7 7 -2 20.03 1.07 0
 -7 7 4 3.94 0.68 0
 -7 7 5 10.95 0.95 0
 -7 7 7 41.39 1.72 0
 -7 7 8 -0.18 0.57 0
 -7 7 9 3.19 0.73 0
 -7 7 10 -0.07 0.6 0
 -7 7 11 122.52 2.86 0
 -7 7 12 0.85 0.73 0
 -7 7 13 1.2 0.75 0
 -7 7 14 0.59 0.75 0
 -7 7 15 131.18 2.96 0
 -7 9 -2 6.43 0.82 0
 -7 9 -1 139.24 2.73 0
 -7 9 0 1.5 0.66 0
 -7 9 1 12.44 1.06 0
 -7 9 2 6.08 0.89 0
 -7 9 4 -0.13 0.56 0
 -7 9 5 26.03 1.52 0
 -7 9 6 10.42 1.01 0
 -7 9 7 34.59 1.75 0
 -7 9 9 117.38 3 0
 -7 9 10 0.83 0.79 0
 -7 9 11 4.3 0.98 0
 -7 9 12 20.56 1.64 0
 -7 9 14 12.73 1.4 0
 -7 11 -4 148.39 2.66 0
 -7 11 -3 43.49 1.6 0
 -7 11 -2 4.12 0.88 0
 -7 11 -1 110.33 2.57 0
 -7 11 0 175.48 3.33 0
 -7 11 1 88.67 2.43 0
 -7 11 2 19.61 1.43 0
 -7 11 3 50.85 2.02 0
 -7 11 4 86.72 2.6 0
 -7 11 5 34.23 1.84 0
 -7 11 6 14.45 1.48 0
 -7 11 7 96.45 2.88 0
 -7 11 8 14.61 1.43 0
 -7 11 9 67.89 2.54 0
 -7 11 10 1.16 1.09 0
 -7 11 11 26.37 1.86 0
 -7 11 12 4.52 1.17 0
 -7 13 -3 22.09 1.31 0
 -7 13 -1 2.1 0.79 0
 -7 13 0 43.57 1.89 0
 -7 13 2 2.04 0.91 0
 -7 13 3 24.34 1.66 0
 -7 13 5 6.13 1.22 0
 -7 13 6 7.43 1.34 0
 -7 13 7 -0.45 1.01 0
 -7 13 8 1.13 1.15 0
 -7 13 9 2.79 1.05 0
 -6 -4 8 33.69 1 0
 -6 -4 10 148.16 1.77 0
 -6 -2 7 10.48 0.66 0
 -6 -2 9 2.62 0.41 0
 -6 -2 11 8.11 0.54 0
 -6 0 6 255.79 2.75 0
 -6 0 8 167.91 2.3 0
 -6 0 10 878.64 5.1 0
 -6 2 0 70.67 1.46 0
 -6 2 5 0.5 0.39 0
 -6 2 8 178.21 2.58 0
 -6 2 9 2.63 0.5 0
 -6 2 11 7.74 0.72 0
 -6 2 12 1.21 0.49 0
 -6 4 -8 0.04 0.29 0
 -6 4 -7 22.96 0.82 0
 -6 4 -6 14.71 0.71 0
 -6 4 -5 18.74 0.81 0
 -6 4 -4 0.17 0.32 0
 -6 4 -3 25.13 0.92 0
 -6 4 -1 0.78 0.36 0
 -6 4 0 125.47 2.08 0
 -6 4 1 123.19 2.11 0
 -6 4 4 16.97 0.88 0
 -6 4 5 190.02 2.76 0
 -6 4 6 643.82 5.07 0
 -6 4 7 140.16 2.51 0
 -6 4 8 32.42 1.31 0
 -6 4 12 -0.33 0.45 0
 -6 4 13 38.18 1.45 0
 -6 4 14 100.18 2.23 0
 -6 4 15 16.84 1.09 0
 -6 6 -8 15.82 0.64 0
 -6 6 -7 219.73 2.28 0
 -6 6 -5 45.67 1.21 0
 -6 6 -4 5.94 0.64 0
 -6 6 -3 278.07 3.06 0
 -6 6 -1 34.61 1.21 0
 -6 6 0 90.08 1.9 0
 -6 6 1 389.98 3.94 0
 -6 6 3 15.29 0.9 0
 -6 6 8 3.25 0.65 0
 -6 6 9 9.83 1.02 0
 -6 6 10 2.93 0.75 0
 -6 6 11 0.83 0.59 0
 -6 6 12 9.44 0.97 0
 -6 6 13 -0.21 0.72 0
 -6 6 15 0 0.61 0
 -6 8 -6 4.56 0.55 0
 -6 8 -5 65.27 1.49 0
 -6 8 -4 51.4 1.41 0
 -6 8 -3 192.88 2.71 0
 -6 8 -2 60.75 1.64 0
 -6 8 3 5.62 0.75 0
 -6 8 4 -0.35 0.51 0
 -6 8 5 6.57 0.79 0
 -6 8 7 1.63 0.76 0
 -6 8 8 2.53 0.82 0
 -6 8 9 151.44 3.11 0
 -6 8 10 15.24 1.25 0
 -6 8 11 101.4 2.69 0
 -6 8 12 2.16 0.92 0
 -6 8 13 23.89 1.58 0
 -6 8 14 2.2 0.92 0
 -6 10 -3 2.82 0.66 0
 -6 10 -2 1.59 0.56 0
 -6 10 0 0.08 0.52 0
 -6 10 1 17.15 1.11 0
 -6 10 2 9.8 1.06 0
 -6 10 3 121.54 2.73 0
 -6 10 4 2.47 0.82 0
 -6 10 5 5.04 0.94 0
 -6 10 6 24.24 1.47 0
 -6 10 7 69.52 2.34 0
 -6 10 8 5.05 0.95 0
 -6 10 9 75.35 2.49 0
 -6 10 10 46.94 2.1 0
 -6 10 11 18.9 1.56 0
 -6 10 12 0.06 0.79 0
 -6 12 -4 6.99 0.82 0
 -6 12 -2 0.12 0.55 0
 -6 12 -1 0.04 0.59 0
 -6 12 0 1.4 0.73 0
 -6 12 1 12.87 1.25 0
 -6 12 2 2.46 0.91 0
 -6 12 4 0.34 0.75 0
 -6 12 5 4.83 0.98 0
 -6 12 6 5.72 1.05 0
 -6 12 7 48.21 2.13 0
 -6 12 8 0.5 0.84 0
 -6 12 9 8.45 1.39 0
 -5 -5 9 1.09 0.25 0
 -5 -3 8 21.4 0.71 0
 -5 -3 9 148.87 1.69 0
 -5 -3 10 0.13 0.2 0
 -5 -1 8 8.58 0.56 0
 -5 -1 9 24.37 0.81 0
 -5 -1 10 352.47 2.8 0
 -5 -1 11 3.97 0.42 0
 -5 1 8 8.98 0.62 0
 -5 1 9 23.77 0.92 0
 -5 1 10 353.99 3.22 0
 -5 1 11 3.03 0.48 0
 -5 1 13 0.65 0.37 0
 -5 3 -9 6.38 0.42 0
 -5 3 -8 143.15 1.63 0
 -5 3 -7 385.74 2.72 0
 -5 3 -5 266.33 2.39 0
 -5 3 -4 0.25 0.27 0
 -5 3 -3 19.32 0.74 0
 -5 3 -2 50.24 1.14 0
 -5 3 -1 723.5 4.17 0
 -5 3 0 100.27 1.65 0
 -5 3 1 657.3 4.17 0
 -5 3 5 554.38 4.15 0
 -5 3 7 0.41 0.37 0
 -5 3 8 22.44 1.01 0
 -5 3 9 157.29 2.43 0
 -5 3 10 -0.23 0.34 0
 -5 3 11 -0.18 0.5 0
 -5 3 15 2.45 0.53 0
 -5 5 -8 230.04 1.83 0
 -5 5 -7 75.89 1.21 0
 -5 5 -6 88.68 1.4 0
 -5 5 -5 26.07 0.83 0
 -5 5 -4 0.45 0.35 0
 -5 5 -3 0.52 0.39 0
 -5 5 -2 5.88 0.55 0
 -5 5 -1 50.49 1.26 0
 -5 5 0 111.45 1.9 0
 -5 5 1 172.98 2.4 0
 -5 5 2 265.57 3.01 0
 -5 5 5 18.32 0.92 0
 -5 5 6 94.8 2.01 0
 -5 5 11 2.9 0.64 0
 -5 5 12 2.63 0.66 0
 -5 5 13 1.35 0.58 0
 -5 5 14 -0.33 0.5 0
 -5 7 -7 65.41 1.16 0
 -5 7 -6 190.8 2.1 0
 -5 7 -5 109.83 1.75 0
 -5 7 -4 26.08 0.94 0
 -5 7 -3 28.34 1.01 0
 -5 7 -2 107.47 1.93 0
 -5 7 -1 55.69 1.48 0
 -5 7 1 54.22 1.54 0
 -5 7 2 4.43 0.66 0
 -5 7 7 3.92 0.66 0
 -5 7 8 11.32 1 0
 -5 7 10 2.23 0.72 0
 -5 7 11 8.5 0.96 0
 -5 7 12 4.89 0.86 0
 -5 7 14 9.85 1.16 0
 -5 9 -6 2.22 0.42 0
 -5 9 -5 98.07 1.8 0
 -5 9 -4 17.52 0.9 0
 -5 9 -3 0.46 0.51 0
 -5 9 2 0.76 0.52 0
 -5 9 3 0.78 0.63 0
 -5 9 4 0.14 0.59 0
 -5 9 6 9.13 0.92 0
 -5 9 7 10.34 1.14 0
 -5 9 9 33.45 1.67 0
 -5 9 10 0.46 0.74 0
 -5 9 11 58.48 2.16 0
 -5 9 12 21.64 1.46 0
 -5 11 -4 6.61 0.76 0
 -5 11 -3 2.57 0.59 0
 -5 11 -2 2.69 0.72 0
 -5 11 1 87.96 2.29 0
 -5 11 2 20.75 1.33 0
 -5 11 3 7.01 1.04 0
 -5 11 6 82.88 2.5 0
 -5 11 7 1.31 0.77 0
 -5 11 9 4.54 1 0
 -4 -2 6 51.12 0.97 0
 -4 0 4 822.38 3.88 0
 -4 0 10 134.34 1.73 0
 -4 0 12 62.69 1.18 0
 -4 2 -1 81.12 1.28 0
 -4 2 0 230.61 2.12 0
 -4 2 1 1977.49 6.21 0
 -4 2 2 0.17 0.29 0
 -4 2 7 127.19 1.89 0
 -4 2 8 42.45 1.14 0
 -4 2 9 64.7 1.4 0
 -4 2 10 30.55 1.02 0
 -4 2 11 108.56 1.89 0
 -4 2 12 0.87 0.44 0
 -4 2 13 5.18 0.6 0
 -4 4 -8 190.46 1.35 0
 -4 4 -7 0.43 0.2 0
 -4 4 -6 17.98 0.57 0
 -4 4 -5 93.64 1.31 0
 -4 4 -4 0.3 0.22 0
 -4 4 -3 228.28 2.14 0
 -4 4 -2 8.93 0.55 0
 -4 4 -1 85.97 1.42 0
 -4 4 0 28.02 0.88 0
 -4 4 1 789.89 4.44 0
 -4 4 5 307.74 3.11 0
 -4 4 8 30.85 1.14 0
 -4 4 9 83.36 1.81 0
 -4 4 10 3.08 0.54 0
 -4 4 14 17.95 1.04 0
 -4 6 -7 249.62 1.82 0
 -4 6 -6 78.01 1.18 0
 -4 6 -5 10.71 0.55 0
 -4 6 -2 8.72 0.63 0
 -4 6 -1 33.25 1.05 0
 -4 6 1 291.36 3.07 0
 -4 6 2 116.86 2.03 0
 -4 6 3 49.44 1.39 0
 -4 6 4 2.41 0.52 0
 -4 6 5 194.51 2.78 0
 -4 6 6 18.88 0.97 0
 -4 6 10 9.69 0.97 0
 -4 6 11 34.43 1.45 0
 -4 6 12 57.61 1.82 0
 -4 6 13 15.57 1.08 0
 -4 8 -6 9.61 0.56 0
 -4 8 -5 24.49 0.85 0
 -4 8 -4 177.96 2.26 0
 -4 8 -3 181.37 2.38 0
 -4 8 -2 29.03 1.06 0
 -4 8 -1 74.42 1.68 0
 -4 8 0 93.26 1.92 0
 -4 8 1 323.29 3.59 0
 -4 8 6 32.88 1.39 0
 -4 8 7 1.25 0.67 0
 -4 8 8 12.46 1.07 0
 -4 8 9 3.65 0.84 0
 -4 8 10 56.5 1.91 0
 -4 8 12 -0.28 0.59 0
 -4 10 1 29.66 1.35 0
 -4 10 2 13.12 1.09 0
 -4 10 3 0.23 0.58 0
 -4 10 4 28.07 1.42 0
 -4 10 5 13.57 1.14 0
 -4 10 6 27.22 1.47 0
 -4 10 7 33.25 1.65 0
 -4 10 8 0.08 0.62 0
 -4 10 9 109.5 2.8 0
 -4 10 10 0.23 0.9 0
 -4 12 0 112.67 2.53 0
 -4 12 1 20.38 1.33 0
 -4 12 2 49.75 1.86 0
 -4 12 3 0.41 0.67 0
 -4 12 4 69.57 2.25 0
 -4 12 5 2.24 0.9 0
 -3 -5 8 64.93 0.7 0
 -3 -3 8 766.08 2.44 0
 -3 -3 9 7.97 0.22 0
 -3 -1 5 0.18 0.18 0
 -3 -1 6 4.65 0.33 0
 -3 -1 7 190.19 1.62 0
 -3 -1 8 161.92 1.49 0
 -3 -1 11 61.82 0.91 0
 -3 1 1 296.12 2.03 0
 -3 1 2 34.39 0.76 0
 -3 1 3 561.91 2.95 0
 -3 1 4 14.74 0.57 0
 -3 1 5 0.55 0.28 0
 -3 1 10 520.51 3.34 0
 -3 1 11 60.62 1.19 0
 -3 1 12 0.42 0.27 0
 -3 3 -7 380.58 1.74 0
 -3 3 -6 26.31 0.55 0
 -3 3 -5 70.27 0.91 0
 -3 3 -4 367.73 2.15 0
 -3 3 -3 1408.43 4.35 0
 -3 3 -2 29.66 0.72 0
 -3 3 0 351.83 2.5 0
 -3 3 1 639.74 3.44 0
 -3 3 2 1343.95 5.17 0
 -3 3 4 946.33 4.63 0
 -3 3 7 18.45 0.8 0
 -3 3 8 798.31 4.71 0
 -3 3 10 2.65 0.46 0
 -3 3 11 7.61 0.64 0
 -3 3 12 117.32 2.01 0
 -3 5 -7 17.81 0.39 0
 -3 5 -6 18.9 0.5 0
 -3 5 -5 109.68 1.28 0
 -3 5 -4 369.25 2.45 0
 -3 5 -2 13.12 0.61 0
 -3 5 -1 93.51 1.46 0
 -3 5 0 135.41 1.81 0
 -3 5 1 5.02 0.51 0
 -3 5 2 67.95 1.39 0
 -3 5 5 13.74 0.79 0
 -3 5 7 245.24 2.97 0
 -3 5 9 126.98 2.26 0
 -3 5 12 0.42 0.55 0
 -3 7 -6 19.44 0.59 0
 -3 7 -4 49.45 1.07 0
 -3 7 -3 140.5 1.9 0
 -3 7 -2 189.48 2.27 0
 -3 7 -1 88.09 1.64 0
 -3 7 0 9.01 0.69 0
 -3 7 1 247.12 2.87 0
 -3 7 2 74.32 1.65 0
 -3 7 3 41.89 1.3 0
 -3 7 4 27.11 1.13 0
 -3 7 5 9.65 0.78 0
 -3 7 10 14.81 1.08 0
 -3 7 11 35.11 1.48 0
 -3 9 -4 0.36 0.34 0
 -3 9 -3 5.64 0.63 0
 -3 9 -2 23.29 1.01 0
 -3 9 -1 76.29 1.73 0
 -3 9 5 -0.01 0.5 0
 -3 9 6 6.85 0.89 0
 -3 9 7 79.02 2.14 0
 -3 9 8 2.31 0.81 0
 -3 9 9 179.34 3.29 0
 -3 11 0 72.59 1.95 0
 -3 11 1 8.91 0.96 0
 -3 11 2 4.23 0.85 0
 -3 11 3 78.04 2.19 0
 -3 11 4 13.01 1.11 0
 -3 11 5 0.48 0.73 0
 -2 -2 5 1332.17 3.13 0
 -2 -2 6 153.41 1.04 0
 -2 -2 7 4.88 0.21 0
 -2 -2 8 87.65 0.66 0
 -2 0 2 652.88 2.39 0
 -2 0 4 21.81 0.52 0
 -2 0 6 0.57 0.2 0
 -2 0 8 81.74 1.07 0
 -2 2 -5 50.92 0.6 0
 -2 2 -4 383.18 1.68 0
 -2 2 -3 0.59 0.16 0
 -2 2 -2 476.68 2.06 0
 -2 2 -1 579.21 2.41 0
 -2 2 0 629.39 2.66 0
 -2 2 1 1037.69 3.57 0
 -2 2 3 286.67 2.09 0
 -2 2 4 125.56 1.48 0
 -2 2 5 1357.4 4.87 0
 -2 2 6 158.34 1.75 0
 -2 2 8 89.54 1.46 0
 -2 2 9 592.58 3.65 0
 -2 2 11 28.2 0.9 0
 -2 4 -6 0.73 0.11 0
 -2 4 -5 42.2 0.6 0
 -2 4 -4 501.45 2.25 0
 -2 4 -3 30.89 0.66 0
 -2 4 -2 0.42 0.24 0
 -2 4 -1 3.97 0.37 0
 -2 4 0 11.55 0.55 0
 -2 4 1 769.37 3.8 0
 -2 4 3 0.86 0.27 0
 -2 4 4 0.95 0.32 0
 -2 4 8 1.39 0.38 0
 -2 4 9 404.85 3.59 0
 -2 4 10 56.77 1.42 0
 -2 6 -4 51.98 0.94 0
 -2 6 -3 39.95 0.9 0
 -2 6 -2 178.79 1.94 0
 -2 6 -1 57.71 1.18 0
 -2 6 1 0.93 0.3 0
 -2 6 2 7.66 0.61 0
 -2 6 5 73.57 1.63 0
 -2 6 6 0.59 0.44 0
 -2 6 8 58.27 1.58 0
 -2 8 -4 50.6 1.11 0
 -2 8 -3 40.78 1.07 0
 -2 8 -2 0.7 0.34 0
 -2 8 -1 111.45 1.88 0
 -2 8 0 99.8 1.88 0
 -2 8 3 29.01 1.18 0
 -2 8 7 14.93 0.99 0
 -2 8 8 21.5 1.13 0
 -2 10 2 3.96 0.66 0
 -1 -1 4 1313.39 2.37 0
 -1 -1 5 137.47 0.83 0
 -1 -1 6 562.04 1.7 0
 -1 -1 7 11.16 0.28 0
 -1 1 -1 8.15 0.23 0
 -1 1 0 2033.68 3.28 0
 -1 1 1 39.69 0.56 0
 -1 1 2 841.23 2.58 0
 -1 1 3 0.56 0.16 0
 -1 1 4 1349.48 3.75 0
 -1 1 5 136.88 1.3 0
 -1 1 6 576.88 2.73 0
 -1 1 7 11.89 0.46 0
 -1 3 -4 125.15 0.77 0
 -1 3 -3 174.44 1.09 0
 -1 3 -2 1.81 0.2 0
 -1 3 0 498.16 2.4 0
 -1 3 1 1125.98 3.83 0
 -1 3 3 296.92 2.23 0
 -1 3 4 753.85 3.65 0
 -1 3 5 942.71 4.26 0
 -1 3 8 930.55 4.68 0
 -1 3 9 434.18 3.29 0
 -1 5 -4 3.67 0.27 0
 -1 5 -3 61.63 0.93 0
 -1 5 -2 322.4 2.21 0
 -1 5 -1 393.82 2.59 0
 -1 5 0 220.55 2.06 0
 -1 5 1 19.01 0.69 0
 -1 5 2 367.25 2.88 0
 -1 5 6 104.23 1.82 0
 -1 5 7 419.33 3.62 0
 -1 5 8 521.18 4.12 0
 -1 5 9 279.42 3.13 0
 -1 7 -2 0.38 0.33 0
 -1 7 -1 53.86 1.2 0
 -1 7 0 11.65 0.71 0
 -1 7 1 869.35 4.97 0
 -1 7 2 5.83 0.61 0
 -1 7 3 94.32 1.82 0
 -1 7 4 10.29 0.74 0
 -1 7 5 491.64 4.24 0
 0 0 4 9878.79 7.2 0
 0 2 -1 188.36 0.99 0
 0 2 0 4168.44 5.27 0
 0 2 1 199.71 1.31 0
 0 2 3 29.25 0.62 0
 0 2 4 286.91 1.92 0
 0 2 5 122.6 1.38 0
 0 2 6 456.07 2.67 0
 0 4 3 232.67 2.12 0
 0 6 0 12.87 0.64 0
 0 6 1 183.55 2.11 0
 0 6 2 1.76 0.34 0
 0 6 5 5.22 0.56 0
 -16 -8 6 1.32 1.61 0
 -16 -8 7 8.63 1.93 0
 -16 -6 6 8.78 1.6 0
 -16 -6 7 -0.77 1.5 0
 -16 -6 8 5.84 1.73 0
 -16 -6 9 3.31 1.87 0
 -16 -6 10 1.4 1.77 0
 -16 -4 7 33.17 2.43 0
 -16 -4 8 6.49 1.63 0
 -16 -4 9 10.95 1.93 0
 -16 -4 10 41.95 2.96 0
 -16 -4 11 31.7 2.85 0
 -16 -2 10 52.69 2.92 0
 -16 -2 11 4.7 1.72 0
 -15 -9 5 9.27 1.66 0
 -15 -9 6 3.94 1.69 0
 -15 -9 8 0.6 1.61 0
 -15 -7 4 2.33 1.25 0
 -15 -7 5 22.74 2.15 0
 -15 -7 6 4.66 1.74 0
 -15 -7 7 22.15 2.29 0
 -15 -7 8 7.05 1.8 0
 -15 -7 10 0.71 1.71 0
 -15 -5 5 -0.41 1.14 0
 -15 -5 6 0.98 1.3 0
 -15 -5 9 -1.13 1.51 0
 -15 -5 11 26.74 2.66 0
 -15 -5 12 4.86 1.9 0
 -15 -3 6 0.26 1.13 0
 -15 -3 7 -0.58 1.38 0
 -15 -3 9 1.37 1.53 0
 -15 -3 10 1.75 1.55 0
 -15 -3 12 30.32 2.64 0
 -15 -3 13 11.03 2.28 0
 -15 -1 9 0.26 1.24 0
 -15 -1 10 -0.6 1.37 0
 -15 -1 11 -0.62 1.66 0
 -15 -1 12 -0.5 1.41 0
 -15 -1 13 -0.04 1.4 0
 -15 -1 14 1.71 1.52 0
 -14 -10 4 2.83 1.36 0
 -14 -10 5 0.91 1.31 0
 -14 -10 6 2.6 1.37 0
 -14 -10 8 2.13 1.75 0
 -14 -8 3 29.47 2 0
 -14 -8 4 5.88 1.55 0
 -14 -8 5 31.48 2.22 0
 -14 -8 6 -1.12 1.23 0
 -14 -8 7 33.52 2.46 0
 -14 -8 8 4.72 1.57 0
 -14 -8 9 40.87 2.78 0
 -14 -8 10 4.38 1.67 0
 -14 -8 11 1.01 1.89 0
 -14 -6 3 12.49 1.61 0
 -14 -6 4 40.82 2.3 0
 -14 -6 5 35.25 2.32 0
 -14 -6 6 4.77 1.37 0
 -14 -6 7 0.71 1.45 0
 -14 -6 8 10.11 1.7 0
 -14 -6 9 28.21 2.46 0
 -14 -6 10 42.8 2.86 0
 -14 -6 13 1.14 1.82 0
 -14 -4 4 0.55 1 0
 -14 -4 5 9.96 1.66 0
 -14 -4 6 9.22 1.69 0
 -14 -4 7 6.26 1.48 0
 -14 -4 8 3.1 1.54 0
 -14 -4 9 10.12 1.8 0
 -14 -4 10 59.11 3 0
 -14 -4 11 67.04 3.25 0
 -14 -4 12 80.53 3.54 0
 -14 -4 13 2.9 1.7 0
 -14 -4 14 0.83 1.77 0
 -14 -2 6 -0.21 1.29 0
 -14 -2 7 5.02 1.4 0
 -14 -2 8 24.49 2.19 0
 -14 -2 9 25.25 2.23 0
 -14 -2 10 21.67 2.22 0
 -14 -2 11 10.03 1.99 0
 -14 -2 12 2.85 1.53 0
 -14 -2 13 0.47 1.45 0
 -14 -2 14 0.4 1.47 0
 -14 -2 15 2.61 1.92 0
 -14 0 10 2.77 1.47 0
 -14 0 12 58 2.93 0
 -13 -11 6 27.99 2.2 0
 -13 -11 7 1.73 1.49 0
 -13 -11 8 5.33 1.66 0
 -13 -9 2 3.53 1.19 0
 -13 -9 3 41.54 2.18 0
 -13 -9 4 11.66 1.67 0
 -13 -9 5 1.3 1.27 0
 -13 -9 6 6.54 1.46 0
 -13 -9 8 3.26 1.55 0
 -13 -9 9 2.28 1.65 0
 -13 -9 10 3.24 1.62 0
 -13 -9 11 -0.85 1.72 0
 -13 -7 2 -0.38 0.96 0
 -13 -7 4 13.56 1.69 0
 -13 -7 5 16 1.82 0
 -13 -7 6 30.13 2.19 0
 -13 -7 8 2.45 1.41 0
 -13 -7 10 13.27 1.94 0
 -13 -7 11 30.8 2.67 0
 -13 -7 12 15.91 2.38 0
 -13 -7 13 22.11 2.62 0
 -13 -5 2 28.46 1.72 0
 -13 -5 3 5.65 1.31 0
 -13 -5 4 -0.04 1.18 0
 -13 -5 5 -0.7 0.99 0
 -13 -5 6 6.6 1.3 0
 -13 -5 7 2.08 1.35 0
 -13 -5 8 11.77 1.6 0
 -13 -5 9 1.3 1.35 0
 -13 -5 10 4.09 1.45 0
 -13 -5 11 7.74 1.95 0
 -13 -5 12 37.14 2.73 0
 -13 -5 13 3.58 1.66 0
 -13 -5 14 7.7 1.9 0
 -13 -5 15 -0.3 2.04 0
 -13 -3 3 3.03 0.94 0
 -13 -3 4 -0.03 0.87 0
 -13 -3 5 29.68 1.95 0
 -13 -3 6 1.4 1.28 0
 -13 -3 8 2.24 1.34 0
 -13 -3 9 11.42 1.6 0
 -13 -3 11 69.04 3.11 0
 -13 -3 12 14.94 2.11 0
 -13 -3 13 -0.54 1.43 0
 -13 -3 15 12.69 2.15 0
 -13 -3 16 0.17 1.76 0
 -13 -1 5 6.5 1.13 0
 -13 -1 6 39.47 2.15 0
 -13 -1 7 4.08 1.19 0
 -13 -1 9 2.16 1.21 0
 -13 -1 10 5.5 1.49 0
 -13 -1 11 9.06 1.83 0
 -13 -1 12 1.81 1.4 0
 -13 -1 13 0.37 1.37 0
 -13 -1 14 8.93 1.78 0
 -13 -1 15 1.39 1.79 0
 -13 -1 16 2.36 1.54 0
 -13 1 9 1.42 1.13 0
 -13 1 10 2.37 1.23 0
 -13 1 11 7.05 1.44 0
 -13 1 12 1.64 1.51 0
 -13 1 13 0.2 1.55 0
 -13 1 14 6.99 1.81 0
 -13 1 16 1.28 1.65 0
 -12 -10 2 17.95 1.64 0
 -12 -10 4 5.45 1.31 0
 -12 -10 5 11.96 1.64 0
 -12 -10 6 2.02 1.37 0
 -12 -10 8 1.27 1.4 0
 -12 -10 9 1.82 1.54 0
 -12 -10 10 0.38 1.56 0
 -12 -10 11 0.04 1.79 0
 -12 -8 1 54.31 2.04 0
 -12 -8 2 23.45 1.67 0
 -12 -8 3 33.01 1.96 0
 -12 -8 4 -0.56 0.97 0
 -12 -8 5 22.56 1.91 0
 -12 -8 6 24.39 2.07 0
 -12 -8 7 12.94 1.74 0
 -12 -8 9 23.86 2.33 0
 -12 -8 10 -0.81 1.6 0
 -12 -8 11 14.48 2.16 0
 -12 -8 12 10.03 1.93 0
 -12 -8 13 2.59 1.71 0
 -12 -6 2 15 1.46 0
 -12 -6 3 24.94 1.74 0
 -12 -6 4 5.95 1.2 0
 -12 -6 5 2.11 1.17 0
 -12 -6 6 18.59 1.79 0
 -12 -6 7 8.25 1.39 0
 -12 -6 8 42.15 2.46 0
 -12 -6 9 6.12 1.78 0
 -12 -6 10 6.65 1.71 0
 -12 -6 11 19.35 2.27 0
 -12 -6 12 4.7 1.65 0
 -12 -6 13 1.55 1.54 0
 -12 -6 14 14.34 2.25 0
 -12 -6 15 0.5 1.85 0
 -12 -4 2 38.22 1.86 0
 -12 -4 5 53.01 2.27 0
 -12 -4 6 54.41 2.38 0
 -12 -4 7 68.06 2.64 0
 -12 -4 8 0.17 1.18 0
 -12 -4 9 4.72 1.38 0
 -12 -4 10 -0.37 1.41 0
 -12 -4 11 3.36 1.38 0
 -12 -4 12 29.49 2.5 0
 -12 -4 13 11.86 2.14 0
 -12 -4 14 0.17 1.6 0
 -12 -4 15 2.25 1.73 0
 -12 -4 16 63.1 3.37 0
 -12 -2 4 6.15 1.04 0
 -12 -2 5 1.77 1.09 0
 -12 -2 6 7.73 1.24 0
 -12 -2 7 103.02 3.01 0
 -12 -2 8 0.05 1 0
 -12 -2 9 7.78 1.46 0
 -12 -2 10 0.25 1.18 0
 -12 -2 11 17.24 1.95 0
 -12 -2 12 13 1.78 0
 -12 -2 15 -0.28 1.58 0
 -12 -2 16 12.09 1.92 0
 -12 -2 17 0.42 1.62 0
 -12 0 6 25.32 1.72 0
 -12 0 8 22.25 1.79 0
 -12 0 10 32.17 2.07 0
 -12 0 12 4.63 1.43 0
 -12 0 14 -0.13 1.37 0
 -12 0 16 12.41 1.89 0
 -12 2 9 7.32 1.25 0
 -12 2 10 -0.37 1.08 0
 -12 2 11 16.56 1.84 0
 -12 2 12 12.32 1.74 0
 -12 2 13 7.53 1.57 0
 -12 2 14 11.12 1.84 0
 -12 2 15 1.57 1.33 0
 -12 2 16 8.89 1.67 0
 -11 -11 4 -0.27 1.13 0
 -11 -11 5 -0.41 1.29 0
 -11 -11 6 0.88 1.44 0
 -11 -11 7 0.77 1.37 0
 -11 -11 8 1.49 1.65 0
 -11 -11 9 4.05 1.81 0
 -11 -11 10 15.45 2.13 0
 -11 -11 11 44.82 3.05 0
 -11 -9 0 0.47 0.9 0
 -11 -9 1 1.13 0.96 0
 -11 -9 2 1.66 0.96 0
 -11 -9 3 1.62 1.15 0
 -11 -9 4 3.18 1.27 0
 -11 -9 5 10.36 1.47 0
 -11 -9 6 1.67 1.22 0
 -11 -9 8 5.83 1.47 0
 -11 -9 9 11.9 1.78 0
 -11 -9 10 1.46 1.78 0
 -11 -9 11 32.82 2.69 0
 -11 -9 12 0.61 1.53 0
 -11 -9 13 7.59 1.89 0
 -11 -7 0 1.57 0.79 0
 -11 -7 2 19.4 1.47 0
 -11 -7 3 0.36 0.9 0
 -11 -7 4 48.06 2.15 0
 -11 -7 5 33.98 2.02 0
 -11 -7 6 1.77 1.22 0
 -11 -7 8 35.33 2.34 0
 -11 -7 9 30.1 2.33 0
 -11 -7 11 2.55 1.69 0
 -11 -7 12 1.75 1.59 0
 -11 -5 2 135.16 2.89 0
 -11 -5 3 3.75 0.9 0
 -11 -5 4 3.1 0.93 0
 -11 -5 6 5.18 1.29 0
 -11 -5 7 0.73 1.01 0
 -11 -5 8 2.26 1.35 0
 -11 -5 9 0.7 1.32 0
 -11 -5 10 32.43 2.31 0
 -11 -5 12 45.53 2.71 0
 -11 -5 13 14.6 2.03 0
 -11 -5 14 3.56 1.97 0
 -11 -5 15 21.2 2.55 0
 -11 -3 3 78.04 2.31 0
 -11 -3 4 28.16 1.65 0
 -11 -3 5 6.46 1.09 0
 -11 -3 6 3.78 1.14 0
 -11 -3 7 1.36 0.98 0
 -11 -3 8 18.13 1.72 0
 -11 -3 10 22 1.95 0
 -11 -3 11 82.12 3.08 0
 -11 -3 12 133.12 3.86 0
 -11 -3 14 0.21 1.4 0
 -11 -3 16 63.61 3.24 0
 -11 -3 17 3.36 1.67 0
 -11 -1 3 46.08 1.81 0
 -11 -1 4 52.42 2 0
 -11 -1 5 34.07 1.75 0
 -11 -1 6 54.66 2.12 0
 -11 -1 7 4.19 1.16 0
 -11 -1 8 37.87 2 0
 -11 -1 9 49.67 2.27 0
 -11 -1 10 75.95 2.73 0
 -11 -1 11 6.35 1.34 0
 -11 -1 12 4 1.3 0
 -11 -1 13 14.52 1.82 0
 -11 -1 14 0.14 1.26 0
 -11 -1 15 11.86 1.96 0
 -11 -1 16 0.46 1.38 0
 -11 -1 17 1.08 1.47 0
 -11 -1 18 11 2.01 0
 -11 1 6 55.68 2.06 0
 -11 1 7 5.06 1.06 0
 -11 1 9 49.23 2.24 0
 -11 1 12 4.88 1.26 0
 -11 1 13 16 1.88 0
 -11 1 14 0.62 1.15 0
 -11 1 15 12.6 1.85 0
 -11 1 16 -0.84 1.25 0
 -11 1 17 -0.06 1.36 0
 -11 3 12 126.76 3.14 0
 -11 3 13 1.79 1.12 0
 -11 3 14 -0.27 1.11 0
 -10 -12 5 10.55 1.64 0
 -10 -12 6 21.15 1.96 0
 -10 -12 7 4.37 1.63 0
 -10 -12 8 1.21 1.53 0
 -10 -12 10 44.08 2.94 0
 -10 -10 2 3.99 1.04 0
 -10 -10 5 1.68 1.18 0
 -10 -10 6 -0.7 1.12 0
 -10 -10 7 17.61 1.97 0
 -10 -10 8 0.76 1.26 0
 -10 -10 9 0.57 1.39 0
 -10 -10 11 12.58 2.14 0
 -10 -10 13 1.08 1.99 0
 -10 -8 1 1.12 0.88 0
 -10 -8 2 8.74 1.13 0
 -10 -8 3 107.44 2.73 0
 -10 -8 4 1.66 1.09 0
 -10 -8 5 1.76 1.07 0
 -10 -8 6 47.13 2.28 0
 -10 -8 7 90.11 3.02 0
 -10 -8 8 7.71 1.67 0
 -10 -8 9 0.92 1.46 0
 -10 -8 10 22.29 2.24 0
 -10 -8 11 83.99 3.37 0
 -10 -8 13 -0.7 1.43 0
 -10 -8 14 0.74 1.95 0
 -10 -8 15 60.64 3.37 0
 -10 -6 3 229.11 3.9 0
 -10 -6 4 91.71 2.6 0
 -10 -6 5 15.65 1.49 0
 -10 -6 6 13.1 1.51 0
 -10 -6 7 120.69 3.22 0
 -10 -6 8 10.15 1.57 0
 -10 -6 9 22.33 1.96 0
 -10 -6 10 21.31 1.99 0
 -10 -6 11 55.87 2.79 0
 -10 -6 12 3.52 1.49 0
 -10 -6 14 -0.43 1.88 0
 -10 -6 16 1.34 1.67 0
 -10 -4 7 18.1 1.58 0
 -10 -4 8 8.31 1.32 0
 -10 -4 9 61.25 2.52 0
 -10 -4 10 35.58 2.15 0
 -10 -4 11 73.24 2.9 0
 -10 -4 14 12.75 1.87 0
 -10 -4 15 47.79 2.91 0
 -10 -4 16 9.31 2.18 0
 -10 -4 17 13.83 2.3 0
 -10 -2 1 0.83 0.7 0
 -10 -2 6 0.88 0.72 0
 -10 -2 7 23.69 1.58 0
 -10 -2 10 2.72 1.15 0
 -10 -2 11 67.62 2.66 0
 -10 -2 12 5.32 1.31 0
 -10 -2 15 41.72 2.63 0
 -10 -2 16 21.89 2.35 0
 -10 -2 17 0.44 1.5 0
 -10 0 8 52.03 2.05 0
 -10 0 10 24.59 1.79 0
 -10 0 16 45.2 2.59 0
 -10 0 18 2.97 1.63 0
 -10 2 7 24.52 1.48 0
 -10 2 8 12.09 1.36 0
 -10 2 9 44.65 1.98 0
 -10 2 10 2.08 1.13 0
 -10 2 11 69.54 2.45 0
 -10 2 12 5.42 1.26 0
 -10 2 13 5.72 1.26 0
 -10 2 14 -0.47 1.16 0
 -10 2 16 22.51 1.97 0
 -10 2 17 0.32 1.39 0
 -9 -13 7 10.75 1.71 0
 -9 -13 8 13.58 1.92 0
 -9 -13 9 0.81 1.51 0
 -9 -11 2 18.99 1.53 0
 -9 -11 3 50.82 2.08 0
 -9 -11 4 10.63 1.49 0
 -9 -11 5 7.21 1.34 0
 -9 -11 6 11.47 1.53 0
 -9 -11 7 24.71 2.11 0
 -9 -11 8 3.96 1.62 0
 -9 -11 9 24.04 2.29 0
 -9 -11 10 4.88 1.74 0
 -9 -11 11 10.03 1.88 0
 -9 -11 12 1.39 1.67 0
 -9 -9 -1 14.47 1.09 0
 -9 -9 3 1.91 1.03 0
 -9 -9 4 0.35 1.02 0
 -9 -9 5 124.81 3.16 0
 -9 -9 6 2.89 1.31 0
 -9 -9 7 7.34 1.35 0
 -9 -9 8 15.82 1.73 0
 -9 -9 9 141.46 3.88 0
 -9 -9 10 0.95 1.39 0
 -9 -9 11 113.12 3.81 0
 -9 -9 12 7.33 1.83 0
 -9 -9 14 -0.14 1.8 0
 -9 -7 0 6.38 0.87 0
 -9 -7 4 0.25 0.74 0
 -9 -7 5 116.82 2.91 0
 -9 -7 7 95.62 2.89 0
 -9 -7 8 33.46 2.08 0
 -9 -7 9 139.91 3.69 0
 -9 -7 10 4.86 1.34 0
 -9 -7 11 193.75 4.53 0
 -9 -7 12 7.14 1.61 0
 -9 -7 14 12.86 1.96 0
 -9 -5 -1 2.2 0.62 0
 -9 -5 0 49.3 1.58 0
 -9 -5 1 14.29 1.12 0
 -9 -5 6 65.99 2.28 0
 -9 -5 7 8.38 1.3 0
 -9 -5 8 4.04 1.11 0
 -9 -5 9 2.67 1.19 0
 -9 -5 10 -0.83 0.89 0
 -9 -5 11 7.28 1.48 0
 -9 -5 12 7.23 1.53 0
 -9 -5 13 3.13 1.35 0
 -9 -5 14 -0.21 1.58 0
 -9 -5 15 6 1.95 0
 -9 -5 17 29.79 2.75 0
 -9 -5 18 3.96 1.79 0
 -9 -3 1 0.62 0.64 0
 -9 -3 2 35.72 1.46 0
 -9 -3 3 90.39 2.2 0
 -9 -3 7 102.91 2.68 0
 -9 -3 8 9.03 1.29 0
 -9 -3 9 11.66 1.47 0
 -9 -3 10 3.98 1.11 0
 -9 -3 11 7.76 1.49 0
 -9 -3 12 41.53 2.32 0
 -9 -3 13 4.56 1.51 0
 -9 -3 14 1.24 1.28 0
 -9 -3 15 4.77 1.54 0
 -9 -3 17 -0.53 1.39 0
 -9 -1 1 13.35 0.97 0
 -9 -1 2 186.73 2.97 0
 -9 -1 3 8.18 1 0
 -9 -1 4 152.49 2.86 0
 -9 -1 8 88.88 2.47 0
 -9 -1 9 28.13 1.74 0
 -9 -1 11 0.41 1.01 0
 -9 -1 14 148.09 3.78 0
 -9 -1 15 7.02 1.6 0
 -9 -1 16 41.62 2.54 0
 -9 -1 17 11.09 1.86 0
 -9 -1 18 0.48 1.54 0
 -9 -1 19 8.45 1.87 0
 -9 1 5 8.07 0.96 0
 -9 1 9 26.58 1.55 0
 -9 1 11 1.01 1.1 0
 -9 1 12 14.62 1.61 0
 -9 1 15 5.35 1.34 0
 -9 1 16 40.61 2.34 0
 -9 1 18 -0.68 1.32 0
 -9 3 9 10.06 1.23 0
 -9 3 10 4.58 0.94 0
 -9 3 11 7.1 1.09 0
 -9 3 12 40.63 1.92 0
 -9 3 13 4.16 1.2 0
 -9 3 14 1.31 1.12 0
 -9 3 15 4.12 1.23 0
 -9 3 16 78.01 2.68 0
 -8 -12 4 0.56 1.07 0
 -8 -12 5 -0.06 1.21 0
 -8 -12 7 13.91 1.9 0
 -8 -12 8 4.32 1.62 0
 -8 -12 9 7.74 1.83 0
 -8 -12 11 8.02 1.96 0
 -8 -12 12 1.41 1.98 0
 -8 -10 2 73.48 2.16 0
 -8 -10 4 2.15 0.97 0
 -8 -10 5 1.24 1.11 0
 -8 -10 7 0.86 1.25 0
 -8 -10 8 -0.22 1.17 0
 -8 -10 12 0.01 1.57 0
 -8 -10 13 20.88 2.47 0
 -8 -10 14 3.05 1.95 0
 -8 -8 -2 20.22 0.97 0
 -8 -8 -1 2.27 0.62 0
 -8 -8 0 15.17 1.04 0
 -8 -8 1 4.68 0.8 0
 -8 -8 4 0.89 0.83 0
 -8 -8 5 99.29 2.73 0
 -8 -8 6 8.17 1.27 0
 -8 -8 8 0.08 0.99 0
 -8 -8 9 108.58 3.35 0
 -8 -8 10 19.2 2.01 0
 -8 -8 11 0.73 1.36 0
 -8 -8 13 2.04 1.47 0
 -8 -8 14 0.55 1.7 0
 -8 -8 15 21.31 2.57 0
 -8 -8 16 2.77 1.95 0
 -8 -6 -2 8.53 0.73 0
 -8 -6 -1 3.64 0.64 0
 -8 -6 0 51.93 1.52 0
 -8 -6 1 104.37 2.18 0
 -8 -6 2 220.1 3.29 0
 -8 -6 7 187.54 3.84 0
 -8 -6 8 69.19 2.5 0
 -8 -6 10 5.4 1.22 0
 -8 -6 11 32.87 2.15 0
 -8 -6 13 13.67 1.85 0
 -8 -6 14 5.62 1.85 0
 -8 -6 15 33.6 2.69 0
 -8 -6 17 6.54 1.88 0
 -8 -6 18 11.25 2.34 0
 -8 -4 -1 11.33 0.87 0
 -8 -4 0 189.02 2.72 0
 -8 -4 1 624.22 4.87 0
 -8 -4 2 1130.15 6.81 0
 -8 -4 3 246 3.48 0
 -8 -4 4 8.22 1.02 0
 -8 -4 8 55.82 2.12 0
 -8 -4 9 0.65 0.97 0
 -8 -4 10 14.71 1.54 0
 -8 -4 12 0.34 1 0
 -8 -4 14 3.64 1.4 0
 -8 -4 15 11.26 1.71 0
 -8 -4 16 -0.42 1.34 0
 -8 -4 17 -1.46 1.66 0
 -8 -4 18 1.19 1.53 0
 -8 -4 19 20.66 2.58 0
 -8 -2 0 8.07 0.79 0
 -8 -2 1 49.24 1.46 0
 -8 -2 2 202.44 2.92 0
 -8 -2 3 52.99 1.61 0
 -8 -2 4 101.31 2.22 0
 -8 -2 5 0.4 0.6 0
 -8 -2 6 3.26 0.73 0
 -8 -2 9 36.74 1.82 0
 -8 -2 10 20.58 1.6 0
 -8 -2 11 4.92 1.16 0
 -8 -2 12 3.91 1.2 0
 -8 -2 13 29.25 2.03 0
 -8 -2 14 4.65 1.48 0
 -8 -2 15 39.49 2.43 0
 -8 -2 16 -0.65 1.51 0
 -8 -2 17 6.61 1.64 0
 -8 -2 18 8.48 1.89 0
 -8 0 4 355.65 3.88 0
 -8 0 6 303.13 3.85 0
 -8 0 10 239.17 3.98 0
 -8 0 12 2.85 1.01 0
 -8 0 14 1.74 1.31 0
 -8 0 18 6.89 1.47 0
 -8 2 4 102.29 2.11 0
 -8 2 5 0.83 0.58 0
 -8 2 6 3.44 0.7 0
 -8 2 7 21.41 1.26 0
 -8 2 11 7.09 1.02 0
 -8 2 12 3.37 1.06 0
 -8 2 13 26.56 1.7 0
 -8 2 14 3.75 1.11 0
 -8 2 15 42.22 2.07 0
 -8 2 17 6.03 1.38 0
 -8 4 11 1.64 0.75 0
 -8 4 12 0.04 0.86 0
 -8 4 13 -0.14 0.89 0
 -8 4 14 3.61 1.04 0
 -7 -13 5 4.02 1.3 0
 -7 -13 6 7.07 1.47 0
 -7 -13 7 1.29 1.38 0
 -7 -13 8 1.31 1.41 0
 -7 -13 9 2.72 1.57 0
 -7 -13 10 3.47 1.62 0
 -7 -13 11 -1.46 1.46 0
 -7 -11 2 17.98 1.41 0
 -7 -11 3 53.87 2.03 0
 -7 -11 7 93.9 3.13 0
 -7 -11 8 13.9 1.83 0
 -7 -11 9 68.95 3.04 0
 -7 -11 10 1.04 1.61 0
 -7 -11 11 27.61 2.51 0
 -7 -11 13 37.14 2.86 0
 -7 -11 14 12.85 2.48 0
 -7 -9 -1 135.37 2.26 0
 -7 -9 0 0.57 0.64 0
 -7 -9 1 13.16 1.11 0
 -7 -9 4 0.64 0.89 0
 -7 -9 5 25.64 1.67 0
 -7 -9 6 11.93 1.42 0
 -7 -9 7 33.46 2.05 0
 -7 -9 8 20.47 1.89 0
 -7 -9 11 4.56 1.55 0
 -7 -9 12 22.43 2.37 0
 -7 -9 13 76.39 3.38 0
 -7 -9 14 15.26 2.1 0
 -7 -9 15 50.09 3.17 0
 -7 -9 16 4.18 1.97 0
 -7 -7 -1 0.14 0.5 0
 -7 -7 0 31.3 1.22 0
 -7 -7 1 22.46 1.14 0
 -7 -7 3 48.6 1.71 0
 -7 -7 6 0.55 0.77 0
 -7 -7 7 43.11 2.03 0
 -7 -7 8 -0.21 0.97 0
 -7 -7 9 3.35 1.07 0
 -7 -7 10 0.34 1.05 0
 -7 -7 11 120.94 3.55 0
 -7 -7 12 -0.32 1.43 0
 -7 -7 13 0.35 1.31 0
 -7 -7 16 1.64 1.73 0
 -7 -7 17 16.19 2.34 0
 -7 -5 -2 179.64 2.26 0
 -7 -5 -1 30.91 1.08 0
 -7 -5 1 127.29 2.31 0
 -7 -5 2 226.63 3.09 0
 -7 -5 3 1.28 0.72 0
 -7 -5 4 43.68 1.61 0
 -7 -5 9 1.97 1 0
 -7 -5 10 8.05 1.38 0
 -7 -5 11 0.25 1.1 0
 -7 -5 12 6.59 1.31 0
 -7 -5 15 0.48 1.58 0
 -7 -5 16 20.12 2.32 0
 -7 -5 17 19.23 2.38 0
 -7 -5 18 67.24 3.35 0
 -7 -5 19 31.24 2.83 0
 -7 -3 -1 142.77 2.1 0
 -7 -3 0 246.64 2.78 0
 -7 -3 1 716.06 4.82 0
 -7 -3 2 57.41 1.55 0
 -7 -3 4 22.03 1.16 0
 -7 -3 6 5.81 0.81 0
 -7 -3 10 0.25 0.86 0
 -7 -3 11 30.39 1.85 0
 -7 -3 12 17.7 1.7 0
 -7 -3 13 0.1 1.05 0
 -7 -3 14 0.37 1.07 0
 -7 -3 15 34.08 2.36 0
 -7 -3 16 4.49 1.59 0
 -7 -3 17 0.86 1.5 0
 -7 -3 18 59.38 3.02 0
 -7 -3 19 41.75 2.73 0
 -7 -1 0 139.09 2.12 0
 -7 -1 1 137.69 2.18 0
 -7 -1 2 66.07 1.54 0
 -7 -1 6 2.18 0.61 0
 -7 -1 7 -0.06 0.52 0
 -7 -1 11 0.5 0.96 0
 -7 -1 12 13.47 1.44 0
 -7 -1 13 0.26 0.91 0
 -7 -1 15 -0.08 1.24 0
 -7 -1 16 30.79 2.2 0
 -7 -1 17 -1.17 1.28 0
 -7 -1 18 20.51 2.16 0
 -7 -1 19 0.73 1.33 0
 -7 1 4 66.22 1.63 0
 -7 1 5 28.41 1.21 0
 -7 1 6 1.92 0.57 0
 -7 1 7 0.77 0.71 0
 -7 1 8 143.56 2.79 0
 -7 1 9 1.58 0.74 0
 -7 1 12 11.82 1.31 0
 -7 1 13 0.26 0.95 0
 -7 1 14 244.33 4.39 0
 -7 1 15 -0.26 0.99 0
 -7 1 16 32.89 2.07 0
 -7 1 17 -1.14 1.21 0
 -7 3 6 6.17 0.75 0
 -7 3 8 55.24 1.69 0
 -7 3 9 10.84 1.03 0
 -7 3 10 -0.12 0.61 0
 -7 3 13 0.14 0.9 0
 -7 3 14 -0.25 0.82 0
 -7 3 15 35.25 1.8 0
 -6 -14 7 13.62 1.85 0
 -6 -14 8 0.75 1.39 0
 -6 -12 3 32.73 1.79 0
 -6 -12 4 0.27 0.97 0
 -6 -12 5 4.9 1.35 0
 -6 -12 6 6.43 1.38 0
 -6 -12 7 48.96 2.52 0
 -6 -12 8 -0.22 1.3 0
 -6 -12 9 7.07 1.59 0
 -6 -12 10 7.68 1.72 0
 -6 -12 11 0.52 1.5 0
 -6 -12 13 1.99 1.83 0
 -6 -10 0 0.1 0.6 0
 -6 -10 1 18.93 1.19 0
 -6 -10 4 1.49 0.94 0
 -6 -10 5 6.92 1.18 0
 -6 -10 8 4.96 1.46 0
 -6 -10 9 78.03 3.02 0
 -6 -10 12 1.35 1.46 0
 -6 -10 13 -1.36 1.4 0
 -6 -10 14 20.87 2.36 0
 -6 -10 15 32.67 2.88 0
 -6 -8 -2 67.43 1.45 0
 -6 -8 -1 34.91 1.13 0
 -6 -8 0 -0.1 0.48 0
 -6 -8 1 138.4 2.48 0
 -6 -8 2 22.21 1.26 0
 -6 -8 6 5.19 1.12 0
 -6 -8 9 159.15 3.75 0
 -6 -8 10 16.52 1.85 0
 -6 -8 12 0.33 1.23 0
 -6 -8 13 25.54 2.37 0
 -6 -8 14 3.34 1.54 0
 -6 -8 16 1.34 2.04 0
 -6 -6 -2 150.22 1.92 0
 -6 -6 -1 35.25 1.09 0
 -6 -6 0 95.09 1.81 0
 -6 -6 1 386 3.65 0
 -6 -6 3 14.33 1.02 0
 -6 -6 4 69.77 1.93 0
 -6 -6 8 2.9 1 0
 -6 -6 9 11.98 1.4 0
 -6 -6 10 4.03 1.23 0
 -6 -6 11 1.53 1.01 0
 -6 -6 12 10.44 1.62 0
 -6 -6 13 0.62 1.47 0
 -6 -6 15 -0.2 1.42 0
 -6 -6 17 8.1 1.96 0
 -6 -4 -2 32.3 0.92 0
 -6 -4 -1 0.41 0.35 0
 -6 -4 0 121.47 1.89 0
 -6 -4 1 118.02 1.94 0
 -6 -4 2 670.9 4.68 0
 -6 -4 3 51.82 1.5 0
 -6 -4 4 17.57 1.07 0
 -6 -4 5 186.33 2.97 0
 -6 -4 6 633.17 5.54 0
 -6 -4 11 51.48 2.21 0
 -6 -4 12 -0.05 0.91 0
 -6 -4 14 100.59 3.27 0
 -6 -4 15 17.51 2.03 0
 -6 -4 16 3.07 1.7 0
 -6 -4 19 20.18 2.46 0
 -6 -2 -1 122.32 1.78 0
 -6 -2 0 67.43 1.39 0
 -6 -2 2 490.44 3.83 0
 -6 -2 3 76.84 1.64 0
 -6 -2 7 10.84 1.02 0
 -6 -2 8 182.28 3.2 0
 -6 -2 11 9.05 1.27 0
 -6 -2 12 2.85 0.99 0
 -6 -2 13 7.34 1.4 0
 -6 -2 14 6.42 1.41 0
 -6 -2 15 8.29 1.61 0
 -6 -2 16 41.45 2.41 0
 -6 -2 17 4.55 1.64 0
 -6 -2 18 31.49 2.33 0
 -6 -2 20 -1.08 1.43 0
 -6 0 6 262.01 3.23 0
 -6 0 8 169.68 2.89 0
 -6 0 12 25.5 1.57 0
 -6 0 16 115.5 3.2 0
 -6 0 18 7.14 1.56 0
 -6 2 6 55.97 1.49 0
 -6 2 7 11.12 0.91 0
 -6 2 8 180.21 2.81 0
 -6 2 9 3.02 0.77 0
 -6 2 10 56.24 1.75 0
 -6 2 11 8.27 1.04 0
 -6 2 14 7.46 1.13 0
 -6 2 15 11.26 1.3 0
 -6 2 16 39.75 1.97 0
 -6 4 8 32.75 1.2 0
 -6 4 9 34.96 1.32 0
 -6 4 11 51.81 1.63 0
 -6 4 12 -0.14 0.7 0
 -5 -13 4 31.3 1.86 0
 -5 -13 5 -0.27 1.2 0
 -5 -13 6 -0.62 1.19 0
 -5 -13 7 4.12 1.55 0
 -5 -13 8 2.18 1.37 0
 -5 -13 9 4.75 1.68 0
 -5 -13 10 1.22 1.61 0
 -5 -13 11 0.21 1.52 0
 -5 -13 12 0.04 1.82 0
 -5 -11 3 7.77 1.14 0
 -5 -11 4 104.78 2.71 0
 -5 -11 6 83.46 2.79 0
 -5 -11 8 26.37 2.15 0
 -5 -11 9 6.24 1.52 0
 -5 -11 13 46.03 2.96 0
 -5 -11 14 2.11 1.8 0
 -5 -9 -2 3.18 0.49 0
 -5 -9 -1 64.93 1.41 0
 -5 -9 2 1.19 0.72 0
 -5 -9 5 38.43 1.79 0
 -5 -9 6 8.86 1.26 0
 -5 -9 7 11.78 1.45 0
 -5 -9 8 5.31 1.38 0
 -5 -9 9 34.67 2.18 0
 -5 -9 12 20.48 2.21 0
 -5 -9 13 6.05 1.75 0
 -5 -9 14 16.19 2.31 0
 -5 -9 15 2.46 1.77 0
 -5 -7 -3 28.92 0.72 0
 -5 -7 -1 55.99 1.25 0
 -5 -7 0 179.63 2.37 0
 -5 -7 1 54.47 1.46 0
 -5 -7 9 352.51 5.26 0
 -5 -7 10 2.33 1.11 0
 -5 -7 11 10.32 1.43 0
 -5 -7 12 6.11 1.41 0
 -5 -7 13 105.48 3.48 0
 -5 -7 14 6.89 1.58 0
 -5 -7 15 -0.42 1.63 0
 -5 -7 16 1.33 1.53 0
 -5 -7 18 1.16 1.96 0
 -5 -5 -2 5.55 0.51 0
 -5 -5 -1 48.78 1.09 0
 -5 -5 0 115.6 1.81 0
 -5 -5 1 170.84 2.25 0
 -5 -5 2 263.81 2.97 0
 -5 -5 3 37.53 1.3 0
 -5 -5 4 0.89 0.53 0
 -5 -5 5 17.85 1.12 0
 -5 -5 6 92.47 2.22 0
 -5 -5 7 46.62 1.78 0
 -5 -5 10 2.77 1.06 0
 -5 -5 11 3.08 1 0
 -5 -5 12 3.04 1.05 0
 -5 -5 13 1.1 1.07 0
 -5 -5 14 0.68 1.32 0
 -5 -5 15 0.61 1.28 0
 -5 -5 17 12.57 2.01 0
 -5 -5 19 8.19 1.9 0
 -5 -3 -2 50.43 1.02 0
 -5 -3 -1 728.33 3.71 0
 -5 -3 1 643.98 3.94 0
 -5 -3 2 618.8 4.09 0
 -5 -3 3 125.4 2.04 0
 -5 -3 4 47.45 1.36 0
 -5 -3 7 -0.17 0.63 0
 -5 -3 8 23.4 1.32 0
 -5 -3 11 0.64 0.89 0
 -5 -3 12 10.67 1.43 0
 -5 -3 13 29.49 1.89 0
 -5 -3 14 1.8 1.25 0
 -5 -3 15 4.85 1.3 0
 -5 -3 16 1.03 1.38 0
 -5 -3 18 7.34 1.87 0
 -5 -3 20 5.97 1.67 0
 -5 -1 0 413.88 2.94 0
 -5 -1 1 58.41 1.26 0
 -5 -1 2 323.78 2.85 0
 -5 -1 3 202.41 2.38 0
 -5 -1 7 19.62 1.09 0
 -5 -1 8 8.67 0.96 0
 -5 -1 9 23.42 1.28 0
 -5 -1 10 353.77 4.36 0
 -5 -1 13 1.39 0.95 0
 -5 -1 14 19.04 1.65 0
 -5 -1 15 2.81 1.18 0
 -5 -1 16 4.61 1.39 0
 -5 -1 17 1.9 1.19 0
 -5 -1 18 0.46 1.2 0
 -5 -1 19 8.4 1.65 0
 -5 1 2 326.82 2.81 0
 -5 1 3 204.96 2.32 0
 -5 1 7 17.26 0.97 0
 -5 1 8 8.77 0.86 0
 -5 1 10 354.23 4.02 0
 -5 1 11 4.04 0.81 0
 -5 1 14 20.62 1.47 0
 -5 1 15 2.22 1.09 0
 -5 1 16 3.15 1.06 0
 -5 1 17 -0.23 1.04 0
 -5 3 7 0.32 0.47 0
 -5 3 8 22.88 1.04 0
 -5 3 9 158.34 2.51 0
 -5 3 10 0.34 0.56 0
 -5 3 11 0.85 0.65 0
 -5 3 12 11.96 1.1 0
 -5 3 15 4.51 0.98 0
 -4 -14 6 2.63 1.45 0
 -4 -14 7 0.41 1.45 0
 -4 -14 8 20.85 2.2 0
 -4 -14 9 2.92 1.51 0
 -4 -14 10 19.5 2.35 0
 -4 -12 2 52.01 1.89 0
 -4 -12 3 0.69 0.86 0
 -4 -12 4 73.56 2.44 0
 -4 -12 5 1.43 1.11 0
 -4 -12 6 96.63 3.02 0
 -4 -12 7 16.52 1.93 0
 -4 -12 8 5.05 1.46 0
 -4 -12 9 20.9 2.16 0
 -4 -12 11 -0.84 1.58 0
 -4 -12 12 6.5 1.79 0
 -4 -10 -1 4.5 0.68 0
 -4 -10 0 26.18 1.14 0
 -4 -10 1 25.71 1.24 0
 -4 -10 2 10.64 1.11 0
 -4 -10 4 28.69 1.64 0
 -4 -10 5 16.4 1.46 0
 -4 -10 7 33.38 1.99 0
 -4 -10 9 111.57 3.38 0
 -4 -10 10 -0.66 1.41 0
 -4 -10 11 1.06 1.37 0
 -4 -10 13 64.52 3.17 0
 -4 -10 14 14.9 2.37 0
 -4 -10 15 36.06 2.9 0
 -4 -10 16 2.23 2.15 0
 -4 -8 -3 187.33 1.47 0
 -4 -8 -2 28.72 0.83 0
 -4 -8 -1 75.25 1.51 0
 -4 -8 0 95.25 1.83 0
 -4 -8 1 322.75 3.39 0
 -4 -8 2 67.87 1.74 0
 -4 -8 4 12.83 1.14 0
 -4 -8 7 1.68 1.01 0
 -4 -8 8 11.9 1.46 0
 -4 -8 9 3.48 1.04 0
 -4 -8 10 55.92 2.45 0
 -4 -8 11 63.99 2.71 0
 -4 -8 12 -0.29 1.32 0
 -4 -8 13 -0.37 1.21 0
 -4 -8 15 140.42 4.24 0
 -4 -6 -3 250.87 1.66 0
 -4 -6 -2 8.88 0.52 0
 -4 -6 0 46.25 1.14 0
 -4 -6 1 286.69 2.9 0
 -4 -6 2 114.41 2.04 0
 -4 -6 4 3.51 0.74 0
 -4 -6 5 188.99 3.09 0
 -4 -6 6 20.09 1.31 0
 -4 -6 11 34.8 2.01 0
 -4 -6 13 14.69 1.8 0
 -4 -6 14 2.55 1.57 0
 -4 -6 16 82.79 3.37 0
 -4 -6 17 63.1 3.18 0
 -4 -4 -2 9.13 0.46 0
 -4 -4 -1 88.07 1.27 0
 -4 -4 0 27.15 0.84 0
 -4 -4 1 825.73 4.29 0
 -4 -4 2 8.6 0.66 0
 -4 -4 5 308.5 3.47 0
 -4 -4 6 37.89 1.39 0
 -4 -4 7 0.88 0.66 0
 -4 -4 8 31.63 1.49 0
 -4 -4 12 0.18 0.98 0
 -4 -4 13 0.09 0.89 0
 -4 -4 14 17.2 1.82 0
 -4 -4 15 3.22 1.32 0
 -4 -4 16 21.27 2.14 0
 -4 -4 17 47.61 2.76 0
 -4 -4 18 152.14 4.24 0
 -4 -4 19 26.72 2.47 0
 -4 -4 20 6.28 1.76 0
 -4 -2 -1 80.56 1.15 0
 -4 -2 0 224.17 1.97 0
 -4 -2 1 1959.6 5.97 0
 -4 -2 3 51.67 1.23 0
 -4 -2 4 68.35 1.48 0
 -4 -2 7 127.99 2.37 0
 -4 -2 8 45.05 1.53 0
 -4 -2 9 66.53 1.93 0
 -4 -2 10 29.81 1.51 0
 -4 -2 14 65.42 2.42 0
 -4 -2 16 58.41 2.55 0
 -4 -2 17 62.59 2.73 0
 -4 -2 18 3.06 1.56 0
 -4 -2 19 -0.15 1.31 0
 -4 -2 20 2.42 1.6 0
 -4 0 0 2379.94 6.03 0
 -4 0 2 94.64 1.42 0
 -4 0 4 814.69 4.33 0
 -4 0 8 1.54 0.62 0
 -4 0 10 136 2.65 0
 -4 0 14 323.37 4.61 0
 -4 0 16 286.4 4.77 0
 -4 2 4 69.85 1.28 0
 -4 2 8 45.23 1.31 0
 -4 2 9 69.09 1.62 0
 -4 2 10 30.85 1.25 0
 -4 2 11 108.49 2.22 0
 -4 2 12 0.88 0.66 0
 -4 2 13 6.12 0.95 0
 -4 2 15 42.14 1.8 0
 -4 2 16 60.4 2.07 0
 -4 4 7 1.43 0.41 0
 -4 4 11 12.79 0.87 0
 -4 4 12 0.74 0.56 0
 -4 4 13 -0.33 0.52 0
 -3 -15 8 11.34 1.97 0
 -3 -13 4 -0.16 1.08 0
 -3 -13 5 -0.09 1.18 0
 -3 -13 6 11.69 1.66 0
 -3 -13 8 0.53 1.36 0
 -3 -13 9 10.43 1.96 0
 -3 -13 11 2.62 1.88 0
 -3 -13 12 3.16 1.98 0
 -3 -11 0 68.38 1.69 0
 -3 -11 3 70.27 2.14 0
 -3 -11 5 0.27 0.89 0
 -3 -11 6 0.92 1.17 0
 -3 -11 8 0.28 1.28 0
 -3 -11 9 42.87 2.49 0
 -3 -11 10 17.53 2.06 0
 -3 -11 13 1.5 1.6 0
 -3 -11 15 4.15 1.9 0
 -3 -9 -2 22.85 0.77 0
 -3 -9 -1 75.8 1.52 0
 -3 -9 0 28.18 1.11 0
 -3 -9 1 131.78 2.35 0
 -3 -9 2 7.98 0.99 0
 -3 -9 3 43.45 1.65 0
 -3 -9 6 8.89 1.12 0
 -3 -9 7 81.45 2.55 0
 -3 -9 8 1.8 1.18 0
 -3 -9 9 176.93 3.89 0
 -3 -9 10 15.18 1.71 0
 -3 -9 11 11.61 1.63 0
 -3 -9 13 74.28 3.22 0
 -3 -9 14 -0.01 1.38 0
 -3 -9 15 42.2 2.86 0
 -3 -9 16 0.55 1.94 0
 -3 -9 17 3.32 2.05 0
 -3 -7 -3 138.56 1.13 0
 -3 -7 -2 192.54 1.75 0
 -3 -7 -1 85.07 1.44 0
 -3 -7 0 8.05 0.66 0
 -3 -7 1 242.41 2.73 0
 -3 -7 2 74.02 1.68 0
 -3 -7 4 26.91 1.27 0
 -3 -7 5 8.94 0.99 0
 -3 -7 8 26.51 1.61 0
 -3 -7 9 340.62 4.99 0
 -3 -7 10 14.97 1.58 0
 -3 -7 11 33.59 2.04 0
 -3 -7 12 66.45 2.67 0
 -3 -7 13 220.24 4.63 0
 -3 -7 14 6.1 1.64 0
 -3 -7 15 74.01 3.22 0
 -3 -7 16 20.65 2.39 0
 -3 -7 17 65.07 3.3 0
 -3 -7 18 18.7 2.3 0
 -3 -5 -2 12.83 0.47 0
 -3 -5 -1 94.35 1.26 0
 -3 -5 0 132.09 1.66 0
 -3 -5 1 5 0.55 0
 -3 -5 2 68.36 1.46 0
 -3 -5 3 446.13 3.7 0
 -3 -5 4 133.14 2.27 0
 -3 -5 6 44.14 1.55 0
 -3 -5 7 240.69 3.52 0
 -3 -5 8 63.56 2 0
 -3 -5 10 -0.3 0.64 0
 -3 -5 11 19.77 1.59 0
 -3 -5 12 1.02 0.95 0
 -3 -5 13 34.89 2.09 0
 -3 -5 14 10.66 1.49 0
 -3 -5 16 -0.39 1.25 0
 -3 -5 17 5.97 1.61 0
 -3 -5 18 17.19 2.26 0
 -3 -5 19 3.96 1.78 0
 -3 -3 -2 29.46 0.6 0
 -3 -3 -1 7.68 0.45 0
 -3 -3 0 342.49 2.24 0
 -3 -3 1 643.91 3.34 0
 -3 -3 2 1345.82 5.19 0
 -3 -3 4 938.1 5.04 0
 -3 -3 8 802.18 5.93 0
 -3 -3 9 9.15 1.02 0
 -3 -3 10 3.64 0.8 0
 -3 -3 12 111.99 2.82 0
 -3 -3 13 58.07 2.26 0
 -3 -3 14 1.14 0.95 0
 -3 -3 15 -0.81 0.98 0
 -3 -3 16 10.72 1.57 0
 -3 -3 18 3.78 1.69 0
 -3 -3 19 1.82 1.45 0
 -3 -3 20 11.3 1.89 0
 -3 -1 -1 533.5 2.35 0
 -3 -1 0 3038.57 5.9 0
 -3 -1 1 291.14 2.05 0
 -3 -1 3 574.86 3.29 0
 -3 -1 5 0.53 0.43 0
 -3 -1 8 165.63 2.54 0
 -3 -1 9 33.46 1.35 0
 -3 -1 10 515.5 4.88 0
 -3 -1 11 61.84 1.94 0
 -3 -1 14 355.28 4.95 0
 -3 -1 16 29.61 1.92 0
 -3 -1 18 70.99 2.74 0
 -3 -1 19 3.3 1.37 0
 -3 1 1 289.57 1.95 0
 -3 1 2 36.26 0.82 0
 -3 1 3 582.93 3.04 0
 -3 1 4 15.63 0.68 0
 -3 1 8 165.13 2.3 0
 -3 1 9 34.47 1.23 0
 -3 1 10 516.66 4.41 0
 -3 1 11 60.12 1.7 0
 -3 1 12 0.86 0.73 0
 -3 1 13 37.54 1.57 0
 -3 1 15 15.85 1.36 0
 -3 1 16 28.21 1.67 0
 -3 1 17 25.75 1.73 0
 -3 3 4 954.64 3.82 0
 -3 3 8 809.67 4.35 0
 -3 3 9 8.95 0.7 0
 -3 3 10 4.3 0.62 0
 -3 3 11 7.31 0.76 0
 -3 3 12 116.88 2.25 0
 -3 3 13 58.8 1.62 0
 -3 3 14 1.25 0.65 0
 -2 -14 5 8.1 1.46 0
 -2 -14 6 1.58 1.34 0
 -2 -14 8 -1.2 1.26 0
 -2 -14 9 -0.05 1.5 0
 -2 -14 10 -1.04 1.44 0
 -2 -14 11 3.99 2.01 0
 -2 -12 2 26.04 1.53 0
 -2 -12 3 23.11 1.6 0
 -2 -12 4 95.7 2.69 0
 -2 -12 5 24.62 1.79 0
 -2 -12 6 136.63 3.45 0
 -2 -12 7 3.47 1.27 0
 -2 -12 8 37.79 2.36 0
 -2 -12 9 26.83 2.35 0
 -2 -12 11 -0.12 1.58 0
 -2 -12 12 -1.7 1.45 0
 -2 -12 13 33.37 2.81 0
 -2 -12 14 93.14 3.9 0
 -2 -10 0 0.32 0.55 0
 -2 -10 1 408.93 4.07 0
 -2 -10 2 4.06 0.86 0
 -2 -10 5 98.36 2.62 0
 -2 -10 6 54.58 2.18 0
 -2 -10 7 89.83 2.79 0
 -2 -10 8 13.91 1.65 0
 -2 -10 9 40.01 2.28 0
 -2 -10 10 62.04 2.8 0
 -2 -10 11 31.86 2.35 0
 -2 -10 12 -0.53 1.59 0
 -2 -10 14 8.36 2.13 0
 -2 -10 15 47.81 3.06 0
 -2 -10 16 1.57 1.75 0
 -2 -8 -3 41.37 0.69 0
 -2 -8 -2 1.02 0.36 0
 -2 -8 -1 109.88 1.66 0
 -2 -8 0 95.6 1.71 0
 -2 -8 1 54.82 1.44 0
 -2 -8 2 22.32 1.12 0
 -2 -8 3 26.91 1.25 0
 -2 -8 7 14.27 1.35 0
 -2 -8 8 20.17 1.57 0
 -2 -8 9 109.77 3 0
 -2 -8 10 29.53 1.98 0
 -2 -8 11 1.68 1.1 0
 -2 -8 12 12.71 1.84 0
 -2 -8 13 51.53 2.69 0
 -2 -8 14 72.49 3.14 0
 -2 -8 16 5.51 1.9 0
 -2 -8 17 66.74 3.39 0
 -2 -8 18 30.61 2.85 0
 -2 -6 -2 180.53 1.51 0
 -2 -6 -1 54.78 1.02 0
 -2 -6 0 36.77 0.96 0
 -2 -6 1 0.94 0.41 0
 -2 -6 3 10.07 0.81 0
 -2 -6 4 46.26 1.43 0
 -2 -6 5 72.81 1.86 0
 -2 -6 6 -0.01 0.55 0
 -2 -6 7 7.69 0.92 0
 -2 -6 12 20.47 1.73 0
 -2 -6 14 32.77 2.25 0
 -2 -6 15 17.05 2.07 0
 -2 -6 16 17.83 2.19 0
 -2 -6 17 66.03 3.17 0
 -2 -6 18 2.2 1.85 0
 -2 -4 -2 0.52 0.2 0
 -2 -4 -1 4.11 0.38 0
 -2 -4 0 11.06 0.57 0
 -2 -4 1 763.42 3.67 0
 -2 -4 2 359.11 2.8 0
 -2 -4 3 0.98 0.41 0
 -2 -4 8 1.64 0.63 0
 -2 -4 9 384.84 4.52 0
 -2 -4 13 160.16 3.56 0
 -2 -4 14 59.97 2.5 0
 -2 -4 16 11.72 1.85 0
 -2 -4 17 2.89 1.42 0
 -2 -4 18 5.61 1.73 0
 -2 -4 19 15.51 1.99 0
 -2 -4 20 -0.16 1.48 0
 -2 -2 -1 556.22 1.93 0
 -2 -2 0 634.14 2.42 0
 -2 -2 1 1032.51 3.48 0
 -2 -2 2 2344.4 5.88 0
 -2 -2 3 288.26 2.38 0
 -2 -2 4 131.33 1.83 0
 -2 -2 5 1336.98 5.82 0
 -2 -2 8 89.87 1.94 0
 -2 -2 9 574 4.97 0
 -2 -2 10 21.6 1.27 0
 -2 -2 13 152.1 3.18 0
 -2 -2 14 50.28 2.17 0
 -2 -2 16 42.87 2.23 0
 -2 -2 17 3.17 1.26 0
 -2 -2 18 0.07 1.4 0
 -2 -2 19 12.49 1.83 0
 -2 0 0 5806.42 6.61 0
 -2 0 2 644.28 2.64 0
 -2 0 4 23.2 0.73 0
 -2 0 6 0.52 0.42 0
 -2 0 10 31.44 1.27 0
 -2 0 12 25.98 1.36 0
 -2 0 16 109.01 2.82 0
 -2 0 18 1.4 1.13 0
 -2 2 3 284.77 1.75 0
 -2 2 4 130.18 1.33 0
 -2 2 5 1370.51 4.48 0
 -2 2 6 153.56 1.69 0
 -2 2 9 580.19 3.94 0
 -2 2 11 29.66 1.17 0
 -2 2 13 151.77 2.56 0
 -2 2 14 52.54 1.7 0
 -2 4 11 101.02 1.61 0
 -2 4 12 9.88 0.68 0
 -1 -15 7 19.6 2.12 0
 -1 -15 8 1.93 1.64 0
 -1 -15 9 22.09 2.48 0
 -1 -13 2 11.65 1.36 0
 -1 -13 3 32.02 1.85 0
 -1 -13 4 17.38 1.71 0
 -1 -13 5 -0.6 1.22 0
 -1 -13 8 11.08 1.77 0
 -1 -13 9 30.35 2.41 0
 -1 -13 10 32.91 2.58 0
 -1 -13 12 0.9 1.76 0
 -1 -11 3 -0.29 0.76 0
 -1 -11 4 172.19 3.41 0
 -1 -11 5 10.73 1.41 0
 -1 -11 6 44.2 2.14 0
 -1 -11 8 77.45 2.86 0
 -1 -11 9 91.14 3.19 0
 -1 -11 10 46.47 2.59 0
 -1 -11 11 1.75 1.39 0
 -1 -11 12 7.69 2 0
 -1 -11 13 41.22 2.87 0
 -1 -11 14 10.06 2.13 0
 -1 -9 -3 11.58 0.53 0
 -1 -9 -2 100.79 1.58 0
 -1 -9 -1 43.14 1.18 0
 -1 -9 0 6.83 0.79 0
 -1 -9 1 52.76 1.52 0
 -1 -9 2 71.4 1.82 0
 -1 -9 3 2.97 0.75 0
 -1 -9 6 16.24 1.42 0
 -1 -9 7 52.73 2.13 0
 -1 -9 8 18.38 1.61 0
 -1 -9 9 6.27 1.21 0
 -1 -9 10 22.02 1.89 0
 -1 -9 11 1.2 1.2 0
 -1 -9 12 14.08 2.05 0
 -1 -9 13 22.77 2.22 0
 -1 -9 16 11.63 2.04 0
 -1 -9 17 -0.93 1.76 0
 -1 -7 -3 294.95 1.65 0
 -1 -7 -2 0.88 0.32 0
 -1 -7 -1 55.13 1.16 0
 -1 -7 0 11.35 0.7 0
 -1 -7 9 8.22 1.25 0
 -1 -7 10 57.47 2.24 0
 -1 -7 11 16.26 1.55 0
 -1 -7 12 14.46 1.68 0
 -1 -7 15 19.36 2.2 0
 -1 -7 17 0.36 1.81 0
 -1 -7 19 2.07 1.97 0
 -1 -5 -2 320.56 1.7 0
 -1 -5 8 512.47 5.08 0
 -1 -5 11 29.92 1.71 0
 -1 -5 12 72.75 2.52 0
 -1 -5 13 129.36 3.33 0
 -1 -5 14 7.16 1.35 0
 -1 -5 18 40.7 2.73 0
 -1 -5 19 4.55 1.83 0
 -1 -5 20 1.01 1.82 0
 -1 -3 -1 147.79 1.01 0
 -1 -3 8 926.83 6.03 0
 -1 -3 9 435.64 4.47 0
 -1 -3 10 26.78 1.43 0
 -1 -3 14 50.59 2.2 0
 -1 -3 15 34.31 2.05 0
 -1 -3 17 26.54 2.17 0
 -1 -3 18 2.32 1.38 0
 -1 -3 19 -0.33 1.43 0
 -1 -3 20 33.69 2.49 0
 -1 -1 1 37.82 0.58 0
 -1 -1 2 858.32 2.95 0
 -1 -1 3 0.44 0.29 0
 -1 -1 4 1338.44 4.69 0
 -1 -1 5 142.18 1.81 0
 -1 -1 6 569.46 3.71 0
 -1 -1 8 -0.19 0.4 0
 -1 -1 9 22.87 1.11 0
 -1 -1 10 2.29 0.74 0
 -1 -1 11 32.6 1.43 0
 -1 -1 12 0.87 0.76 0
 -1 -1 14 51.82 2 0
 -1 -1 15 27.19 1.77 0
 -1 -1 16 60.66 2.34 0
 -1 -1 17 44.63 2.18 0
 -1 1 1 39 0.47 0
 -1 1 2 846.95 2.25 0
 -1 1 3 0.71 0.21 0
 -1 1 4 1346.68 3.86 0
 -1 1 5 139.9 1.49 0
 -1 1 6 568.75 3.16 0
 -1 1 7 12.16 0.62 0
 -1 1 9 23.18 0.98 0
 -1 1 11 33.04 1.25 0
 -1 1 12 0.19 0.64 0
 -1 1 13 5.87 0.94 0
 -1 1 16 62.7 2.1 0
 -1 3 5 925.52 2.81 0
 -1 3 6 176.45 1.43 0
 -1 3 7 10.43 0.47 0
 -1 3 11 23.58 0.92 0
 -1 3 12 302.36 2.98 0
 -1 3 13 39.67 1.24 0
 0 -14 4 81.46 2.73 0
 0 -14 5 13.91 1.76 0
 0 -14 7 -0.35 1.29 0
 0 -14 9 22.99 2.45 0
 0 -14 11 23.33 2.68 0
 0 -12 2 0.45 0.87 0
 0 -12 3 12.71 1.4 0
 0 -12 5 12.18 1.58 0
 0 -12 7 30.88 2.16 0
 0 -12 8 0.53 1.25 0
 0 -12 9 -0.07 1.35 0
 0 -12 10 16.3 2.19 0
 0 -12 12 2.13 1.67 0
 0 -12 14 18.68 2.66 0
 0 -10 -2 0.29 0.45 0
 0 -10 -1 260.19 2.9 0
 0 -10 0 41.68 1.38 0
 0 -10 7 110.14 3 0
 0 -10 8 0.82 1.06 0
 0 -10 10 13.2 1.66 0
 0 -10 11 39.48 2.51 0
 0 -10 13 5.96 1.69 0
 0 -10 15 35.01 2.81 0
 0 -10 16 1.54 1.85 0
 0 -8 -4 4.35 0.3 0
 0 -8 -3 103.06 1.31 0
 0 -8 10 3.31 1.09 0
 0 -8 11 6.53 1.4 0
 0 -8 13 8.19 1.7 0
 0 -8 14 9.55 1.74 0
 0 -8 15 7.02 1.69 0
 0 -8 16 2.83 1.91 0
 0 -8 17 27.33 2.68 0
 0 -8 18 27.01 2.73 0
 0 -6 11 13.97 1.46 0
 0 -6 12 90.89 2.85 0
 0 -6 13 24.96 1.93 0
 0 -6 14 7.3 1.43 0
 0 -6 16 53.1 2.84 0
 0 -6 17 18.85 2.25 0
 0 -6 18 27.24 2.55 0
 0 -6 19 14.21 2.18 0
 0 -4 13 21.62 1.68 0
 0 -4 14 4.84 1.21 0
 0 -4 15 14.68 1.82 0
 0 -4 16 0.3 1.21 0
 0 -4 17 31.28 2.34 0
 0 -4 18 11.42 1.75 0
 0 -4 19 24.96 2.4 0
 0 -4 20 1.92 1.49 0
 0 -2 10 7.69 0.96 0
 0 -2 14 2.48 0.95 0
 0 -2 15 0.23 0.95 0
 0 -2 16 6.96 1.36 0
 0 -2 17 143.35 3.55 0
 0 -2 19 8.37 1.57 0
 0 0 10 75.66 1.75 0
 0 0 12 67.4 1.88 0
 0 0 16 4.3 1.16 0
 0 2 4 273.45 1.29 0
 0 2 5 120.41 1.1 0
 0 2 6 439.04 2.31 0
 0 2 10 6.93 0.67 0
 0 2 11 11.44 0.8 0
 0 2 12 6.97 0.76 0
 0 2 13 210.14 2.9 0
 0 2 14 2.45 0.7 0
 0 2 15 -0.58 0.61 0
 0 4 8 323.23 1.52 0
 0 4 9 8.95 0.39 0
 0 4 11 5.28 0.46 0
 1 -15 7 31.57 2.49 0
 1 -13 2 24.39 1.64 0
 1 -13 3 3.56 1.21 0
 1 -13 4 1.59 1.18 0
 1 -13 5 14.28 1.76 0
 1 -13 7 58.21 2.73 0
 1 -13 10 2.21 1.72 0
 1 -13 12 -0.9 1.91 0
 1 -11 9 25.31 2.13 0
 1 -11 11 24.7 2.31 0
 1 -11 13 32.39 2.64 0
 1 -11 14 38.6 2.93 0
 1 -11 15 57.57 3.35 0
 1 -9 13 7.95 1.86 0
 1 -9 15 46.47 2.95 0
 1 -9 16 27.4 2.73 0
 1 -9 17 69.01 3.51 0
 1 -7 12 24.3 1.92 0
 1 -7 15 5.31 1.75 0
 1 -7 17 99.18 3.75 0
 1 -5 13 39.39 2.06 0
 1 -5 14 25.3 2 0
 1 -5 15 10.24 1.67 0
 1 -5 16 18.66 1.95 0
 1 -5 17 -0.67 1.3 0
 1 -5 18 1.1 1.36 0
 1 -5 19 -0.76 1.36 0
 1 -5 20 5.25 1.87 0
 1 -3 13 149.66 3.23 0
 1 -3 14 61.1 2.36 0
 1 -3 15 45.55 2.25 0
 1 -3 16 4.41 1.27 0
 1 -3 17 12.54 1.73 0
 1 -3 18 -0.32 1.44 0
 1 -3 19 18.46 2 0
 1 -1 11 -0.02 0.63 0
 1 -1 12 37.66 1.6 0
 1 -1 14 1.64 0.88 0
 1 -1 15 3.77 1.16 0
 1 -1 16 182.42 3.69 0
 1 -1 17 0.74 1.03 0
 1 -1 18 72.51 2.62 0
 1 1 9 55.97 1.29 0
 1 1 10 35.21 1.18 0
 1 1 11 0.12 0.53 0
 1 1 12 37.89 1.35 0
 1 1 13 21.57 1.2 0
 1 1 14 1.83 0.75 0
 1 1 16 175.46 3.24 0
 1 3 6 76.87 0.73 0
 1 3 7 3.59 0.3 0
 1 3 8 20.05 0.57 0
 1 3 10 0.18 0.33 0
 1 3 12 44.25 1.13 0
 2 -14 3 30.85 1.91 0
 2 -14 4 23.99 1.92 0
 2 -14 5 0.65 1.37 0
 2 -14 6 39.36 2.48 0
 2 -14 7 70.67 3.01 0
 2 -14 8 1.94 1.7 0
 2 -14 9 55.69 3 0
 2 -14 10 2.93 1.81 0
 2 -12 9 43.92 2.58 0
 2 -12 10 15.5 2.04 0
 2 -12 11 1.56 1.73 0
 2 -12 12 2.86 1.72 0
 2 -12 14 24.87 2.64 0
 2 -10 12 27.68 2.37 0
 2 -10 13 0.8 1.43 0
 2 -10 15 10.09 2.3 0
 2 -10 16 2.55 1.76 0
 2 -8 15 41.24 2.7 0
 2 -8 16 16.11 2.26 0
 2 -8 17 20.83 2.59 0
 2 -6 15 68.37 2.96 0
 2 -6 16 16.06 2 0
 2 -6 17 3.05 1.6 0
 2 -6 18 3.37 1.71 0
 2 -4 14 181.02 3.81 0
 2 -4 15 39.91 2.26 0
 2 -4 16 1.81 1.46 0
 2 -4 17 9.89 1.72 0
 2 -4 18 15.55 1.95 0
 2 -4 19 13.05 2.09 0
 2 -2 13 -0.45 0.72 0
 2 -2 14 58.18 2.17 0
 2 -2 15 6.67 1.2 0
 2 -2 16 31.48 1.99 0
 2 -2 17 36.79 2.21 0
 2 0 12 300.47 3.68 0
 2 0 16 222.15 3.8 0
 2 2 10 39.84 1.09 0
 2 2 11 2.23 0.55 0
 2 2 12 1.84 0.57 0
 2 2 13 0.18 0.5 0
 2 2 14 58.74 1.6 0
 3 -15 5 22.8 2.17 0
 3 -15 6 0.12 1.48 0
 3 -15 7 -1.94 1.44 0
 3 -13 9 11.45 1.95 0
 3 -13 10 2.23 1.65 0
 3 -13 11 6.69 2.05 0
 3 -13 12 10.2 2.19 0
 3 -11 14 0.68 2 0
 3 -11 15 88.08 3.92 0
 3 -9 14 0.7 1.41 0
 3 -9 15 67.95 3.33 0
 3 -9 16 9.79 2.13 0
 3 -9 17 37.79 3.28 0
 3 -7 16 0.83 1.72 0
 3 -7 17 35.02 2.74 0
 3 -7 18 7.7 2.18 0
 3 -5 15 1.92 1.25 0
 3 -5 18 3.21 1.78 0
 3 -5 19 1.96 1.48 0
 3 -3 15 32.45 2.05 0
 3 -3 16 46.21 2.34 0
 3 -3 17 1.41 1.22 0
 3 -1 14 35.74 1.75 0
 3 -1 15 4.34 1.18 0
 3 -1 16 90.15 2.68 0
 3 -1 17 11.3 1.53 0
 3 1 12 0.06 0.6 0
 3 1 13 11.05 1.04 0
 3 1 14 34.21 1.5 0
 3 3 10 43.49 0.98 0
 3 3 11 66.11 1.25 0
 3 3 12 37.29 1.04 0
 4 -14 8 24.34 2.45 0
 4 -14 9 6.34 1.81 0
 4 -12 12 1.14 1.6 0
 4 -12 13 68.75 3.49 0
 4 -10 14 15.11 2.28 0
 4 -8 15 48.23 2.96 0
 4 -8 16 22.18 2.48 0
 4 -8 17 29.11 2.69 0
 4 -6 17 2.34 1.69 0
 4 -6 18 4.79 1.69 0
 4 -4 16 13.23 1.85 0
 4 -4 17 37.92 2.44 0
 4 -4 18 80.28 3.22 0
 4 -4 19 27.8 2.38 0
 4 -2 15 0.04 0.94 0
 4 -2 16 76.58 2.71 0
 4 -2 18 10.84 1.61 0
 4 0 16 197.44 3.69 0
 4 2 12 11.17 0.84 0
 5 -15 7 7.54 1.84 0
 5 -11 14 0.46 1.68 0
 5 -9 16 5.65 1.83 0
 5 -7 16 5.74 1.86 0
 5 -5 17 28.07 2.36 0
 5 -5 18 -1.26 1.34 0
 5 -5 19 1.72 1.7 0
 5 -3 16 5.42 1.49 0
 5 -3 17 35.96 2.29 0
 5 -3 18 7.97 1.73 0
 5 -1 16 9.98 1.42 0
 6 -6 18 2.89 1.68 0
 6 -4 17 5.77 1.71 0
 6 -4 18 21.34 2.3 0
 6 -2 17 -0.04 1.22 0
 7 -5 18 3.12 1.75 0
 7 -3 17 1.32 1.44 0
 8 -4 18 -1.17 1.38 0

_iucr_refine_fcf_details
;
data_fk_03448_intdb_v128
_computing_structure_refinement   'olex2.refine 1.5-alpha (Bourhis et al., 2015)'
_shelx_refln_list_code            4
loop_
  _space_group_symop_id
  _space_group_symop_operation_xyz
  1  x,y,z
  2  -x,y,-z+1/2
  3  -x,-y,-z
  4  x,-y,z-1/2
  5  x+1/2,y+1/2,z
  6  -x+1/2,y+1/2,-z+1/2
  7  -x+1/2,-y+1/2,-z
  8  x+1/2,-y+1/2,z-1/2

_space_group_crystal_system       monoclinic
_space_group_IT_number            15
_space_group_name_H-M_alt         'C 1 2/c 1'
_space_group_name_Hall            '-C 2yc'
_symmetry_space_group_name_H-M    'C 1 2/c 1'
_symmetry_space_group_name_Hall   '-C 2yc'
_symmetry_Int_Tables_number       15
_cell_length_a                    10.526(3)
_cell_length_b                    8.959(3)
_cell_length_c                    11.327(3)
_cell_angle_alpha                 90
_cell_angle_beta                  93.74(2)
_cell_angle_gamma                 90
_cell_volume                      1065.9(5)
loop_
  _refln_index_h
  _refln_index_k
  _refln_index_l
  _refln_F_squared_calc
  _refln_F_squared_meas
  _refln_F_squared_sigma
  _refln_F_squared_weight
  _refln_observed_status
-19 1 1 26.977 19.667 2.312 33.869 o
-19 1 2 211.810 232.702 4.800 1.895 o
-19 1 3 0.127 -1.696 1.736 160.519 o
-19 1 4 130.712 145.822 3.651 4.133 o
-19 1 5 17.036 14.534 1.978 51.872 o
-19 1 6 7.061 1.434 3.265 39.937 o
-19 3 1 22.347 16.833 1.976 43.651 o
-19 3 2 0.015 1.406 1.705 160.304 o
-19 3 3 7.709 6.647 2.038 76.069 o
-19 3 4 20.975 15.294 5.092 14.966 o
-18 0 2 52.092 49.600 3.427 13.698 o
-18 0 4 39.473 31.321 2.948 20.431 o
-18 0 6 72.463 74.417 3.864 8.908 o
-18 0 8 60.124 55.092 2.935 13.060 o
-18 2 1 5.372 1.410 1.840 106.526 o
-18 2 2 6.145 3.621 1.969 89.254 o
-18 2 3 1.005 1.965 1.627 161.176 o
-18 2 4 71.119 71.466 2.713 10.679 o
-18 2 5 3.732 4.774 1.595 130.196 o
-18 2 6 72.990 76.086 2.936 9.918 o
-18 2 7 0.750 -0.944 1.445 218.787 o
-18 2 8 2.907 1.417 1.613 147.927 o
-18 2 9 15.166 7.493 5.125 16.061 o
-18 4 1 0.062 -1.375 1.729 162.458 o
-18 4 2 1.755 1.601 2.103 99.288 o
-18 4 3 4.462 2.771 1.715 119.326 o
-18 4 4 7.093 8.473 1.728 91.873 o
-18 4 5 26.260 24.319 1.994 36.060 o
-18 4 6 32.847 29.606 1.961 29.745 o
-18 4 7 3.495 3.478 1.945 101.546 o
-18 4 8 0.018 -5.225 2.553 74.769 o
-18 6 1 38.723 29.737 2.779 21.824 o
-18 6 2 0.955 -0.207 1.899 128.854 o
-18 6 3 5.387 4.073 2.006 88.659 o
-18 6 4 3.623 1.800 2.831 54.848 o
-18 6 5 0.002 -1.514 4.076 29.352 o
-17 1 1 1.329 0.160 1.597 173.127 o
-17 1 2 36.763 33.049 2.168 25.378 o
-17 1 3 1.944 2.916 1.708 136.568 o
-17 1 4 4.695 7.641 1.718 104.677 o
-17 1 5 4.411 2.802 1.563 136.076 o
-17 1 6 55.904 51.870 2.587 14.895 o
-17 1 7 0.423 -2.090 1.329 264.403 o
-17 1 8 47.205 46.823 2.390 18.121 o
-17 1 9 10.462 6.553 1.735 82.968 o
-17 1 10 2.843 4.061 1.682 129.118 o
-17 1 11 0.202 -0.427 1.690 168.630 o
-17 3 1 4.836 1.836 1.965 97.734 o
-17 3 2 16.461 20.132 2.623 37.610 o
-17 3 3 45.191 39.566 2.507 19.348 o
-17 3 4 68.880 79.944 2.733 10.412 o
-17 3 5 12.662 11.649 1.678 71.526 o
-17 3 6 30.240 26.336 1.917 32.925 o
-17 3 7 101.985 105.683 2.759 6.498 o
-17 3 8 51.762 52.925 2.525 15.825 o
-17 3 9 34.524 32.577 2.615 23.818 o
-17 3 10 79.808 87.775 2.996 8.606 o
-17 5 1 4.414 3.743 1.569 131.880 o
-17 5 2 8.928 7.791 1.750 85.250 o
-17 5 3 79.255 90.380 2.990 8.545 o
-17 5 4 14.367 11.877 1.790 63.667 o
-17 5 5 0.712 -0.033 1.463 214.360 o
-17 5 6 26.289 23.691 1.743 39.027 o
-17 5 7 100.000 109.207 2.930 6.428 o
-17 5 8 39.858 36.058 2.317 22.617 o
-17 5 9 1.364 0.065 2.067 107.558 o
-17 7 1 13.371 13.980 1.929 59.558 o
-17 7 2 0.286 -0.863 1.471 219.846 o
-17 7 3 10.144 5.574 1.607 92.588 o
-17 7 4 0.001 0.268 1.719 163.649 o
-17 7 5 11.593 9.929 2.239 57.059 o
-17 7 6 0.039 0.830 1.949 125.556 o
-17 7 7 22.846 17.413 3.055 28.981 o
-16 0 2 459.900 487.077 8.470 0.489 o
-16 0 4 790.998 859.553 14.538 0.172 o
-16 0 6 5.249 2.303 2.028 90.758 o
-16 0 8 293.476 316.295 5.045 1.115 o
-16 0 10 51.181 54.931 3.457 13.333 o
-16 0 12 1.673 2.499 2.258 86.169 o
-16 2 1 6.566 4.107 1.483 124.102 o
-16 2 2 35.303 30.988 1.980 27.780 o
-16 2 3 1.182 0.686 1.518 188.202 o
-16 2 4 287.666 302.251 3.770 1.202 o
-16 2 5 24.848 18.395 1.680 44.164 o
-16 2 6 90.686 96.998 2.514 7.686 o
-16 2 7 25.520 24.563 1.533 41.661 o
-16 2 8 70.622 70.224 2.359 11.268 o
-16 2 9 6.913 7.370 1.307 126.083 o
-16 2 10 197.715 204.699 3.342 2.301 o
-16 2 11 15.819 13.746 1.659 62.387 o
-16 2 12 20.215 18.176 2.091 43.447 o
-16 2 13 0.022 -2.121 2.292 92.772 o
-16 4 1 37.018 32.136 1.952 26.715 o
-16 4 2 35.057 30.712 2.001 27.864 o
-16 4 3 31.395 28.267 1.853 31.942 o
-16 4 4 0.328 1.929 1.605 172.938 o
-16 4 5 124.322 125.179 3.461 4.733 o
-16 4 6 225.455 240.302 3.939 1.793 o
-16 4 7 116.487 124.011 2.556 5.355 o
-16 4 8 26.460 22.518 1.530 41.787 o
-16 4 9 51.670 44.529 2.127 17.985 o
-16 4 10 161.314 175.190 4.571 2.921 o
-16 4 11 109.221 115.096 3.517 5.529 o
-16 4 12 91.852 92.714 6.367 5.025 o
-16 6 1 0.075 -1.649 1.397 248.229 o
-16 6 2 2.086 1.420 1.590 159.252 o
-16 6 3 71.879 76.549 2.989 9.951 o
-16 6 4 0.185 -0.703 1.431 234.137 o
-16 6 5 62.557 64.879 2.811 12.147 o
-16 6 6 43.770 40.514 2.222 20.766 o
-16 6 7 0.130 -0.968 1.594 190.067 o
-16 6 8 31.251 27.526 1.949 31.541 o
-16 6 9 17.826 16.338 2.047 48.144 o
-16 6 10 11.130 11.717 2.320 54.066 o
-16 8 1 5.078 3.738 1.588 125.175 o
-16 8 2 0.003 -0.520 1.540 205.607 o
-16 8 3 322.310 351.379 5.265 0.939 o
-16 8 4 21.131 17.570 1.859 46.520 o
-16 8 5 88.912 96.147 3.267 7.343 o
-16 8 6 5.912 3.164 1.850 99.291 o
-16 8 7 42.380 34.126 2.238 22.380 o
-16 8 8 3.239 -0.596 2.730 60.383 o
-15 1 1 0.492 -0.258 1.102 373.156 o
-15 1 2 539.430 577.058 5.763 0.378 o
-15 1 3 25.334 22.331 1.832 39.602 o
-15 1 4 200.936 218.633 3.412 2.175 o
-15 1 5 1.079 0.942 1.401 216.279 o
-15 1 6 22.606 21.901 1.593 45.942 o
-15 1 7 9.811 8.465 1.188 112.106 o
-15 1 8 12.290 11.434 1.494 79.743 o
-15 1 9 2.886 2.130 1.098 247.675 o
-15 1 10 0.821 0.709 1.302 254.492 o
-15 1 11 0.002 -1.337 1.379 256.617 o
-15 1 12 0.692 1.282 1.278 258.650 o
-15 1 13 0.003 -2.435 1.486 220.865 o
-15 1 14 5.565 5.452 2.429 64.509 o
-15 3 1 9.268 6.228 1.449 104.715 o
-15 3 2 67.629 72.515 2.704 11.069 o
-15 3 3 19.231 19.544 1.654 51.311 o
-15 3 4 135.274 138.618 2.750 4.314 o
-15 3 5 17.883 17.837 1.470 58.610 o
-15 3 6 0.129 0.459 1.168 340.971 o
-15 3 7 0.888 2.834 1.137 281.767 o
-15 3 8 58.530 63.327 1.898 14.549 o
-15 3 9 8.822 5.911 1.322 116.934 o
-15 3 10 6.445 6.446 1.573 110.063 o
-15 3 11 26.988 26.103 1.954 35.158 o
-15 3 12 112.023 120.231 3.221 5.410 o
-15 3 13 37.972 37.281 2.534 22.021 o
-15 3 14 1.874 0.318 2.507 73.094 o
-15 5 1 42.617 41.004 2.251 20.970 o
-15 5 2 4.766 2.759 1.477 143.857 o
-15 5 3 89.227 97.218 2.559 7.763 o
-15 5 4 8.965 7.607 1.713 87.402 o
-15 5 5 0.078 -0.296 1.191 340.422 o
-15 5 6 0.396 1.376 1.553 186.437 o
-15 5 7 57.869 65.373 2.210 13.944 o
-15 5 8 11.655 12.845 1.553 77.256 o
-15 5 9 0.001 -0.233 1.247 313.409 o
-15 5 10 59.637 64.856 3.174 11.926 o
-15 5 11 88.372 101.537 3.296 7.176 o
-15 5 12 21.873 18.748 2.083 41.527 o
-15 5 13 12.648 9.212 3.079 36.999 o
-15 7 1 397.272 429.938 6.188 0.646 o
-15 7 2 11.155 6.751 1.769 78.889 o
-15 7 3 353.140 376.942 5.245 0.813 o
-15 7 4 4.751 5.156 1.364 147.053 o
-15 7 5 79.488 86.671 2.673 8.977 o
-15 7 6 14.475 12.174 1.678 66.476 o
-15 7 7 75.520 83.308 3.291 8.903 o
-15 7 8 33.160 26.471 1.937 30.717 o
-15 7 9 62.510 70.966 3.292 10.941 o
-15 7 10 6.716 4.039 1.821 96.177 o
-15 7 11 15.538 8.184 2.692 42.282 o
-15 9 1 28.718 23.273 2.016 34.302 o
-15 9 2 3.249 0.977 1.367 188.434 o
-15 9 3 211.056 227.392 3.925 1.986 o
-15 9 4 31.279 32.913 2.325 27.121 o
-15 9 5 34.077 33.920 2.022 27.387 o
-15 9 6 22.658 18.415 2.018 41.837 o
-15 9 7 11.995 8.622 1.891 69.194 o
-15 9 8 0.379 1.274 2.280 90.509 o
-14 0 2 82.542 77.855 3.339 8.474 o
-14 0 4 711.845 734.726 8.097 0.228 o
-14 0 6 46.414 38.692 2.561 18.908 o
-14 0 8 857.442 965.579 8.203 0.152 o
-14 0 10 7.446 5.598 1.566 107.569 o
-14 0 12 223.685 223.110 4.196 1.870 o
-14 0 14 28.346 30.618 3.463 21.015 o
-14 2 1 2.474 3.716 1.017 260.212 o
-14 2 2 45.729 52.240 1.697 19.827 o
-14 2 3 295.543 297.497 4.125 1.169 o
-14 2 4 84.576 84.930 2.885 8.410 o
-14 2 5 91.333 99.694 2.558 7.509 o
-14 2 6 0.031 0.421 1.025 444.968 o
-14 2 7 17.023 15.955 1.313 65.934 o
-14 2 8 95.216 95.362 1.867 7.742 o
-14 2 9 95.066 93.416 1.983 7.777 o
-14 2 10 81.189 81.451 2.043 9.594 o
-14 2 11 32.998 33.064 2.043 28.080 o
-14 2 12 11.068 8.413 1.371 95.494 o
-14 2 13 3.298 2.865 1.500 153.940 o
-14 2 14 0.268 2.867 1.597 169.793 o
-14 2 15 14.735 15.508 2.820 37.621 o
-14 4 1 12.900 12.682 1.344 81.338 o
-14 4 2 36.348 38.077 1.834 26.166 o
-14 4 3 48.550 51.616 2.112 17.907 o
-14 4 4 0.922 1.570 1.212 272.068 o
-14 4 5 38.908 36.926 1.942 24.659 o
-14 4 6 36.226 35.301 2.138 25.270 o
-14 4 7 28.827 24.660 1.392 39.499 o
-14 4 8 12.606 10.989 1.286 87.717 o
-14 4 9 43.167 40.727 1.667 23.079 o
-14 4 10 210.841 223.036 3.637 2.028 o
-14 4 11 254.193 273.722 4.138 1.452 o
-14 4 12 288.307 311.941 4.149 1.168 o
-14 4 13 17.146 13.027 1.743 58.372 o
-14 4 14 10.160 8.605 1.841 75.868 o
-14 6 1 40.090 35.800 2.405 22.148 o
-14 6 2 35.287 32.614 1.927 27.665 o
-14 6 3 45.118 45.672 1.930 20.458 o
-14 6 4 144.424 158.886 3.572 3.610 o
-14 6 5 122.331 126.594 2.675 5.017 o
-14 6 6 24.609 19.500 1.498 46.187 o
-14 6 7 7.049 4.641 1.440 123.041 o
-14 6 8 35.251 35.141 1.955 26.837 o
-14 6 9 104.135 102.872 2.365 6.631 o
-14 6 10 138.379 156.806 3.611 3.779 o
-14 6 11 27.130 24.520 2.124 33.957 o
-14 6 12 50.857 52.663 2.492 16.147 o
-14 6 13 4.962 5.145 2.019 87.493 o
-14 8 1 43.205 37.169 2.997 18.296 o
-14 8 2 5.617 8.727 1.898 86.699 o
-14 8 3 114.688 116.480 2.606 5.596 o
-14 8 4 23.945 23.215 1.754 41.514 o
-14 8 5 109.864 117.613 2.533 5.831 o
-14 8 6 0.675 0.002 1.348 250.989 o
-14 8 7 121.984 119.662 3.074 5.052 o
-14 8 8 27.619 21.404 1.962 36.482 o
-14 8 9 151.371 155.116 3.427 3.516 o
-14 8 10 21.073 16.669 2.073 43.617 o
-14 8 11 11.735 8.732 1.664 78.741 o
-14 10 1 47.490 48.875 2.934 16.064 o
-14 10 2 3.665 4.591 1.651 125.155 o
-14 10 3 42.518 37.620 2.422 20.872 o
-14 10 4 7.832 7.340 1.622 97.689 o
-14 10 5 0.063 0.054 1.559 199.229 o
-14 10 6 18.272 13.289 1.853 53.677 o
-14 10 7 20.902 16.218 2.335 39.896 o
-14 10 8 7.603 7.391 2.257 65.821 o
-14 10 9 36.285 38.434 5.707 10.185 o
-13 1 1 5.933 5.743 0.746 209.709 o
-13 1 2 777.354 823.178 6.219 0.193 o
-13 1 3 7.402 6.296 0.903 164.474 o
-13 1 4 267.588 269.503 3.609 1.400 o
-13 1 5 32.154 26.954 1.470 34.763 o
-13 1 6 164.365 163.380 2.791 3.229 o
-13 1 7 14.794 13.895 1.048 82.387 o
-13 1 8 174.701 180.293 2.496 2.896 o
-13 1 9 8.912 7.271 0.942 140.004 o
-13 1 10 15.683 15.805 1.063 75.843 o
-13 1 11 26.735 28.400 1.497 38.766 o
-13 1 12 6.593 5.676 1.159 150.220 o
-13 1 13 1.113 -0.837 1.344 241.988 o
-13 1 14 36.981 31.312 1.935 27.051 o
-13 1 15 4.028 3.738 1.996 94.893 o
-13 1 16 2.951 5.728 2.583 62.448 o
-13 3 1 0.122 0.696 0.825 634.150 o
-13 3 2 175.656 183.647 3.214 2.783 o
-13 3 3 7.939 7.095 1.116 135.401 o
-13 3 4 1.327 1.304 1.162 282.671 o
-13 3 5 107.835 114.061 2.294 6.117 o
-13 3 6 10.504 6.718 1.067 120.844 o
-13 3 7 194.150 195.005 2.952 2.440 o
-13 3 8 11.712 10.779 1.103 99.900 o
-13 3 9 45.904 46.003 1.616 21.101 o
-13 3 10 49.368 50.301 1.909 18.413 o
-13 3 11 253.793 264.657 3.238 1.514 o
-13 3 12 60.266 54.332 2.420 14.147 o
-13 3 13 0.357 -0.050 1.497 211.296 o
-13 3 14 0.174 -0.455 1.482 218.874 o
-13 3 15 52.474 51.121 3.073 14.426 o
-13 3 16 0.064 1.329 3.837 32.824 o
-13 5 1 188.286 206.287 4.000 2.357 o
-13 5 2 99.394 107.089 2.673 6.653 o
-13 5 3 20.993 19.918 1.546 50.223 o
-13 5 4 0.004 -1.448 1.291 292.696 o
-13 5 5 0.010 -0.073 1.011 475.911 o
-13 5 6 31.749 30.074 1.794 31.515 o
-13 5 7 5.476 6.404 1.178 155.878 o
-13 5 8 54.867 53.580 2.019 16.233 o
-13 5 9 0.162 -0.095 0.975 496.861 o
-13 5 10 21.230 17.750 1.441 53.258 o
-13 5 11 35.946 33.108 2.040 26.511 o
-13 5 12 129.679 133.594 3.174 4.482 o
-13 5 13 24.468 18.648 2.018 39.908 o
-13 5 14 32.167 33.393 2.203 27.370 o
-13 5 15 0.053 -3.073 2.159 104.406 o
-13 7 1 413.208 449.929 5.367 0.608 o
-13 7 2 0.829 2.591 1.537 176.379 o
-13 7 3 544.222 578.022 6.426 0.372 o
-13 7 4 54.445 55.552 2.001 16.136 o
-13 7 5 58.890 65.133 2.158 13.863 o
-13 7 6 105.451 114.167 2.348 6.227 o
-13 7 7 339.761 351.222 4.380 0.899 o
-13 7 8 6.432 5.102 1.419 127.634 o
-13 7 9 21.901 26.374 1.952 39.507 o
-13 7 10 50.788 52.892 2.242 16.795 o
-13 7 11 111.434 116.217 2.900 5.653 o
-13 7 12 62.231 60.103 3.258 11.742 o
-13 7 13 78.913 84.748 3.050 8.772 o
-13 7 14 3.060 4.756 3.557 35.567 o
-13 9 1 208.065 231.849 4.493 1.956 o
-13 9 2 18.335 17.172 1.634 55.021 o
-13 9 3 153.950 156.970 3.228 3.467 o
-13 9 4 54.971 48.227 2.152 16.557 o
-13 9 5 0.000 -1.234 1.251 311.758 o
-13 9 6 32.276 28.417 2.113 29.344 o
-13 9 7 53.120 55.444 2.223 15.966 o
-13 9 8 8.534 9.968 1.536 94.180 o
-13 9 9 13.414 12.139 1.775 65.896 o
-13 9 10 13.431 13.673 1.834 62.443 o
-13 9 11 0.006 0.022 1.566 198.655 o
-13 9 12 0.052 -2.174 3.339 43.717 o
-13 11 1 100.788 106.898 3.845 5.961 o
-13 11 2 34.721 34.922 2.297 25.139 o
-13 11 3 14.502 12.744 1.620 67.504 o
-13 11 4 10.502 14.022 1.857 67.618 o
-13 11 5 23.725 22.432 1.955 39.623 o
-13 11 6 90.178 110.309 3.317 6.765 o
-13 11 7 12.731 11.531 1.964 62.029 o
-13 11 8 19.357 20.075 2.920 31.657 o
-12 0 2 308.558 313.572 3.528 1.090 o
-12 0 4 9.228 8.784 1.106 119.964 o
-12 0 6 101.397 97.654 2.875 6.719 o
-12 0 8 76.206 84.235 2.197 9.867 o
-12 0 10 119.803 121.653 2.726 5.210 o
-12 0 12 16.787 17.602 1.783 54.116 o
-12 0 14 0.549 3.295 2.054 105.171 o
-12 0 16 50.384 52.518 4.473 11.143 o
-12 2 1 77.325 73.771 1.194 11.155 o
-12 2 2 0.044 -0.163 0.644 1153.690 o
-12 2 3 509.627 533.802 3.545 0.433 o
-12 2 4 24.823 22.356 1.097 48.720 o
-12 2 5 10.907 9.498 1.012 112.319 o
-12 2 6 27.544 27.125 1.314 40.238 o
-12 2 7 387.975 398.228 3.339 0.723 o
-12 2 8 0.036 0.627 0.808 678.326 o
-12 2 9 37.160 33.703 1.289 29.669 o
-12 2 10 0.032 -0.208 0.664 1091.090 o
-12 2 11 61.665 61.280 1.697 14.423 o
-12 2 12 47.968 48.784 1.610 19.888 o
-12 2 13 30.805 28.942 1.639 33.779 o
-12 2 14 41.774 44.890 2.263 20.542 o
-12 2 15 0.039 0.386 1.655 175.382 o
-12 2 16 36.336 41.231 2.678 21.183 o
-12 2 17 3.312 1.545 2.628 63.379 o
-12 4 1 325.023 320.167 3.788 1.009 o
-12 4 2 157.116 153.232 3.038 3.467 o
-12 4 3 323.185 324.542 3.658 1.010 o
-12 4 4 20.732 19.962 1.213 55.898 o
-12 4 5 204.323 201.230 2.413 2.298 o
-12 4 6 216.845 220.906 2.608 2.031 o
-12 4 7 259.789 259.586 2.907 1.500 o
-12 4 8 0.688 0.069 0.795 634.700 o
-12 4 9 20.684 19.541 1.113 57.944 o
-12 4 10 3.744 2.347 1.020 244.208 o
-12 4 11 15.001 11.215 1.091 85.223 o
-12 4 12 94.841 107.632 2.402 7.063 o
-12 4 13 45.819 43.942 2.262 19.383 o
-12 4 14 4.750 0.935 1.707 124.045 o
-12 4 15 3.287 4.965 2.082 89.246 o
-12 4 16 220.150 243.199 5.282 1.745 o
-12 6 1 28.676 25.740 1.713 36.209 o
-12 6 2 63.081 68.808 2.043 12.951 o
-12 6 3 85.615 93.127 2.274 8.418 o
-12 6 4 25.915 22.975 1.384 43.746 o
-12 6 5 8.324 8.935 1.008 132.986 o
-12 6 6 75.122 75.934 1.820 10.840 o
-12 6 7 35.106 32.292 1.512 30.326 o
-12 6 8 160.088 160.080 2.895 3.343 o
-12 6 9 24.030 19.817 1.276 49.672 o
-12 6 10 26.705 21.530 1.489 42.507 o
-12 6 11 73.976 73.268 2.314 10.678 o
-12 6 12 13.489 14.878 1.835 61.110 o
-12 6 13 5.841 3.870 1.665 112.814 o
-12 6 14 56.175 55.832 2.321 15.027 o
-12 6 15 8.448 4.860 1.745 92.572 o
-12 8 1 203.668 224.143 3.694 2.095 o
-12 8 2 80.024 90.449 2.573 8.831 o
-12 8 3 133.097 129.477 2.934 4.497 o
-12 8 4 1.512 -0.609 1.176 292.159 o
-12 8 5 87.736 95.197 2.491 8.006 o
-12 8 6 86.094 88.842 2.039 8.723 o
-12 8 7 54.330 50.829 1.976 16.806 o
-12 8 8 85.995 92.041 2.532 8.255 o
-12 8 9 81.171 90.644 2.495 8.777 o
-12 8 10 0.358 -1.931 1.305 275.411 o
-12 8 11 54.364 58.984 2.521 14.637 o
-12 8 12 38.786 37.153 1.969 24.533 o
-12 8 13 0.740 2.122 1.790 137.563 o
-12 8 14 4.741 5.301 2.794 52.597 o
-12 10 1 3.949 3.852 1.824 108.864 o
-12 10 2 69.668 75.271 2.499 10.888 o
-12 10 3 23.748 20.186 1.735 43.654 o
-12 10 4 26.736 25.591 1.607 39.083 o
-12 10 5 45.826 52.066 2.296 18.069 o
-12 10 6 15.807 13.015 1.444 69.142 o
-12 10 7 42.650 34.945 1.940 23.446 o
-12 10 8 0.372 0.688 1.428 224.334 o
-12 10 9 12.786 10.404 1.742 70.522 o
-12 10 10 7.050 5.776 1.538 111.326 o
-12 10 11 1.147 -2.955 1.574 181.070 o
-12 12 1 13.398 16.544 2.206 50.432 o
-12 12 2 216.760 242.127 4.754 1.812 o
-12 12 3 23.662 22.237 2.048 38.601 o
-12 12 4 26.846 28.913 2.183 32.044 o
-12 12 5 48.436 56.144 2.845 15.340 o
-12 12 6 87.656 92.194 3.016 7.763 o
-12 12 7 60.275 65.980 3.132 11.835 o
-11 1 1 12.210 10.007 0.641 118.898 o
-11 1 2 126.685 110.890 1.415 5.460 o
-11 1 3 191.161 181.240 2.671 2.603 o
-11 1 4 215.791 205.412 2.342 2.139 o
-11 1 5 131.584 130.086 2.529 4.634 o
-11 1 6 207.654 213.760 2.597 2.173 o
-11 1 7 19.894 19.131 1.025 61.357 o
-11 1 8 154.967 145.094 1.916 3.770 o
-11 1 9 193.595 190.568 2.164 2.530 o
-11 1 10 305.331 302.055 2.692 1.142 o
-11 1 11 28.453 23.257 1.169 42.654 o
-11 1 12 16.283 16.542 1.045 73.366 o
-11 1 13 57.861 56.346 1.645 15.900 o
-11 1 14 1.058 1.806 1.132 294.901 o
-11 1 15 55.184 45.630 2.508 15.919 o
-11 1 16 0.001 1.608 1.747 152.203 o
-11 1 17 6.792 4.108 1.978 85.718 o
-11 1 18 47.756 46.526 3.372 14.897 o
-11 3 1 218.542 228.720 2.642 1.972 o
-11 3 2 349.242 373.916 2.384 0.859 o
-11 3 3 308.389 302.898 3.046 1.121 o
-11 3 4 108.898 105.316 1.477 6.564 o
-11 3 5 28.701 24.972 1.052 42.312 o
-11 3 6 19.422 15.554 1.093 65.343 o
-11 3 7 4.679 3.225 0.637 296.577 o
-11 3 8 62.317 67.294 1.511 13.931 o
-11 3 9 177.304 183.955 2.877 2.785 o
-11 3 10 77.885 81.722 1.879 10.082 o
-11 3 11 296.299 303.020 2.980 1.176 o
-11 3 12 492.423 505.158 4.028 0.466 o
-11 3 13 8.725 6.845 1.018 137.693 o
-11 3 14 2.560 1.057 0.949 326.668 o
-11 3 15 350.690 369.877 5.527 0.824 o
-11 3 16 249.218 254.236 5.532 1.485 o
-11 3 17 11.591 10.844 2.814 42.175 o
-11 5 1 441.680 443.547 4.418 0.573 o
-11 5 2 526.649 517.867 4.772 0.420 o
-11 5 3 17.440 15.739 1.273 66.103 o
-11 5 4 11.546 13.131 1.074 96.319 o
-11 5 5 19.098 15.259 0.981 68.659 o
-11 5 6 26.419 22.042 1.226 45.373 o
-11 5 7 1.193 1.626 0.987 359.805 o
-11 5 8 11.994 8.868 1.004 108.148 o
-11 5 9 7.752 7.663 0.988 145.357 o
-11 5 10 127.049 128.645 1.980 4.950 o
-11 5 11 193.321 207.658 3.561 2.322 o
-11 5 12 160.366 162.951 3.043 3.286 o
-11 5 13 55.824 54.459 2.287 15.322 o
-11 5 14 13.649 13.644 1.858 61.344 o
-11 5 15 86.903 86.422 3.214 7.887 o
-11 5 16 138.952 148.030 5.174 3.498 o
-11 7 1 21.183 21.026 1.321 52.559 o
-11 7 2 76.812 74.140 2.014 10.564 o
-11 7 3 0.359 0.481 0.968 465.052 o
-11 7 4 175.819 179.980 2.782 2.853 o
-11 7 5 123.084 127.948 2.213 5.077 o
-11 7 6 9.567 8.807 1.018 123.155 o
-11 7 7 1.175 -0.029 0.901 472.145 o
-11 7 8 127.489 131.675 2.452 4.773 o
-11 7 9 114.635 117.432 2.354 5.657 o
-11 7 10 176.858 179.246 2.895 2.831 o
-11 7 11 14.915 11.450 1.393 75.248 o
-11 7 12 3.884 2.542 1.225 194.527 o
-11 7 13 11.955 12.784 1.751 69.324 o
-11 7 14 51.298 59.023 3.295 13.382 o
-11 7 15 29.840 27.266 2.483 28.154 o
-11 9 1 0.148 0.926 1.130 350.354 o
-11 9 2 7.154 5.985 1.296 130.383 o
-11 9 3 7.640 7.572 1.531 104.048 o
-11 9 4 16.619 15.273 1.383 66.001 o
-11 9 5 42.726 42.497 1.611 23.089 o
-11 9 6 7.487 5.827 1.145 142.333 o
-11 9 7 18.333 20.252 1.373 57.352 o
-11 9 8 20.692 22.193 1.327 52.313 o
-11 9 9 46.777 49.184 2.049 18.966 o
-11 9 10 9.177 7.550 1.569 94.672 o
-11 9 11 113.936 122.583 2.714 5.453 o
-11 9 12 3.746 1.631 1.491 156.839 o
-11 9 13 27.483 23.537 1.897 36.379 o
-11 9 14 0.231 2.096 6.017 13.380 o
-11 11 1 127.964 132.742 3.363 4.503 o
-11 11 2 64.643 58.815 2.571 12.703 o
-11 11 3 15.781 11.863 1.607 65.946 o
-11 11 4 0.202 -0.178 1.216 321.580 o
-11 11 5 1.853 0.898 1.280 234.677 o
-11 11 6 1.839 2.152 1.318 212.429 o
-11 11 7 6.119 8.495 1.345 124.495 o
-11 11 8 2.965 2.725 1.357 182.000 o
-11 11 9 12.162 10.747 1.838 68.227 o
-11 11 10 70.694 67.704 2.750 10.921 o
-11 11 11 179.055 177.271 4.955 2.571 o
-11 13 1 105.982 120.867 3.492 5.556 o
-11 13 2 6.322 4.362 1.770 100.819 o
-11 13 3 102.392 107.806 2.999 6.298 o
-11 13 4 93.032 106.870 4.281 6.084 o
-11 13 5 0.072 -1.641 1.705 167.036 o
-11 13 6 20.250 23.524 2.744 32.178 o
-11 13 7 23.472 26.671 5.086 13.968 o
-10 0 2 9.399 4.174 0.767 165.587 o
-10 0 4 443.535 467.735 4.325 0.553 o
-10 0 6 25.776 16.473 0.982 53.146 o
-10 0 8 203.405 191.532 3.410 2.308 o
-10 0 10 83.711 86.079 2.189 8.984 o
-10 0 12 140.420 131.359 2.680 4.280 o
-10 0 14 121.806 122.579 3.561 4.840 o
-10 0 16 166.252 177.653 5.251 2.713 o
-10 0 18 6.106 7.395 2.790 49.911 o
-10 2 1 4.820 4.029 0.497 305.133 o
-10 2 2 99.160 92.190 1.506 7.704 o
-10 2 3 26.392 22.304 0.673 50.123 o
-10 2 4 153.727 137.380 3.174 3.720 o
-10 2 5 240.323 231.001 3.764 1.717 o
-10 2 6 1.806 3.907 0.592 453.443 o
-10 2 7 90.795 88.622 1.109 8.740 o
-10 2 8 52.828 47.953 1.202 19.299 o
-10 2 9 170.695 169.712 1.975 3.115 o
-10 2 10 9.980 6.811 0.644 152.268 o
-10 2 11 252.945 259.662 2.915 1.546 o
-10 2 12 24.276 20.687 1.069 51.142 o
-10 2 13 19.647 19.233 1.221 58.529 o
-10 2 14 1.606 1.337 0.874 407.202 o
-10 2 15 147.157 156.572 3.557 3.575 o
-10 2 16 85.708 92.756 2.637 8.174 o
-10 2 17 0.015 0.942 1.814 144.246 o
-10 2 18 116.601 119.396 4.138 4.877 o
-10 4 1 55.923 56.154 1.118 17.246 o
-10 4 2 488.596 503.267 3.683 0.472 o
-10 4 3 31.352 31.962 0.905 36.779 o
-10 4 4 163.726 174.406 2.035 3.204 o
-10 4 5 190.990 190.299 1.824 2.589 o
-10 4 6 21.354 21.561 0.969 56.707 o
-10 4 7 72.475 68.551 1.260 12.241 o
-10 4 8 37.234 36.212 1.139 29.459 o
-10 4 9 219.037 230.576 3.199 1.933 o
-10 4 10 133.005 130.406 1.999 4.683 o
-10 4 11 282.587 269.209 2.659 1.337 o
-10 4 12 0.497 0.650 0.801 612.583 o
-10 4 13 80.782 86.501 2.023 9.382 o
-10 4 14 58.827 54.636 2.332 14.579 o
-10 4 15 179.963 196.142 4.957 2.430 o
-10 4 16 41.912 35.978 2.788 19.721 o
-10 4 17 47.891 49.481 3.527 14.142 o
-10 4 18 129.112 127.725 9.667 2.576 o
-10 6 1 24.148 28.849 0.888 46.962 o
-10 6 2 242.946 241.480 3.242 1.676 o
-10 6 3 813.539 882.155 4.879 0.175 o
-10 6 4 333.239 346.425 3.286 0.942 o
-10 6 5 66.836 61.720 1.330 13.794 o
-10 6 6 47.874 50.607 1.257 20.445 o
-10 6 7 430.987 454.182 3.684 0.586 o
-10 6 8 42.332 43.038 1.601 23.177 o
-10 6 9 86.175 82.917 1.880 9.107 o
-10 6 10 90.130 88.460 1.871 8.466 o
-10 6 11 200.784 203.352 3.348 2.271 o
-10 6 12 6.829 6.958 1.170 140.746 o
-10 6 13 46.550 44.639 2.310 18.889 o
-10 6 14 3.264 1.563 1.402 177.453 o
-10 6 15 118.953 123.832 3.381 4.987 o
-10 6 16 0.604 -0.095 1.845 138.691 o
-10 6 17 80.783 60.136 7.376 5.141 o
-10 8 1 3.556 6.547 1.030 202.218 o
-10 8 2 41.360 39.297 1.552 24.650 o
-10 8 3 384.262 405.219 4.097 0.717 o
-10 8 4 11.703 8.737 1.098 105.493 o
-10 8 5 10.912 10.419 1.036 108.306 o
-10 8 6 172.569 182.489 2.207 2.938 o
-10 8 7 330.015 347.669 2.850 0.956 o
-10 8 8 32.712 29.759 1.518 32.882 o
-10 8 9 2.230 0.937 1.035 307.275 o
-10 8 10 73.596 79.516 2.064 10.583 o
-10 8 11 293.518 316.499 4.031 1.138 o
-10 8 12 99.886 110.246 2.688 6.521 o
-10 8 13 0.729 -2.296 1.428 224.026 o
-10 8 14 0.781 0.486 1.809 140.763 o
-10 8 15 227.537 241.509 4.839 1.721 o
-10 10 1 49.401 49.082 1.903 18.601 o
-10 10 2 18.692 16.898 1.355 60.282 o
-10 10 3 24.513 21.999 1.891 39.864 o
-10 10 4 3.473 3.243 1.124 216.058 o
-10 10 5 4.934 6.495 1.034 180.361 o
-10 10 6 0.207 -1.664 0.946 522.886 o
-10 10 7 71.108 72.638 2.044 11.398 o
-10 10 8 2.857 1.493 1.132 247.008 o
-10 10 9 1.672 2.547 1.191 245.917 o
-10 10 10 33.989 33.681 2.073 27.178 o
-10 10 11 51.684 46.564 2.704 16.071 o
-10 10 12 0.249 -1.265 1.508 210.069 o
-10 10 13 1.212 3.048 1.766 133.933 o
-10 12 1 54.521 65.075 3.376 12.243 o
-10 12 2 7.077 7.978 1.838 86.460 o
-10 12 3 37.475 40.297 2.087 23.842 o
-10 12 4 2.513 1.473 1.408 187.042 o
-10 12 5 41.715 46.285 2.188 20.613 o
-10 12 6 68.697 75.091 2.703 10.769 o
-10 12 7 14.762 13.019 1.965 56.974 o
-10 12 8 1.059 -0.319 1.500 199.060 o
-10 12 9 35.962 36.872 2.569 22.668 o
-10 12 10 162.145 179.623 3.761 2.988 o
-10 14 1 25.729 24.026 2.660 29.712 o
-10 14 2 23.231 16.803 2.348 37.428 o
-10 14 3 178.064 186.361 3.527 2.689 o
-10 14 4 187.017 207.562 6.377 2.112 o
-10 14 5 51.500 38.123 5.979 8.568 o
-9 1 1 56.523 47.810 0.706 18.818 o
-9 1 2 724.854 703.667 2.536 0.236 o
-9 1 3 35.266 31.444 0.625 34.606 o
-9 1 4 602.123 584.497 3.275 0.333 o
-9 1 5 35.028 32.176 0.775 33.991 o
-9 1 6 1255.170 1283.670 8.029 0.079 o
-9 1 7 46.446 43.345 0.689 23.611 o
-9 1 8 350.186 345.463 1.882 0.902 o
-9 1 9 107.592 99.537 1.160 6.915 o
-9 1 10 2141.060 2227.530 8.282 0.028 o
-9 1 11 0.002 0.928 0.818 644.888 o
-9 1 12 54.566 56.974 1.349 17.162 o
-9 1 13 90.742 85.959 1.865 8.528 o
-9 1 14 573.818 571.486 4.601 0.356 o
-9 1 15 22.881 24.345 1.766 41.894 o
-9 1 16 143.909 155.501 3.186 3.737 o
-9 1 17 38.129 38.303 2.519 21.853 o
-9 1 18 2.416 1.109 1.870 119.960 o
-9 1 19 35.749 29.392 2.814 22.759 o
-9 3 1 1.414 1.748 0.379 841.776 o
-9 3 2 137.015 139.494 1.411 4.461 o
-9 3 3 368.794 360.018 3.716 0.812 o
-9 3 4 1.993 1.933 0.461 625.360 o
-9 3 5 10.977 11.221 0.619 124.311 o
-9 3 6 127.297 129.561 1.284 5.038 o
-9 3 7 398.143 394.071 2.341 0.711 o
-9 3 8 37.339 31.128 0.787 32.516 o
-9 3 9 47.560 39.022 0.856 23.802 o
-9 3 10 15.314 12.555 0.672 93.191 o
-9 3 11 28.553 28.328 1.064 40.494 o
-9 3 12 149.113 154.378 2.143 3.776 o
-9 3 13 19.066 15.743 1.073 66.359 o
-9 3 14 10.259 10.521 1.066 110.286 o
-9 3 15 17.730 16.857 1.346 62.549 o
-9 3 16 283.138 292.782 3.909 1.244 o
-9 3 17 0.090 1.570 1.728 154.733 o
-9 3 18 213.318 226.315 6.196 1.802 o
-9 5 1 63.938 56.437 1.033 15.275 o
-9 5 2 44.189 47.637 0.831 23.419 o
-9 5 3 15.624 8.328 0.851 96.572 o
-9 5 4 81.717 79.329 1.612 9.963 o
-9 5 5 28.328 30.038 0.841 41.247 o
-9 5 6 250.889 242.565 2.460 1.636 o
-9 5 7 39.867 32.130 0.850 30.110 o
-9 5 8 13.280 11.433 0.802 102.199 o
-9 5 9 9.678 5.705 0.671 160.258 o
-9 5 10 0.651 -0.211 0.711 776.622 o
-9 5 11 29.453 25.915 1.345 38.639 o
-9 5 12 24.667 24.704 1.205 46.142 o
-9 5 13 21.425 18.064 1.237 55.996 o
-9 5 14 0.077 0.548 1.170 340.143 o
-9 5 15 27.250 19.819 1.550 42.185 o
-9 5 16 99.029 91.556 3.075 6.947 o
-9 5 17 111.007 106.803 4.278 5.275 o
-9 5 18 18.874 15.339 3.015 32.126 o
-9 7 1 187.924 212.627 2.819 2.414 o
-9 7 2 4.304 5.041 0.666 272.028 o
-9 7 3 338.370 342.309 2.601 0.939 o
-9 7 4 0.036 1.092 0.666 881.556 o
-9 7 5 417.859 457.926 3.043 0.608 o
-9 7 6 45.818 43.645 1.429 22.138 o
-9 7 7 354.190 374.212 3.556 0.834 o
-9 7 8 115.389 118.125 2.062 5.688 o
-9 7 9 513.965 551.465 4.698 0.416 o
-9 7 10 20.337 20.986 1.093 57.501 o
-9 7 11 747.002 774.381 5.044 0.212 o
-9 7 12 28.835 27.593 1.610 36.191 o
-9 7 13 33.940 31.224 1.756 29.948 o
-9 7 14 45.308 45.541 1.950 20.349 o
-9 7 15 241.584 246.267 4.226 1.627 o
-9 7 16 0.099 -1.162 1.705 166.624 o
-9 9 1 232.730 255.866 2.841 1.714 o
-9 9 2 10.912 11.235 1.320 92.550 o
-9 9 3 5.983 5.843 1.084 164.502 o
-9 9 4 2.096 1.814 0.944 332.749 o
-9 9 5 440.497 463.630 4.921 0.557 o
-9 9 6 8.090 8.417 0.944 142.114 o
-9 9 7 25.090 25.862 1.227 44.618 o
-9 9 8 47.009 54.096 1.500 19.588 o
-9 9 9 511.469 550.077 4.732 0.419 o
-9 9 10 4.201 2.649 1.077 217.545 o
-9 9 11 400.436 424.432 5.351 0.654 o
-9 9 12 22.480 21.469 1.746 44.236 o
-9 9 13 14.297 13.310 1.694 65.125 o
-9 9 14 2.186 2.516 1.517 164.548 o
-9 9 15 189.395 188.731 3.922 2.466 o
-9 11 1 20.794 19.085 1.601 50.236 o
-9 11 2 64.975 72.493 1.991 12.399 o
-9 11 3 183.010 190.083 2.918 2.641 o
-9 11 4 42.009 40.455 1.610 23.859 o
-9 11 5 26.035 24.112 1.506 41.636 o
-9 11 6 44.331 45.016 1.617 21.892 o
-9 11 7 95.673 95.849 2.137 7.558 o
-9 11 8 17.038 16.490 1.372 63.907 o
-9 11 9 97.442 95.842 2.523 7.228 o
-9 11 10 16.182 17.654 1.786 55.018 o
-9 11 11 36.189 40.102 2.547 22.092 o
-9 11 12 2.098 1.841 1.544 164.596 o
-9 11 13 3.630 0.763 2.405 74.345 o
-9 13 1 14.412 15.177 1.726 62.002 o
-9 13 2 0.237 -2.130 1.282 289.134 o
-9 13 3 0.059 -0.081 1.437 234.999 o
-9 13 4 35.581 37.691 2.065 25.416 o
-9 13 5 29.564 29.933 2.204 29.807 o
-9 13 6 13.346 14.398 1.827 62.106 o
-9 13 7 41.296 40.211 1.987 22.709 o
-9 13 8 45.526 50.416 2.721 17.017 o
-9 13 9 8.642 4.826 1.719 93.520 o
-8 0 2 733.955 769.879 4.380 0.218 o
-8 0 4 1274.680 1356.530 10.235 0.074 o
-8 0 6 1058.490 1157.130 6.016 0.105 o
-8 0 8 508.218 535.289 2.595 0.436 o
-8 0 10 895.621 931.604 3.737 0.150 o
-8 0 12 10.951 13.146 1.438 83.577 o
-8 0 14 6.480 8.276 1.494 110.939 o
-8 0 16 48.011 50.663 3.931 12.903 o
-8 0 18 28.474 27.023 3.113 23.947 o
-8 2 1 179.855 195.974 1.488 2.737 o
-8 2 2 731.180 767.781 2.910 0.220 o
-8 2 3 216.695 205.563 1.435 2.160 o
-8 2 4 394.034 399.845 1.765 0.716 o
-8 2 5 1.672 1.992 0.280 828.950 o
-8 2 6 21.062 14.181 0.474 72.173 o
-8 2 7 82.295 82.389 0.914 10.075 o
-8 2 8 255.342 234.751 2.475 1.631 o
-8 2 9 162.866 148.541 1.155 3.586 o
-8 2 10 82.388 75.443 1.027 10.449 o
-8 2 11 26.230 24.531 0.806 47.709 o
-8 2 12 12.105 11.325 0.788 109.672 o
-8 2 13 106.252 107.562 1.699 6.596 o
-8 2 14 13.479 12.888 0.969 92.063 o
-8 2 15 151.916 155.590 2.419 3.652 o
-8 2 16 0.069 -0.943 1.214 327.824 o
-8 2 17 31.372 33.356 1.704 31.288 o
-8 2 18 24.224 26.733 2.794 28.527 o
-8 2 19 174.676 175.720 4.708 2.680 o
-8 4 1 2392.050 2470.290 5.631 0.022 o
-8 4 2 4281.690 4379.920 14.567 0.007 o
-8 4 3 975.636 948.067 3.335 0.133 o
-8 4 4 32.845 35.971 0.659 34.635 o
-8 4 5 435.437 458.748 2.489 0.580 o
-8 4 6 1411.430 1383.530 5.205 0.065 o
-8 4 7 604.515 599.478 2.491 0.328 o
-8 4 8 247.101 216.629 1.537 1.795 o
-8 4 9 4.166 2.070 0.433 405.634 o
-8 4 10 55.787 52.516 1.053 17.896 o
-8 4 11 7.036 5.773 0.647 200.698 o
-8 4 12 0.323 0.524 0.697 819.761 o
-8 4 13 2.220 1.862 0.745 420.531 o
-8 4 14 13.268 13.681 1.100 86.845 o
-8 4 15 41.768 44.416 1.862 22.175 o
-8 4 16 0.090 0.859 1.399 237.225 o
-8 4 17 0.196 -1.776 1.432 233.638 o
-8 4 18 1.888 1.427 1.705 143.345 o
-8 4 19 85.032 77.158 4.500 7.183 o
-8 6 1 404.970 410.790 2.545 0.678 o
-8 6 2 836.003 864.001 3.664 0.172 o
-8 6 3 926.325 940.203 4.856 0.143 o
-8 6 4 85.291 90.168 1.873 8.839 o
-8 6 5 11.588 10.173 0.629 123.251 o
-8 6 6 221.347 194.638 2.209 2.143 o
-8 6 7 684.491 717.487 4.526 0.248 o
-8 6 8 280.657 264.803 2.451 1.365 o
-8 6 9 268.191 254.545 2.881 1.462 o
-8 6 10 20.420 19.295 0.989 60.602 o
-8 6 11 123.459 125.159 1.882 5.193 o
-8 6 12 29.872 25.787 1.331 38.406 o
-8 6 13 60.356 57.107 1.641 15.239 o
-8 6 14 26.027 20.430 1.289 46.258 o
-8 6 15 125.614 126.692 3.078 4.775 o
-8 6 16 9.820 9.779 1.864 74.229 o
-8 6 17 28.809 27.730 2.368 29.550 o
-8 6 18 42.242 43.496 3.530 15.736 o
-8 8 1 18.054 20.387 0.966 65.102 o
-8 8 2 2.089 2.699 0.738 404.477 o
-8 8 3 194.485 209.718 2.262 2.379 o
-8 8 4 0.443 1.020 0.598 908.807 o
-8 8 5 357.678 384.612 2.853 0.817 o
-8 8 6 30.446 36.809 1.531 31.871 o
-8 8 7 79.454 84.494 1.695 9.871 o
-8 8 8 0.151 0.157 0.756 793.121 o
-8 8 9 399.260 408.734 3.585 0.686 o
-8 8 10 65.752 70.903 1.479 12.988 o
-8 8 11 0.020 0.247 1.051 431.314 o
-8 8 12 37.221 33.402 1.689 27.717 o
-8 8 13 16.508 15.791 1.362 66.172 o
-8 8 14 3.890 4.944 1.425 148.463 o
-8 8 15 80.781 81.299 2.531 9.240 o
-8 8 16 16.223 15.019 2.333 45.247 o
-8 8 17 1.524 0.349 4.542 23.277 o
-8 10 1 106.528 109.410 1.834 6.481 o
-8 10 2 272.816 280.511 3.046 1.352 o
-8 10 3 84.569 86.603 1.761 9.156 o
-8 10 4 10.415 9.550 0.934 119.542 o
-8 10 5 4.902 4.254 0.855 229.680 o
-8 10 6 206.141 212.023 2.433 2.209 o
-8 10 7 0.654 1.499 0.971 403.770 o
-8 10 8 3.846 1.582 1.049 243.802 o
-8 10 9 15.558 13.684 1.362 71.241 o
-8 10 10 35.753 34.884 1.588 28.682 o
-8 10 11 168.007 172.305 3.233 3.015 o
-8 10 12 8.668 5.386 1.334 118.699 o
-8 10 13 77.061 79.219 2.762 9.508 o
-8 10 14 14.970 12.686 1.713 63.777 o
-8 10 15 34.127 24.537 3.089 22.508 o
-8 12 1 211.499 229.361 2.901 2.029 o
-8 12 2 201.784 215.026 3.430 2.184 o
-8 12 3 225.225 225.410 2.781 1.917 o
-8 12 4 0.726 1.059 1.089 342.687 o
-8 12 5 1.302 0.746 1.172 288.589 o
-8 12 6 90.797 93.805 2.383 7.882 o
-8 12 7 58.829 59.079 2.339 14.126 o
-8 12 8 20.223 16.823 1.485 54.982 o
-8 12 9 39.312 33.797 1.952 25.158 o
-8 12 10 0.555 0.849 1.351 242.591 o
-8 12 11 34.675 33.774 2.189 26.089 o
-8 12 12 2.165 1.702 1.694 141.533 o
-8 14 1 219.555 231.033 4.147 1.874 o
-8 14 2 6.063 7.619 1.448 119.014 o
-8 14 3 186.350 204.180 3.680 2.425 o
-8 14 4 147.854 170.337 3.801 3.358 o
-8 14 5 6.597 6.933 1.606 105.495 o
-8 14 6 0.742 2.661 1.582 168.295 o
-8 14 7 143.884 147.674 3.308 3.816 o
-8 14 8 259.957 254.802 6.489 1.372 o
-7 1 1 500.704 517.853 2.059 0.454 o
-7 1 2 250.459 258.645 1.661 1.597 o
-7 1 3 0.097 -0.071 0.207 8010.340 o
-7 1 4 293.626 260.237 1.267 1.321 o
-7 1 5 108.084 110.484 0.901 6.574 o
-7 1 6 3.174 7.848 0.303 325.444 o
-7 1 7 0.093 0.483 0.223 4340.470 o
-7 1 8 559.410 568.585 1.912 0.374 o
-7 1 9 5.889 4.719 0.325 277.806 o
-7 1 10 587.319 590.825 2.630 0.342 o
-7 1 11 0.190 0.181 0.291 3557.400 o
-7 1 12 50.891 50.514 0.880 20.057 o
-7 1 13 0.187 1.073 0.627 920.856 o
-7 1 14 867.755 929.882 6.344 0.155 o
-7 1 15 0.839 0.198 0.712 712.986 o
-7 1 16 120.574 124.064 2.285 5.249 o
-7 1 17 0.013 0.832 1.232 305.170 o
-7 1 18 75.693 78.235 3.275 9.141 o
-7 1 19 1.228 1.189 1.954 117.138 o
-7 1 20 3.221 3.536 3.321 40.647 o
-7 3 1 2596.920 2729.400 7.084 0.019 o
-7 3 2 217.681 222.514 1.379 2.056 o
-7 3 3 51.135 43.651 0.622 21.608 o
-7 3 4 98.077 81.283 1.147 8.387 o
-7 3 5 397.478 410.417 2.374 0.695 o
-7 3 6 13.047 22.703 0.485 84.826 o
-7 3 7 54.518 52.043 0.498 18.965 o
-7 3 8 205.645 207.605 1.305 2.286 o
-7 3 9 49.100 39.196 0.627 23.437 o
-7 3 10 0.033 -0.683 0.373 3355.530 o
-7 3 11 121.032 117.463 1.680 5.521 o
-7 3 12 67.182 65.519 1.350 13.347 o
-7 3 13 0.669 -0.312 0.693 804.321 o
-7 3 14 1.509 0.737 0.757 524.541 o
-7 3 15 124.195 129.006 2.298 4.989 o
-7 3 16 15.709 12.683 1.312 73.667 o
-7 3 17 6.534 5.431 1.228 144.631 o
-7 3 18 213.475 223.298 3.767 1.992 o
-7 3 19 152.203 162.186 4.371 3.248 o
-7 5 1 441.774 483.379 2.158 0.552 o
-7 5 2 869.973 894.283 2.738 0.160 o
-7 5 3 2.320 5.474 0.472 403.685 o
-7 5 4 150.262 159.710 1.751 3.719 o
-7 5 5 20.649 18.965 0.522 66.267 o
-7 5 6 2.973 1.443 0.322 597.932 o
-7 5 7 0.921 0.337 0.383 1386.640 o
-7 5 8 71.110 64.084 1.028 13.032 o
-7 5 9 8.173 4.341 0.522 205.207 o
-7 5 10 34.208 34.646 0.812 33.514 o
-7 5 11 0.687 -0.346 0.723 748.522 o
-7 5 12 36.323 32.957 1.035 31.638 o
-7 5 13 4.116 5.411 0.794 246.395 o
-7 5 14 73.762 66.956 1.479 11.983 o
-7 5 15 2.273 2.619 1.094 258.396 o
-7 5 16 74.577 79.829 2.355 10.162 o
-7 5 17 76.642 78.344 2.651 9.713 o
-7 5 18 249.105 257.953 3.657 1.555 o
-7 5 19 113.484 114.657 4.940 4.726 o
-7 7 1 107.159 86.588 0.993 7.450 o
-7 7 2 224.327 213.234 1.810 2.023 o
-7 7 3 157.807 182.614 3.012 3.140 o
-7 7 4 14.625 14.653 1.004 82.905 o
-7 7 5 54.549 43.097 1.526 18.868 o
-7 7 6 2.040 1.035 0.578 592.660 o
-7 7 7 141.800 161.952 1.896 3.903 o
-7 7 8 0.004 0.250 0.721 895.670 o
-7 7 9 11.979 11.154 0.953 104.155 o
-7 7 10 0.004 0.183 0.772 795.162 o
-7 7 11 452.141 471.814 3.592 0.541 o
-7 7 12 2.205 0.927 0.855 393.233 o
-7 7 13 6.124 4.074 1.054 177.874 o
-7 7 14 2.170 1.524 1.077 283.467 o
-7 7 15 530.720 526.150 4.041 0.414 o
-7 7 16 2.138 0.804 1.713 142.576 o
-7 7 17 62.635 65.519 2.887 11.960 o
-7 7 18 6.352 11.220 5.047 17.459 o
-7 9 1 46.034 46.846 1.384 21.541 o
-7 9 2 21.667 21.906 1.013 55.234 o
-7 9 3 189.785 171.277 2.657 2.703 o
-7 9 4 0.556 0.799 0.785 612.090 o
-7 9 5 93.487 97.574 1.857 7.797 o
-7 9 6 38.537 43.006 1.150 26.605 o
-7 9 7 132.384 132.340 2.029 4.664 o
-7 9 8 68.502 74.620 1.607 12.090 o
-7 9 9 440.778 440.652 3.306 0.583 o
-7 9 10 1.470 1.329 0.915 392.482 o
-7 9 11 14.629 14.793 1.330 73.192 o
-7 9 12 69.926 76.874 2.256 11.034 o
-7 9 13 280.941 290.549 3.838 1.263 o
-7 9 14 50.934 51.725 1.905 17.766 o
-7 9 15 187.074 195.941 3.994 2.441 o
-7 9 16 11.687 8.404 2.280 56.909 o
-7 11 1 344.683 348.111 3.667 0.899 o
-7 11 2 79.581 70.652 1.668 10.727 o
-7 11 3 196.473 207.594 2.283 2.365 o
-7 11 4 309.675 334.408 2.744 1.055 o
-7 11 5 130.630 129.762 2.213 4.742 o
-7 11 6 57.032 53.720 1.773 16.190 o
-7 11 7 331.411 364.025 3.306 0.919 o
-7 11 8 53.565 59.773 1.889 16.070 o
-7 11 9 246.953 255.322 3.248 1.594 o
-7 11 10 0.947 1.820 1.178 280.311 o
-7 11 11 94.937 97.137 2.167 7.550 o
-7 11 12 20.262 18.343 1.642 50.875 o
-7 11 13 127.479 132.280 3.186 4.577 o
-7 11 14 52.831 46.569 2.535 16.281 o
-7 13 1 62.947 67.657 2.171 12.889 o
-7 13 2 10.388 10.717 1.356 94.176 o
-7 13 3 93.358 103.700 2.498 7.252 o
-7 13 4 40.939 45.918 2.320 20.426 o
-7 13 5 22.505 19.247 1.422 50.367 o
-7 13 6 31.383 29.301 1.611 33.406 o
-7 13 7 0.077 -0.245 1.351 265.119 o
-7 13 8 0.957 1.591 1.392 214.991 o
-7 13 9 14.052 11.206 1.521 73.842 o
-7 13 10 13.052 10.501 1.592 75.119 o
-7 13 11 0.845 -2.570 1.595 180.339 o
-7 15 1 24.549 22.414 2.041 37.809 o
-7 15 2 0.135 -0.702 1.457 227.058 o
-7 15 3 128.055 139.238 3.339 4.399 o
-7 15 4 41.157 41.854 2.709 19.407 o
-7 15 5 38.368 37.435 3.479 17.414 o
-7 15 6 11.405 9.511 4.930 17.578 o
-6 0 2 19.483 21.797 0.756 63.089 o
-6 0 4 462.572 442.154 3.474 0.547 o
-6 0 6 946.013 1018.310 3.674 0.132 o
-6 0 8 691.470 669.808 2.408 0.258 o
-6 0 10 3493.390 3533.240 17.304 0.011 o
-6 0 12 107.400 104.184 1.557 6.672 o
-6 0 14 1345.180 1406.120 8.485 0.068 o
-6 0 16 415.072 432.749 5.920 0.614 o
-6 0 18 36.754 31.161 3.415 18.874 o
-6 0 20 24.425 26.841 3.891 19.898 o
-6 2 1 408.723 403.808 2.593 0.677 o
-6 2 2 1763.480 1858.140 6.206 0.040 o
-6 2 3 287.824 301.522 1.301 1.242 o
-6 2 4 249.386 260.893 1.494 1.599 o
-6 2 5 3.665 2.552 0.254 474.968 o
-6 2 6 223.736 218.979 1.171 2.015 o
-6 2 7 44.997 41.050 0.503 25.151 o
-6 2 8 721.814 699.800 1.998 0.238 o
-6 2 9 8.661 10.149 0.412 160.482 o
-6 2 10 224.771 208.795 1.183 2.058 o
-6 2 11 35.593 31.641 0.607 34.298 o
-6 2 12 9.911 7.754 0.484 156.575 o
-6 2 13 24.291 23.552 0.741 52.013 o
-6 2 14 29.158 26.780 1.222 39.489 o
-6 2 15 39.484 37.933 1.291 26.981 o
-6 2 16 157.014 156.522 2.633 3.488 o
-6 2 17 18.108 18.046 1.451 58.363 o
-6 2 18 119.478 125.884 2.589 5.174 o
-6 2 19 34.207 32.700 3.345 19.712 o
-6 2 20 0.064 -3.412 2.089 111.447 o
-6 4 1 491.356 472.382 1.717 0.493 o
-6 4 2 2480.740 2596.770 6.562 0.021 o
-6 4 3 229.536 199.776 1.496 2.048 o
-6 4 4 83.350 66.840 0.760 11.009 o
-6 4 5 708.899 722.313 2.195 0.239 o
-6 4 6 2520.970 2478.070 5.109 0.021 o
-6 4 7 578.892 541.644 1.635 0.369 o
-6 4 8 144.683 125.697 0.966 4.478 o
-6 4 9 123.765 133.175 1.115 5.132 o
-6 4 10 586.716 567.248 2.502 0.352 o
-6 4 11 208.061 198.575 1.585 2.303 o
-6 4 12 0.021 -0.432 0.614 1278.730 o
-6 4 13 155.676 145.109 1.721 3.772 o
-6 4 14 396.664 381.144 2.705 0.727 o
-6 4 15 73.530 75.235 1.666 11.240 o
-6 4 16 14.028 13.080 1.247 80.256 o
-6 4 17 132.102 129.569 3.013 4.509 o
-6 4 18 368.591 371.615 4.348 0.791 o
-6 4 19 72.501 77.242 2.889 9.964 o
-6 6 1 1605.320 1510.350 4.612 0.052 o
-6 6 2 0.987 0.397 0.263 1665.930 o
-6 6 3 73.474 61.503 0.985 12.870 o
-6 6 4 314.136 271.479 2.248 1.177 o
-6 6 5 271.625 223.570 1.999 1.564 o
-6 6 6 183.603 141.369 1.851 3.150 o
-6 6 7 232.907 186.435 1.692 2.078 o
-6 6 8 13.898 12.519 0.691 99.616 o
-6 6 9 46.232 42.212 0.971 23.439 o
-6 6 10 22.473 15.059 0.756 63.981 o
-6 6 11 4.089 4.904 0.710 271.837 o
-6 6 12 37.937 41.612 1.217 27.096 o
-6 6 13 1.097 0.901 0.743 576.919 o
-6 6 14 30.314 27.876 1.419 36.322 o
-6 6 15 3.313 1.808 0.993 270.479 o
-6 6 16 15.281 11.731 1.563 68.583 o
-6 6 17 30.449 28.714 2.132 30.217 o
-6 6 18 26.956 26.014 2.252 32.292 o
-6 6 19 74.226 71.845 5.078 7.406 o
-6 8 1 601.368 538.998 2.638 0.351 o
-6 8 2 96.743 83.876 1.683 8.177 o
-6 8 3 24.065 21.934 0.925 52.044 o
-6 8 4 2.916 1.284 0.606 463.588 o
-6 8 5 13.770 26.565 1.212 63.348 o
-6 8 6 25.116 23.482 1.110 47.349 o
-6 8 7 10.014 4.956 0.633 163.403 o
-6 8 8 5.655 6.156 0.789 205.223 o
-6 8 9 578.383 602.192 4.175 0.342 o
-6 8 10 61.363 62.330 1.354 14.835 o
-6 8 11 379.535 386.926 3.083 0.757 o
-6 8 12 5.786 4.779 0.869 204.060 o
-6 8 13 90.746 87.540 2.051 8.350 o
-6 8 14 8.873 9.699 1.133 117.529 o
-6 8 15 286.137 282.114 3.823 1.258 o
-6 8 16 3.642 3.150 1.263 186.573 o
-6 8 17 24.081 23.289 2.229 35.617 o
-6 10 1 76.085 70.199 1.483 11.386 o
-6 10 2 42.266 40.147 1.457 24.369 o
-6 10 3 470.471 478.517 4.181 0.508 o
-6 10 4 5.196 6.009 0.815 211.602 o
-6 10 5 22.192 22.911 1.099 52.374 o
-6 10 6 100.419 97.316 1.782 7.308 o
-6 10 7 264.098 262.163 3.426 1.449 o
-6 10 8 14.651 17.388 1.283 70.855 o
-6 10 9 293.835 294.311 3.112 1.205 o
-6 10 10 173.754 172.950 2.462 2.983 o
-6 10 11 63.359 70.286 1.774 13.132 o
-6 10 12 0.798 1.318 1.029 365.212 o
-6 10 13 0.415 0.254 1.236 299.266 o
-6 10 14 74.336 77.992 2.739 9.890 o
-6 10 15 121.303 124.843 2.889 5.033 o
-6 10 16 1.700 -1.875 2.241 91.288 o
-6 12 1 49.956 48.787 1.741 18.901 o
-6 12 2 11.149 11.208 1.241 95.236 o
-6 12 3 121.566 124.075 2.419 5.171 o
-6 12 4 0.000 -1.398 1.007 480.532 o
-6 12 5 19.729 19.148 1.336 56.456 o
-6 12 6 31.500 24.309 1.486 36.326 o
-6 12 7 181.105 184.051 2.645 2.741 o
-6 12 8 0.001 1.009 1.146 346.078 o
-6 12 9 27.362 25.812 1.589 38.546 o
-6 12 10 30.651 27.996 1.648 34.198 o
-6 12 11 1.844 1.955 1.219 240.691 o
-6 12 12 0.573 1.561 1.243 270.766 o
-6 12 13 9.053 7.555 1.550 96.319 o
-6 14 1 90.411 90.795 2.466 7.983 o
-6 14 2 0.502 -0.156 1.208 314.167 o
-6 14 3 0.466 0.256 1.238 296.813 o
-6 14 4 15.027 10.585 1.407 75.748 o
-6 14 5 114.213 115.137 2.465 5.699 o
-6 14 6 21.353 25.267 2.278 36.411 o
-6 14 7 52.769 56.308 2.601 15.051 o
-6 14 8 2.084 3.941 1.680 135.295 o
-6 14 9 5.004 2.312 1.561 133.649 o
-6 14 10 102.166 103.330 5.988 4.753 o
-5 1 1 200.813 223.589 0.850 2.256 o
-5 1 2 1195.300 1225.980 5.539 0.087 o
-5 1 3 716.387 776.918 2.829 0.224 o
-5 1 4 440.405 478.746 1.389 0.560 o
-5 1 5 485.709 510.929 1.558 0.476 o
-5 1 6 1610.290 1743.130 4.548 0.047 o
-5 1 7 75.405 71.300 0.531 11.940 o
-5 1 8 36.484 34.834 0.433 32.678 o
-5 1 9 96.721 96.613 0.558 7.969 o
-5 1 10 1340.630 1376.350 2.829 0.070 o
-5 1 11 14.851 14.459 0.389 96.391 o
-5 1 12 124.175 127.961 1.209 5.216 o
-5 1 13 4.026 4.165 0.520 331.533 o
-5 1 14 74.715 74.154 1.340 11.405 o
-5 1 15 12.042 10.944 0.951 104.457 o
-5 1 16 10.979 13.280 1.079 98.459 o
-5 1 17 4.245 4.824 1.165 182.521 o
-5 1 18 1.236 0.591 1.102 324.381 o
-5 1 19 29.125 26.406 2.381 29.638 o
-5 1 20 1.978 0.532 2.091 101.595 o
-5 3 1 2317.250 2494.900 7.036 0.023 o
-5 3 2 2157.180 2399.650 4.248 0.026 o
-5 3 3 481.930 478.375 1.942 0.501 o
-5 3 4 138.962 184.037 1.473 3.721 o
-5 3 5 2076.980 2177.630 6.393 0.029 o
-5 3 6 292.774 268.367 1.362 1.302 o
-5 3 7 1.609 1.048 0.229 1064.990 o
-5 3 8 89.661 86.951 0.684 9.062 o
-5 3 9 595.540 594.467 2.283 0.336 o
-5 3 10 0.003 0.278 0.276 4754.240 o
-5 3 11 1.513 0.732 0.366 993.327 o
-5 3 12 44.913 42.691 0.740 24.410 o
-5 3 13 132.259 121.286 1.606 4.956 o
-5 3 14 6.412 5.432 0.851 190.267 o
-5 3 15 16.677 14.451 0.908 78.570 o
-5 3 16 3.370 2.976 0.984 254.849 o
-5 3 17 1.480 2.356 1.116 278.326 o
-5 3 18 24.300 22.471 1.751 41.564 o
-5 3 19 112.662 121.272 4.089 5.010 o
-5 3 20 18.390 19.282 2.088 44.922 o
-5 5 1 613.229 670.683 2.002 0.300 o
-5 5 2 958.981 1030.030 3.173 0.129 o
-5 5 3 139.989 147.049 1.509 4.225 o
-5 5 4 0.721 2.125 0.275 1179.090 o
-5 5 5 76.109 74.840 0.797 11.461 o
-5 5 6 429.172 370.006 1.884 0.673 o
-5 5 7 185.952 187.251 1.331 2.715 o
-5 5 8 59.902 55.558 0.728 16.667 o
-5 5 9 3.849 5.433 0.435 328.494 o
-5 5 10 14.996 10.203 0.648 101.116 o
-5 5 11 11.213 13.352 0.700 112.230 o
-5 5 12 11.444 9.547 0.733 122.253 o
-5 5 13 4.160 6.207 0.740 245.238 o
-5 5 14 0.529 1.054 0.635 809.565 o
-5 5 15 2.227 2.589 0.793 373.069 o
-5 5 16 64.420 64.773 1.926 13.233 o
-5 5 17 41.815 49.473 2.440 19.123 o
-5 5 18 153.374 157.269 3.888 3.365 o
-5 5 19 29.678 31.489 2.647 25.930 o
-5 7 1 200.481 208.192 1.355 2.347 o
-5 7 2 15.848 15.288 0.496 88.332 o
-5 7 3 109.109 124.270 1.587 5.975 o
-5 7 4 199.412 162.165 2.151 2.658 o
-5 7 5 1258.490 1358.990 12.266 0.074 o
-5 7 6 31.781 21.854 0.807 42.190 o
-5 7 7 9.821 13.420 0.723 120.456 o
-5 7 8 35.958 38.618 1.058 29.825 o
-5 7 9 1266.090 1349.260 5.452 0.076 o
-5 7 10 9.638 6.932 0.879 139.528 o
-5 7 11 46.721 34.384 1.185 24.498 o
-5 7 12 21.958 21.611 1.048 54.536 o
-5 7 13 393.563 398.046 3.184 0.712 o
-5 7 14 30.532 30.116 1.466 34.823 o
-5 7 15 1.212 1.491 1.033 338.981 o
-5 7 16 9.295 7.496 1.515 97.449 o
-5 7 17 211.362 215.282 3.551 2.069 o
-5 7 18 1.218 1.830 1.905 120.867 o
-5 9 1 31.809 26.547 1.012 38.370 o
-5 9 2 3.303 3.500 0.701 330.300 o
-5 9 3 1.493 3.406 0.726 427.711 o
-5 9 4 3.649 3.311 0.800 290.853 o
-5 9 5 135.590 147.187 2.263 4.259 o
-5 9 6 33.475 35.270 1.175 32.245 o
-5 9 7 40.632 41.410 1.311 25.372 o
-5 9 8 28.582 26.851 1.068 41.248 o
-5 9 9 123.180 128.231 1.760 5.163 o
-5 9 10 3.608 3.007 0.892 272.094 o
-5 9 11 223.739 218.176 2.688 1.971 o
-5 9 12 75.348 79.630 1.812 10.577 o
-5 9 13 16.047 17.035 1.449 63.680 o
-5 9 14 63.602 60.112 1.960 13.765 o
-5 9 15 19.700 17.896 1.433 55.901 o
-5 9 16 6.820 5.991 1.490 115.874 o
-5 9 17 23.382 24.819 2.672 30.709 o
-5 11 1 330.063 328.188 4.934 0.958 o
-5 11 2 83.005 84.478 2.187 9.135 o
-5 11 3 25.066 26.057 1.376 43.002 o
-5 11 4 371.624 391.769 3.720 0.765 o
-5 11 5 50.415 44.257 1.530 20.030 o
-5 11 6 320.905 322.350 2.988 1.032 o
-5 11 7 7.548 6.907 1.030 147.298 o
-5 11 8 94.429 105.054 2.638 7.057 o
-5 11 9 23.935 19.593 1.327 49.309 o
-5 11 10 200.816 195.383 3.090 2.339 o
-5 11 11 156.440 160.489 2.376 3.487 o
-5 11 12 7.743 7.060 1.328 119.745 o
-5 11 13 166.292 173.071 2.851 3.085 o
-5 11 14 8.604 8.723 1.529 96.957 o
-5 11 15 46.875 42.138 2.781 17.517 o
-5 13 1 80.620 83.434 2.152 9.464 o
-5 13 2 22.119 22.236 1.631 45.827 o
-5 13 3 46.467 51.927 2.357 17.724 o
-5 13 4 118.670 124.194 2.582 5.247 o
-5 13 5 0.033 0.080 1.106 394.278 o
-5 13 6 3.574 1.351 1.214 212.404 o
-5 13 7 17.136 14.054 1.958 52.522 o
-5 13 8 5.784 4.360 1.503 126.719 o
-5 13 9 20.885 18.942 1.790 47.097 o
-5 13 10 0.522 0.131 1.224 303.413 o
-5 13 11 6.033 5.114 1.349 137.626 o
-5 13 12 2.752 2.050 1.394 182.523 o
-5 15 1 93.290 104.777 2.893 6.999 o
-5 15 2 53.410 54.227 2.329 15.791 o
-5 15 3 47.263 50.137 2.479 17.378 o
-5 15 4 42.715 44.666 2.394 19.761 o
-5 15 5 5.613 5.343 1.727 105.118 o
-5 15 6 72.622 83.248 2.965 9.543 o
-5 15 7 44.056 44.572 2.469 19.079 o
-4 0 2 320.566 367.120 1.514 0.966 o
-4 0 4 3126.250 3162.930 11.069 0.013 o
-4 0 6 257.852 246.136 0.978 1.598 o
-4 0 8 5.251 6.378 0.331 270.823 o
-4 0 10 568.545 528.012 1.791 0.383 o
-4 0 12 256.589 244.853 1.932 1.597 o
-4 0 14 1246.700 1255.450 8.510 0.080 o
-4 0 16 1010.110 1108.390 6.782 0.114 o
-4 0 18 154.603 140.141 3.903 3.526 o
-4 0 20 343.013 360.281 8.368 0.803 o
-4 2 1 7096.750 7610.590 21.570 0.003 o
-4 2 2 1.416 0.722 0.217 1269.100 o
-4 2 3 192.552 204.717 1.161 2.486 o
-4 2 4 297.541 270.500 1.030 1.274 o
-4 2 5 2776.350 2943.990 6.227 0.016 o
-4 2 6 207.317 205.547 1.532 2.271 o
-4 2 7 501.909 501.098 1.811 0.463 o
-4 2 8 180.376 173.711 0.964 2.945 o
-4 2 9 280.327 261.026 1.117 1.396 o
-4 2 10 137.772 119.677 0.865 4.857 o
-4 2 11 446.254 428.434 1.644 0.590 o
-4 2 12 1.106 1.593 0.323 1047.220 o
-4 2 13 25.799 24.488 0.689 49.228 o
-4 2 14 255.169 257.056 1.906 1.564 o
-4 2 15 161.292 156.823 1.796 3.475 o
-4 2 16 225.187 225.321 2.113 1.943 o
-4 2 17 225.072 230.548 2.791 1.894 o
-4 2 18 15.116 12.168 1.668 65.340 o
-4 2 19 0.964 1.145 1.517 188.208 o
-4 2 20 13.299 10.773 2.218 54.370 o
-4 4 1 2908.720 3165.420 13.583 0.015 o
-4 4 2 31.158 34.695 0.684 36.645 o
-4 4 3 42.814 41.075 0.790 25.794 o
-4 4 4 17.863 18.446 0.513 75.010 o
-4 4 5 1093.260 1182.740 3.706 0.100 o
-4 4 6 150.048 141.328 0.819 4.058 o
-4 4 7 2.022 4.063 0.265 571.262 o
-4 4 8 127.043 117.156 0.910 5.367 o
-4 4 9 351.815 322.577 1.990 0.933 o
-4 4 10 16.021 14.595 0.545 88.244 o
-4 4 11 46.159 47.924 0.836 22.476 o
-4 4 12 0.890 0.721 0.620 785.458 o
-4 4 13 0.000 -0.536 0.606 1327.190 o
-4 4 14 72.126 66.811 1.338 12.378 o
-4 4 15 11.092 12.148 1.089 100.250 o
-4 4 16 78.009 77.941 1.828 10.337 o
-4 4 17 184.179 190.691 2.711 2.634 o
-4 4 18 560.273 583.679 4.985 0.361 o
-4 4 19 109.475 109.893 2.865 5.921 o
-4 4 20 16.559 21.200 3.145 30.205 o
-4 6 1 1245.390 1108.650 3.037 0.088 o
-4 6 2 424.561 454.932 2.583 0.601 o
-4 6 3 173.726 190.093 1.521 2.893 o
-4 6 4 13.211 11.627 0.485 111.590 o
-4 6 5 798.454 733.983 2.899 0.202 o
-4 6 6 68.093 73.619 0.713 12.907 o
-4 6 7 0.405 6.405 0.422 558.590 o
-4 6 8 44.382 40.581 0.888 24.894 o
-4 6 9 96.417 87.488 1.243 8.225 o
-4 6 10 32.657 34.632 0.982 34.076 o
-4 6 11 124.944 127.933 1.693 5.107 o
-4 6 12 215.152 216.376 2.069 2.096 o
-4 6 13 61.027 60.671 1.407 15.025 o
-4 6 14 7.370 5.931 0.920 165.455 o
-4 6 15 197.556 194.734 2.552 2.422 o
-4 6 16 319.633 323.553 3.639 1.025 o
-4 6 17 241.007 241.976 3.282 1.688 o
-4 6 18 251.260 265.230 4.543 1.482 o
-4 6 19 1.313 1.836 1.648 155.306 o
-4 8 1 1355.670 1276.120 5.704 0.072 o
-4 8 2 281.990 256.829 2.528 1.379 o
-4 8 3 185.491 199.340 2.558 2.560 o
-4 8 4 46.584 50.600 1.345 20.717 o
-4 8 5 885.385 826.017 5.389 0.164 o
-4 8 6 145.436 128.483 1.589 4.341 o
-4 8 7 0.002 3.325 0.620 697.420 o
-4 8 8 43.493 47.876 1.139 23.005 o
-4 8 9 19.544 14.823 0.754 72.023 o
-4 8 10 213.279 215.921 2.186 2.115 o
-4 8 11 226.627 239.489 2.585 1.846 o
-4 8 12 0.592 -0.007 0.804 644.108 o
-4 8 13 0.476 0.389 0.938 484.851 o
-4 8 14 142.800 142.639 2.416 4.081 o
-4 8 15 571.137 571.437 4.479 0.359 o
-4 8 16 24.149 24.065 1.745 40.965 o
-4 8 17 93.512 91.003 2.848 7.488 o
-4 8 18 10.056 8.892 2.229 60.865 o
-4 10 1 97.916 107.927 1.768 7.113 o
-4 10 2 44.933 46.278 1.219 22.529 o
-4 10 3 0.334 0.314 0.600 1080.300 o
-4 10 4 104.842 108.032 1.652 6.685 o
-4 10 5 41.507 51.269 1.637 21.710 o
-4 10 6 99.251 108.202 1.788 7.004 o
-4 10 7 125.207 122.233 1.825 5.192 o
-4 10 8 0.703 0.913 0.843 524.989 o
-4 10 9 406.649 421.597 3.520 0.659 o
-4 10 10 2.402 2.502 0.958 300.632 o
-4 10 11 3.147 4.439 1.097 216.664 o
-4 10 12 26.690 24.595 1.503 40.696 o
-4 10 13 230.987 239.966 3.287 1.778 o
-4 10 14 56.265 64.827 2.354 14.038 o
-4 10 15 135.620 141.443 2.668 4.275 o
-4 10 16 8.831 9.549 1.699 85.181 o
-4 12 1 76.185 80.840 1.795 10.409 o
-4 12 2 194.077 191.126 2.655 2.489 o
-4 12 3 1.049 -1.090 0.825 555.252 o
-4 12 4 262.016 281.579 2.991 1.414 o
-4 12 5 6.215 4.549 1.137 162.825 o
-4 12 6 358.777 375.389 4.213 0.813 o
-4 12 7 58.804 61.312 1.823 14.827 o
-4 12 8 18.641 18.986 1.424 57.014 o
-4 12 9 72.794 75.545 2.130 10.878 o
-4 12 10 203.996 218.527 3.491 2.135 o
-4 12 11 0.196 -1.063 1.228 315.806 o
-4 12 12 23.343 24.188 1.609 43.440 o
-4 12 13 6.559 7.175 1.427 119.006 o
-4 12 14 16.181 13.507 2.039 52.525 o
-4 14 1 0.036 0.337 1.230 314.637 o
-4 14 2 9.842 9.127 1.491 92.934 o
-4 14 3 19.486 15.000 1.691 53.762 o
-4 14 4 50.082 44.157 2.366 17.770 o
-4 14 5 38.204 36.579 2.166 23.939 o
-4 14 6 8.810 9.627 1.361 103.902 o
-4 14 7 1.819 2.393 1.674 144.282 o
-4 14 8 68.417 71.517 3.053 10.551 o
-4 14 9 6.082 7.065 1.681 102.264 o
-4 14 10 66.296 67.128 2.845 11.402 o
-4 16 1 12.196 8.373 2.020 64.400 o
-4 16 2 56.558 60.324 2.358 14.411 o
-4 16 3 15.037 9.630 1.607 70.450 o
-4 16 4 53.537 55.395 4.346 10.918 o
-3 1 1 1048.390 1109.670 5.289 0.109 o
-3 1 2 93.277 137.212 0.827 6.678 o
-3 1 3 1954.610 2219.460 4.732 0.031 o
-3 1 4 67.208 59.002 0.383 14.672 o
-3 1 5 0.037 0.693 0.135 5422.370 o
-3 1 6 20.108 18.891 0.242 69.845 o
-3 1 7 765.742 733.013 1.790 0.214 o
-3 1 8 632.553 640.261 1.383 0.298 o
-3 1 9 121.637 127.634 0.751 5.390 o
-3 1 10 2095.100 2026.870 3.251 0.030 o
-3 1 11 259.942 238.535 0.912 1.611 o
-3 1 12 1.066 1.434 0.324 1100.470 o
-3 1 13 156.049 146.092 1.339 3.783 o
-3 1 14 1272.880 1354.440 5.360 0.075 o
-3 1 15 63.677 61.120 1.292 14.539 o
-3 1 16 103.890 116.406 1.662 6.480 o
-3 1 17 97.381 99.278 1.882 7.419 o
-3 1 18 260.482 277.348 4.369 1.395 o
-3 1 19 13.833 13.184 1.687 66.518 o
-3 1 20 33.078 32.869 2.599 24.456 o
-3 1 21 24.573 35.173 6.872 8.416 o
-3 3 1 2302.610 2470.160 5.989 0.023 o
-3 3 2 4688.480 5264.200 14.537 0.006 o
-3 3 3 36.429 44.542 0.564 28.997 o
-3 3 4 3263.790 3633.730 5.427 0.011 o
-3 3 5 31.665 31.573 0.367 38.655 o
-3 3 6 1275.320 1313.540 3.023 0.077 o
-3 3 7 81.411 70.161 0.482 11.135 o
-3 3 8 3046.180 3049.660 7.492 0.014 o
-3 3 9 27.473 32.608 0.482 42.447 o
-3 3 10 14.270 13.075 0.421 102.460 o
-3 3 11 36.576 29.270 0.553 34.622 o
-3 3 12 424.210 438.710 2.213 0.617 o
-3 3 13 238.658 219.694 1.704 1.853 o
-3 3 14 2.907 3.083 0.432 464.724 o
-3 3 15 0.220 -2.171 0.669 997.294 o
-3 3 16 36.879 37.840 1.312 28.442 o
-3 3 17 211.220 217.382 2.838 2.100 o
-3 3 18 13.701 13.994 1.641 67.285 o
-3 3 19 10.374 8.173 1.955 71.100 o
-3 3 20 44.267 42.172 2.843 17.960 o
-3 5 1 20.871 21.782 0.507 62.435 o
-3 5 2 231.237 260.277 1.878 1.736 o
-3 5 3 1649.330 1754.260 8.195 0.045 o
-3 5 4 408.704 507.301 2.271 0.585 o
-3 5 5 47.654 54.038 0.657 20.895 o
-3 5 6 208.168 170.846 1.222 2.503 o
-3 5 7 977.876 956.380 2.687 0.132 o
-3 5 8 267.800 249.606 1.256 1.512 o
-3 5 9 518.673 502.216 2.030 0.443 o
-3 5 10 0.369 -0.138 0.398 2144.070 o
-3 5 11 72.207 69.146 1.020 12.407 o
-3 5 12 1.427 1.427 0.558 679.035 o
-3 5 13 140.387 135.869 1.719 4.370 o
-3 5 14 46.713 45.391 1.393 21.536 o
-3 5 15 8.052 6.068 1.024 147.087 o
-3 5 16 3.045 2.083 0.842 325.480 o
-3 5 17 16.862 18.602 1.525 58.662 o
-3 5 18 58.486 60.624 2.225 14.257 o
-3 5 19 19.914 14.935 1.987 47.498 o
-3 5 20 26.223 27.260 3.369 22.849 o
-3 7 1 966.130 936.706 3.801 0.136 o
-3 7 2 319.490 297.071 1.781 1.102 o
-3 7 3 149.656 170.439 1.510 3.618 o
-3 7 4 142.198 101.804 1.096 5.018 o
-3 7 5 16.763 36.392 0.705 54.246 o
-3 7 6 83.866 92.827 1.111 9.229 o
-3 7 7 224.673 204.928 2.458 2.040 o
-3 7 8 116.145 106.998 1.472 6.088 o
-3 7 9 1231.020 1279.510 4.715 0.081 o
-3 7 10 47.558 54.910 1.059 20.173 o
-3 7 11 156.278 139.765 1.936 3.805 o
-3 7 12 263.611 269.136 2.930 1.444 o
-3 7 13 819.331 858.043 5.659 0.176 o
-3 7 14 21.989 21.337 1.484 48.695 o
-3 7 15 295.940 288.299 3.425 1.204 o
-3 7 16 82.989 80.053 2.205 9.350 o
-3 7 17 241.587 249.547 3.427 1.648 o
-3 7 18 68.530 70.164 2.731 11.068 o
-3 7 19 94.365 89.627 10.443 2.935 o
-3 9 1 524.334 524.837 3.861 0.422 o
-3 9 2 31.511 27.204 1.277 36.590 o
-3 9 3 147.369 166.791 2.186 3.654 o
-3 9 4 56.338 50.513 1.263 17.713 o
-3 9 5 0.786 0.209 0.474 1242.660 o
-3 9 6 29.532 30.386 0.959 39.051 o
-3 9 7 308.923 313.057 2.987 1.098 o
-3 9 8 10.834 10.792 0.781 119.970 o
-3 9 9 663.198 709.858 6.004 0.258 o
-3 9 10 52.089 57.476 1.524 17.468 o
-3 9 11 47.066 46.196 1.481 21.011 o
-3 9 12 39.458 38.581 1.536 25.832 o
-3 9 13 279.163 277.968 3.364 1.317 o
-3 9 14 0.357 -0.744 1.126 365.579 o
-3 9 15 165.854 163.805 3.097 3.156 o
-3 9 16 8.510 6.380 1.546 101.686 o
-3 9 17 13.810 14.911 1.821 60.863 o
-3 11 1 27.553 33.061 1.602 35.029 o
-3 11 2 18.366 14.417 1.352 63.700 o
-3 11 3 275.789 283.271 3.302 1.322 o
-3 11 4 50.116 52.467 1.445 18.964 o
-3 11 5 0.930 1.180 0.697 630.830 o
-3 11 6 1.291 2.169 0.861 408.401 o
-3 11 7 380.528 377.314 3.400 0.764 o
-3 11 8 0.823 1.338 0.875 465.702 o
-3 11 9 174.112 171.699 2.461 2.988 o
-3 11 10 53.325 56.196 1.997 16.337 o
-3 11 11 0.280 -1.177 1.061 414.011 o
-3 11 12 0.043 -0.285 1.177 349.907 o
-3 11 13 2.007 2.424 1.234 227.735 o
-3 11 14 65.050 63.559 2.368 12.582 o
-3 11 15 12.983 14.679 1.743 65.053 o
-3 13 1 4.610 5.572 1.107 181.034 o
-3 13 2 52.463 48.580 1.802 18.028 o
-3 13 3 30.560 30.753 1.575 33.744 o
-3 13 4 7.202 3.310 1.322 138.224 o
-3 13 5 0.008 -1.788 1.170 355.670 o
-3 13 6 43.669 47.476 1.895 20.769 o
-3 13 7 50.291 49.293 2.366 17.040 o
-3 13 8 3.058 2.767 1.261 198.906 o
-3 13 9 37.513 38.386 2.187 23.739 o
-3 13 10 58.575 60.274 2.369 14.002 o
-3 13 11 13.643 10.265 1.633 72.356 o
-3 13 12 11.523 10.029 1.547 82.347 o
-3 13 13 5.297 6.947 2.649 55.555 o
-3 15 1 0.771 0.268 1.189 308.074 o
-3 15 2 7.411 9.369 1.651 93.443 o
-3 15 3 10.448 10.286 1.673 79.925 o
-3 15 4 2.163 1.498 1.584 159.097 o
-3 15 5 0.020 0.419 1.398 244.072 o
-3 15 6 9.104 5.023 1.535 102.851 o
-3 15 7 17.145 14.691 2.079 49.471 o
-3 15 8 42.089 40.596 2.479 20.277 o
-2 0 2 2084.820 2528.620 5.708 0.026 o
-2 0 4 124.896 86.528 0.532 6.323 o
-2 0 6 1.871 2.684 0.211 737.525 o
-2 0 8 318.939 311.257 1.390 1.078 o
-2 0 10 128.509 122.381 0.954 5.179 o
-2 0 12 124.614 103.517 1.454 5.734 o
-2 0 14 12.188 11.788 1.099 95.429 o
-2 0 16 408.820 412.327 3.816 0.662 o
-2 0 18 8.030 8.985 1.653 91.595 o
-2 0 20 163.863 164.572 5.337 2.838 o
-2 2 1 3985.890 4100.830 15.236 0.008 o
-2 2 2 8658.600 9053.970 20.056 0.002 o
-2 2 3 933.449 1115.000 2.208 0.126 o
-2 2 4 506.288 497.360 1.372 0.461 o
-2 2 5 4821.950 5205.270 10.273 0.005 o
-2 2 6 598.079 607.852 1.529 0.330 o
-2 2 7 27.134 20.467 0.369 52.103 o
-2 2 8 339.597 344.341 1.166 0.942 o
-2 2 9 2262.660 2289.030 4.405 0.025 o
-2 2 10 87.047 79.175 0.626 9.790 o
-2 2 11 113.103 114.677 0.939 6.142 o
-2 2 12 23.633 22.460 0.685 54.587 o
-2 2 13 606.825 601.133 2.508 0.325 o
-2 2 14 199.571 199.753 1.672 2.405 o
-2 2 15 216.571 222.773 2.252 2.039 o
-2 2 16 167.656 167.293 1.867 3.210 o
-2 2 17 9.920 10.399 1.031 114.655 o
-2 2 18 0.627 0.622 1.263 275.446 o
-2 2 19 42.628 44.046 2.392 19.896 o
-2 2 20 28.578 34.705 2.479 26.925 o
-2 2 21 28.974 29.582 5.474 11.833 o
-2 4 1 2782.130 2972.710 7.758 0.016 o
-2 4 2 1290.320 1402.670 4.637 0.072 o
-2 4 3 2.060 3.092 0.261 639.298 o
-2 4 4 5.170 7.216 0.331 260.366 o
-2 4 5 2660.020 2814.000 11.264 0.018 o
-2 4 6 275.655 282.030 1.802 1.354 o
-2 4 7 117.192 114.340 0.746 5.949 o
-2 4 8 9.461 8.567 0.329 163.714 o
-2 4 9 1573.780 1539.730 4.841 0.053 o
-2 4 10 247.946 225.989 1.490 1.748 o
-2 4 11 374.623 382.640 1.787 0.782 o
-2 4 12 37.197 34.838 0.676 31.561 o
-2 4 13 648.373 626.831 3.268 0.291 o
-2 4 14 228.687 223.712 2.113 1.917 o
-2 4 15 420.251 421.797 3.606 0.633 o
-2 4 16 43.518 45.407 1.523 22.438 o
-2 4 17 13.456 11.906 1.399 78.820 o
-2 4 18 15.010 17.956 1.766 57.225 o
-2 4 19 52.286 53.943 2.289 16.183 o
-2 4 20 1.840 1.007 1.777 135.276 o
-2 6 1 8.156 3.616 0.348 227.690 o
-2 6 2 31.977 27.736 0.593 39.674 o
-2 6 3 36.725 41.491 0.783 29.281 o
-2 6 4 217.285 180.448 1.321 2.310 o
-2 6 5 292.105 285.215 1.460 1.260 o
-2 6 6 0.038 0.387 0.329 3222.730 o
-2 6 7 21.212 26.891 0.484 56.456 o
-2 6 8 260.161 251.131 3.101 1.520 o
-2 6 9 264.342 260.237 2.243 1.483 o
-2 6 10 52.414 46.020 0.874 20.326 o
-2 6 11 13.813 13.664 0.664 97.889 o
-2 6 12 80.743 79.633 1.671 10.021 o
-2 6 13 119.763 124.560 2.394 5.245 o
-2 6 14 129.326 135.703 2.536 4.612 o
-2 6 15 76.678 73.388 1.925 10.710 o
-2 6 16 61.018 63.595 2.249 13.459 o
-2 6 17 259.892 265.079 3.387 1.468 o
-2 6 18 9.536 11.385 1.618 83.564 o
-2 6 19 0.000 1.205 1.574 188.162 o
-2 8 1 205.702 209.598 1.821 2.255 o
-2 8 2 91.362 87.637 1.154 8.717 o
-2 8 3 97.401 109.732 1.211 7.261 o
-2 8 4 105.811 97.520 1.366 7.054 o
-2 8 5 190.523 176.008 2.368 2.675 o
-2 8 6 55.803 44.509 1.034 19.170 o
-2 8 7 44.682 56.128 1.189 20.748 o
-2 8 8 84.439 85.702 1.454 9.392 o
-2 8 9 426.594 415.421 2.714 0.631 o
-2 8 10 121.019 115.616 1.639 5.575 o
-2 8 11 2.613 5.739 0.894 260.671 o
-2 8 12 45.789 48.950 1.446 21.069 o
-2 8 13 190.511 189.082 2.503 2.566 o
-2 8 14 287.173 279.894 3.100 1.275 o
-2 8 15 57.514 60.998 2.752 13.375 o
-2 8 16 17.355 16.324 1.693 56.187 o
-2 8 17 246.631 249.381 3.912 1.593 o
-2 8 18 113.845 117.243 3.139 5.427 o
-2 10 1 1543.140 1642.170 15.836 0.050 o
-2 10 2 15.868 15.233 0.817 82.110 o
-2 10 3 583.347 596.863 3.457 0.342 o
-2 10 4 137.093 139.130 1.649 4.436 o
-2 10 5 359.299 374.686 2.625 0.828 o
-2 10 6 205.980 215.916 2.246 2.196 o
-2 10 7 339.612 340.075 2.604 0.939 o
-2 10 8 47.800 52.392 1.424 19.787 o
-2 10 9 140.302 151.241 2.086 4.078 o
-2 10 10 244.961 235.291 2.671 1.704 o
-2 10 11 119.053 116.484 2.121 5.534 o
-2 10 12 0.402 -0.655 0.999 454.745 o
-2 10 13 176.440 184.251 2.886 2.796 o
-2 10 14 31.509 27.209 1.697 33.454 o
-2 10 15 175.863 179.111 3.527 2.783 o
-2 10 16 1.004 0.282 1.585 178.797 o
-2 12 1 282.249 281.460 3.040 1.298 o
-2 12 2 114.167 107.045 2.247 5.980 o
-2 12 3 90.642 84.133 1.990 8.549 o
-2 12 4 361.809 378.363 3.180 0.812 o
-2 12 5 92.166 94.329 2.042 7.944 o
-2 12 6 495.379 522.987 4.803 0.449 o
-2 12 7 13.547 8.339 1.221 91.923 o
-2 12 8 131.303 145.725 2.211 4.433 o
-2 12 9 102.506 100.737 2.070 6.928 o
-2 12 10 661.611 684.962 5.121 0.266 o
-2 12 11 0.411 0.114 1.280 282.520 o
-2 12 12 0.324 -1.122 1.204 323.175 o
-2 12 13 133.680 139.281 2.880 4.327 o
-2 12 14 339.593 349.719 4.892 0.894 o
-2 14 1 2.569 2.120 1.260 213.208 o
-2 14 2 53.527 54.350 2.097 16.290 o
-2 14 3 0.033 0.576 1.191 329.981 o
-2 14 4 59.141 60.157 2.166 14.282 o
-2 14 5 21.574 29.679 2.531 31.796 o
-2 14 6 5.646 4.347 1.458 132.416 o
-2 14 7 23.268 25.241 1.828 40.257 o
-2 14 8 0.431 1.121 1.412 223.670 o
-2 14 9 0.070 0.435 1.429 232.646 o
-2 14 10 0.035 -0.314 1.584 193.778 o
-2 14 11 15.655 15.467 1.951 53.875 o
-2 16 1 1.396 1.049 1.330 228.491 o
-2 16 2 3.005 0.349 1.475 174.997 o
-2 16 3 4.075 5.020 1.596 126.833 o
-2 16 4 23.296 21.878 2.203 37.136 o
-2 16 5 12.745 11.100 1.883 65.008 o
-1 1 1 153.716 149.350 0.748 3.839 o
-1 1 2 3602.530 3303.980 8.130 0.011 o
-1 1 3 4.704 1.957 0.100 434.137 o
-1 1 4 5089.590 5199.360 6.503 0.005 o
-1 1 5 508.507 535.756 1.006 0.438 o
-1 1 6 2153.040 2221.520 2.860 0.027 o
-1 1 7 54.380 44.584 0.428 20.362 o
-1 1 8 0.384 0.695 0.189 2816.730 o
-1 1 9 97.379 86.609 0.601 8.345 o
-1 1 10 1.955 9.985 0.342 326.867 o
-1 1 11 152.395 129.625 0.891 4.162 o
-1 1 12 11.335 3.879 0.395 167.076 o
-1 1 13 21.383 19.628 0.725 61.602 o
-1 1 14 210.867 212.497 1.654 2.181 o
-1 1 15 102.771 99.610 1.273 7.222 o
-1 1 16 246.473 243.243 2.107 1.676 o
-1 1 17 170.106 171.818 2.325 3.076 o
-1 1 18 6.724 6.743 1.206 139.152 o
-1 1 19 7.759 8.294 1.668 93.195 o
-1 1 20 33.567 30.126 2.121 28.057 o
-1 1 21 151.357 156.647 10.210 2.103 o
-1 3 1 4306.520 4445.250 14.381 0.007 o
-1 3 2 952.037 1187.460 3.693 0.118 o
-1 3 3 1052.600 1124.720 4.285 0.108 o
-1 3 4 2560.980 2923.970 6.355 0.018 o
-1 3 5 3305.610 3548.100 7.996 0.011 o
-1 3 6 675.020 678.877 2.375 0.264 o
-1 3 7 36.382 39.207 0.671 30.588 o
-1 3 8 3632.750 3648.820 9.016 0.010 o
-1 3 9 1760.470 1693.150 3.270 0.043 o
-1 3 10 112.350 99.022 0.810 6.682 o
-1 3 11 101.274 89.699 0.968 7.798 o
-1 3 12 1127.200 1191.990 4.399 0.095 o
-1 3 13 147.042 154.153 1.328 3.922 o
-1 3 14 179.934 189.126 1.780 2.779 o
-1 3 15 138.609 138.245 1.593 4.406 o
-1 3 16 69.513 71.144 1.665 12.147 o
-1 3 17 108.256 108.818 2.265 6.250 o
-1 3 18 11.725 9.705 1.484 84.971 o
-1 3 19 0.945 -0.021 1.685 161.696 o
-1 3 20 130.733 138.284 4.050 4.135 o
-1 5 1 78.607 75.893 0.779 11.032 o
-1 5 2 1273.260 1386.760 4.055 0.074 o
-1 5 3 2642.820 2955.990 8.665 0.017 o
-1 5 4 1959.490 2068.680 7.178 0.032 o
-1 5 5 88.592 107.534 0.993 8.109 o
-1 5 6 410.944 395.846 1.659 0.685 o
-1 5 7 1593.140 1587.880 4.583 0.051 o
-1 5 8 2048.220 2023.370 4.234 0.031 o
-1 5 9 1094.640 1079.380 4.294 0.106 o
-1 5 10 43.567 39.261 0.746 25.970 o
-1 5 11 119.738 110.099 1.023 5.891 o
-1 5 12 279.561 275.611 2.112 1.346 o
-1 5 13 522.612 530.281 3.926 0.421 o
-1 5 14 23.213 24.495 1.142 49.028 o
-1 5 15 13.503 14.467 1.294 78.169 o
-1 5 16 16.147 16.194 1.389 65.877 o
-1 5 17 14.912 14.397 1.448 69.551 o
-1 5 18 152.634 154.294 3.009 3.564 o
-1 5 19 13.905 11.426 1.887 62.176 o
-1 5 20 3.507 3.694 2.428 70.241 o
-1 7 1 3344.710 3359.870 12.815 0.012 o
-1 7 2 26.689 20.191 0.585 51.955 o
-1 7 3 348.397 357.132 2.127 0.888 o
-1 7 4 36.674 41.148 0.802 29.375 o
-1 7 5 1910.070 1869.410 6.687 0.036 o
-1 7 6 30.795 30.627 0.705 38.932 o
-1 7 7 1010.340 945.725 4.860 0.127 o
-1 7 8 49.553 47.693 0.862 21.103 o
-1 7 9 39.746 34.776 0.907 29.134 o
-1 7 10 218.998 213.946 1.832 2.075 o
-1 7 11 76.930 69.292 1.128 11.579 o
-1 7 12 51.102 52.654 1.336 18.843 o
-1 7 13 20.979 19.146 1.199 56.424 o
-1 7 14 77.127 80.963 2.139 9.999 o
-1 7 15 67.922 71.374 2.430 11.473 o
-1 7 16 256.030 272.239 4.312 1.439 o
-1 7 17 2.604 1.820 1.453 175.027 o
-1 7 18 33.951 31.613 1.854 29.185 o
-1 7 19 11.538 6.720 2.101 64.555 o
-1 9 1 227.322 204.251 2.194 2.026 o
-1 9 2 297.354 284.937 2.484 1.222 o
-1 9 3 13.798 11.067 0.913 96.673 o
-1 9 4 193.412 178.104 2.524 2.603 o
-1 9 5 373.751 328.575 2.660 0.851 o
-1 9 6 62.319 60.907 1.213 14.945 o
-1 9 7 221.976 202.575 2.140 2.094 o
-1 9 8 75.043 70.076 1.461 11.565 o
-1 9 9 26.257 26.000 1.128 44.013 o
-1 9 10 82.063 82.107 1.748 9.675 o
-1 9 11 6.115 2.721 0.892 213.687 o
-1 9 12 54.459 53.527 1.912 16.573 o
-1 9 13 83.245 81.740 1.870 9.482 o
-1 9 14 71.049 69.233 2.442 11.175 o
-1 9 15 69.566 68.105 2.737 11.059 o
-1 9 16 42.742 44.877 2.401 19.690 o
-1 9 17 0.142 1.487 1.717 156.579 o
-1 11 1 110.994 109.546 2.473 6.003 o
-1 11 2 15.396 12.627 1.071 81.840 o
-1 11 3 1.102 -0.788 0.760 620.969 o
-1 11 4 608.804 664.317 4.299 0.302 o
-1 11 5 35.130 37.857 1.397 29.127 o
-1 11 6 172.170 162.195 2.052 3.155 o
-1 11 7 176.722 184.661 2.110 2.851 o
-1 11 8 288.941 288.593 2.520 1.254 o
-1 11 9 361.714 365.898 3.218 0.828 o
-1 11 10 183.626 175.812 2.482 2.781 o
-1 11 11 8.882 7.459 1.227 118.451 o
-1 11 12 38.143 36.372 1.757 26.070 o
-1 11 13 156.031 149.036 2.772 3.582 o
-1 11 14 37.802 30.560 1.889 27.077 o
-1 11 15 14.424 9.667 2.203 53.925 o
-1 13 1 14.285 14.223 1.318 75.396 o
-1 13 2 47.894 51.602 2.101 18.126 o
-1 13 3 115.695 115.203 2.582 5.587 o
-1 13 4 67.626 71.784 2.279 11.681 o
-1 13 5 1.336 1.691 1.172 272.546 o
-1 13 6 4.787 3.562 1.365 154.375 o
-1 13 7 263.737 265.527 4.162 1.418 o
-1 13 8 44.582 44.050 1.821 21.309 o
-1 13 9 111.629 110.238 2.248 6.030 o
-1 13 10 112.187 119.497 2.869 5.551 o
-1 13 11 9.098 7.282 1.656 90.612 o
-1 13 12 5.516 5.210 1.444 131.478 o
-1 13 13 17.873 10.655 2.524 42.151 o
-1 15 1 0.772 -0.881 1.268 278.416 o
-1 15 2 343.633 355.617 4.596 0.878 o
-1 15 3 44.687 45.403 2.302 19.364 o
-1 15 4 14.665 10.773 1.764 65.004 o
-1 15 5 0.247 1.208 1.502 201.792 o
-1 15 6 187.651 194.282 3.579 2.484 o
-1 15 7 77.755 78.699 3.013 9.204 o
-1 15 8 4.593 1.797 1.522 143.791 o
-1 15 9 78.364 91.417 4.861 6.817 o
0 0 2 5430.810 5817.150 13.065 0.004 o
0 0 4 36089.700 38248.800 52.855 0.000 o
0 0 6 6204.320 6622.660 16.344 0.003 o
0 0 8 1570.350 1577.680 8.698 0.052 o
0 0 10 228.483 291.186 1.644 1.640 o
0 0 12 265.285 257.623 2.686 1.476 o
0 0 14 0.152 -0.921 0.698 945.298 o
0 0 16 12.260 15.495 1.226 82.878 o
0 0 18 35.111 30.581 2.270 26.154 o
0 0 20 1.458 0.574 2.304 86.476 o
0 2 0 15959.500 16160.100 29.802 0.001 o
0 2 1 681.808 747.699 3.929 0.243 o
0 2 2 2709.550 2794.920 7.836 0.017 o
0 2 3 69.086 112.377 0.547 9.970 o
0 2 4 996.841 1087.080 2.440 0.119 o
0 2 5 396.187 462.137 1.043 0.650 o
0 2 6 1659.800 1746.780 4.123 0.045 o
0 2 7 47.904 35.759 0.708 24.702 o
0 2 8 222.249 208.625 1.321 2.083 o
0 2 9 544.203 590.614 1.887 0.377 o
0 2 10 19.284 27.921 0.508 59.157 o
0 2 11 58.782 41.753 0.740 19.033 o
0 2 12 19.918 24.492 0.770 59.023 o
0 2 13 808.850 814.566 2.756 0.187 o
0 2 14 7.828 8.253 0.637 170.043 o
0 2 15 0.015 0.217 0.504 1760.370 o
0 2 16 27.835 26.663 0.918 43.327 o
0 2 17 555.496 566.576 3.999 0.374 o
0 2 18 0.154 -1.067 0.906 573.488 o
0 2 19 31.517 33.105 2.558 25.355 o
0 2 20 35.471 37.389 2.708 22.001 o
0 2 21 185.140 179.470 6.392 2.283 o
0 4 0 2508.130 2590.180 13.782 0.020 o
0 4 1 254.723 250.049 1.106 1.605 o
0 4 2 311.965 360.558 1.394 1.009 o
0 4 3 827.173 917.542 2.670 0.168 o
0 4 4 2974.400 3200.300 7.216 0.014 o
0 4 5 157.149 137.687 1.198 3.879 o
0 4 6 10.152 13.483 0.514 125.735 o
0 4 7 209.917 208.815 1.284 2.226 o
0 4 8 1233.880 1233.080 2.826 0.083 o
0 4 9 38.470 32.435 0.547 31.833 o
0 4 10 59.588 51.618 0.835 17.192 o
0 4 11 17.080 20.905 0.698 71.224 o
0 4 12 14.652 17.701 0.667 85.216 o
0 4 13 93.204 79.503 1.139 8.942 o
0 4 14 20.093 19.938 0.948 61.220 o
0 4 15 46.721 49.305 1.284 21.053 o
0 4 16 0.173 0.552 0.875 574.051 o
0 4 17 122.344 122.076 2.829 5.064 o
0 4 18 46.294 45.627 2.048 19.685 o
0 4 19 83.120 93.903 3.023 8.045 o
0 4 20 4.613 5.869 2.144 79.981 o
0 6 0 49.025 48.569 0.752 21.302 o
0 6 1 651.773 694.326 2.914 0.271 o
0 6 2 6.629 7.200 0.423 215.981 o
0 6 3 14.602 8.584 0.462 112.995 o
0 6 4 124.270 147.338 1.142 4.817 o
0 6 5 26.229 22.802 0.567 50.665 o
0 6 6 39.826 46.408 0.732 26.089 o
0 6 7 35.068 28.120 0.615 36.305 o
0 6 8 0.241 0.412 0.355 2322.490 o
0 6 9 143.247 134.584 1.420 4.332 o
0 6 10 96.723 94.518 1.140 7.929 o
0 6 11 67.950 56.421 1.000 14.420 o
0 6 12 348.649 346.584 2.171 0.903 o
0 6 13 94.244 91.987 1.875 7.954 o
0 6 14 26.512 26.223 1.286 42.125 o
0 6 15 63.638 63.643 2.258 12.979 o
0 6 16 191.983 197.199 2.978 2.453 o
0 6 17 75.355 74.386 2.416 10.329 o
0 6 18 96.012 102.004 2.889 6.914 o
0 6 19 47.598 52.848 2.213 17.716 o
0 8 0 129.216 124.065 1.965 4.958 o
0 8 1 3244.820 3252.370 14.639 0.012 o
0 8 2 18.269 17.160 0.723 72.831 o
0 8 3 420.591 396.771 1.963 0.663 o
0 8 4 25.283 18.617 0.681 55.115 o
0 8 5 1400.320 1306.710 9.779 0.067 o
0 8 6 0.051 0.047 0.662 1079.320 o
0 8 7 17.318 12.172 0.692 85.104 o
0 8 8 7.146 6.952 0.661 187.429 o
0 8 9 19.947 14.376 0.849 69.940 o
0 8 10 11.696 11.523 0.824 110.094 o
0 8 11 27.386 26.923 1.275 40.856 o
0 8 12 70.160 73.439 1.565 11.962 o
0 8 13 25.861 27.550 1.372 41.295 o
0 8 14 36.441 36.123 1.875 26.407 o
0 8 15 34.708 32.366 1.775 29.001 o
0 8 16 8.728 9.247 1.712 85.420 o
0 8 17 91.207 97.340 2.999 7.327 o
0 8 18 86.600 96.174 2.853 7.810 o
0 10 0 162.459 159.759 3.223 3.251 o
0 10 1 1023.280 1043.900 9.309 0.116 o
0 10 2 0.672 0.534 0.657 800.813 o
0 10 3 6.134 8.668 1.071 148.772 o
0 10 4 44.778 44.331 1.198 23.068 o
0 10 5 672.490 672.339 4.441 0.265 o
0 10 6 5.991 7.114 0.805 189.196 o
0 10 7 440.129 419.670 3.263 0.601 o
0 10 8 1.909 1.080 0.774 457.625 o
0 10 9 30.799 30.544 1.202 36.227 o
0 10 10 59.477 57.158 1.468 15.700 o
0 10 11 167.059 159.421 2.156 3.282 o
0 10 12 0.545 -0.977 1.094 375.638 o
0 10 13 23.236 21.259 1.656 44.694 o
0 10 14 36.137 31.491 1.911 27.600 o
0 10 15 134.684 139.132 3.259 4.211 o
0 10 16 5.136 4.435 1.663 115.449 o
0 12 0 1.037 -0.184 1.375 233.872 o
0 12 1 125.189 130.573 2.926 4.761 o
0 12 2 3.348 3.747 0.921 261.067 o
0 12 3 51.396 50.645 1.500 18.730 o
0 12 4 1.873 2.825 1.046 282.695 o
0 12 5 50.056 50.129 1.540 19.147 o
0 12 6 24.005 22.822 1.341 46.767 o
0 12 7 130.545 127.927 2.243 4.774 o
0 12 8 2.695 2.391 1.000 278.583 o
0 12 9 0.032 -0.603 1.026 460.640 o
0 12 10 52.052 53.018 1.838 17.437 o
0 12 11 0.999 1.358 1.366 223.421 o
0 12 12 4.821 5.456 1.362 145.299 o
0 12 13 79.074 85.519 2.764 8.990 o
0 12 14 71.551 73.924 2.885 10.264 o
0 14 0 566.619 569.039 6.460 0.357 o
0 14 1 1.031 0.721 1.167 300.223 o
0 14 2 5.938 6.614 1.301 137.121 o
0 14 3 40.708 42.194 2.655 19.719 o
0 14 4 308.166 316.843 3.869 1.079 o
0 14 5 50.220 53.260 2.231 16.920 o
0 14 6 4.242 4.135 1.359 157.851 o
0 14 7 1.411 0.482 1.216 272.120 o
0 14 8 86.774 84.584 2.515 8.526 o
0 14 9 80.588 89.474 2.616 8.789 o
0 14 10 12.122 13.137 1.941 62.376 o
0 14 11 87.972 89.877 2.872 7.935 o
0 16 0 209.771 220.065 4.329 2.008 o
0 16 1 2.313 2.594 1.340 195.841 o
0 16 2 23.802 22.886 1.980 39.017 o
0 16 3 18.387 15.057 1.855 52.108 o
0 16 4 42.748 42.545 2.809 18.451 o
0 16 5 47.610 43.629 2.934 16.633 o
1 1 0 7714.830 7810.210 17.973 0.002 o
1 1 1 25.239 30.712 0.288 47.285 o
1 1 2 112.954 62.301 0.421 8.066 o
1 1 3 0.117 0.529 0.155 5100.490 o
1 1 4 30.385 15.550 0.307 51.004 o
1 1 5 99.459 121.499 0.678 6.808 o
1 1 6 89.564 106.166 0.686 8.154 o
1 1 7 24.296 24.775 0.778 50.696 o
1 1 8 39.429 32.204 0.475 31.355 o
1 1 9 220.854 223.239 1.005 2.026 o
1 1 10 104.630 132.749 0.959 6.107 o
1 1 11 1.026 1.424 0.393 1007.920 o
1 1 12 191.600 143.762 1.433 2.995 o
1 1 13 86.424 90.931 1.298 8.986 o
1 1 14 4.040 5.615 0.577 288.979 o
1 1 15 15.768 14.802 0.766 84.416 o
1 1 16 708.542 711.047 3.966 0.240 o
1 1 17 0.019 1.525 0.817 599.384 o
1 1 18 279.577 276.799 2.609 1.334 o
1 1 19 4.178 2.983 1.267 179.641 o
1 1 20 184.523 193.596 4.249 2.466 o
1 1 21 27.055 24.036 3.095 25.227 o
1 3 0 1790.540 1916.290 5.243 0.038 o
1 3 1 487.760 589.829 2.183 0.430 o
1 3 2 0.030 6.646 0.265 682.479 o
1 3 3 684.213 666.326 2.635 0.262 o
1 3 4 516.454 481.789 1.295 0.458 o
1 3 5 5.162 9.701 0.318 228.721 o
1 3 6 317.222 298.115 1.814 1.109 o
1 3 7 9.165 13.255 0.400 138.918 o
1 3 8 76.300 73.461 0.657 11.591 o
1 3 9 575.313 570.755 2.713 0.359 o
1 3 10 3.713 1.729 0.320 492.007 o
1 3 11 11.354 9.024 0.662 128.141 o
1 3 12 168.400 175.164 1.325 3.149 o
1 3 13 576.438 595.110 3.051 0.348 o
1 3 14 234.893 242.581 1.953 1.778 o
1 3 15 182.321 185.953 1.680 2.770 o
1 3 16 14.802 13.698 0.938 85.910 o
1 3 17 39.219 43.185 1.580 24.634 o
1 3 18 0.023 0.091 1.196 337.751 o
1 3 19 61.471 64.741 2.433 12.971 o
1 3 20 0.591 0.653 2.094 106.986 o
1 5 0 812.535 847.516 3.131 0.181 o
1 5 1 1439.490 1515.780 7.538 0.059 o
1 5 2 1232.790 1254.880 5.676 0.082 o
1 5 3 219.101 232.018 1.392 1.991 o
1 5 4 9.526 12.929 0.470 134.782 o
1 5 5 411.219 409.559 2.526 0.667 o
1 5 6 1219.530 1211.250 4.131 0.085 o
1 5 7 561.221 568.031 1.856 0.372 o
1 5 8 851.788 844.577 2.733 0.171 o
1 5 9 13.339 13.254 0.689 100.653 o
1 5 10 74.120 72.899 1.229 11.665 o
1 5 11 102.244 98.856 1.265 7.290 o
1 5 12 891.126 940.644 4.018 0.150 o
1 5 13 143.190 141.875 1.732 4.180 o
1 5 14 97.966 101.834 1.498 7.426 o
1 5 15 33.180 34.448 1.214 32.578 o
1 5 16 66.755 70.669 1.794 12.493 o
1 5 17 0.003 -0.860 1.145 371.745 o
1 5 18 0.133 1.905 1.435 215.553 o
1 5 19 1.051 -0.488 1.753 149.123 o
1 5 20 16.566 16.554 4.410 19.447 o
1 7 0 43.144 42.433 0.681 25.479 o
1 7 1 214.091 216.070 1.438 2.130 o
1 7 2 3.270 2.833 0.431 444.726 o
1 7 3 1131.900 1144.780 3.226 0.098 o
1 7 4 31.913 32.384 0.658 37.123 o
1 7 5 538.327 578.821 2.174 0.387 o
1 7 6 73.009 65.920 1.295 12.341 o
1 7 7 966.654 951.772 5.146 0.134 o
1 7 8 79.574 76.420 1.360 10.569 o
1 7 9 309.032 303.910 2.165 1.128 o
1 7 10 1.076 0.191 0.557 918.313 o
1 7 11 398.376 390.199 2.857 0.712 o
1 7 12 99.515 98.316 1.786 7.336 o
1 7 13 173.416 169.940 2.505 3.014 o
1 7 14 128.703 131.635 2.390 4.742 o
1 7 15 17.599 18.265 1.731 53.366 o
1 7 16 16.762 14.685 1.615 60.626 o
1 7 17 380.186 381.362 4.474 0.750 o
1 7 18 13.779 13.173 1.800 63.240 o
1 9 0 29.122 25.905 0.677 43.693 o
1 9 1 176.474 165.394 1.659 3.065 o
1 9 2 383.706 380.594 2.499 0.759 o
1 9 3 44.453 45.385 0.846 23.788 o
1 9 4 111.132 98.608 1.506 6.627 o
1 9 5 3.720 4.681 0.754 277.295 o
1 9 6 60.723 55.387 1.272 15.889 o
1 9 7 21.741 24.627 1.127 51.369 o
1 9 8 122.506 114.373 1.654 5.530 o
1 9 9 18.993 15.726 1.079 66.438 o
1 9 10 16.438 16.479 1.036 73.223 o
1 9 11 51.975 57.497 1.332 17.849 o
1 9 12 66.930 63.979 1.545 13.330 o
1 9 13 30.995 28.177 1.756 33.018 o
1 9 14 44.521 42.216 2.313 19.881 o
1 9 15 164.370 173.769 3.027 3.096 o
1 9 16 98.736 104.845 3.025 6.581 o
1 9 17 264.153 268.693 3.699 1.421 o
1 11 0 304.887 304.974 3.351 1.127 o
1 11 1 124.503 126.428 1.972 5.103 o
1 11 2 0.004 -0.508 0.766 830.970 o
1 11 3 402.654 396.154 3.206 0.694 o
1 11 4 0.334 -0.151 0.736 806.384 o
1 11 5 15.925 17.493 1.013 73.744 o
1 11 6 43.504 45.287 1.721 21.823 o
1 11 7 113.369 108.980 1.988 6.052 o
1 11 8 34.576 30.925 1.645 30.339 o
1 11 9 90.913 97.120 1.965 7.973 o
1 11 10 184.086 182.287 2.233 2.738 o
1 11 11 99.508 100.362 1.963 7.191 o
1 11 12 12.939 13.821 1.625 69.862 o
1 11 13 114.657 122.879 3.956 4.957 o
1 11 14 158.914 159.715 3.653 3.261 o
1 11 15 216.581 221.580 3.875 1.963 o
1 13 0 10.571 7.729 1.269 105.078 o
1 13 1 31.765 27.672 1.822 32.130 o
1 13 2 91.181 92.564 1.967 8.140 o
1 13 3 13.970 11.723 1.129 86.920 o
1 13 4 7.623 5.177 1.195 139.263 o
1 13 5 53.348 55.477 1.756 16.937 o
1 13 6 27.771 24.197 1.490 39.902 o
1 13 7 217.577 225.672 2.642 1.998 o
1 13 8 25.478 19.162 1.503 45.226 o
1 13 9 28.112 30.492 1.781 34.121 o
1 13 10 4.296 2.864 1.234 184.447 o
1 13 11 136.160 139.758 3.123 4.188 o
1 13 12 0.028 -1.844 1.476 223.313 o
1 13 13 141.020 119.158 5.881 3.567 o
1 15 0 58.809 61.670 2.361 13.843 o
1 15 1 38.753 34.069 2.051 24.845 o
1 15 2 294.789 306.256 3.736 1.161 o
1 15 3 1.847 1.703 1.447 186.933 o
1 15 4 31.043 25.822 2.296 29.401 o
1 15 5 97.761 99.358 2.640 7.023 o
1 15 6 237.381 240.620 4.170 1.683 o
1 15 7 117.081 121.200 3.386 5.113 o
1 15 8 16.733 10.509 1.617 65.044 o
1 15 9 0.001 -4.017 2.591 72.673 o
2 0 0 21693.200 22649.600 127.338 0.000 o
2 0 2 156.704 96.650 0.736 4.584 o
2 0 4 17692.300 18987.800 18.443 0.000 o
2 0 6 2532.560 2796.110 14.186 0.019 o
2 0 8 2643.360 2740.220 11.120 0.018 o
2 0 10 379.649 517.260 2.796 0.624 o
2 0 12 1261.730 1166.800 8.215 0.083 o
2 0 14 39.937 45.569 1.437 24.262 o
2 0 16 843.165 883.775 6.229 0.166 o
2 0 18 128.275 130.328 2.788 4.688 o
2 0 20 115.600 112.533 4.566 4.857 o
2 2 0 2366.290 2470.970 9.694 0.023 o
2 2 1 1719.270 2207.950 7.206 0.036 o
2 2 2 1758.760 1857.700 4.453 0.040 o
2 2 3 0.682 2.229 0.211 1264.990 o
2 2 4 1362.400 1501.750 3.937 0.064 o
2 2 5 196.182 194.996 0.953 2.509 o
2 2 6 49.998 58.835 0.911 18.903 o
2 2 7 238.318 268.075 1.693 1.652 o
2 2 8 1.102 0.243 0.318 1468.970 o
2 2 9 52.183 39.189 0.746 21.926 o
2 2 10 211.132 150.030 1.174 2.616 o
2 2 11 4.362 7.892 0.637 235.802 o
2 2 12 9.449 5.641 0.552 171.856 o
2 2 13 0.393 0.473 0.539 1191.910 o
2 2 14 229.157 228.736 1.780 1.898 o
2 2 15 23.154 20.128 0.848 56.080 o
2 2 16 121.443 119.294 1.679 5.459 o
2 2 17 134.869 138.415 1.936 4.483 o
2 2 18 2.781 1.823 0.999 285.376 o
2 2 19 0.066 1.572 1.273 273.852 o
2 2 20 1.938 3.303 1.805 123.502 o
2 4 0 50.617 44.199 0.587 21.748 o
2 4 1 5.193 14.157 0.352 183.496 o
2 4 2 1.304 1.555 0.250 1064.720 o
2 4 3 115.624 118.443 0.843 5.912 o
2 4 4 1790.510 1969.450 5.871 0.038 o
2 4 5 140.309 163.958 1.111 3.992 o
2 4 6 6.396 3.125 0.258 294.697 o
2 4 7 384.871 375.222 1.695 0.766 o
2 4 8 3014.880 2921.530 7.597 0.015 o
2 4 9 1348.270 1281.020 7.463 0.072 o
2 4 10 785.736 756.973 4.693 0.202 o
2 4 11 3.819 2.760 0.606 353.083 o
2 4 12 719.752 727.809 3.312 0.232 o
2 4 13 701.697 729.820 3.799 0.239 o
2 4 14 665.769 702.527 3.399 0.262 o
2 4 15 160.846 165.099 1.838 3.386 o
2 4 16 5.031 3.893 0.878 226.679 o
2 4 17 33.742 33.594 1.390 31.514 o
2 4 18 49.372 54.257 1.969 17.689 o
2 4 19 42.383 44.715 2.104 20.971 o
2 4 20 2.259 0.366 2.163 94.773 o
2 6 0 154.047 146.234 1.291 3.839 o
2 6 1 192.171 216.863 1.190 2.405 o
2 6 2 665.997 696.896 2.236 0.264 o
2 6 3 141.059 149.320 1.095 4.194 o
2 6 4 180.725 194.777 1.353 2.739 o
2 6 5 70.004 62.008 0.788 13.591 o
2 6 6 369.277 357.760 2.150 0.827 o
2 6 7 330.351 285.794 1.760 1.080 o
2 6 8 887.907 876.431 4.210 0.158 o
2 6 9 184.387 164.796 2.345 2.874 o
2 6 10 49.526 44.434 1.116 21.282 o
2 6 11 23.441 21.927 0.881 53.566 o
2 6 12 102.781 100.177 1.570 7.112 o
2 6 13 169.354 159.542 1.934 3.251 o
2 6 14 88.358 87.088 1.503 8.890 o
2 6 15 271.868 274.085 2.847 1.381 o
2 6 16 54.772 57.839 1.927 15.937 o
2 6 17 5.443 5.081 1.374 140.071 o
2 6 18 10.768 10.640 1.537 84.320 o
2 6 19 122.352 127.167 2.894 4.943 o
2 8 0 388.369 379.989 1.937 0.751 o
2 8 1 406.085 435.792 2.089 0.653 o
2 8 2 2.316 2.342 0.373 602.039 o
2 8 3 180.441 159.504 1.258 3.068 o
2 8 4 210.009 190.093 1.686 2.329 o
2 8 5 928.139 898.865 7.497 0.145 o
2 8 6 38.518 29.666 2.131 25.560 o
2 8 7 8.552 4.055 0.686 185.662 o
2 8 8 5.811 5.473 0.711 219.770 o
2 8 9 149.532 139.231 1.900 4.007 o
2 8 10 13.042 12.593 0.870 98.124 o
2 8 11 63.399 62.109 1.397 14.373 o
2 8 12 27.471 27.212 1.244 40.872 o
2 8 13 52.751 53.475 1.624 17.646 o
2 8 14 11.995 11.384 1.366 85.994 o
2 8 15 161.453 155.689 3.394 3.290 o
2 8 16 56.408 59.659 2.562 14.086 o
2 8 17 79.749 80.671 3.053 8.880 o
2 8 18 5.873 5.553 2.038 82.802 o
2 10 0 0.908 0.964 0.480 988.425 o
2 10 1 2.626 2.274 0.744 381.127 o
2 10 2 0.095 0.509 0.608 1121.610 o
2 10 3 713.545 715.234 4.104 0.237 o
2 10 4 154.770 154.592 2.524 3.579 o
2 10 5 101.207 84.969 1.483 7.838 o
2 10 6 13.266 12.544 0.882 96.752 o
2 10 7 20.363 18.474 1.008 61.319 o
2 10 8 167.065 176.403 2.339 3.089 o
2 10 9 13.591 14.640 1.021 86.297 o
2 10 10 22.939 19.362 1.137 53.615 o
2 10 11 51.285 51.936 1.515 18.532 o
2 10 12 107.677 106.523 2.006 6.442 o
2 10 13 2.871 1.819 1.423 177.041 o
2 10 14 24.435 21.930 1.977 38.904 o
2 10 15 40.231 41.402 2.591 20.268 o
2 10 16 12.028 8.803 1.847 70.536 o
2 12 0 188.288 195.528 2.861 2.526 o
2 12 1 4.596 3.828 1.107 194.285 o
2 12 2 0.924 0.660 0.940 435.465 o
2 12 3 8.390 7.363 1.081 133.380 o
2 12 4 0.992 1.334 0.812 500.696 o
2 12 5 4.638 3.073 0.832 255.730 o
2 12 6 1.764 0.612 0.893 409.798 o
2 12 7 127.035 133.911 2.170 4.809 o
2 12 8 43.472 42.109 1.839 22.043 o
2 12 9 158.197 158.273 2.584 3.446 o
2 12 10 58.327 54.431 1.944 15.475 o
2 12 11 1.165 1.977 1.125 290.947 o
2 12 12 19.791 17.066 1.822 49.262 o
2 12 13 47.124 41.059 2.443 18.788 o
2 12 14 91.035 91.674 3.576 7.124 o
2 14 0 173.235 164.204 3.448 2.967 o
2 14 1 29.538 27.805 2.201 30.499 o
2 14 2 196.919 201.107 3.813 2.297 o
2 14 3 110.432 113.632 2.665 5.855 o
2 14 4 83.837 88.556 2.172 8.863 o
2 14 5 0.153 -0.900 1.254 304.834 o
2 14 6 164.862 165.280 3.071 3.165 o
2 14 7 253.950 267.476 3.911 1.481 o
2 14 8 6.845 6.159 1.402 122.601 o
2 14 9 195.047 203.876 3.422 2.334 o
2 14 10 5.599 4.573 1.584 119.487 o
2 14 11 2.643 -1.255 2.474 73.606 o
2 16 0 12.679 12.161 1.504 77.019 o
2 16 1 7.715 5.186 1.515 111.092 o
2 16 2 7.971 8.448 1.434 106.614 o
2 16 3 4.054 4.754 1.664 120.785 o
2 16 4 16.631 18.965 2.479 40.250 o
2 16 5 2.368 1.165 4.775 20.873 o
3 1 0 11418.900 11636.800 26.758 0.001 o
3 1 1 1831.670 2064.470 5.650 0.035 o
3 1 2 2540.150 2641.460 6.815 0.020 o
3 1 3 1911.050 2082.020 5.802 0.033 o
3 1 4 2763.030 3070.190 8.747 0.016 o
3 1 5 91.613 91.589 0.684 8.636 o
3 1 6 1546.960 1519.200 5.925 0.054 o
3 1 7 584.715 599.861 2.573 0.341 o
3 1 8 102.895 108.547 1.028 6.956 o
3 1 9 7.399 7.528 0.392 199.984 o
3 1 10 229.935 219.387 1.583 1.941 o
3 1 11 61.891 59.507 0.998 15.429 o
3 1 12 1.361 0.787 0.598 707.109 o
3 1 13 36.910 37.594 0.950 29.930 o
3 1 14 133.594 131.914 1.469 4.716 o
3 1 15 13.443 16.360 0.870 87.911 o
3 1 16 352.759 348.518 2.574 0.884 o
3 1 17 38.718 41.613 1.487 25.637 o
3 1 18 23.434 24.828 1.395 45.551 o
3 1 19 5.519 6.594 1.192 152.733 o
3 1 20 384.648 383.852 6.032 0.719 o
3 3 0 1285.030 1335.890 4.530 0.075 o
3 3 1 23.451 31.640 0.498 48.471 o
3 3 2 91.126 112.735 0.722 7.737 o
3 3 3 5077.390 5478.760 9.825 0.005 o
3 3 4 1339.940 1430.600 4.351 0.068 o
3 3 5 264.146 282.089 1.244 1.430 o
3 3 6 100.786 102.715 0.863 7.349 o
3 3 7 1509.890 1488.520 4.664 0.057 o
3 3 8 943.670 929.923 3.440 0.141 o
3 3 9 348.822 329.320 1.887 0.932 o
3 3 10 149.306 161.074 2.097 3.689 o
3 3 11 276.295 263.264 1.921 1.404 o
3 3 12 150.795 147.801 1.519 3.889 o
3 3 13 7.563 9.158 0.683 164.148 o
3 3 14 3.371 2.637 0.677 355.984 o
3 3 15 117.259 124.899 1.569 5.547 o
3 3 16 179.995 176.837 1.833 2.881 o
3 3 17 3.410 1.473 0.934 291.153 o
3 3 18 0.968 -0.613 1.060 373.660 o
3 3 19 56.566 58.229 2.128 15.085 o
3 3 20 118.758 124.957 4.243 4.661 o
3 5 0 465.531 519.905 1.984 0.495 o
3 5 1 342.174 360.735 1.636 0.905 o
3 5 2 49.532 49.612 0.605 21.084 o
3 5 3 130.173 168.288 1.342 4.217 o
3 5 4 1322.530 1438.760 4.791 0.069 o
3 5 5 374.932 420.635 1.698 0.736 o
3 5 6 79.088 75.015 0.770 11.030 o
3 5 7 73.880 67.585 0.709 12.427 o
3 5 8 523.175 507.406 2.775 0.434 o
3 5 9 515.319 524.468 3.900 0.431 o
3 5 10 254.304 251.561 2.135 1.585 o
3 5 11 0.709 -0.190 0.557 1100.460 o
3 5 12 18.357 17.134 0.919 69.286 o
3 5 13 129.676 130.979 1.682 4.853 o
3 5 14 1.388 2.043 0.783 454.767 o
3 5 15 6.737 4.581 0.816 196.375 o
3 5 16 50.113 52.180 1.644 18.566 o
3 5 17 96.598 96.911 2.259 7.388 o
3 5 18 8.715 10.419 1.441 97.758 o
3 5 19 0.008 2.097 1.573 182.422 o
3 7 0 37.418 31.067 0.623 32.986 o
3 7 1 359.197 339.554 1.754 0.884 o
3 7 2 751.329 747.252 3.052 0.216 o
3 7 3 545.768 530.793 2.167 0.402 o
3 7 4 203.086 190.681 1.334 2.431 o
3 7 5 257.766 214.944 1.641 1.710 o
3 7 6 82.357 77.448 0.969 10.351 o
3 7 7 142.910 149.184 1.885 4.057 o
3 7 8 155.357 146.338 1.646 3.771 o
3 7 9 19.115 18.126 0.972 65.170 o
3 7 10 20.387 17.922 0.842 64.382 o
3 7 11 146.170 142.360 1.824 4.070 o
3 7 12 7.787 8.158 0.964 144.641 o
3 7 13 0.070 0.632 0.843 623.153 o
3 7 14 4.663 5.718 1.088 182.032 o
3 7 15 16.765 14.310 1.460 64.873 o
3 7 16 6.796 7.987 1.460 112.528 o
3 7 17 129.547 128.676 2.791 4.671 o
3 7 18 16.690 24.522 2.054 44.438 o
3 9 0 121.503 113.197 1.455 5.647 o
3 9 1 333.356 300.500 2.866 1.028 o
3 9 2 96.993 90.447 1.750 7.850 o
3 9 3 25.422 23.691 1.005 47.800 o
3 9 4 2.009 2.882 0.531 515.900 o
3 9 5 322.717 290.722 2.820 1.090 o
3 9 6 17.124 13.601 0.808 80.718 o
3 9 7 66.522 61.711 1.377 13.806 o
3 9 8 5.720 4.910 0.900 199.476 o
3 9 9 32.154 28.822 1.322 35.011 o
3 9 10 4.881 2.465 0.851 253.146 o
3 9 11 93.059 94.101 1.737 8.030 o
3 9 12 0.681 0.625 1.099 349.442 o
3 9 13 0.922 0.573 1.137 320.902 o
3 9 14 0.761 2.508 1.352 220.676 o
3 9 15 254.903 258.861 4.137 1.495 o
3 9 16 29.341 30.872 2.046 30.919 o
3 9 17 152.149 147.465 5.058 3.256 o
3 11 0 275.690 274.284 2.779 1.360 o
3 11 1 11.299 11.382 1.045 103.110 o
3 11 2 36.858 30.808 1.188 31.340 o
3 11 3 191.373 187.901 3.008 2.525 o
3 11 4 342.504 346.304 3.070 0.915 o
3 11 5 0.451 0.557 0.724 736.801 o
3 11 6 26.663 27.815 1.086 42.774 o
3 11 7 373.456 373.696 3.367 0.786 o
3 11 8 305.876 309.864 3.801 1.104 o
3 11 9 15.242 10.686 1.297 78.575 o
3 11 10 17.750 17.459 1.364 61.472 o
3 11 11 209.120 205.453 2.566 2.206 o
3 11 12 183.555 177.951 3.072 2.714 o
3 11 13 5.213 2.681 1.550 131.989 o
3 11 14 3.943 2.413 1.908 104.986 o
3 11 15 337.268 354.392 5.436 0.885 o
3 13 0 9.237 8.320 1.245 112.341 o
3 13 1 13.953 12.855 1.329 78.142 o
3 13 2 87.124 86.232 2.312 8.566 o
3 13 3 92.067 96.063 2.205 7.794 o
3 13 4 1.785 2.249 1.064 288.648 o
3 13 5 18.726 17.154 1.226 62.528 o
3 13 6 52.409 54.184 1.783 17.302 o
3 13 7 29.840 29.672 1.860 32.491 o
3 13 8 30.032 30.699 1.919 31.529 o
3 13 9 40.102 36.690 1.980 23.991 o
3 13 10 5.590 6.391 1.332 137.759 o
3 13 11 28.331 25.872 1.952 34.210 o
3 13 12 37.732 36.783 2.715 21.283 o
3 15 0 153.647 151.852 3.093 3.556 o
3 15 1 0.053 1.137 1.245 292.567 o
3 15 2 0.584 1.923 1.311 242.554 o
3 15 3 40.810 35.952 2.169 22.964 o
3 15 4 140.849 135.798 3.521 4.017 o
3 15 5 84.558 89.888 3.039 8.077 o
3 15 6 2.245 0.880 1.688 145.114 o
3 15 7 0.050 0.038 1.803 149.460 o
3 15 8 44.444 37.036 3.972 14.383 o
4 0 0 8849.370 9266.680 13.650 0.002 o
4 0 2 184.566 215.368 1.391 2.517 o
4 0 4 906.728 1020.540 3.827 0.139 o
4 0 6 42.352 48.506 1.093 23.487 o
4 0 8 427.005 365.939 1.965 0.681 o
4 0 10 26.903 13.846 0.954 53.786 o
4 0 12 3.689 1.003 0.845 320.004 o
4 0 14 101.766 94.409 2.230 7.124 o
4 0 16 747.973 777.128 7.382 0.208 o
4 0 18 136.403 135.533 4.107 3.998 o
4 0 20 357.868 369.408 6.662 0.788 o
4 2 0 821.254 867.460 2.318 0.176 o
4 2 1 250.736 306.302 1.085 1.440 o
4 2 2 199.236 162.772 0.989 2.710 o
4 2 3 2520.470 2657.030 7.062 0.020 o
4 2 4 75.377 86.623 0.788 10.736 o
4 2 5 785.391 774.943 2.915 0.200 o
4 2 6 2.984 2.915 0.347 496.727 o
4 2 7 39.505 33.217 0.621 30.622 o
4 2 8 299.244 250.081 1.563 1.315 o
4 2 9 7.130 7.465 0.545 193.857 o
4 2 10 366.470 319.268 3.898 0.874 o
4 2 11 45.477 42.660 1.146 23.263 o
4 2 12 40.874 47.101 1.026 24.686 o
4 2 13 92.980 101.095 1.468 7.857 o
4 2 14 721.507 753.065 3.699 0.226 o
4 2 15 3.501 3.131 0.739 318.091 o
4 2 16 291.365 292.870 2.558 1.231 o
4 2 17 30.976 33.191 1.424 33.520 o
4 2 18 36.282 37.851 1.588 27.503 o
4 2 19 2.541 2.709 1.244 212.113 o
4 2 20 150.402 148.299 3.259 3.651 o
4 4 0 89.804 106.156 0.881 8.092 o
4 4 1 311.122 338.656 1.375 1.054 o
4 4 2 29.599 35.431 0.450 38.590 o
4 4 3 816.720 905.961 2.777 0.172 o
4 4 4 1.014 1.491 0.284 1177.030 o
4 4 5 371.514 353.336 1.449 0.830 o
4 4 6 94.282 71.761 0.695 9.375 o
4 4 7 2.251 1.770 0.351 672.841 o
4 4 8 797.291 731.789 2.924 0.203 o
4 4 9 102.526 87.967 2.246 7.289 o
4 4 10 211.058 197.852 1.988 2.255 o
4 4 11 0.337 -0.119 0.558 1301.110 o
4 4 12 860.256 872.906 3.807 0.165 o
4 4 13 531.560 516.673 3.069 0.421 o
4 4 14 914.143 985.291 4.300 0.141 o
4 4 15 157.069 165.294 1.849 3.470 o
4 4 16 52.739 51.918 1.423 18.281 o
4 4 17 145.384 143.559 1.994 4.053 o
4 4 18 293.887 303.169 3.183 1.183 o
4 4 19 105.417 106.633 2.800 6.254 o
4 6 0 179.868 180.251 1.008 2.893 o
4 6 1 141.538 124.348 0.936 4.618 o
4 6 2 31.572 32.564 0.506 37.880 o
4 6 3 942.584 949.055 3.249 0.139 o
4 6 4 219.308 206.009 1.447 2.127 o
4 6 5 47.187 40.160 0.699 23.995 o
4 6 6 323.920 303.628 1.834 1.070 o
4 6 7 937.188 960.443 4.342 0.139 o
4 6 8 220.900 214.396 3.368 1.986 o
4 6 9 441.597 425.160 3.043 0.595 o
4 6 10 51.664 50.123 1.161 19.399 o
4 6 11 127.432 125.195 1.600 5.076 o
4 6 12 563.266 574.411 4.456 0.364 o
4 6 13 422.114 419.378 3.281 0.633 o
4 6 14 61.066 60.808 1.515 14.857 o
4 6 15 95.323 93.007 1.919 7.803 o
4 6 16 107.862 117.655 2.282 6.021 o
4 6 17 8.285 9.897 1.437 101.235 o
4 6 18 13.554 15.679 1.529 69.002 o
4 8 0 368.199 366.425 2.035 0.819 o
4 8 1 303.860 288.428 1.780 1.191 o
4 8 2 120.887 111.638 1.305 5.745 o
4 8 3 688.705 707.932 5.690 0.247 o
4 8 4 681.210 682.214 3.050 0.259 o
4 8 5 104.006 91.864 1.367 7.389 o
4 8 6 42.903 36.014 0.963 26.698 o
4 8 7 515.653 544.200 3.543 0.422 o
4 8 8 209.021 205.439 2.349 2.218 o
4 8 9 252.378 255.406 2.897 1.565 o
4 8 10 44.186 43.116 1.513 22.666 o
4 8 11 15.403 14.946 1.110 76.842 o
4 8 12 54.923 55.204 1.902 16.270 o
4 8 13 80.780 80.136 2.115 9.655 o
4 8 14 1.229 1.149 1.239 259.866 o
4 8 15 174.762 178.470 2.646 2.898 o
4 8 16 79.635 85.793 2.461 9.189 o
4 8 17 115.837 115.334 2.813 5.498 o
4 10 0 94.986 102.502 1.566 7.604 o
4 10 1 22.517 15.647 0.716 63.678 o
4 10 2 2.961 2.469 0.623 406.358 o
4 10 3 225.707 234.436 2.269 1.889 o
4 10 4 0.719 -0.661 0.768 673.443 o
4 10 5 0.098 -0.415 0.640 1139.500 o
4 10 6 18.612 17.639 1.203 62.689 o
4 10 7 53.741 51.118 1.583 17.785 o
4 10 8 40.815 40.840 1.447 24.937 o
4 10 9 112.731 111.995 2.032 5.992 o
4 10 10 48.482 41.115 2.051 19.696 o
4 10 11 219.195 217.467 2.829 2.015 o
4 10 12 87.202 88.589 2.194 8.532 o
4 10 13 90.012 92.973 2.369 7.988 o
4 10 14 55.846 56.027 2.295 15.130 o
4 10 15 516.105 536.050 6.803 0.413 o
4 12 0 416.921 434.123 3.433 0.628 o
4 12 1 2.262 1.351 0.923 344.640 o
4 12 2 21.636 21.441 1.289 51.950 o
4 12 3 87.379 90.399 1.946 8.586 o
4 12 4 191.289 200.388 2.279 2.486 o
4 12 5 8.294 9.960 1.214 115.122 o
4 12 6 0.294 -0.630 0.984 476.844 o
4 12 7 19.676 20.644 1.385 54.386 o
4 12 8 19.988 18.000 1.414 55.653 o
4 12 9 125.215 126.617 2.840 4.858 o
4 12 10 13.120 10.171 1.372 83.857 o
4 12 11 2.372 3.917 1.271 198.661 o
4 12 12 0.005 -1.128 1.305 286.331 o
4 12 13 266.154 260.103 4.354 1.413 o
4 14 0 41.342 38.336 2.697 19.939 o
4 14 1 0.257 -1.955 1.329 268.976 o
4 14 2 82.783 77.814 2.605 9.148 o
4 14 3 0.007 1.523 1.335 253.169 o
4 14 4 49.623 49.879 2.564 16.569 o
4 14 5 40.840 49.310 2.969 17.453 o
4 14 6 115.725 115.115 3.444 5.273 o
4 14 7 174.753 176.131 4.097 2.757 o
4 14 8 85.488 86.461 3.141 8.057 o
4 14 9 24.927 26.662 1.815 38.128 o
4 14 10 25.963 22.147 2.227 34.631 o
4 16 0 110.075 110.678 3.045 5.796 o
4 16 1 0.496 -0.763 1.494 209.797 o
4 16 2 35.090 29.170 2.172 27.154 o
4 16 3 31.884 24.435 3.507 20.610 o
5 1 0 1411.520 1571.110 3.955 0.060 o
5 1 1 2514.050 2766.500 7.213 0.019 o
5 1 2 3444.770 3972.680 14.548 0.010 o
5 1 3 260.907 281.818 1.312 1.450 o
5 1 4 857.494 929.698 2.301 0.159 o
5 1 5 937.330 920.780 2.942 0.143 o
5 1 6 2808.380 2849.990 7.140 0.016 o
5 1 7 935.971 942.619 2.405 0.141 o
5 1 8 0.220 0.775 0.350 2062.160 o
5 1 9 52.545 44.983 1.230 19.844 o
5 1 10 555.786 600.777 9.259 0.343 o
5 1 11 565.418 573.181 2.821 0.366 o
5 1 12 47.251 35.305 0.953 24.631 o
5 1 13 0.006 -0.643 0.656 1128.650 o
5 1 14 232.324 237.188 2.150 1.819 o
5 1 15 202.600 207.613 2.480 2.276 o
5 1 16 32.899 32.099 1.344 32.951 o
5 1 17 0.153 0.743 1.107 368.351 o
5 1 18 216.746 227.892 2.934 1.982 o
5 1 19 70.749 69.489 2.346 11.318 o
5 1 20 37.218 35.514 2.632 22.116 o
5 3 0 332.047 380.683 1.693 0.905 o
5 3 1 2543.020 2767.000 7.396 0.019 o
5 3 2 206.666 192.857 1.087 2.374 o
5 3 3 64.607 73.586 0.820 13.496 o
5 3 4 0.225 0.447 0.297 2833.600 o
5 3 5 1052.540 1030.610 3.542 0.115 o
5 3 6 12.196 10.191 0.445 124.802 o
5 3 7 1450.500 1467.850 4.881 0.060 o
5 3 8 593.975 557.004 2.561 0.350 o
5 3 9 23.658 22.717 0.983 51.465 o
5 3 10 221.991 200.851 2.162 2.103 o
5 3 11 891.140 911.056 4.355 0.153 o
5 3 12 211.160 212.250 1.982 2.168 o
5 3 13 221.560 237.287 2.166 1.918 o
5 3 14 191.685 198.352 2.026 2.509 o
5 3 15 252.889 254.179 2.391 1.580 o
5 3 16 27.641 25.038 1.323 41.181 o
5 3 17 125.043 135.811 2.264 4.829 o
5 3 18 28.901 29.979 1.518 35.864 o
5 3 19 67.074 68.279 2.350 11.927 o
5 5 0 474.514 445.474 1.531 0.534 o
5 5 1 176.995 191.735 1.195 2.835 o
5 5 2 34.582 22.517 0.555 39.819 o
5 5 3 5.024 1.815 0.340 380.980 o
5 5 4 0.042 0.922 0.325 2440.860 o
5 5 5 121.635 101.959 0.985 6.014 o
5 5 6 362.743 333.268 1.735 0.883 o
5 5 7 314.214 288.845 2.792 1.130 o
5 5 8 886.036 891.078 4.178 0.157 o
5 5 9 133.441 136.155 2.005 4.561 o
5 5 10 0.595 0.902 0.658 773.701 o
5 5 11 61.071 57.432 1.245 15.594 o
5 5 12 462.364 457.840 3.321 0.537 o
5 5 13 230.733 232.615 2.490 1.843 o
5 5 14 37.859 41.843 1.366 26.508 o
5 5 15 1.502 1.721 0.909 382.233 o
5 5 16 71.871 75.942 1.737 11.363 o
5 5 17 106.507 104.821 2.211 6.489 o
5 5 18 2.143 0.525 1.432 194.317 o
5 5 19 8.727 6.677 6.600 10.593 o
5 7 0 725.922 699.214 2.474 0.236 o
5 7 1 232.713 211.223 1.330 1.959 o
5 7 2 429.391 403.897 1.925 0.640 o
5 7 3 85.523 109.389 1.050 8.282 o
5 7 4 118.137 104.690 1.104 6.114 o
5 7 5 427.742 418.097 2.970 0.626 o
5 7 6 751.439 726.676 3.900 0.220 o
5 7 7 266.435 247.455 2.282 1.511 o
5 7 8 128.905 121.237 1.765 5.068 o
5 7 9 85.894 82.609 1.693 9.267 o
5 7 10 101.468 101.757 1.817 7.063 o
5 7 11 6.143 6.312 0.925 178.529 o
5 7 12 86.252 84.243 1.864 9.042 o
5 7 13 76.696 77.139 2.027 10.379 o
5 7 14 10.983 9.533 1.144 104.881 o
5 7 15 9.152 8.052 1.123 121.849 o
5 7 16 15.871 16.619 1.384 66.173 o
5 7 17 63.097 65.673 2.287 12.855 o
5 9 0 59.187 57.059 1.082 16.300 o
5 9 1 282.508 261.526 2.312 1.366 o
5 9 2 12.414 11.033 0.649 113.761 o
5 9 3 0.242 1.215 0.585 971.886 o
5 9 4 65.874 68.707 1.448 13.194 o
5 9 5 389.648 372.108 2.930 0.752 o
5 9 6 11.114 9.275 0.726 126.083 o
5 9 7 128.450 115.702 1.726 5.213 o
5 9 8 37.959 40.244 1.388 26.802 o
5 9 9 32.504 26.678 1.462 34.644 o
5 9 10 4.973 4.515 1.116 182.043 o
5 9 11 4.355 3.695 1.224 179.369 o
5 9 12 74.587 79.607 2.264 10.262 o
5 9 13 38.809 37.522 1.864 24.942 o
5 9 14 0.079 -1.018 1.244 312.359 o
5 9 15 2.552 0.416 1.438 187.942 o
5 9 16 29.948 27.032 2.149 30.922 o
5 11 0 298.055 305.283 3.506 1.153 o
5 11 1 72.593 73.611 1.739 11.424 o
5 11 2 10.602 9.572 0.879 121.094 o
5 11 3 9.884 8.837 0.986 122.797 o
5 11 4 23.874 23.959 1.089 49.018 o
5 11 5 58.255 54.056 1.696 15.994 o
5 11 6 84.556 88.338 2.029 8.902 o
5 11 7 154.990 150.384 2.662 3.607 o
5 11 8 84.003 81.885 1.992 9.308 o
5 11 9 67.585 65.226 2.135 12.376 o
5 11 10 38.904 34.926 1.919 25.248 o
5 11 11 35.387 33.530 1.811 28.039 o
5 11 12 282.080 280.603 3.954 1.279 o
5 11 13 34.790 32.440 2.086 27.003 o
5 11 14 2.817 2.306 1.680 135.826 o
5 13 0 266.896 266.405 3.020 1.430 o
5 13 1 51.596 54.444 2.389 16.035 o
5 13 2 278.693 280.035 4.902 1.270 o
5 13 3 20.220 20.817 1.792 46.721 o
5 13 4 86.660 88.816 2.488 8.369 o
5 13 5 36.787 36.331 2.305 23.870 o
5 13 6 451.854 473.509 4.589 0.535 o
5 13 7 277.584 281.307 3.250 1.319 o
5 13 8 9.750 9.307 1.619 86.418 o
5 13 9 72.148 76.460 2.091 10.943 o
5 13 10 192.044 197.230 3.315 2.426 o
5 13 11 57.013 59.201 2.236 14.675 o
5 15 0 9.665 4.749 1.614 95.899 o
5 15 1 18.204 15.620 1.768 53.751 o
5 15 2 165.712 179.910 3.696 2.930 o
5 15 3 1.643 2.414 1.561 163.573 o
5 15 4 23.286 21.405 2.365 35.346 o
5 15 5 16.142 10.787 1.990 55.867 o
5 15 6 223.929 228.810 4.995 1.792 o
5 15 7 37.471 30.443 4.514 14.065 o
6 0 0 1322.090 1486.340 9.296 0.067 o
6 0 2 151.768 136.818 1.324 4.038 o
6 0 4 1499.330 1613.140 5.039 0.054 o
6 0 6 34.565 31.367 0.973 33.894 o
6 0 8 1915.940 1821.900 6.850 0.036 o
6 0 10 10.681 12.090 1.024 105.520 o
6 0 12 1173.620 1229.250 6.193 0.088 o
6 0 14 337.277 350.651 5.259 0.894 o
6 0 16 1.693 0.935 1.596 164.848 o
6 0 18 22.074 25.053 3.060 27.481 o
6 2 0 223.606 267.109 1.370 1.783 o
6 2 1 449.403 469.487 1.912 0.552 o
6 2 2 582.556 594.146 1.862 0.346 o
6 2 3 1851.920 1953.790 6.275 0.036 o
6 2 4 155.025 161.801 1.230 3.612 o
6 2 5 1.363 0.339 0.331 1220.410 o
6 2 6 298.535 280.930 1.509 1.238 o
6 2 7 1164.250 1155.020 3.005 0.094 o
6 2 8 390.420 373.002 3.654 0.743 o
6 2 9 45.257 48.221 1.811 20.346 o
6 2 10 44.122 42.919 1.048 24.072 o
6 2 11 286.960 279.344 2.574 1.287 o
6 2 12 379.971 392.645 2.756 0.752 o
6 2 13 8.351 9.203 0.928 137.354 o
6 2 14 171.221 176.107 2.082 3.033 o
6 2 15 69.728 72.321 2.077 11.582 o
6 2 16 9.819 7.873 1.087 120.281 o
6 2 17 1.887 0.350 1.137 289.577 o
6 2 18 29.804 30.182 1.624 34.194 o
6 2 19 1.383 0.021 1.418 214.402 o
6 4 0 469.101 475.406 1.641 0.520 o
6 4 1 2.772 1.417 0.308 638.110 o
6 4 2 117.695 120.535 0.914 5.740 o
6 4 3 78.920 101.446 0.971 9.349 o
6 4 4 2.438 0.780 0.356 730.074 o
6 4 5 61.769 74.142 0.905 13.942 o
6 4 6 63.605 54.990 0.899 15.651 o
6 4 7 91.320 89.134 1.153 8.649 o
6 4 8 0.294 0.457 0.554 1203.840 o
6 4 9 130.468 126.649 1.390 4.952 o
6 4 10 24.213 25.142 0.997 48.575 o
6 4 11 23.778 20.341 0.909 54.075 o
6 4 12 97.915 95.894 1.503 7.657 o
6 4 13 13.572 15.817 1.247 77.293 o
6 4 14 115.183 116.239 1.859 5.800 o
6 4 15 55.214 56.848 1.701 16.390 o
6 4 16 1.956 1.450 1.044 304.511 o
6 4 17 21.751 20.525 1.337 51.800 o
6 4 18 69.685 77.986 2.469 10.748 o
6 4 19 10.467 5.294 4.251 23.452 o
6 6 0 378.863 360.408 1.548 0.801 o
6 6 1 139.818 132.706 1.127 4.512 o
6 6 2 588.910 580.375 2.243 0.346 o
6 6 3 1098.460 1071.310 2.801 0.106 o
6 6 4 25.276 25.527 0.663 49.414 o
6 6 5 211.673 176.733 1.683 2.396 o
6 6 6 172.103 168.972 2.376 3.060 o
6 6 7 815.837 860.089 4.220 0.178 o
6 6 8 69.423 65.381 1.142 13.134 o
6 6 9 347.243 347.222 2.924 0.900 o
6 6 10 5.227 6.305 1.015 180.115 o
6 6 11 437.871 445.249 3.473 0.583 o
6 6 12 13.820 12.842 1.036 88.477 o
6 6 13 435.234 449.102 3.944 0.582 o
6 6 14 40.059 37.550 1.735 24.929 o
6 6 15 6.177 4.172 1.108 169.346 o
6 6 16 8.700 8.721 1.401 104.289 o
6 6 17 46.842 50.602 2.191 18.308 o
6 6 18 11.442 10.456 3.237 34.743 o
6 8 0 0.094 -0.651 0.432 2391.360 o
6 8 1 137.527 136.863 1.536 4.474 o
6 8 2 277.006 252.429 3.056 1.410 o
6 8 3 790.059 765.867 4.646 0.199 o
6 8 4 211.925 197.877 1.916 2.247 o
6 8 5 275.965 249.474 2.557 1.437 o
6 8 6 18.997 15.546 0.796 71.867 o
6 8 7 840.170 905.275 5.051 0.165 o
6 8 8 254.420 252.689 2.456 1.573 o
6 8 9 560.217 550.368 4.275 0.376 o
6 8 10 38.862 41.133 1.520 25.552 o
6 8 11 417.673 418.229 3.290 0.642 o
6 8 12 73.761 71.655 2.201 10.931 o
6 8 13 641.795 669.197 5.040 0.280 o
6 8 14 21.200 20.023 1.526 50.148 o
6 8 15 1.657 1.264 1.627 158.117 o
6 8 16 71.174 75.204 2.335 10.890 o
6 8 17 39.483 33.659 5.668 10.216 o
6 10 0 2.037 1.042 0.667 522.594 o
6 10 1 110.667 106.742 1.758 6.336 o
6 10 2 7.412 7.298 0.789 168.996 o
6 10 3 12.132 9.746 0.852 111.692 o
6 10 4 0.271 0.432 0.822 636.234 o
6 10 5 86.695 94.278 1.653 8.630 o
6 10 6 16.104 14.971 0.960 78.377 o
6 10 7 33.701 29.957 1.346 33.150 o
6 10 8 9.029 10.752 1.091 115.738 o
6 10 9 3.937 4.837 1.036 209.827 o
6 10 10 43.861 40.197 1.700 22.779 o
6 10 11 7.038 7.217 1.392 118.745 o
6 10 12 21.703 21.757 1.607 47.018 o
6 10 13 50.100 56.825 2.242 16.477 o
6 10 14 10.185 9.382 1.784 77.223 o
6 10 15 152.304 149.949 6.379 2.935 o
6 12 0 3.862 2.528 0.972 250.893 o
6 12 1 0.026 0.313 0.915 559.739 o
6 12 2 0.587 1.166 0.986 408.507 o
6 12 3 26.592 24.319 1.778 38.062 o
6 12 4 31.191 28.951 1.589 33.852 o
6 12 5 23.812 22.422 1.537 44.840 o
6 12 6 8.727 8.058 1.275 114.213 o
6 12 7 11.735 9.959 1.472 84.989 o
6 12 8 89.804 97.548 2.517 7.731 o
6 12 9 5.296 5.024 1.296 150.668 o
6 12 10 2.376 2.611 1.409 180.908 o
6 12 11 0.022 -0.187 1.268 302.692 o
6 12 12 116.003 117.488 3.329 5.256 o
6 14 0 139.961 147.920 3.643 3.847 o
6 14 1 93.457 96.246 3.637 6.784 o
6 14 2 2.413 3.212 1.584 148.371 o
6 14 3 10.655 10.569 1.708 77.374 o
6 14 4 187.837 193.047 5.136 2.329 o
6 14 5 1.973 0.317 1.585 167.141 o
6 14 6 5.239 4.433 1.705 111.117 o
6 14 7 1.458 1.813 1.967 112.933 o
6 14 8 148.908 145.662 3.836 3.609 o
6 14 9 1.587 -2.929 3.426 40.509 o
7 1 0 518.767 529.891 1.596 0.429 o
7 1 1 92.213 103.031 0.996 7.990 o
7 1 2 1693.280 1787.630 6.089 0.043 o
7 1 3 226.454 226.238 1.548 1.942 o
7 1 4 126.618 116.607 1.117 5.375 o
7 1 5 290.255 274.788 1.708 1.295 o
7 1 6 2636.220 2641.950 6.936 0.019 o
7 1 7 2.519 2.445 0.486 509.077 o
7 1 8 398.278 378.249 5.255 0.705 o
7 1 9 68.561 66.050 1.099 13.265 o
7 1 10 430.720 449.478 2.908 0.594 o
7 1 11 108.898 105.335 1.554 6.543 o
7 1 12 150.109 165.409 2.200 3.601 o
7 1 13 0.240 0.398 0.846 611.041 o
7 1 14 0.055 0.332 0.951 515.647 o
7 1 15 114.678 114.413 2.621 5.641 o
7 1 16 115.675 110.272 2.681 5.672 o
7 1 17 6.529 7.064 1.473 115.779 o
7 1 18 89.611 93.304 2.617 7.849 o
7 1 19 92.213 93.390 3.461 7.075 o
7 3 0 957.676 972.591 3.954 0.134 o
7 3 1 495.105 545.682 2.280 0.445 o
7 3 2 138.744 140.267 1.331 4.398 o
7 3 3 1766.010 1870.290 4.422 0.040 o
7 3 4 849.632 863.209 3.148 0.169 o
7 3 5 1303.680 1302.190 4.298 0.075 o
7 3 6 125.601 104.988 1.128 5.704 o
7 3 7 77.024 68.440 1.363 11.469 o
7 3 8 3.897 5.192 0.704 274.657 o
7 3 9 375.529 374.638 2.488 0.786 o
7 3 10 24.942 18.478 0.784 54.943 o
7 3 11 29.904 29.500 1.263 37.115 o
7 3 12 6.598 6.002 0.802 188.720 o
7 3 13 4.266 3.483 0.903 244.484 o
7 3 14 312.786 319.214 3.770 1.058 o
7 3 15 36.280 35.944 1.678 27.586 o
7 3 16 95.879 105.216 2.342 7.104 o
7 3 17 6.381 8.769 1.332 122.801 o
7 3 18 50.284 48.056 1.947 18.371 o
7 5 0 111.502 105.510 0.963 6.506 o
7 5 1 111.143 116.678 1.008 6.187 o
7 5 2 644.012 676.908 2.692 0.280 o
7 5 3 293.827 296.991 1.839 1.218 o
7 5 4 481.993 472.488 2.380 0.503 o
7 5 5 414.264 407.269 2.454 0.664 o
7 5 6 0.360 -1.256 0.625 1063.860 o
7 5 7 8.941 6.545 0.691 162.617 o
7 5 8 0.410 0.150 0.525 1330.640 o
7 5 9 33.732 32.254 1.195 33.097 o
7 5 10 6.981 5.734 0.882 175.825 o
7 5 11 0.691 1.768 0.851 476.865 o
7 5 12 118.113 111.308 2.059 5.723 o
7 5 13 14.565 13.349 1.168 80.513 o
7 5 14 96.380 100.986 2.309 7.233 o
7 5 15 65.696 63.567 2.089 12.887 o
7 5 16 26.720 23.841 1.477 41.340 o
7 5 17 1.930 0.672 1.295 231.221 o
7 5 18 15.349 10.677 2.586 43.390 o
7 7 0 130.495 119.375 1.097 5.142 o
7 7 1 0.061 0.120 0.400 2673.760 o
7 7 2 83.368 79.087 1.180 10.029 o
7 7 3 322.471 330.665 3.766 1.000 o
7 7 4 426.457 420.809 2.817 0.626 o
7 7 5 46.654 46.359 1.313 21.576 o
7 7 6 106.348 94.890 1.429 7.091 o
7 7 7 901.172 974.791 4.872 0.144 o
7 7 8 35.604 39.619 1.324 28.622 o
7 7 9 55.224 59.101 1.491 16.473 o
7 7 10 107.066 103.199 2.070 6.557 o
7 7 11 214.174 218.059 2.809 2.065 o
7 7 12 6.416 5.130 1.232 146.711 o
7 7 13 69.856 73.402 2.250 11.286 o
7 7 14 29.738 26.544 1.589 36.041 o
7 7 15 23.176 19.740 1.397 49.368 o
7 7 16 3.674 3.838 1.385 161.923 o
7 7 17 39.813 38.065 4.529 13.157 o
7 9 0 6.044 5.743 0.788 202.006 o
7 9 1 499.462 528.884 2.879 0.448 o
7 9 2 25.277 24.485 0.968 47.779 o
7 9 3 18.929 19.422 0.984 63.870 o
7 9 4 46.190 43.971 1.428 21.926 o
7 9 5 527.465 548.919 5.948 0.400 o
7 9 6 84.902 85.798 1.696 9.203 o
7 9 7 411.635 413.013 4.208 0.653 o
7 9 8 21.907 17.788 1.287 54.583 o
7 9 9 4.154 2.997 1.009 229.556 o
7 9 10 43.474 40.705 1.672 22.937 o
7 9 11 60.218 57.559 1.839 14.899 o
7 9 12 41.886 34.768 1.860 24.172 o
7 9 13 15.818 16.350 1.715 58.422 o
7 9 14 21.272 20.563 1.825 45.051 o
7 9 15 73.684 76.317 2.464 10.363 o
7 11 0 622.448 678.439 4.727 0.289 o
7 11 1 387.120 423.008 3.612 0.696 o
7 11 2 16.269 15.008 1.119 73.889 o
7 11 3 172.585 170.508 2.348 3.038 o
7 11 4 510.084 554.645 6.092 0.413 o
7 11 5 493.851 519.661 4.433 0.454 o
7 11 6 5.554 4.548 1.096 176.535 o
7 11 7 21.868 23.923 1.469 47.281 o
7 11 8 210.752 226.635 3.070 2.043 o
7 11 9 6.262 5.028 1.267 144.792 o
7 11 10 27.300 28.038 1.755 36.018 o
7 11 11 1.579 0.848 1.337 225.041 o
7 11 12 11.824 10.023 1.451 85.465 o
7 11 13 44.767 43.092 1.965 20.920 o
7 13 0 157.630 159.577 3.375 3.333 o
7 13 1 11.939 8.638 1.435 88.326 o
7 13 2 28.422 29.096 2.035 32.222 o
7 13 3 89.433 90.346 2.659 7.952 o
7 13 4 142.762 162.893 4.172 3.482 o
7 13 5 32.346 26.289 2.559 26.549 o
7 13 6 167.879 169.318 3.155 3.055 o
7 13 7 21.590 21.442 2.351 36.836 o
7 13 8 22.312 20.399 2.328 36.974 o
7 13 9 18.078 14.646 2.108 47.696 o
7 13 10 151.496 152.217 3.582 3.519 o
7 15 0 17.571 21.068 2.094 44.725 o
7 15 1 30.634 33.104 2.898 23.461 o
7 15 2 51.772 47.019 3.155 14.724 o
7 15 3 84.144 86.292 3.608 7.762 o
7 15 4 24.859 20.436 2.567 32.263 o
7 15 5 24.100 20.964 4.193 18.787 o
8 0 0 276.201 243.883 2.248 1.459 o
8 0 2 1438.390 1678.490 6.528 0.055 o
8 0 4 260.727 266.981 2.298 1.484 o
8 0 6 565.508 589.425 3.864 0.357 o
8 0 8 248.898 234.549 3.280 1.655 o
8 0 10 1.171 2.049 1.193 265.045 o
8 0 12 27.281 19.943 2.423 32.384 o
8 0 14 10.191 8.459 2.006 69.178 o
8 0 16 57.916 61.166 3.098 12.598 o
8 0 18 32.918 32.878 2.868 22.831 o
8 2 0 23.476 30.706 0.566 48.790 o
8 2 1 5.017 9.328 0.510 219.732 o
8 2 2 118.187 87.703 0.990 6.641 o
8 2 3 1.576 3.348 0.411 615.000 o
8 2 4 13.104 9.422 0.527 118.502 o
8 2 5 75.177 71.730 0.958 11.759 o
8 2 6 25.385 18.725 0.842 53.356 o
8 2 7 344.447 342.232 4.038 0.904 o
8 2 8 11.979 10.719 0.764 113.298 o
8 2 9 5.090 3.577 0.721 259.274 o
8 2 10 271.818 259.252 2.513 1.433 o
8 2 11 528.190 521.505 4.565 0.417 o
8 2 12 53.845 52.526 1.740 17.232 o
8 2 13 72.742 74.502 1.901 11.186 o
8 2 14 68.544 64.325 2.132 12.300 o
8 2 15 375.580 389.850 3.679 0.758 o
8 2 16 40.855 43.625 2.319 20.847 o
8 2 17 142.001 148.431 3.189 3.881 o
8 2 18 4.970 2.755 1.445 146.116 o
8 4 0 710.182 739.470 2.551 0.234 o
8 4 1 57.188 40.929 0.850 19.572 o
8 4 2 1351.450 1388.160 3.540 0.069 o
8 4 3 1064.050 1012.410 3.951 0.114 o
8 4 4 533.937 504.463 2.442 0.426 o
8 4 5 43.225 30.697 1.039 27.815 o
8 4 6 165.277 161.021 2.550 3.262 o
8 4 7 83.224 73.749 1.484 10.200 o
8 4 8 5.417 5.117 0.598 250.186 o
8 4 9 12.913 13.294 0.750 100.961 o
8 4 10 193.925 197.914 2.111 2.476 o
8 4 11 0.412 1.523 0.787 579.853 o
8 4 12 0.687 1.406 0.853 492.569 o
8 4 13 65.507 68.231 2.002 12.647 o
8 4 14 36.195 35.443 1.622 28.072 o
8 4 15 10.310 10.108 1.312 98.135 o
8 4 16 4.904 3.588 1.278 164.984 o
8 4 17 126.287 130.779 2.521 4.819 o
8 4 18 3.500 -0.344 2.307 81.323 o
8 6 0 226.910 203.285 1.744 2.050 o
8 6 1 17.392 12.396 0.724 83.730 o
8 6 2 27.180 31.230 0.739 42.471 o
8 6 3 292.974 251.958 2.328 1.333 o
8 6 4 137.706 127.231 1.835 4.596 o
8 6 5 60.865 54.252 1.323 15.923 o
8 6 6 126.072 117.507 1.680 5.287 o
8 6 7 62.368 61.856 1.286 14.749 o
8 6 8 40.641 37.256 1.056 27.352 o
8 6 9 16.328 12.867 0.974 80.849 o
8 6 10 55.136 55.037 1.409 17.171 o
8 6 11 123.683 126.433 2.021 5.127 o
8 6 12 66.690 68.206 1.820 12.679 o
8 6 13 57.489 59.653 2.029 14.924 o
8 6 14 57.055 60.116 2.053 14.924 o
8 6 15 52.967 52.839 2.073 16.672 o
8 6 16 92.180 106.035 2.944 7.001 o
8 6 17 35.373 27.058 3.202 20.994 o
8 8 0 59.783 53.022 1.065 16.691 o
8 8 1 10.115 7.928 0.637 145.403 o
8 8 2 81.381 79.981 1.577 9.988 o
8 8 3 33.679 39.663 1.101 30.848 o
8 8 4 8.518 8.152 0.843 147.020 o
8 8 5 36.284 30.197 1.335 31.216 o
8 8 6 105.098 96.600 2.081 6.889 o
8 8 7 28.889 26.931 1.200 39.865 o
8 8 8 15.229 14.294 1.161 77.027 o
8 8 9 0.545 -0.030 0.923 511.012 o
8 8 10 3.527 2.980 1.079 227.692 o
8 8 11 55.942 65.546 1.839 14.960 o
8 8 12 1.654 0.324 1.135 298.669 o
8 8 13 67.218 67.091 2.344 12.004 o
8 8 14 1.067 0.470 1.421 215.244 o
8 8 15 41.814 40.112 1.963 22.618 o
8 10 0 26.568 29.405 1.370 39.578 o
8 10 1 0.239 0.396 0.902 544.506 o
8 10 2 174.508 189.852 2.392 2.824 o
8 10 3 7.682 6.961 0.858 161.405 o
8 10 4 42.361 45.417 1.464 23.111 o
8 10 5 11.565 8.985 1.063 107.349 o
8 10 6 18.409 15.238 1.312 63.583 o
8 10 7 3.085 2.415 1.091 241.303 o
8 10 8 2.054 2.328 1.139 254.624 o
8 10 9 169.434 179.069 2.685 2.986 o
8 10 10 9.862 10.686 1.261 101.550 o
8 10 11 50.258 49.206 2.369 17.051 o
8 10 12 67.368 71.126 2.729 11.161 o
8 10 13 42.302 37.843 1.952 22.929 o
8 10 14 0.858 -2.989 4.038 29.626 o
8 12 0 75.435 79.044 2.089 10.361 o
8 12 1 5.735 2.528 1.277 161.669 o
8 12 2 70.632 75.286 2.044 11.278 o
8 12 3 25.354 26.110 1.698 39.242 o
8 12 4 101.750 114.669 2.925 6.178 o
8 12 5 2.508 0.039 1.868 122.807 o
8 12 6 0.894 1.943 1.641 159.993 o
8 12 7 25.980 22.995 2.254 34.020 o
8 12 8 6.554 3.534 1.454 129.083 o
8 12 9 102.961 107.359 3.475 6.039 o
8 12 10 19.203 19.948 1.938 46.124 o
8 12 11 1.904 1.707 1.489 177.807 o
8 14 0 1.471 1.245 1.522 179.661 o
8 14 1 1.566 1.172 1.485 186.570 o
8 14 2 7.465 6.390 1.678 97.770 o
8 14 3 51.286 48.930 2.503 16.457 o
8 14 4 16.400 14.444 1.983 52.777 o
8 14 5 29.418 30.478 2.636 26.367 o
8 14 6 64.163 64.553 3.303 11.117 o
9 1 0 341.960 286.545 2.000 1.031 o
9 1 1 1.727 1.714 0.382 762.825 o
9 1 2 117.855 127.912 1.270 5.499 o
9 1 3 155.181 153.324 1.172 3.721 o
9 1 4 357.392 306.252 1.642 0.944 o
9 1 5 0.505 -0.062 0.469 1550.510 o
9 1 6 228.153 209.823 2.134 1.990 o
9 1 7 194.375 185.000 1.948 2.572 o
9 1 8 47.096 46.933 1.303 21.316 o
9 1 9 2.319 2.700 0.693 410.677 o
9 1 10 126.477 125.223 1.880 5.064 o
9 1 11 112.835 112.077 2.044 5.980 o
9 1 12 415.743 421.600 3.945 0.639 o
9 1 13 1.394 1.509 1.395 207.036 o
9 1 14 85.245 85.177 2.541 8.618 o
9 1 15 46.691 46.133 2.296 18.672 o
9 1 16 1.685 -1.451 1.504 189.012 o
9 1 17 4.449 2.437 1.458 150.720 o
9 1 18 19.990 21.493 4.104 20.237 o
9 3 0 0.469 -0.037 0.414 1877.600 o
9 3 1 76.695 66.647 0.881 11.960 o
9 3 2 0.281 0.799 0.472 1389.770 o
9 3 3 159.158 167.866 1.565 3.415 o
9 3 4 155.776 145.378 1.692 3.768 o
9 3 5 116.228 106.872 1.842 5.996 o
9 3 6 93.351 81.416 1.648 8.611 o
9 3 7 250.169 246.574 3.036 1.609 o
9 3 8 17.376 18.088 0.883 71.339 o
9 3 9 106.664 106.638 1.506 6.655 o
9 3 10 12.813 11.167 0.863 103.236 o
9 3 11 227.745 221.159 2.326 1.931 o
9 3 12 6.318 7.607 1.024 157.157 o
9 3 13 47.435 50.412 2.034 18.625 o
9 3 14 166.765 168.091 2.931 3.116 o
9 3 15 202.040 205.653 3.308 2.245 o
9 3 16 119.812 121.786 3.010 5.118 o
9 3 17 93.499 95.392 2.731 7.404 o
9 5 0 192.269 187.758 1.844 2.588 o
9 5 1 7.514 9.131 0.757 159.179 o
9 5 2 245.262 229.126 2.276 1.739 o
9 5 3 0.094 -0.241 0.647 1116.760 o
9 5 4 8.182 5.497 0.624 185.925 o
9 5 5 2.707 3.138 0.718 363.112 o
9 5 6 186.989 191.534 2.143 2.624 o
9 5 7 4.062 3.359 0.602 327.799 o
9 5 8 40.054 35.373 1.017 28.393 o
9 5 9 4.143 2.752 0.758 294.817 o
9 5 10 198.281 202.824 2.293 2.372 o
9 5 11 2.813 3.761 1.003 254.277 o
9 5 12 10.953 10.834 1.217 98.156 o
9 5 13 38.416 35.119 1.736 26.355 o
9 5 14 359.430 376.603 4.098 0.811 o
9 5 15 150.343 152.109 2.645 3.704 o
9 5 16 112.268 116.344 2.687 5.688 o
9 5 17 13.531 8.796 3.010 37.728 o
9 7 0 25.009 21.875 0.802 51.695 o
9 7 1 317.774 313.677 2.384 1.069 o
9 7 2 109.037 98.122 1.627 6.741 o
9 7 3 49.105 49.457 1.601 19.418 o
9 7 4 33.997 35.162 1.266 31.441 o
9 7 5 73.011 72.312 1.698 11.495 o
9 7 6 33.726 29.613 1.478 32.435 o
9 7 7 79.185 85.383 1.765 9.803 o
9 7 8 49.021 43.499 1.488 20.768 o
9 7 9 269.874 278.017 3.055 1.376 o
9 7 10 3.728 3.887 1.111 208.046 o
9 7 11 109.735 117.436 2.103 5.985 o
9 7 12 12.273 12.722 1.455 79.249 o
9 7 13 534.294 553.291 5.109 0.395 o
9 7 14 12.364 10.918 1.586 76.757 o
9 7 15 32.310 32.803 1.721 30.723 o
9 7 16 42.452 35.988 5.590 10.074 o
9 9 0 0.613 0.885 0.943 447.839 o
9 9 1 55.944 58.840 1.680 16.002 o
9 9 2 8.441 9.784 1.047 125.967 o
9 9 3 88.016 96.507 2.036 8.205 o
9 9 4 9.414 7.934 0.933 133.331 o
9 9 5 267.168 288.513 2.678 1.370 o
9 9 6 99.226 106.396 1.994 6.989 o
9 9 7 88.329 90.917 1.745 8.586 o
9 9 8 0.080 -0.414 1.036 447.986 o
9 9 9 25.859 26.302 1.388 41.834 o
9 9 10 164.790 164.019 2.691 3.225 o
9 9 11 170.851 182.373 2.849 2.913 o
9 9 12 14.123 11.214 1.515 73.833 o
9 9 13 78.019 89.168 2.915 8.779 o
9 9 14 71.883 66.381 2.679 10.948 o
9 11 0 50.608 51.063 1.901 17.962 o
9 11 1 186.305 197.477 3.047 2.526 o
9 11 2 29.414 24.870 1.962 33.679 o
9 11 3 82.090 88.122 2.216 9.023 o
9 11 4 44.072 42.124 2.106 20.826 o
9 11 5 447.934 466.619 4.838 0.544 o
9 11 6 0.126 -0.378 1.422 238.342 o
9 11 7 0.685 0.222 1.491 205.541 o
9 11 8 100.048 110.458 2.793 6.455 o
9 11 9 164.409 166.086 2.985 3.177 o
9 11 10 7.866 7.643 1.473 106.640 o
9 11 11 13.229 14.577 1.825 62.226 o
9 13 0 6.753 4.896 1.472 121.308 o
9 13 1 51.696 40.959 2.459 17.482 o
9 13 2 0.181 -2.511 1.501 213.217 o
9 13 3 52.943 59.170 2.640 14.632 o
9 13 4 0.081 -0.165 1.625 183.757 o
9 13 5 1.177 1.112 1.732 146.506 o
9 13 6 0.000 0.577 1.796 148.667 o
9 13 7 30.359 22.108 2.494 29.183 o
9 13 8 0.180 -1.495 2.394 84.596 o
10 0 0 65.798 58.788 1.299 14.332 o
10 0 2 722.251 876.288 5.091 0.203 o
10 0 4 198.855 195.995 3.247 2.349 o
10 0 6 1801.290 1938.990 17.096 0.037 o
10 0 8 1916.750 1984.520 15.863 0.034 o
10 0 10 315.027 322.784 4.327 1.032 o
10 0 12 1413.960 1565.840 9.745 0.059 o
10 0 14 12.723 13.393 2.269 51.996 o
10 0 16 206.624 206.839 6.581 1.907 o
10 2 0 66.205 74.568 1.226 12.819 o
10 2 1 73.220 62.405 1.154 12.714 o
10 2 2 32.483 48.479 0.958 29.233 o
10 2 3 34.012 24.435 1.262 35.697 o
10 2 4 86.003 80.001 1.729 9.371 o
10 2 5 7.993 8.636 0.864 148.276 o
10 2 6 543.198 603.220 4.087 0.369 o
10 2 7 3.368 1.840 0.721 361.276 o
10 2 8 245.287 241.050 3.022 1.667 o
10 2 9 28.079 24.717 1.173 42.203 o
10 2 10 35.478 35.520 1.468 29.283 o
10 2 11 10.226 9.967 1.078 111.495 o
10 2 12 232.990 235.692 2.767 1.800 o
10 2 13 52.814 53.696 2.620 15.269 o
10 2 14 74.460 74.024 2.704 10.139 o
10 2 15 38.409 33.166 2.224 24.293 o
10 2 16 1.773 -1.253 1.532 181.682 o
10 2 17 65.434 67.066 2.964 11.339 o
10 4 0 79.741 75.405 1.377 10.602 o
10 4 1 1.418 0.702 0.588 715.955 o
10 4 2 523.130 527.409 3.687 0.422 o
10 4 3 273.043 249.043 2.828 1.450 o
10 4 4 441.444 419.833 4.077 0.595 o
10 4 5 71.664 66.934 1.717 12.088 o
10 4 6 37.801 40.405 1.304 27.181 o
10 4 7 49.593 44.965 1.240 20.888 o
10 4 8 40.224 38.511 1.260 26.532 o
10 4 9 7.385 4.558 0.926 173.370 o
10 4 10 109.086 110.954 1.870 6.272 o
10 4 11 20.118 19.885 1.425 53.609 o
10 4 12 4.815 3.114 1.116 194.939 o
10 4 13 3.342 1.707 1.415 173.306 o
10 4 14 151.145 156.845 3.455 3.496 o
10 4 15 16.680 13.877 1.730 58.761 o
10 4 16 25.002 26.398 1.843 37.875 o
10 6 0 40.047 36.889 1.010 27.960 o
10 6 1 141.557 132.950 1.946 4.347 o
10 6 2 378.862 383.664 3.171 0.762 o
10 6 3 10.335 5.932 0.997 129.596 o
10 6 4 34.409 27.216 1.094 35.163 o
10 6 5 2.626 3.175 0.749 354.384 o
10 6 6 59.377 61.828 1.308 15.396 o
10 6 7 134.877 142.289 1.630 4.460 o
10 6 8 0.487 0.999 0.821 567.553 o
10 6 9 44.439 48.014 1.600 21.321 o
10 6 10 48.768 48.202 1.842 19.098 o
10 6 11 51.020 52.579 1.996 17.401 o
10 6 12 5.348 4.977 1.256 155.277 o
10 6 13 71.472 78.978 2.225 10.727 o
10 6 14 17.238 16.210 1.525 60.285 o
10 6 15 8.382 10.953 1.725 83.061 o
10 8 0 0.007 -0.235 1.406 246.679 o
10 8 1 1.170 1.315 0.873 439.534 o
10 8 2 32.402 33.492 1.411 32.396 o
10 8 3 91.535 96.245 1.840 8.020 o
10 8 4 8.770 7.737 0.858 145.470 o
10 8 5 55.599 56.276 1.648 16.463 o
10 8 6 98.495 101.793 1.716 7.310 o
10 8 7 803.949 899.959 5.174 0.175 o
10 8 8 1.102 0.392 1.147 312.615 o
10 8 9 73.795 77.798 2.263 10.470 o
10 8 10 31.330 27.822 1.599 34.113 o
10 8 11 379.176 380.743 3.983 0.758 o
10 8 12 0.751 0.939 1.312 249.900 o
10 8 13 188.377 200.646 3.541 2.434 o
10 8 14 15.107 16.357 1.826 57.004 o
10 10 0 12.938 11.457 1.248 87.010 o
10 10 1 271.250 285.133 3.263 1.343 o
10 10 2 64.339 75.264 2.167 12.056 o
10 10 3 0.145 -0.679 1.012 464.373 o
10 10 4 27.749 31.472 1.782 34.020 o
10 10 5 385.700 404.610 3.688 0.718 o
10 10 6 75.246 80.034 2.419 10.008 o
10 10 7 299.279 308.619 3.826 1.134 o
10 10 8 41.741 45.017 2.561 19.360 o
10 10 9 0.031 0.200 1.285 290.894 o
10 10 10 14.559 9.606 1.706 68.420 o
10 10 11 120.849 122.100 2.878 5.111 o
10 10 12 1.094 0.784 1.975 116.676 o
10 12 0 4.595 3.162 1.540 135.996 o
10 12 1 0.003 0.657 1.426 232.854 o
10 12 2 0.333 0.001 1.330 266.215 o
10 12 3 74.054 76.073 2.798 9.961 o
10 12 4 26.751 25.245 2.288 32.338 o
10 12 5 35.988 32.123 2.522 23.867 o
10 12 6 4.704 3.859 1.746 111.907 o
10 12 7 8.045 7.844 2.050 73.155 o
10 12 8 18.416 16.991 2.079 46.395 o
10 12 9 23.245 20.748 2.219 37.457 o
10 14 0 86.926 98.217 4.973 6.106 o
10 14 1 85.398 95.220 4.588 6.562 o
10 14 2 0.144 -7.416 2.866 59.204 o
10 14 3 99.102 90.300 7.454 4.206 o
11 1 0 0.565 3.754 0.529 653.785 o
11 1 1 145.992 134.744 1.458 4.236 o
11 1 2 651.832 701.746 5.883 0.265 o
11 1 3 0.110 -0.157 0.725 893.308 o
11 1 4 56.223 42.591 1.387 18.715 o
11 1 5 47.911 47.167 1.204 21.188 o
11 1 6 447.569 460.319 3.458 0.556 o
11 1 7 7.066 7.434 0.883 163.668 o
11 1 8 108.727 101.690 2.107 6.489 o
11 1 9 14.354 11.141 1.198 84.171 o
11 1 10 36.841 35.575 1.844 26.506 o
11 1 11 41.236 36.540 1.959 23.626 o
11 1 12 12.395 9.760 1.507 81.593 o
11 1 13 4.162 4.076 1.575 131.846 o
11 1 14 75.662 76.367 2.854 9.707 o
11 1 15 85.836 90.582 2.529 8.334 o
11 1 16 4.367 3.590 1.690 119.932 o
11 3 0 808.892 881.956 4.137 0.177 o
11 3 1 159.260 151.579 2.359 3.528 o
11 3 2 26.535 26.758 1.067 43.726 o
11 3 3 310.864 291.586 2.963 1.136 o
11 3 4 453.671 471.706 3.067 0.541 o
11 3 5 9.572 9.598 1.001 121.353 o
11 3 6 2.435 2.673 0.842 339.519 o
11 3 7 99.212 98.508 1.788 7.350 o
11 3 8 133.289 137.249 2.055 4.539 o
11 3 9 0.678 1.292 0.851 500.990 o
11 3 10 2.026 1.662 1.011 310.825 o
11 3 11 0.030 1.235 1.122 353.454 o
11 3 12 146.293 153.625 2.381 3.830 o
11 3 13 6.113 5.280 1.479 123.576 o
11 3 14 59.539 67.328 3.336 11.475 o
11 3 15 109.156 115.889 3.093 5.694 o
11 3 16 1.995 1.842 2.522 70.493 o
11 5 0 190.218 186.470 2.289 2.604 o
11 5 1 71.964 73.895 1.268 11.891 o
11 5 2 140.690 142.157 2.041 4.212 o
11 5 3 311.877 307.407 2.608 1.103 o
11 5 4 193.956 190.263 1.922 2.540 o
11 5 5 213.407 200.115 2.584 2.186 o
11 5 6 2.397 1.957 0.668 445.229 o
11 5 7 98.008 99.578 1.557 7.488 o
11 5 8 40.270 40.320 1.382 25.580 o
11 5 9 202.128 203.120 2.458 2.312 o
11 5 10 10.025 9.018 1.320 101.695 o
11 5 11 28.745 29.474 2.079 31.502 o
11 5 12 19.589 18.721 1.650 51.459 o
11 5 13 233.077 238.630 4.351 1.715 o
11 5 14 185.669 203.206 3.613 2.447 o
11 5 15 27.933 22.483 1.943 35.974 o
11 7 0 4.331 4.935 0.888 228.597 o
11 7 1 261.634 270.468 4.009 1.421 o
11 7 2 14.236 13.416 1.038 85.659 o
11 7 3 136.469 145.108 2.409 4.239 o
11 7 4 0.486 -0.888 0.767 718.192 o
11 7 5 272.278 279.171 2.677 1.367 o
11 7 6 0.452 1.083 0.793 597.486 o
11 7 7 168.713 165.333 2.066 3.192 o
11 7 8 3.717 3.006 1.049 230.164 o
11 7 9 159.147 158.846 2.848 3.384 o
11 7 10 0.771 0.356 1.225 290.289 o
11 7 11 21.900 18.294 1.501 50.800 o
11 7 12 1.794 1.492 1.468 184.670 o
11 7 13 274.123 286.555 4.021 1.304 o
11 7 14 27.729 30.331 3.212 22.912 o
11 9 0 0.606 0.048 1.071 385.138 o
11 9 1 157.392 164.680 3.064 3.328 o
11 9 2 28.771 26.860 1.705 35.726 o
11 9 3 81.823 88.798 2.853 8.509 o
11 9 4 13.369 11.831 1.312 82.368 o
11 9 5 53.362 53.871 1.863 16.917 o
11 9 6 0.360 -0.018 1.201 322.893 o
11 9 7 90.699 92.176 2.111 8.118 o
11 9 8 7.072 5.523 1.312 131.365 o
11 9 9 0.300 -0.182 1.265 294.559 o
11 9 10 47.368 44.361 1.933 19.904 o
11 9 11 0.733 1.486 1.415 213.673 o
11 9 12 23.100 21.639 1.882 41.589 o
11 11 0 6.886 5.119 1.674 103.521 o
11 11 1 9.735 8.592 1.695 83.930 o
11 11 2 152.235 157.346 3.311 3.489 o
11 11 3 17.977 15.732 1.690 55.699 o
11 11 4 74.015 79.950 3.063 9.460 o
11 11 5 0.320 1.072 1.669 165.575 o
11 11 6 40.261 35.897 2.898 19.734 o
11 11 7 0.166 -2.393 1.596 189.134 o
11 11 8 68.611 70.214 2.716 11.075 o
11 11 9 46.117 46.990 2.860 16.836 o
11 13 0 9.507 10.251 1.911 72.484 o
11 13 1 0.655 -1.148 1.942 125.243 o
11 13 2 13.609 11.346 2.546 45.653 o
11 13 3 28.988 25.079 2.834 26.280 o
11 13 4 14.671 13.564 2.757 39.503 o
11 13 5 1.207 0.932 4.270 26.288 o
12 0 0 76.701 77.135 1.521 10.791 o
12 0 2 71.330 67.122 2.459 11.258 o
12 0 4 226.209 215.646 2.724 1.958 o
12 0 6 426.429 453.477 5.425 0.583 o
12 0 8 128.220 138.753 3.542 4.347 o
12 0 10 461.509 470.642 5.518 0.518 o
12 0 12 878.633 966.746 8.479 0.147 o
12 0 14 3.871 2.335 2.350 74.981 o
12 2 0 5.106 5.258 0.678 243.717 o
12 2 1 245.875 255.019 2.409 1.628 o
12 2 2 6.602 9.979 0.902 152.637 o
12 2 3 71.946 66.304 1.420 12.379 o
12 2 4 142.144 143.837 2.002 4.146 o
12 2 5 73.518 70.120 1.732 11.550 o
12 2 6 528.550 555.528 3.865 0.403 o
12 2 7 39.125 37.511 1.348 27.075 o
12 2 8 38.931 40.512 1.560 25.511 o
12 2 9 0.610 0.105 0.946 478.500 o
12 2 10 398.991 407.044 4.730 0.679 o
12 2 11 0.098 0.291 1.436 231.278 o
12 2 12 331.162 338.488 3.791 0.956 o
12 2 13 30.663 25.358 2.007 32.212 o
12 2 14 1.397 -1.420 1.664 160.825 o
12 2 15 41.936 47.336 2.844 17.893 o
12 4 0 4.861 4.252 0.846 232.251 o
12 4 1 222.220 226.982 2.898 1.934 o
12 4 2 27.908 29.081 1.254 39.341 o
12 4 3 225.897 223.683 2.571 1.928 o
12 4 4 49.292 54.432 1.517 18.758 o
12 4 5 158.316 166.980 1.916 3.415 o
12 4 6 124.869 123.702 1.832 5.174 o
12 4 7 271.084 268.627 2.501 1.409 o
12 4 8 0.003 -1.194 0.934 558.281 o
12 4 9 7.033 6.144 1.050 154.661 o
12 4 10 10.108 6.198 1.323 108.411 o
12 4 11 73.591 73.882 2.251 10.755 o
12 4 12 9.014 9.408 1.421 99.845 o
12 4 13 19.638 17.212 1.899 47.991 o
12 4 14 98.402 112.873 3.631 6.048 o
12 6 0 0.042 0.901 1.276 283.375 o
12 6 1 35.148 35.310 1.774 27.884 o
12 6 2 0.004 -0.161 0.958 530.619 o
12 6 3 21.841 22.726 1.126 52.771 o
12 6 4 12.999 10.828 0.935 100.387 o
12 6 5 11.759 11.745 0.912 105.468 o
12 6 6 0.689 0.190 0.771 657.454 o
12 6 7 99.601 100.647 1.765 7.253 o
12 6 8 1.080 0.115 1.032 381.076 o
12 6 9 14.372 12.147 1.350 77.254 o
12 6 10 36.844 35.326 1.798 26.814 o
12 6 11 155.890 156.906 2.760 3.493 o
12 6 12 3.387 2.563 1.461 160.407 o
12 6 13 152.213 160.716 3.892 3.352 o
12 8 0 11.884 8.474 1.497 86.014 o
12 8 1 21.597 19.635 1.760 46.216 o
12 8 2 30.139 27.017 1.750 34.165 o
12 8 3 137.741 140.678 2.937 4.166 o
12 8 4 2.007 1.921 1.128 264.921 o
12 8 5 86.813 92.886 1.923 8.537 o
12 8 6 70.191 77.631 1.774 11.448 o
12 8 7 99.984 107.130 2.502 6.696 o
12 8 8 25.969 26.365 1.704 38.465 o
12 8 9 2.300 0.935 1.358 205.393 o
12 8 10 40.568 40.790 2.022 22.737 o
12 8 11 346.813 364.129 3.966 0.865 o
12 8 12 37.523 35.953 1.898 25.777 o
12 10 0 26.218 20.912 1.789 39.941 o
12 10 1 106.477 106.043 3.306 5.977 o
12 10 2 80.772 86.740 2.876 8.674 o
12 10 3 0.102 -1.020 1.329 273.004 o
12 10 4 0.679 0.181 1.335 253.048 o
12 10 5 466.622 493.612 5.388 0.498 o
12 10 6 5.542 3.779 2.307 71.754 o
12 10 7 210.165 212.203 4.396 2.039 o
12 10 8 3.409 2.756 1.799 116.999 o
12 10 9 164.846 166.957 4.579 2.930 o
12 10 10 7.438 3.427 1.880 90.661 o
12 12 0 4.161 3.277 1.766 114.553 o
12 12 1 17.223 14.777 2.323 44.470 o
12 12 2 265.787 283.704 5.423 1.309 o
12 12 3 5.802 3.344 2.575 60.087 o
12 12 4 11.424 11.806 2.587 46.839 o
12 12 5 109.937 105.390 4.871 5.048 o
12 12 6 148.304 145.661 8.657 2.503 o
13 1 0 50.485 53.244 1.434 18.748 o
13 1 1 53.802 50.646 1.675 17.640 o
13 1 2 81.094 74.201 1.579 10.372 o
13 1 3 1.481 1.172 0.800 471.820 o
13 1 4 191.878 187.232 2.548 2.556 o
13 1 5 65.264 69.580 1.769 12.866 o
13 1 6 241.206 255.075 2.547 1.660 o
13 1 7 13.693 10.174 1.134 90.975 o
13 1 8 19.837 15.988 1.177 62.292 o
13 1 9 71.374 74.987 2.499 10.690 o
13 1 10 134.075 135.573 3.061 4.333 o
13 1 11 20.532 15.932 1.685 51.521 o
13 1 12 64.439 70.010 2.493 11.989 o
13 1 13 35.795 32.174 2.147 26.182 o
13 1 14 26.496 23.455 2.072 35.386 o
13 3 0 464.671 509.919 4.060 0.496 o
13 3 1 1.462 0.491 0.927 412.396 o
13 3 2 38.160 37.489 1.453 27.178 o
13 3 3 64.826 63.626 1.589 13.706 o
13 3 4 807.072 928.716 5.081 0.170 o
13 3 5 0.033 -0.764 0.850 669.158 o
13 3 6 75.608 72.655 1.785 11.027 o
13 3 7 94.751 92.128 1.812 7.936 o
13 3 8 226.495 232.281 2.819 1.871 o
13 3 9 5.638 5.588 1.291 145.315 o
13 3 10 15.820 12.731 1.601 65.033 o
13 3 11 127.167 135.525 3.188 4.531 o
13 3 12 129.172 135.396 2.922 4.533 o
13 3 13 0.109 -0.932 1.785 152.084 o
13 3 14 5.866 2.868 1.778 105.771 o
13 5 0 91.314 93.092 2.556 7.763 o
13 5 1 23.716 25.546 1.208 46.825 o
13 5 2 130.511 140.897 2.165 4.553 o
13 5 3 227.557 234.532 2.407 1.867 o
13 5 4 211.501 201.218 2.248 2.218 o
13 5 5 200.511 204.772 2.561 2.316 o
13 5 6 36.809 36.496 1.291 28.993 o
13 5 7 36.624 40.910 1.580 26.514 o
13 5 8 63.807 62.763 1.903 13.561 o
13 5 9 109.258 107.184 2.332 6.215 o
13 5 10 94.923 104.487 2.542 7.093 o
13 5 11 26.346 22.956 1.684 39.973 o
13 5 12 79.803 86.235 2.488 9.127 o
13 5 13 85.770 91.195 2.997 7.962 o
13 7 0 27.740 22.177 1.717 38.630 o
13 7 1 17.875 17.384 1.390 60.748 o
13 7 2 4.092 2.620 1.020 232.628 o
13 7 3 185.646 187.061 2.957 2.620 o
13 7 4 12.595 12.349 1.200 88.482 o
13 7 5 130.045 133.382 2.227 4.694 o
13 7 6 3.899 2.210 1.081 227.591 o
13 7 7 26.829 24.746 1.768 37.757 o
13 7 8 33.110 31.533 1.892 29.472 o
13 7 9 42.319 37.665 1.707 23.972 o
13 7 10 52.770 48.577 2.124 17.143 o
13 7 11 71.010 76.778 2.588 10.518 o
13 7 12 0.034 -0.644 2.577 73.357 o
13 9 0 35.033 24.915 2.300 27.425 o
13 9 1 19.577 18.139 2.241 41.721 o
13 9 2 42.105 41.209 2.403 20.484 o
13 9 3 91.159 100.016 2.875 7.316 o
13 9 4 39.877 33.703 2.483 22.237 o
13 9 5 270.150 287.822 4.312 1.313 o
13 9 6 56.676 60.453 2.390 14.310 o
13 9 7 56.992 57.672 2.916 13.409 o
13 9 8 69.294 70.755 2.738 10.922 o
13 9 9 58.974 60.888 3.018 12.615 o
13 9 10 5.421 5.022 2.456 64.055 o
13 11 0 6.807 5.337 1.960 84.764 o
13 11 1 29.006 25.602 2.064 32.785 o
13 11 2 0.012 -0.527 1.711 166.509 o
13 11 3 118.146 116.663 3.562 5.096 o
13 11 4 22.689 21.183 2.544 33.705 o
13 11 5 147.897 166.836 4.706 3.223 o
13 11 6 11.324 12.740 3.622 28.809 o
14 0 0 172.396 172.793 3.501 2.899 o
14 0 2 19.915 21.740 1.867 45.327 o
14 0 4 283.205 302.546 4.559 1.203 o
14 0 6 1.675 3.312 1.824 122.986 o
14 0 8 180.982 182.671 4.400 2.575 o
14 0 10 31.737 30.187 3.080 22.414 o
14 0 12 0.821 -2.255 1.935 125.112 o
14 2 0 0.899 0.654 1.003 393.896 o
14 2 1 494.092 529.911 4.200 0.449 o
14 2 2 0.853 -2.302 0.885 517.276 o
14 2 3 39.508 33.367 1.496 27.385 o
14 2 4 18.029 12.936 1.104 72.163 o
14 2 5 434.227 454.972 3.428 0.581 o
14 2 6 13.178 9.310 1.110 96.117 o
14 2 7 145.110 142.125 2.271 4.043 o
14 2 8 6.672 3.813 1.165 158.423 o
14 2 9 160.754 166.398 3.525 3.175 o
14 2 10 75.951 80.745 2.479 9.829 o
14 2 11 103.514 101.664 3.182 6.314 o
14 2 12 52.074 45.798 2.710 16.053 o
14 2 13 5.924 3.783 1.724 107.687 o
14 4 0 14.201 12.682 1.421 74.622 o
14 4 1 112.294 110.192 2.206 6.009 o
14 4 2 32.024 32.486 1.360 33.381 o
14 4 3 95.537 98.508 1.842 7.605 o
14 4 4 0.128 1.708 1.109 344.496 o
14 4 5 135.691 141.227 2.112 4.378 o
14 4 6 117.519 123.326 2.255 5.410 o
14 4 7 262.726 260.171 3.105 1.474 o
14 4 8 1.970 0.527 1.071 310.167 o
14 4 9 30.072 24.701 1.940 33.454 o
14 4 10 119.629 120.685 2.779 5.222 o
14 4 11 250.983 257.523 4.060 1.528 o
14 4 12 55.831 64.165 3.113 12.658 o
14 6 0 79.927 86.414 2.350 9.221 o
14 6 1 2.778 2.692 1.616 143.095 o
14 6 2 55.375 57.438 2.206 15.271 o
14 6 3 60.361 70.380 2.082 13.233 o
14 6 4 90.088 100.812 2.439 7.631 o
14 6 5 11.593 8.757 1.222 99.808 o
14 6 6 139.762 142.836 2.902 4.080 o
14 6 7 9.198 6.720 1.164 123.340 o
14 6 8 20.584 18.480 1.663 49.945 o
14 6 9 2.157 -1.156 1.342 220.479 o
14 6 10 104.654 114.726 2.891 6.036 o
14 6 11 6.775 5.946 1.544 111.961 o
14 8 0 0.197 1.517 1.996 117.128 o
14 8 1 1.566 1.553 1.833 128.084 o
14 8 2 0.068 -0.860 1.523 209.156 o
14 8 3 152.647 163.714 3.856 3.317 o
14 8 4 3.074 0.544 1.500 168.656 o
14 8 5 12.084 9.070 1.538 82.474 o
14 8 6 10.143 14.708 2.012 62.453 o
14 8 7 89.050 97.724 3.233 7.304 o
14 8 8 0.551 -1.044 1.658 170.963 o
14 8 9 20.244 17.351 1.959 46.085 o
14 10 0 37.114 31.134 2.085 26.155 o
14 10 1 0.047 -0.912 1.503 215.209 o
14 10 2 105.855 113.821 3.307 5.812 o
14 10 3 4.867 4.648 1.590 123.322 o
14 10 4 2.147 1.476 2.225 88.598 o
14 10 5 17.297 17.392 3.091 31.470 o
14 10 6 107.613 105.837 4.257 5.448 o
15 1 0 20.056 18.695 1.237 57.985 o
15 1 1 25.362 23.671 1.201 45.947 o
15 1 2 668.922 724.536 5.178 0.253 o
15 1 3 0.190 -2.191 0.933 538.858 o
15 1 4 125.088 120.502 2.151 5.164 o
15 1 5 10.652 11.475 1.278 95.113 o
15 1 6 30.780 24.243 1.400 37.713 o
15 1 7 1.391 2.413 1.206 250.038 o
15 1 8 1.951 1.126 1.501 178.504 o
15 1 9 3.840 6.167 1.784 107.105 o
15 1 10 0.585 1.587 1.356 232.203 o
15 1 11 2.445 3.840 1.638 138.178 o
15 1 12 63.190 68.507 2.979 11.520 o
15 3 0 0.751 1.647 1.399 216.153 o
15 3 1 65.737 71.994 1.822 12.520 o
15 3 2 63.144 56.307 1.801 14.476 o
15 3 3 13.668 11.687 1.120 88.515 o
15 3 4 147.596 148.629 2.403 3.860 o
15 3 5 82.372 84.752 1.971 9.344 o
15 3 6 47.158 44.590 1.879 20.106 o
15 3 7 56.115 55.238 2.165 15.435 o
15 3 8 15.382 12.262 1.398 72.626 o
15 3 9 0.010 -1.522 1.510 213.809 o
15 3 10 38.226 34.067 2.315 23.689 o
15 3 11 7.524 5.585 1.514 111.082 o
15 5 0 72.673 80.296 2.524 10.182 o
15 5 1 7.498 7.476 1.574 102.049 o
15 5 2 1.018 0.915 1.537 184.584 o
15 5 3 65.118 67.661 2.104 12.621 o
15 5 4 179.745 195.829 2.891 2.649 o
15 5 5 48.632 47.085 1.974 18.940 o
15 5 6 44.750 34.677 1.704 23.567 o
15 5 7 4.910 2.412 1.190 186.299 o
15 5 8 18.309 15.853 1.639 56.103 o
15 5 9 6.059 3.641 1.514 126.236 o
15 5 10 0.019 0.022 1.461 227.755 o
15 5 11 18.288 13.704 4.892 16.456 o
15 7 0 2.842 2.180 1.780 124.186 o
15 7 1 195.929 211.538 4.332 2.203 o
15 7 2 9.198 9.286 1.852 77.153 o
15 7 3 576.513 612.545 6.673 0.334 o
15 7 4 4.474 0.140 1.977 101.774 o
15 7 5 0.916 0.267 1.301 257.846 o
15 7 6 40.914 36.800 2.810 19.802 o
15 7 7 83.731 86.923 2.893 8.390 o
15 7 8 24.459 24.374 2.332 33.777 o
15 7 9 0.390 -2.420 1.798 147.558 o
15 9 0 57.462 58.356 2.663 13.801 o
15 9 1 123.702 123.662 3.812 4.667 o
15 9 2 0.132 1.276 1.735 154.588 o
15 9 3 159.698 170.052 4.072 3.076 o
15 9 4 32.127 30.504 2.261 27.758 o
15 9 5 9.793 11.620 3.053 38.634 o
15 9 6 6.408 1.863 6.173 12.329 o
16 0 0 153.270 167.751 4.306 3.183 o
16 0 2 241.450 237.525 4.648 1.640 o
16 0 4 10.745 11.551 1.662 77.565 o
16 0 6 1.155 1.912 1.934 117.785 o
16 0 8 62.389 77.008 3.641 10.064 o
16 0 10 2.225 3.349 2.144 91.188 o
16 2 0 10.179 8.751 1.449 94.549 o
16 2 1 6.204 4.221 1.509 123.775 o
16 2 2 5.145 2.719 1.247 171.897 o
16 2 3 0.473 0.794 1.141 332.515 o
16 2 4 9.196 7.603 1.262 113.648 o
16 2 5 46.424 42.576 1.965 20.425 o
16 2 6 44.760 37.491 1.811 22.555 o
16 2 7 7.246 6.061 1.407 119.857 o
16 2 8 4.505 2.696 1.461 148.541 o
16 2 9 111.062 116.303 3.186 5.556 o
16 2 10 20.430 18.802 1.910 45.787 o
16 4 0 40.073 35.207 2.111 23.701 o
16 4 1 32.195 31.732 1.855 30.236 o
16 4 2 47.447 37.679 2.017 20.744 o
16 4 3 19.189 16.934 1.687 52.769 o
16 4 4 35.175 33.046 1.796 28.390 o
16 4 5 13.156 11.484 1.300 84.191 o
16 4 6 52.148 41.770 1.891 18.912 o
16 4 7 11.762 9.176 1.348 91.998 o
16 4 8 0.057 0.499 1.544 199.819 o
16 4 9 1.545 -0.992 1.438 206.595 o
16 6 0 3.515 4.328 1.616 130.933 o
16 6 1 7.675 5.925 1.561 105.875 o
16 6 2 3.307 3.624 1.820 113.097 o
16 6 3 1.020 -0.523 1.978 118.794 o
16 6 4 2.630 0.625 1.446 183.711 o
16 6 5 7.294 9.229 1.621 96.017 o
16 6 6 0.516 1.369 1.455 208.168 o
16 6 7 49.575 42.368 2.619 17.343 o
16 6 8 40.845 30.434 2.222 23.838 o
16 8 0 5.081 4.508 2.040 86.832 o
16 8 1 97.044 98.277 3.574 6.553 o
16 8 2 5.580 3.982 1.767 105.350 o
16 8 3 7.622 5.001 1.739 96.008 o
16 8 4 12.181 9.409 1.928 66.528 o
16 8 5 0.118 -2.751 2.909 57.503 o
17 1 0 26.026 23.805 2.361 32.579 o
17 1 1 19.795 17.537 1.662 51.840 o
17 1 2 18.513 14.828 1.835 52.497 o
17 1 3 2.042 0.911 1.296 226.119 o
17 1 4 0.093 -1.123 1.398 247.383 o
17 1 5 52.514 59.956 2.376 15.245 o
17 1 6 6.298 4.076 1.308 144.316 o
17 1 7 18.173 18.384 1.707 52.843 o
17 1 8 10.813 8.729 1.764 77.228 o
17 1 9 33.449 26.602 2.146 28.947 o
17 3 0 89.211 92.141 2.781 7.814 o
17 3 1 0.248 -0.713 1.481 217.832 o
17 3 2 45.856 36.106 2.256 20.675 o
17 3 3 5.962 6.175 1.652 107.162 o
17 3 4 2.312 3.589 1.527 156.041 o
17 3 5 50.561 53.859 2.237 16.744 o
17 3 6 2.389 1.115 1.325 210.113 o
17 3 7 86.559 91.685 2.700 8.103 o
17 3 8 14.054 12.730 1.740 64.917 o
17 5 0 0.108 0.182 1.364 257.001 o
17 5 1 48.189 40.047 2.606 18.055 o
17 5 2 4.030 4.960 1.863 102.592 o
17 5 3 19.138 18.263 2.017 45.861 o
17 5 4 60.010 62.127 3.531 11.393 o
17 5 5 0.054 0.044 1.774 154.340 o
17 5 6 68.279 72.813 2.955 10.625 o
17 5 7 4.527 3.842 2.470 66.167 o
17 7 0 0.473 -0.957 1.738 156.896 o
17 7 1 3.817 1.814 1.857 111.653 o
17 7 2 0.356 -0.848 1.580 190.389 o
17 7 3 77.859 82.879 3.034 8.971 o
17 7 4 29.772 27.370 4.517 15.455 o
18 0 0 10.807 8.713 3.227 35.827 o
18 0 2 196.377 220.086 5.803 2.017 o
18 0 4 38.616 34.073 3.361 18.286 o
18 0 6 18.882 19.875 3.284 27.865 o
18 2 0 9.508 8.698 1.965 72.159 o
18 2 1 38.059 36.722 2.369 22.932 o
18 2 2 26.892 21.956 2.301 33.239 o
18 2 3 4.933 2.009 1.869 104.718 o
18 2 4 37.381 32.771 2.114 25.458 o
18 2 5 94.713 95.442 3.306 6.954 o
18 2 6 26.666 23.058 2.110 35.014 o
18 4 0 26.800 22.113 2.472 31.494 o
18 4 1 23.208 23.571 2.395 34.253 o
18 4 2 16.942 16.248 2.124 47.800 o
18 4 3 0.281 -0.581 1.615 183.295 o
18 4 4 134.302 140.224 3.522 4.142 o
18 4 5 145.401 141.694 4.689 3.546 o
18 6 0 63.774 66.209 3.042 11.493 o
18 6 1 0.006 2.426 3.060 50.835 o
18 6 2 3.995 3.340 3.341 39.751 o
19 1 0 19.963 20.408 2.317 39.129 o
19 1 1 1.698 -0.309 2.024 110.343 o
19 1 2 194.849 209.801 4.330 2.226 o
19 1 3 17.822 14.498 3.414 28.117 o
19 3 0 2.999 2.810 2.120 91.217 o
19 3 1 30.428 31.382 6.464 9.063 o
;
_iucr_refine_instructions_details
;
TITL 
CELL 0.71073 10.5257 8.9594 11.3271 90 93.737 90
ZERR 8 0.0033 0.0027 0.003 0 0.024 0
LATT 7
SYMM -X,+Y,0.5-Z
SFAC C H N O
UNIT 32 72 8 16

L.S. 4
PLAN  20
TEMP -173.15
CONF
FMAP 2
MORE -1
BOND $H
ACTA
WGHT 0.060133 0.280202
FVAR 0.507528
REM <olex2.extras>
REM <HklSrc "%.\\fk_03448_intdb_v128.hkl">
REM </olex2.extras>

O     4     0.61156  0.58561  0.16138  11.00000  0.01348  0.01242  0.00924 =
 0.00226 -0.00029  0.00174
O1    4     0.72414  0.37774  0.13709  11.00000  0.02373  0.01430  0.00805 =
 -0.00166  0.00077  0.00584
N3    3     0.65254  0.60197  0.39103  11.00000  0.01376  0.00992  0.00769 =
 -0.00095  0.00018 -0.00015
H3a   2     0.68686  0.68706  0.36388  11.00000 -1.20000
H3b   2     0.56857  0.60128  0.37342  11.00000 -1.20000
H3c   2     0.67276  0.59974  0.47425  11.00000 -1.20000
C4    1     0.70860  0.46786  0.33452  11.00000  0.01163  0.01001  0.00680 =
 -0.00014 -0.00033  0.00063
C5    1     0.67921  0.47917  0.19947  11.00000  0.01181  0.01030  0.00667 =
 0.00012  0.00016 -0.00034
C6    1     0.64304  0.32915  0.38027  11.00000  0.01628  0.01044  0.00938 =
 0.00120  0.00089  0.00011
H6a   2     0.65234  0.32408  0.46886  11.00000 -1.50000
H6b   2     0.55040  0.33250  0.35469  11.00000 -1.50000
H6c   2     0.68291  0.24160  0.35032  11.00000 -1.50000
C7    1     0.85205  0.46723  0.36624  11.00000  0.01200  0.01780  0.01280 =
 0.00006 -0.00169  0.00077
H7a   2     0.89196  0.55904  0.33793  11.00000 -1.50000
H7b   2     0.87033  0.46102  0.45418  11.00000 -1.50000
H7c   2     0.89085  0.37597  0.33331  11.00000 -1.50000
HKLF 4

END
Q1 1 0.694444 0.466667 0.275 11 0.05 0.52
Q2 1 0.638889 0.533333 0.175 11 0.05 0.5
Q3 1 0.777778 0.466667 0.35 11 0.05 0.47
Q4 1 0.694444 0.433333 0.175 11 0.05 0.45
Q5 1 0.666667 0.4 0.35 11 0.05 0.41
Q6 1 0.666667 0.533333 0.35 11 0.05 0.29
Q7 1 0.583333 0.566667 0.1 11 0.05 0.26
Q8 1 0.861111 0.466667 0.4 11 0.05 0.21
Q9 1 0.722222 0.533333 0.125 11 0.05 0.15
Q10 1 0.583333 0.3 0.35 11 0.05 0.15

  REM The information below was added by Olex2.
  REM
  REM R1 = 0.0339 for 3129 Fo > 4sig(Fo) and 0.0400 for all 3627 data
  REM 91 parameters refined using 0 restraints
  REM Highest difference peak 0.5184, deepest hole -0.2596
  REM Mean Shift 0.0001, Max Shift 0.0005.

  REM +++ Tabular Listing of Refinement Information +++
  REM R1_all = 0.0400
  REM R1_gt = 0.0339
  REM wR_ref = 0.1019
  REM GOOF = 1.0474
  REM Shift_max = 0.0005
  REM Shift_mean = 0.0001
  REM Reflections_all = 3627
  REM Reflections_gt = 3129
  REM Parameters = 91
  REM Hole = -0.2596
  REM Peak = 0.5184
  REM Flack = n/a

  
;
_olex2_submission_special_instructions  'No special instructions were received'
