data_Ala
_audit_creation_date               2024-03-13
_audit_creation_method
;
Olex2 1.5-alpha
(compiled 2023.11.24 svn.r209d9fb2 for OlexSys, GUI svn.r6869)
;
_audit_contact_author_address      ?
_audit_contact_author_email        ?
_audit_contact_author_name         ''
_audit_contact_author_phone        ?
_publ_contact_author_id_orcid      ?
_publ_section_references
;
Bourhis, L.J., Dolomanov, O.V., Gildea, R.J., Howard, J.A.K., Puschmann, H.
 (2015). Acta Cryst. A71, 59-75.

Dolomanov, O.V., Bourhis, L.J., Gildea, R.J, Howard, J.A.K. & Puschmann, H.
 (2009), J. Appl. Cryst. 42, 339-341.
;
_chemical_name_systematic          '2-Aminopropanoic acid'
_chemical_formula_moiety           'C3 H7 N O2'
_chemical_formula_sum              'C3 H7 N O2'
_chemical_formula_weight           89.095
_chemical_absolute_configuration   S
loop_
  _atom_type_symbol
  _atom_type_scat_dispersion_real
  _atom_type_scat_dispersion_imag
  _atom_type_scat_Cromer_Mann_a1
  _atom_type_scat_Cromer_Mann_a2
  _atom_type_scat_Cromer_Mann_a3
  _atom_type_scat_Cromer_Mann_a4
  _atom_type_scat_Cromer_Mann_b1
  _atom_type_scat_Cromer_Mann_b2
  _atom_type_scat_Cromer_Mann_b3
  _atom_type_scat_Cromer_Mann_b4
  _atom_type_scat_Cromer_Mann_c
  _atom_type_scat_source
  _atom_type_scat_dispersion_source
 C 0.00313 0.00162 2.31000 1.02000 1.58860 0.86500 20.84390 10.20750 0.56870
 51.65120 0.21560 'International Tables Volume C Table 6.1.1.4 (pp. 500-502)'
 'Brennan, Cowan, Rev. Sci. Instrum., 1992, 63, 850'
 H 0.00000 0.00000 0.49300 0.32291 0.14019 0.04081 10.51090 26.12570 3.14236
 57.79970 0.00304 'International Tables Volume C Table 6.1.1.4 (pp. 500-502)'
 'Brennan, Cowan, Rev. Sci. Instrum., 1992, 63, 850'
 N 0.00612 0.00332 12.21260 3.13220 2.01250 1.16630 0.00570 9.89330 28.99750
 0.58260 -11.52900 'International Tables Volume C Table 6.1.1.4 (pp. 500-502)'
 'Brennan, Cowan, Rev. Sci. Instrum., 1992, 63, 850'
 O 0.01085 0.00610 3.04850 2.28680 1.54630 0.86700 13.27710 5.70110 0.32390
 32.90890 0.25080 'International Tables Volume C Table 6.1.1.4 (pp. 500-502)'
 'Brennan, Cowan, Rev. Sci. Instrum., 1992, 63, 850'

_space_group_crystal_system        'orthorhombic'
_space_group_IT_number             19
_space_group_name_H-M_alt          'P 21 21 21'
_space_group_name_Hall             ' P 2ac 2ab'
loop_
  _space_group_symop_id
  _space_group_symop_operation_xyz
 1 x,y,z
 2 x+1/2,-y+1/2,-z
 3 -x,y+1/2,-z+1/2
 4 -x+1/2,-y,z+1/2

_symmetry_Int_Tables_number        19
_cell_length_a                     5.776(10)
_cell_length_b                     5.955(17)
_cell_length_c                     12.26(2)
_cell_angle_alpha                  90
_cell_angle_beta                   90
_cell_angle_gamma                  90
_cell_volume                       421.5(16)
_cell_formula_units_Z              4
_cell_measurement_temperature      100
_cell_measurement_theta_min	   3.3
_cell_measurement_theta_max	   41.9		
_exptl_absorpt_coefficient_mu      0.117
_exptl_absorpt_correction_T_max    1.0000
_exptl_absorpt_correction_T_min    1.0000
_exptl_absorpt_correction_type     multi-scan
_exptl_absorpt_process_details
;
STOE LANA, absorption correction by scaling of reflection intensities.
J. Koziskova, F. Hahn, J. Richter, J. Kozisek, "Comparison of different
absorption corrections on the model structure of tetrakis(\m~2~-acetato)-
diaqua-di-copper(II)", Acta Chimica Slovaca, vol. 9, no. 2, 2016, pp. 136 - 140.
;
_exptl_crystal_colour              'clear colourless'
_exptl_crystal_colour_lustre       clear
_exptl_crystal_colour_modifier     .
_exptl_crystal_colour_primary      colourless
_exptl_crystal_density_diffrn      1.404
_exptl_crystal_description         block
_exptl_crystal_F_000               192.160
_exptl_crystal_preparation         ?
_exptl_crystal_recrystallization_method  'Evaporation of aqueous solution'
_exptl_crystal_size_max            0.21
_exptl_crystal_size_mid            0.2
_exptl_crystal_size_min            0.15
_diffrn_reflns_av_R_equivalents    0.0135
_diffrn_reflns_av_unetI/netI       0.0102
_diffrn_reflns_Laue_measured_fraction_full  1.0000
_diffrn_reflns_Laue_measured_fraction_max  0.9828
_diffrn_reflns_limit_h_max         10
_diffrn_reflns_limit_h_min         -5
_diffrn_reflns_limit_k_max         10
_diffrn_reflns_limit_k_min         -10
_diffrn_reflns_limit_l_max         22
_diffrn_reflns_limit_l_min         -22
_diffrn_reflns_number              13680
_diffrn_reflns_point_group_measured_fraction_full  1.0000
_diffrn_reflns_point_group_measured_fraction_max  0.9776
_diffrn_reflns_theta_full          25.2417
_diffrn_reflns_theta_max           41.71
_diffrn_reflns_theta_min           3.32
_diffrn_ambient_temperature        100
_diffrn_detector                   Pilatus200K
_diffrn_detector_area_resol_mean   5.81
_diffrn_detector_type              'DECTRIS PILATUS 200K'
_diffrn_measured_fraction_theta_full  1.0000
_diffrn_measured_fraction_theta_max  0.9828
_diffrn_measurement_device         'Eulerian 4-circle diffractometer'
_diffrn_measurement_device_type    'STOE STADIVARI'
_diffrn_measurement_method         'rotation method, \w scans'
_diffrn_radiation_collimation      '0.6 mm diameter'
_diffrn_radiation_monochromator    'Graded multilayer mirror'
_diffrn_radiation_probe            x-ray
_diffrn_radiation_type             'Mo K\a'
_diffrn_radiation_wavelength       0.71073
_diffrn_source                     'Genix Mo'
_diffrn_special_details            ?
_reflns_Friedel_coverage           0.970
_reflns_limit_h_max                10
_reflns_limit_h_min                -10
_reflns_limit_k_max                10
_reflns_limit_k_min                -10
_reflns_limit_l_max                22
_reflns_limit_l_min                -22
_reflns_number_gt                  2750
_reflns_number_total               2834
_reflns_threshold_expression       I>=2u(I)
_computing_molecular_graphics      'Olex2 1.5-alpha (Dolomanov et al., 2009)'
_computing_publication_material    'Olex2 1.5-alpha (Dolomanov et al., 2009)'
_computing_structure_refinement   
 'olex2.refine 1.5-alpha (Bourhis et al., 2015)'
_computing_structure_solution     
 'olex2.solve 1.5-alpha (Bourhis et al., 2015)'
_refine_diff_density_max           0.4498
_refine_diff_density_min           -0.1715
_refine_diff_density_rms           0.0583
_refine_ls_abs_structure_details  
 'Hooft, R.W.W., Straver, L.H., Spek, A.L. (2010). J. Appl. Cryst., 43, 665-668.'
_refine_ls_abs_structure_Flack     0.10(11)
_refine_ls_d_res_high              0.5340
_refine_ls_d_res_low               6.1277
_refine_ls_goodness_of_fit_ref     1.3563
_refine_ls_hydrogen_treatment      mixed
_refine_ls_matrix_type             full
_refine_ls_number_constraints      7
_refine_ls_number_parameters       76
_refine_ls_number_reflns           2834
_refine_ls_number_restraints       0
_refine_ls_R_factor_all            0.0271
_refine_ls_R_factor_gt             0.0262
_refine_ls_restrained_S_all        1.3563
_refine_ls_shift/su_max            0.0006
_refine_ls_shift/su_mean           0.0001
_refine_ls_structure_factor_coef   Fsqd
_refine_ls_weighting_details      
 'w=1/[\s^2^(Fo^2^)+(0.0441P)^2^] where P=(Fo^2^+2Fc^2^)/3'
_refine_ls_weighting_scheme        calc
_refine_ls_wR_factor_gt            0.0717
_refine_ls_wR_factor_ref           0.0725
_refine_special_details            ?
_olex2_refinement_description
;
1. Fixed Uiso
 At 1.2 times of:
  All C(H,H,H,H) groups
 At 1.5 times of:
  All C(H,H,H) groups
;
_atom_sites_solution_primary       iterative
loop_
  _atom_site_label
  _atom_site_type_symbol
  _atom_site_fract_x
  _atom_site_fract_y
  _atom_site_fract_z
  _atom_site_U_iso_or_equiv
  _atom_site_adp_type
  _atom_site_occupancy
  _atom_site_refinement_flags_posn
 O O 0.23857(5) 0.94258(6) 0.31569(2) 0.01269(6) Uani 1.000000 .
 O1 O 0.37490(6) 1.22760(5) 0.41616(2) 0.01287(6) Uani 1.000000 .
 N N 0.81666(5) 1.14859(6) 0.36238(3) 0.01018(6) Uani 1.000000 .
 C4 C 0.64556(6) 0.96812(6) 0.33888(3) 0.00918(6) Uani 1.000000 .
 C5 C 0.39981(6) 1.05536(6) 0.35904(3) 0.00904(6) Uani 1.000000 .
 C6 C 0.69669(7) 0.76266(7) 0.40919(3) 0.01336(7) Uani 1.000000 .
 H4 H 0.6589(17) 0.9351(17) 0.2641(8) 0.01603(8) Uiso 1.000000 R
 H6a H 0.8518(17) 0.7045(15) 0.3911(8) 0.02004(10) Uiso 1.000000 R
 H6b H 0.6983(17) 0.8034(17) 0.4841(8) 0.02004(10) Uiso 1.000000 R
 H6c H 0.585(2) 0.6458(14) 0.3942(7) 0.02004(10) Uiso 1.000000 R
 Ha H 0.7977(16) 1.2691(16) 0.3193(8) 0.01603(8) Uiso 1.000000 R
 Hb H 0.8082(17) 1.1955(16) 0.4343(8) 0.01603(8) Uiso 1.000000 R
 Hc H 0.9622(17) 1.0914(13) 0.3543(7) 0.01603(8) Uiso 1.000000 R

loop_
  _atom_site_aniso_label
  _atom_site_aniso_U_11
  _atom_site_aniso_U_22
  _atom_site_aniso_U_33
  _atom_site_aniso_U_12
  _atom_site_aniso_U_13
  _atom_site_aniso_U_23
 O 0.00768(10) 0.01605(12) 0.01435(11) -0.00100(9) -0.00116(8) -0.00328(9)
 O1 0.01146(12) 0.01439(12) 0.01276(11) 0.00146(9) 0.00111(9) -0.00404(9)
 N 0.00788(10) 0.01192(11) 0.01074(11) -0.00057(9) -0.00004(9) -0.00065(9)
 C4 0.00714(11) 0.01119(12) 0.00920(11) 0.00013(9) -0.00011(8) -0.00090(9)
 C5 0.00734(11) 0.01168(12) 0.00810(11) 0.00057(9) 0.00022(9) 0.00016(10)
 C6 0.01122(14) 0.01272(14) 0.01614(15) 0.00110(11) -0.00046(11) 0.00260(11)

loop_
  _geom_bond_atom_site_label_1
  _geom_bond_atom_site_label_2
  _geom_bond_distance
  _geom_bond_site_symmetry_2
  _geom_bond_publ_flag
 O C5 1.2651(17) . ?
 O1 C5 1.250(3) . ?
 N C4 1.488(3) . ?
 N Ha 0.898(10) . ?
 N Hb 0.925(10) . ?
 N Hc 0.912(10) . ?
 C4 C5 1.532(2) . ?
 C4 C6 1.525(3) . ?
 C4 H4 0.940(10) . ?
 C6 H6a 0.985(9) . ?
 C6 H6b 0.950(11) . ?
 C6 H6c 0.966(10) . ?

loop_
  _geom_angle_atom_site_label_1
  _geom_angle_atom_site_label_2
  _geom_angle_atom_site_label_3
  _geom_angle
  _geom_angle_site_symmetry_1
  _geom_angle_site_symmetry_3
  _geom_angle_publ_flag
 Ha N C4 112.5(6) . . ?
 Hb N C4 111.6(6) . . ?
 Hb N Ha 108.2(8) . . ?
 Hc N C4 108.7(5) . . ?
 Hc N Ha 110.3(8) . . ?
 Hc N Hb 105.3(8) . . ?
 C5 C4 N 109.83(3) . . ?
 C6 C4 N 109.96(3) . . ?
 C6 C4 C5 111.12(3) . . ?
 H4 C4 N 106.6(5) . . ?
 H4 C4 C5 107.7(6) . . ?
 H4 C4 C6 111.5(6) . . ?
 O1 C5 O 125.87(3) . . ?
 C4 C5 O 115.74(3) . . ?
 C4 C5 O1 118.38(3) . . ?
 H6a C6 C4 109.3(5) . . ?
 H6b C6 C4 110.1(6) . . ?
 H6b C6 H6a 107.3(8) . . ?
 H6c C6 C4 110.0(5) . . ?
 H6c C6 H6a 108.1(8) . . ?
 H6c C6 H6b 111.9(8) . . ?

loop_
  _geom_torsion_atom_site_label_1
  _geom_torsion_atom_site_label_2
  _geom_torsion_atom_site_label_3
  _geom_torsion_atom_site_label_4
  _geom_torsion
  _geom_torsion_site_symmetry_1
  _geom_torsion_site_symmetry_2
  _geom_torsion_site_symmetry_3
  _geom_torsion_site_symmetry_4
  _geom_torsion_publ_flag
 O C5 C4 N 162.06(3) . . . . ?
 O C5 C4 C6 -76.04(4) . . . . ?
 O1 C5 C4 N -18.31(4) . . . . ?
 O1 C5 C4 C6 103.58(4) . . . . ?

loop_
  _diffrn_refln_index_h
  _diffrn_refln_index_k
  _diffrn_refln_index_l
  _diffrn_refln_intensity_net
  _diffrn_refln_intensity_u
  _diffrn_refln_scale_group_code
 0 -6 -1 102.44 0.93 0
 0 -6 0 151.21 1.07 0
 0 -6 1 101.28 0.87 0
 0 -6 2 8.9 0.3 0
 0 -6 4 10.81 0.36 0
 0 -6 5 94.85 1 0
 0 -5 -2 90.59 0.89 0
 0 -5 -1 54.91 0.66 0
 0 -5 0 0.11 0.12 0
 0 -5 1 56.1 0.64 0
 0 -5 2 88.93 0.82 0
 0 -5 3 347.13 1.66 0
 0 -4 -3 1.38 0.19 0
 0 -4 -2 47.06 0.6 0
 0 -4 -1 597.8 1.93 0
 0 -4 0 681.76 1.98 0
 0 -4 1 588.81 1.85 0
 0 -4 2 47.07 0.56 0
 0 -3 -2 0.86 0.15 0
 0 -3 -1 47.99 0.51 0
 0 -3 1 47.95 0.49 0
 0 -2 -2 3204.83 3.82 0
 0 -2 -1 65.7 0.5 0
 0 -2 0 70.23 0.47 0
 0 -1 -1 513.68 1.07 0
 1 -7 -3 48 0.91 0
 1 -7 -2 22.86 0.62 0
 1 -7 -1 74.24 1.03 0
 1 -7 1 74.81 1.02 0
 1 -7 2 23.04 0.6 0
 1 -7 3 44.75 0.83 0
 1 -7 4 84.77 1.13 0
 1 -7 5 77.57 1.11 0
 1 -7 6 57.3 1.01 0
 1 -6 -4 112.88 1.37 0
 1 -6 -3 103.24 1.25 0
 1 -6 -2 131.95 1.36 0
 1 -6 -1 177.81 1.55 0
 1 -6 0 48.92 0.83 0
 1 -6 1 179.21 1.53 0
 1 -6 2 138.01 1.37 0
 1 -6 3 102.58 1.2 0
 1 -6 4 108.86 1.26 0
 1 -6 5 158.64 1.58 0
 1 -5 -3 593.62 2.78 0
 1 -5 -2 141.42 1.34 0
 1 -5 -1 207.26 1.58 0
 1 -5 1 203.99 1.55 0
 1 -5 2 136.95 1.28 0
 1 -5 3 579.03 2.65 0
 1 -4 -6 61.14 1 0
 1 -4 -5 88.16 1.15 0
 1 -4 -4 25.14 0.59 0
 1 -4 -3 240.94 1.67 0
 1 -4 -2 55.4 0.8 0
 1 -4 -1 247.64 1.6 0
 1 -4 0 4.69 0.29 0
 1 -4 1 243.77 1.57 0
 1 -4 2 52.73 0.76 0
 1 -3 -6 101.96 1.21 0
 1 -3 -3 753 2.71 0
 1 -3 -1 615.5 2.28 0
 1 -3 0 349.83 1.69 0
 1 -3 1 599.86 2.2 0
 1 -2 -4 300.29 1.68 0
 1 -2 -3 960.69 2.8 0
 1 -2 -2 517.41 1.93 0
 1 -2 -1 120.59 0.91 0
 1 -2 0 1.75 0.2 0
 1 -1 -4 278.69 1.51 0
 1 -1 -3 2078.26 3.7 0
 1 -1 -2 207.14 1.08 0
 1 -1 -1 247.56 1.1 0
 1 -1 0 130.39 0.79 0
 1 0 -3 1321.14 2.67 0
 1 0 -2 218.62 0.95 0
 1 0 -1 1361.99 2.1 0
 2 -8 -4 149.79 1.84 0
 2 -8 -3 19.29 0.73 0
 2 -7 -5 57.89 1.23 0
 2 -7 1 2.59 0.39 0
 2 -7 2 40.86 0.94 0
 2 -7 7 3.12 0.41 0
 2 -7 8 22.28 0.84 0
 2 -6 -4 1.78 0.34 0
 2 -6 -3 4.96 0.43 0
 2 -6 -2 265.21 2.21 0
 2 -6 0 12.46 0.58 0
 2 -6 2 260.56 2.18 0
 2 -6 3 4.81 0.42 0
 2 -6 4 1.93 0.36 0
 2 -6 5 56.11 1.11 0
 2 -5 -5 66.59 1.18 0
 2 -5 -4 128.78 1.56 0
 2 -5 -3 387.76 2.58 0
 2 -5 -2 4.61 0.45 0
 2 -5 -1 263.19 2.09 0
 2 -5 0 497.08 2.83 0
 2 -5 1 263.96 2.08 0
 2 -5 2 4.3 0.39 0
 2 -5 3 379.9 2.51 0
 2 -4 -4 311.91 2.24 0
 2 -4 -3 131.47 1.44 0
 2 -4 -2 10.71 0.46 0
 2 -4 0 26.04 0.66 0
 2 -4 1 416.23 2.4 0
 2 -4 2 10.55 0.46 0
 2 -3 -6 1045.74 4.17 0
 2 -3 -5 495.99 2.75 0
 2 -3 -4 111.26 1.27 0
 2 -3 -3 436.09 2.39 0
 2 -3 -2 459.16 2.41 0
 2 -3 -1 326.97 2.01 0
 2 -3 0 -0.03 0.18 0
 2 -3 1 334.74 2 0
 2 -2 -6 488.59 2.71 0
 2 -2 -5 10.62 0.45 0
 2 -2 -4 161.99 1.42 0
 2 -2 -3 201.95 1.55 0
 2 -2 -2 1973.27 4.56 0
 2 -2 -1 554.06 2.37 0
 2 -1 -7 260.94 1.98 0
 2 -1 -6 390.41 2.3 0
 2 -1 -4 1902.42 4.43 0
 2 -1 -3 346.07 1.82 0
 2 -1 -2 1096.98 3.09 0
 2 -1 -1 113.85 0.97 0
 2 -1 0 5942.86 6.83 0
 2 0 -5 1026.5 3.24 0
 2 0 -4 322.97 1.71 0
 2 0 -3 100.64 0.91 0
 2 0 -1 946.7 2.43 0
 2 1 -4 1899.79 3.77 0
 2 1 -3 341.19 1.45 0
 2 1 -2 1073.45 2.32 0
 2 1 -1 108.1 0.72 0
 2 1 0 5856.96 5.13 0
 2 2 -2 1952.99 2.55 0
 2 2 0 5.21 0.14 0
 3 -8 -6 40.78 1.18 0
 3 -8 -5 17 0.84 0
 3 -8 -4 45.94 1.21 0
 3 -8 -3 41.23 1.13 0
 3 -8 -2 11.26 0.69 0
 3 -8 -1 4.95 0.59 0
 3 -8 0 86.12 1.52 0
 3 -8 1 3.31 0.46 0
 3 -8 3 41.3 1.1 0
 3 -8 5 14.7 0.77 0
 3 -8 6 40.26 1.14 0
 3 -7 -7 16.38 0.89 0
 3 -7 -6 45.48 1.25 0
 3 -7 -5 132.46 1.94 0
 3 -7 -4 36.43 1.07 0
 3 -7 -3 17.86 0.81 0
 3 -7 -2 33.02 0.97 0
 3 -7 -1 150.96 1.96 0
 3 -7 0 9.31 0.64 0
 3 -7 1 151.81 1.98 0
 3 -7 2 34.92 1.02 0
 3 -7 3 17.71 0.8 0
 3 -7 4 33.76 1.03 0
 3 -7 5 128.52 1.9 0
 3 -7 6 41.45 1.15 0
 3 -7 7 14.83 0.8 0
 3 -7 8 39.72 1.18 0
 3 -7 9 8.48 0.74 0
 3 -6 -8 27.79 1.04 0
 3 -6 -6 27.65 0.97 0
 3 -6 -5 10.16 0.66 0
 3 -6 -4 67.17 1.35 0
 3 -6 6 24.99 0.88 0
 3 -5 -8 22.55 0.9 0
 3 -5 -7 83.5 1.51 0
 3 -5 -2 42.08 1.03 0
 3 -5 -1 310.79 2.58 0
 3 -5 0 36.47 0.92 0
 3 -5 1 303.73 2.53 0
 3 -5 2 40.02 1 0
 3 -5 3 12.55 0.65 0
 3 -4 -9 37.88 1.08 0
 3 -4 -8 125.21 1.85 0
 3 -4 -5 153.45 1.85 0
 3 -4 -4 165.87 1.84 0
 3 -4 -3 730.94 3.76 0
 3 -4 -2 48.35 1.06 0
 3 -4 -1 365.18 2.62 0
 3 -4 0 12.18 0.6 0
 3 -4 1 371.48 2.62 0
 3 -4 2 45.76 0.96 0
 3 -3 -6 5.63 0.5 0
 3 -3 -5 335.37 2.51 0
 3 -3 -2 26.34 0.73 0
 3 -3 -1 395.05 2.54 0
 3 -3 0 333.5 2.31 0
 3 -3 1 395.04 2.51 0
 3 -2 -7 183.93 1.92 0
 3 -2 -6 150.34 1.66 0
 3 -2 -5 425.7 2.65 0
 3 -2 -4 109.93 1.35 0
 3 -2 -3 772.17 3.4 0
 3 -2 -1 231.51 1.8 0
 3 -2 0 220.57 1.75 0
 3 -1 -7 7.63 0.45 0
 3 -1 -6 223.48 1.9 0
 3 -1 -5 43.68 0.84 0
 3 -1 -2 393.17 2.2 0
 3 -1 -1 510.98 2.47 0
 3 -1 0 58.28 0.88 0
 3 0 -6 464.83 2.57 0
 3 0 -5 129.86 1.3 0
 3 0 -4 1275.44 3.82 0
 3 0 -2 267.32 1.67 0
 3 0 -1 146.85 1.21 0
 3 0 0 0.64 0.23 0
 3 1 -6 228.7 1.73 0
 3 1 -5 41.58 0.72 0
 3 1 -4 158.75 1.26 0
 3 1 -3 151.38 1.17 0
 3 1 -2 388.14 1.8 0
 3 1 -1 526.91 2.04 0
 3 1 0 56.96 0.7 0
 3 2 -4 108.23 0.95 0
 3 3 -1 391.28 0.97 0
 3 3 1 394.55 1.23 0
 4 -8 -7 35.28 1.24 0
 4 -8 -6 7.3 0.79 0
 4 -8 -5 9.22 0.77 0
 4 -8 -4 32.76 1.17 0
 4 -8 -3 46.56 1.29 0
 4 -8 -2 16.96 0.91 0
 4 -8 -1 12.45 0.81 0
 4 -8 1 12.17 0.81 0
 4 -8 2 15.7 0.88 0
 4 -8 3 46.35 1.3 0
 4 -8 4 31.21 1.13 0
 4 -8 5 7.73 0.76 0
 4 -8 6 6.58 0.72 0
 4 -8 7 33.04 1.18 0
 4 -8 8 68.78 1.62 0
 4 -8 9 16.55 0.97 0
 4 -8 10 30.17 1.2 0
 4 -7 -8 9.38 0.85 0
 4 -7 -7 5.07 0.71 0
 4 -7 -6 51.64 1.39 0
 4 -7 -5 57.98 1.44 0
 4 -7 -4 54.68 1.4 0
 4 -7 -3 32.39 1.13 0
 4 -7 -2 13.48 0.82 0
 4 -7 -1 79.06 1.62 0
 4 -7 0 0.39 0.44 0
 4 -7 1 77.82 1.62 0
 4 -7 2 12.05 0.78 0
 4 -7 3 33.56 1.14 0
 4 -7 5 55.08 1.4 0
 4 -7 6 53.97 1.4 0
 4 -7 7 5 0.63 0
 4 -7 8 9.34 0.82 0
 4 -7 9 19.33 1.04 0
 4 -7 10 14.69 0.98 0
 4 -6 -9 50.05 1.49 0
 4 -6 -8 24.96 1.06 0
 4 -6 -7 9.04 0.71 0
 4 -6 -6 83.03 1.67 0
 4 -6 -5 49.53 1.28 0
 4 -6 -4 2.43 0.47 0
 4 -6 -3 72.92 1.53 0
 4 -6 -1 126.47 1.94 0
 4 -6 0 -0.02 0.35 0
 4 -6 1 129.22 1.97 0
 4 -6 2 21.9 0.92 0
 4 -6 3 74.11 1.53 0
 4 -6 4 2.48 0.49 0
 4 -6 6 80.13 1.67 0
 4 -6 7 8.06 0.7 0
 4 -5 -9 4.67 0.68 0
 4 -5 -8 116.94 2.01 0
 4 -5 -7 35.4 1.16 0
 4 -5 -6 36.56 1.1 0
 4 -5 -5 8.59 0.68 0
 4 -5 -4 25.13 0.93 0
 4 -5 -3 44.66 1.17 0
 4 -5 -2 51.06 1.2 0
 4 -5 -1 94.86 1.65 0
 4 -5 0 0.06 0.31 0
 4 -5 2 47.42 1.16 0
 4 -5 3 43.59 1.13 0
 4 -5 5 9.83 0.73 0
 4 -4 -10 42.12 1.27 0
 4 -4 -9 3.3 0.52 0
 4 -4 -8 8.55 0.64 0
 4 -4 -7 59.68 1.37 0
 4 -4 -5 114.27 1.76 0
 4 -3 -10 26.61 0.99 0
 4 -3 -8 80.47 1.54 0
 4 -3 -3 119.69 1.64 0
 4 -3 -2 43.95 1.01 0
 4 -3 -1 182.42 1.96 0
 4 -3 0 19.04 0.72 0
 4 -3 1 184.73 2 0
 4 -2 -9 65.91 1.37 0
 4 -2 -4 18.04 0.66 0
 4 -2 -1 176.46 1.8 0
 4 -2 0 89.34 1.3 0
 4 -2 1 173.93 1.8 0
 4 -1 -6 222.55 2.1 0
 4 -1 -5 134.87 1.59 0
 4 -1 -4 183.7 1.8 0
 4 -1 -3 37.19 0.87 0
 4 -1 -1 431.89 2.62 0
 4 -1 0 551.26 2.94 0
 4 -1 1 437.9 2.67 0
 4 0 -8 100.63 1.5 0
 4 0 -7 44.06 0.95 0
 4 0 -6 104.42 1.38 0
 4 0 -4 385.49 2.41 0
 4 0 -3 12.79 0.51 0
 4 0 -2 156.45 1.5 0
 4 0 -1 61.6 0.96 0
 4 0 0 342.72 2.17 0
 4 0 1 61.06 0.98 0
 4 1 -6 220.68 1.86 0
 4 1 -4 184.35 1.56 0
 4 1 -3 37.32 0.73 0
 4 1 -2 45.25 0.77 0
 4 1 -1 430.78 2.23 0
 4 1 0 554.2 2.53 0
 4 2 -4 17.23 0.47 0
 4 2 -3 224.79 1.5 0
 4 2 -2 215 1.43 0
 4 2 -1 174.42 1.28 0
 4 2 0 85.46 0.92 0
 4 2 1 169.83 1.29 0
 4 3 -1 177 1.03 0
 4 3 0 18.92 0.38 0
 4 3 1 180 1.13 0
 4 4 2 66.31 0.52 0
 4 4 3 143.16 0.94 0
 5 -9 -6 13.59 0.99 0
 5 -9 -5 2.2 0.67 0
 5 -9 -4 11.9 0.93 0
 5 -9 -3 40.63 1.36 0
 5 -9 -2 33.37 1.24 0
 5 -9 -1 17.58 0.99 0
 5 -8 -8 35.77 1.36 0
 5 -8 -6 42.61 1.44 0
 5 -8 -5 41.37 1.38 0
 5 -8 -4 12.61 0.98 0
 5 -8 -3 17.1 1.01 0
 5 -8 -2 14.8 0.93 0
 5 -8 -1 18.77 1.03 0
 5 -8 0 0.57 0.53 0
 5 -8 1 17.9 1.01 0
 5 -8 3 15.55 0.97 0
 5 -8 4 12.25 0.94 0
 5 -8 5 42.42 1.42 0
 5 -8 6 44.51 1.44 0
 5 -8 7 7.39 0.83 0
 5 -8 8 33.79 1.32 0
 5 -8 9 14.4 0.99 0
 5 -8 10 37.76 1.4 0
 5 -8 11 0.4 0.61 0
 5 -7 -8 64.29 1.75 0
 5 -7 -7 55.34 1.61 0
 5 -7 -6 23.53 1.13 0
 5 -7 -5 32.95 1.27 0
 5 -7 -3 9.17 0.78 0
 5 -7 -2 18.49 1.02 0
 5 -7 -1 26.87 1.09 0
 5 -7 0 5.73 0.76 0
 5 -7 1 26.83 1.14 0
 5 -7 2 19.7 1.03 0
 5 -7 4 33.12 1.28 0
 5 -7 5 37.15 1.31 0
 5 -7 6 24.6 1.15 0
 5 -7 7 49.82 1.52 0
 5 -7 9 5.8 0.82 0
 5 -7 10 38.41 1.41 0
 5 -7 12 32.38 1.36 0
 5 -7 13 4.96 0.79 0
 5 -7 14 42.71 1.63 0
 5 -6 -10 1.21 0.57 0
 5 -6 -9 41.29 1.46 0
 5 -6 -8 0.88 0.6 0
 5 -6 -7 11.63 0.83 0
 5 -6 -6 54.64 1.51 0
 5 -6 -5 5.35 0.72 0
 5 -6 -4 18.51 0.99 0
 5 -6 -3 130.82 2.18 0
 5 -6 -2 29.6 1.09 0
 5 -6 -1 85.2 1.78 0
 5 -6 0 20.37 1.01 0
 5 -6 1 87.85 1.87 0
 5 -6 2 27.85 1.11 0
 5 -6 3 133.11 2.2 0
 5 -6 4 19.91 1.03 0
 5 -6 6 51.52 1.45 0
 5 -6 7 9.48 0.88 0
 5 -6 8 0.18 0.49 0
 5 -6 9 40.74 1.44 0
 5 -5 -9 14.42 0.91 0
 5 -5 -8 58.53 1.56 0
 5 -5 -7 40.3 1.32 0
 5 -5 -6 32.24 1.2 0
 5 -5 -5 83.6 1.75 0
 5 -5 -4 93.23 1.82 0
 5 -5 -3 19.37 0.89 0
 5 -5 -2 40.12 1.2 0
 5 -5 -1 266.64 2.93 0
 5 -5 0 5.23 0.59 0
 5 -5 1 254.55 2.84 0
 5 -5 2 37.65 1.19 0
 5 -5 3 20.02 0.95 0
 5 -5 4 94.12 1.84 0
 5 -5 5 77.81 1.68 0
 5 -4 -10 32.89 1.27 0
 5 -4 -9 60 1.53 0
 5 -4 -8 63.22 1.52 0
 5 -4 -7 49.22 1.35 0
 5 -4 -6 21.11 0.96 0
 5 -4 -5 113.36 1.89 0
 5 -4 -4 46.13 1.22 0
 5 -4 -3 243.61 2.7 0
 5 -4 -2 5.8 0.55 0
 5 -4 -1 32.22 1.07 0
 5 -4 0 45.68 1.2 0
 5 -4 1 31.09 1.01 0
 5 -4 4 47.19 1.28 0
 5 -3 -9 1.83 0.55 0
 5 -3 -8 271.54 2.95 0
 5 -3 -7 166.91 2.26 0
 5 -3 -6 61.8 1.4 0
 5 -3 -5 99.54 1.7 0
 5 -3 -4 95.93 1.67 0
 5 -3 -3 95.72 1.66 0
 5 -2 -9 35.45 1.15 0
 5 -2 -8 91.3 1.66 0
 5 -2 -7 22.01 0.88 0
 5 -2 -6 20.1 0.82 0
 5 -1 -10 11.55 0.78 0
 5 -1 -9 134.7 2 0
 5 -1 -3 290.54 2.5 0
 5 -1 -2 771.41 3.99 0
 5 -1 -1 191.64 2.02 0
 5 -1 0 459.6 3.07 0
 5 -1 1 179.82 1.95 0
 5 -1 2 763.66 4.02 0
 5 0 -5 295.02 2.46 0
 5 0 -4 636.42 3.48 0
 5 0 -2 222.98 2.05 0
 5 0 -1 393.2 2.66 0
 5 0 0 0.14 0.26 0
 5 0 1 388.16 2.66 0
 5 0 2 223.01 2.1 0
 5 1 -6 361.27 2.59 0
 5 1 -5 13.24 0.58 0
 5 1 -4 166.18 1.69 0
 5 1 -3 291.31 2.18 0
 5 1 -2 763.84 3.46 0
 5 1 -1 188.05 1.73 0
 5 1 0 468.95 2.71 0
 5 1 1 185.23 1.72 0
 5 1 2 780.65 3.6 0
 5 2 -6 18.42 0.61 0
 5 2 -4 240.62 1.85 0
 5 2 -3 46.5 0.82 0
 5 2 -2 265.24 1.85 0
 5 2 -1 53.65 0.87 0
 5 2 0 237.01 1.77 0
 5 2 2 265.81 1.94 0
 5 4 4 46.18 0.72 0
 6 -9 -4 6.18 0.78 0
 6 -9 -3 27.82 1.27 0
 6 -9 -2 14.42 1.04 0
 6 -9 -1 1.62 0.66 0
 6 -9 0 -0.62 0.48 0
 6 -9 1 1.42 0.59 0
 6 -9 2 12 0.98 0
 6 -9 3 22.65 1.16 0
 6 -8 -7 27.9 1.36 0
 6 -8 -6 15.28 1.09 0
 6 -8 -5 19.56 1.09 0
 6 -8 -4 32.43 1.36 0
 6 -8 -3 10.09 0.95 0
 6 -8 -1 0.92 0.64 0
 6 -8 0 77.62 1.9 0
 6 -8 1 1.1 0.57 0
 6 -8 2 5.83 0.77 0
 6 -8 4 34.82 1.38 0
 6 -8 5 19.28 1.18 0
 6 -8 6 16.1 1.12 0
 6 -8 7 25.47 1.28 0
 6 -8 9 4.99 0.85 0
 6 -7 -8 37.22 1.53 0
 6 -7 -7 32.53 1.4 0
 6 -7 -6 19.3 1.08 0
 6 -7 -5 7.47 0.88 0
 6 -7 -4 58.05 1.7 0
 6 -7 -3 63.38 1.7 0
 6 -7 -2 82.49 1.94 0
 6 -7 1 68.36 1.83 0
 6 -7 2 80.49 1.96 0
 6 -7 3 64.55 1.8 0
 6 -7 4 57.85 1.68 0
 6 -7 6 18.35 1.09 0
 6 -7 7 30.03 1.31 0
 6 -7 8 36.85 1.42 0
 6 -7 9 9.45 0.99 0
 6 -7 11 22.21 1.27 0
 6 -7 12 6.55 0.89 0
 6 -6 -10 23.51 1.33 0
 6 -6 -7 5.6 0.76 0
 6 -6 -6 87.51 2.03 0
 6 -6 -5 85.53 1.94 0
 6 -6 -4 28.42 1.27 0
 6 -6 -2 77.85 1.87 0
 6 -6 -1 112.18 2.21 0
 6 -6 0 72.15 1.8 0
 6 -6 1 120.59 2.34 0
 6 -6 2 76.73 1.88 0
 6 -6 3 71.75 1.83 0
 6 -6 4 27.62 1.27 0
 6 -6 5 88.96 1.98 0
 6 -6 6 76.94 1.94 0
 6 -6 8 18.9 1.14 0
 6 -6 9 79.48 2.01 0
 6 -6 10 21.64 1.24 0
 6 -5 -9 29.03 1.26 0
 6 -5 -8 30.63 1.34 0
 6 -5 -7 141.35 2.51 0
 6 -5 -6 16.67 0.96 0
 6 -5 -5 110.5 2.17 0
 6 -5 -4 73.71 1.78 0
 6 -5 -3 73.84 1.73 0
 6 -5 -2 21.16 1.02 0
 6 -5 -1 58.77 1.59 0
 6 -5 0 66.07 1.63 0
 6 -5 2 22.81 1.04 0
 6 -5 3 69.69 1.69 0
 6 -5 4 70.27 1.7 0
 6 -5 6 14.62 1.01 0
 6 -5 7 131.42 2.41 0
 6 -5 8 27.92 1.22 0
 6 -4 -11 40.61 1.52 0
 6 -4 -10 31.52 1.37 0
 6 -4 -9 186.26 2.81 0
 6 -4 -8 62.95 1.64 0
 6 -4 -7 51.93 1.49 0
 6 -4 -6 55.67 1.51 0
 6 -4 -4 12.95 0.86 0
 6 -4 -3 40.8 1.3 0
 6 -4 -1 116.15 2.08 0
 6 -4 0 0.1 0.46 0
 6 -4 1 113.79 2.03 0
 6 -4 3 39.1 1.24 0
 6 -4 4 11.9 0.8 0
 6 -4 5 176.8 2.56 0
 6 -4 6 59.06 1.6 0
 6 -3 -11 85.62 1.96 0
 6 -3 -10 34.66 1.35 0
 6 -3 -9 47.51 1.47 0
 6 -3 -8 24.31 1.1 0
 6 -3 -7 56.28 1.49 0
 6 -3 -6 25.83 1.07 0
 6 -3 -5 31.63 1.09 0
 6 -3 -4 13.25 0.77 0
 6 -3 -3 6.47 0.66 0
 6 -3 0 0.53 0.39 0
 6 -3 1 4.12 0.54 0
 6 -3 2 62.97 1.49 0
 6 -3 4 12.65 0.83 0
 6 -3 5 32.73 1.19 0
 6 -2 -11 132.31 2.28 0
 6 -2 -10 14.41 0.92 0
 6 -2 -9 4.67 0.6 0
 6 -2 -8 0.1 0.39 0
 6 -2 -7 107.91 1.93 0
 6 -2 -6 0.73 0.44 0
 6 -2 -5 131.39 2.01 0
 6 -2 -4 31.04 1.08 0
 6 -2 -2 4.49 0.55 0
 6 -2 -1 127.35 1.93 0
 6 -2 0 113.55 1.83 0
 6 -2 1 128.55 1.93 0
 6 -2 2 4.37 0.52 0
 6 -2 3 3.69 0.5 0
 6 -2 4 30.68 1.09 0
 6 -1 -10 2.84 0.54 0
 6 -1 -9 15.15 0.81 0
 6 -1 -8 14.22 0.83 0
 6 -1 -7 10.23 0.72 0
 6 -1 -4 26.01 0.9 0
 6 -1 -3 19.75 0.82 0
 6 -1 -2 11.44 0.69 0
 6 -1 2 10.27 0.66 0
 6 0 -9 18.66 0.84 0
 6 0 -8 43.73 1.18 0
 6 0 -7 203.84 2.33 0
 6 0 -6 19.28 0.82 0
 6 0 -5 115.16 1.71 0
 6 1 -7 9.17 0.62 0
 6 1 -2 10.96 0.56 0
 6 1 -1 0.74 0.32 0
 6 1 0 1.07 0.35 0
 6 2 -5 133.26 1.58 0
 6 2 -4 30.7 0.78 0
 6 2 -3 3.56 0.41 0
 6 2 -2 4.29 0.39 0
 6 2 -1 131.41 1.51 0
 6 2 0 117.27 1.44 0
 6 2 1 130.95 1.53 0
 6 2 2 4.05 0.43 0
 6 2 3 2.82 0.37 0
 6 3 2 62.29 0.98 0
 6 3 3 7.1 0.43 0
 6 3 4 14.03 0.57 0
 7 -8 -4 47.91 1.67 0
 7 -8 -3 9.53 1.04 0
 7 -8 -2 1.34 0.7 0
 7 -8 -1 3.12 0.79 0
 7 -8 1 4.02 0.79 0
 7 -8 2 1.44 0.67 0
 7 -8 3 8.68 0.99 0
 7 -8 4 49.17 1.71 0
 7 -8 5 2.54 0.73 0
 7 -7 -9 23.35 1.41 0
 7 -7 -8 28.11 1.45 0
 7 -7 -7 20.66 1.29 0
 7 -7 -6 3.16 0.75 0
 7 -7 -5 6.22 0.85 0
 7 -7 -4 4.99 0.79 0
 7 -7 -2 63.04 1.81 0
 7 -7 -1 -0.21 0.56 0
 7 -7 0 28.07 1.33 0
 7 -7 1 0.19 0.64 0
 7 -7 2 64.83 1.91 0
 7 -7 3 10.11 1 0
 7 -7 4 5.73 0.88 0
 7 -7 6 2.08 0.73 0
 7 -7 8 28.99 1.45 0
 7 -7 9 20.58 1.25 0
 7 -6 -10 56.82 1.88 0
 7 -6 -9 5.4 0.86 0
 7 -6 -8 18.11 1.24 0
 7 -6 -7 0.99 0.67 0
 7 -6 -6 111.25 2.41 0
 7 -6 -5 21.14 1.22 0
 7 -6 -4 8.74 1 0
 7 -6 -3 12.19 1.03 0
 7 -6 -2 54.6 1.67 0
 7 -6 -1 3.77 0.71 0
 7 -6 0 17.82 1.09 0
 7 -6 1 3.2 0.71 0
 7 -6 2 54.37 1.72 0
 7 -6 3 13.85 1.13 0
 7 -6 5 21.41 1.3 0
 7 -6 6 104.82 2.35 0
 7 -6 7 0.27 0.65 0
 7 -6 8 18.97 1.26 0
 7 -6 11 6.57 0.94 0
 7 -5 -10 2.64 0.78 0
 7 -5 -9 13.19 1.03 0
 7 -5 -8 116.18 2.45 0
 7 -5 -7 10.81 0.9 0
 7 -5 -6 18.47 1.16 0
 7 -5 -5 10.11 0.95 0
 7 -5 -4 123.36 2.44 0
 7 -5 -2 20.69 1.08 0
 7 -5 -1 36.66 1.42 0
 7 -5 1 38.47 1.48 0
 7 -5 2 19.14 1.15 0
 7 -5 3 7.9 0.92 0
 7 -5 4 121.99 2.42 0
 7 -5 5 12.28 1.03 0
 7 -5 6 20.77 1.15 0
 7 -5 7 12.74 1.02 0
 7 -5 8 112.97 2.41 0
 7 -5 10 2.02 0.79 0
 7 -5 11 4.57 0.89 0
 7 -4 -11 51.67 1.71 0
 7 -4 -10 49.46 1.7 0
 7 -4 -9 8.31 0.92 0
 7 -4 -8 60.62 1.76 0
 7 -4 -7 32.27 1.37 0
 7 -4 -6 24.82 1.14 0
 7 -4 -5 24.5 1.21 0
 7 -4 -4 80.18 1.89 0
 7 -4 -3 13.44 0.89 0
 7 -4 -2 15.24 1.01 0
 7 -4 -1 15.05 0.95 0
 7 -4 0 190.97 2.87 0
 7 -4 1 13.02 0.96 0
 7 -4 3 13.93 0.91 0
 7 -4 5 22.77 1.21 0
 7 -4 7 31.2 1.29 0
 7 -4 8 61.81 1.76 0
 7 -4 9 8.57 0.98 0
 7 -3 -11 8.9 0.95 0
 7 -3 -10 56.81 1.7 0
 7 -3 -9 134.02 2.49 0
 7 -3 -7 44.05 1.42 0
 7 -3 -6 14.73 0.95 0
 7 -3 -4 13.96 0.95 0
 7 -3 -3 48.23 1.45 0
 7 -3 -2 211.53 2.88 0
 7 -3 -1 1.01 0.47 0
 7 -3 0 6.45 0.77 0
 7 -3 1 1.66 0.51 0
 7 -3 2 202.57 2.84 0
 7 -3 3 42.69 1.41 0
 7 -3 4 14.48 0.96 0
 7 -3 5 41.62 1.42 0
 7 -2 -11 126.95 2.4 0
 7 -2 -10 10.2 0.87 0
 7 -2 -9 4.25 0.66 0
 7 -2 -8 96.75 2.02 0
 7 -2 -7 124.29 2.22 0
 7 -2 -6 42.77 1.35 0
 7 -2 -4 191.2 2.63 0
 7 -2 -2 16.72 0.87 0
 7 -2 -1 63.59 1.53 0
 7 -2 0 7.39 0.69 0
 7 -2 1 62.57 1.54 0
 7 -2 2 15.91 0.85 0
 7 -2 3 22.19 1.06 0
 7 -2 4 182.1 2.61 0
 7 -2 5 96.32 1.96 0
 7 -2 6 41.47 1.41 0
 7 -1 -8 73.67 1.68 0
 7 -1 -7 12.06 0.86 0
 7 -1 -6 90.3 1.81 0
 7 -1 -4 204.41 2.56 0
 7 -1 -3 114.45 1.95 0
 7 -1 -2 88.56 1.73 0
 7 -1 0 368.17 3.39 0
 7 -1 1 39.18 1.19 0
 7 -1 2 86.8 1.7 0
 7 -1 3 115.18 1.99 0
 7 -1 4 196.45 2.55 0
 7 -1 5 44.28 1.33 0
 7 0 -8 3.75 0.6 0
 7 0 -7 65.55 1.49 0
 7 0 -6 59.24 1.37 0
 7 0 -4 20.39 0.85 0
 7 0 -3 0.17 0.39 0
 7 0 -2 810.32 4.73 0
 7 0 1 93.73 1.68 0
 7 0 2 791.38 4.72 0
 7 0 3 0.53 0.38 0
 7 0 4 20.52 0.93 0
 7 0 5 37.43 1.16 0
 7 1 -8 75.25 1.54 0
 7 1 -7 14.58 0.78 0
 7 1 -6 88.21 1.57 0
 7 1 -5 44.27 1.14 0
 7 1 -4 206.71 2.29 0
 7 1 -3 114.83 1.71 0
 7 1 -2 87.76 1.51 0
 7 1 0 369.98 3.05 0
 7 1 1 40.24 1.07 0
 7 1 2 84.45 1.53 0
 7 1 3 120.32 1.84 0
 7 1 4 198.51 2.36 0
 7 1 5 44.58 1.22 0
 7 2 -7 126 1.76 0
 7 2 -6 39.19 1.01 0
 7 2 -5 95.6 1.47 0
 7 2 3 22.13 0.79 0
 7 2 5 91.76 1.56 0
 7 3 0 5.66 0.43 0
 7 3 1 0.47 0.26 0
 7 3 5 46.04 1.04 0
 7 3 6 14.59 0.68 0
 8 -7 -3 20.62 1.35 0
 8 -7 -2 60.9 1.91 0
 8 -7 -1 28.32 1.41 0
 8 -7 0 1.37 0.77 0
 8 -7 1 31.08 1.45 0
 8 -7 2 58.09 1.92 0
 8 -7 3 20.44 1.34 0
 8 -6 -8 -0.16 0.78 0
 8 -6 -7 51.7 1.83 0
 8 -6 -6 11.36 1.15 0
 8 -6 -5 3.46 0.81 0
 8 -6 -4 11.4 1.09 0
 8 -6 -3 56.2 1.83 0
 8 -6 -2 11.96 1.1 0
 8 -6 1 0.73 0.67 0
 8 -6 2 13.39 1.21 0
 8 -6 3 54.17 1.79 0
 8 -6 4 11.64 1.14 0
 8 -6 5 4.91 0.95 0
 8 -6 7 49.8 1.83 0
 8 -6 8 0.29 0.69 0
 8 -5 -10 1.92 0.74 0
 8 -5 -9 26.25 1.4 0
 8 -5 -8 2.24 0.85 0
 8 -5 -6 0.61 0.64 0
 8 -5 -5 159.46 2.88 0
 8 -5 -4 18.9 1.27 0
 8 -5 -3 1.28 0.75 0
 8 -5 -2 2.69 0.77 0
 8 -5 -1 54.12 1.77 0
 8 -5 0 40.61 1.6 0
 8 -5 1 52.14 1.77 0
 8 -5 2 1.93 0.69 0
 8 -5 3 2.03 0.74 0
 8 -5 4 19.29 1.18 0
 8 -5 5 155.44 2.9 0
 8 -5 6 0.3 0.77 0
 8 -5 8 2.87 0.78 0
 8 -5 10 1.25 0.72 0
 8 -4 -11 8.81 1.09 0
 8 -4 -10 19.28 1.23 0
 8 -4 -8 3.4 0.8 0
 8 -4 -7 36.6 1.46 0
 8 -4 -6 12.41 1.08 0
 8 -4 -5 6.39 0.81 0
 8 -4 -3 14.36 1.08 0
 8 -4 -2 17.3 1.13 0
 8 -4 0 57.07 1.73 0
 8 -4 1 21.1 1.13 0
 8 -4 2 18.93 1.18 0
 8 -4 3 13.68 1.1 0
 8 -4 4 32.88 1.38 0
 8 -4 6 15.07 1.13 0
 8 -4 8 3.34 0.83 0
 8 -4 9 109.58 2.48 0
 8 -4 10 19.19 1.34 0
 8 -4 11 9.1 1.11 0
 8 -4 12 0.07 0.69 0
 8 -3 -11 112.33 2.47 0
 8 -3 -9 24.29 1.33 0
 8 -3 -8 44.31 1.54 0
 8 -3 -6 34.05 1.36 0
 8 -3 -5 47.83 1.6 0
 8 -3 -4 50.77 1.58 0
 8 -3 -3 55.32 1.68 0
 8 -3 -2 80.01 1.92 0
 8 -3 -1 141 2.57 0
 8 -3 0 3.96 0.71 0
 8 -3 1 138.55 2.52 0
 8 -3 2 81.66 1.96 0
 8 -3 3 55.13 1.68 0
 8 -3 5 45.65 1.54 0
 8 -3 7 33.4 1.46 0
 8 -3 8 39.65 1.59 0
 8 -3 9 23.47 1.3 0
 8 -3 10 5.27 0.91 0
 8 -2 -10 2.42 0.73 0
 8 -2 -9 15.3 1.02 0
 8 -2 -8 0.33 0.61 0
 8 -2 -7 55.66 1.64 0
 8 -2 -6 68.9 1.75 0
 8 -2 -5 76.35 1.86 0
 8 -2 -4 25.57 1.2 0
 8 -2 -3 35.51 1.28 0
 8 -2 -2 35.64 1.35 0
 8 -2 -1 76.72 1.84 0
 8 -2 0 78.52 1.87 0
 8 -2 1 75.3 1.79 0
 8 -2 2 35.14 1.34 0
 8 -2 3 34.97 1.38 0
 8 -2 4 22.88 1.16 0
 8 -2 5 74.97 1.87 0
 8 -2 6 66.85 1.82 0
 8 -2 7 55.9 1.72 0
 8 -2 8 0.99 0.67 0
 8 -2 9 14.67 1.14 0
 8 -1 -10 45.92 1.57 0
 8 -1 -9 65.2 1.76 0
 8 -1 -8 4.76 0.69 0
 8 -1 -7 117.54 2.19 0
 8 -1 -6 20.2 1.06 0
 8 -1 -5 134.72 2.3 0
 8 -1 -4 47.48 1.44 0
 8 -1 -3 41.65 1.37 0
 8 -1 -2 24.5 1.09 0
 8 -1 0 12.25 0.89 0
 8 -1 1 43.02 1.38 0
 8 -1 3 41.64 1.33 0
 8 -1 4 46.74 1.42 0
 8 -1 5 137.52 2.38 0
 8 -1 6 18.93 1.12 0
 8 -1 7 115.73 2.26 0
 8 -1 8 4.72 0.72 0
 8 0 -9 15.8 1.02 0
 8 0 -8 116.13 2.12 0
 8 0 -6 14.41 0.9 0
 8 0 -5 0.38 0.51 0
 8 0 -4 1.84 0.58 0
 8 0 -3 22.95 1.02 0
 8 0 -2 13.37 0.85 0
 8 0 -1 3.66 0.59 0
 8 0 0 33.54 1.19 0
 8 0 4 2.42 0.54 0
 8 0 5 -0.32 0.43 0
 8 0 6 13.51 0.9 0
 8 0 7 80.38 1.85 0
 8 1 -8 4.83 0.62 0
 8 1 -7 121.39 2 0
 8 1 -6 20.51 0.92 0
 8 1 -5 135.42 2.06 0
 8 1 -4 46.43 1.22 0
 8 1 -3 41.44 1.17 0
 8 1 -2 27.51 1.01 0
 8 1 -1 44.02 1.2 0
 8 1 0 12.4 0.76 0
 8 1 1 43.23 1.23 0
 8 1 3 41.34 1.21 0
 8 1 4 46.82 1.31 0
 8 1 5 133.4 2.13 0
 8 1 6 20.05 0.98 0
 8 1 7 116.05 2.06 0
 8 1 8 5.04 0.74 0
 8 2 -6 69.08 1.41 0
 8 2 -5 74.68 1.42 0
 8 2 -4 23.63 0.85 0
 8 2 -3 36.47 1.01 0
 8 2 -1 77.53 1.42 0
 8 2 0 79.49 1.46 0
 8 2 1 78.84 1.48 0
 8 2 3 37.9 1.07 0
 8 2 5 74.52 1.55 0
 8 2 7 54.83 1.37 0
 8 2 8 -0.57 0.4 0
 9 -5 -5 18.68 1.27 0
 9 -5 -4 6.06 0.92 0
 9 -5 -3 6.82 0.98 0
 9 -5 -2 39.41 1.67 0
 9 -5 -1 36.86 1.62 0
 9 -5 0 0.61 0.66 0
 9 -5 1 33.27 1.59 0
 9 -5 2 38.26 1.59 0
 9 -5 3 7.09 1.06 0
 9 -5 4 4.83 0.92 0
 9 -5 5 15.19 1.27 0
 9 -5 6 27.11 1.53 0
 9 -4 -8 84.81 2.21 0
 9 -4 -7 5.92 0.89 0
 9 -4 -6 38.6 1.58 0
 9 -4 -5 15.81 1.21 0
 9 -4 -4 59.47 1.9 0
 9 -4 -3 28.1 1.45 0
 9 -4 -2 12.5 1.14 0
 9 -4 -1 17.13 1.24 0
 9 -4 0 27.28 1.39 0
 9 -4 2 13.13 1.19 0
 9 -4 3 29.25 1.4 0
 9 -4 4 57.93 1.92 0
 9 -4 5 16.48 1.29 0
 9 -4 7 7 1.06 0
 9 -3 -9 6.75 0.93 0
 9 -3 -7 6.28 0.95 0
 9 -3 -6 9.35 1.03 0
 9 -3 -5 0.55 0.59 0
 9 -3 -4 117.48 2.47 0
 9 -3 -3 14.06 1.15 0
 9 -3 -2 24.8 1.34 0
 9 -3 -1 15.16 1.16 0
 9 -3 0 90.46 2.21 0
 9 -3 1 14.08 1.16 0
 9 -3 2 23.56 1.33 0
 9 -3 4 117.94 2.55 0
 9 -3 5 -0.16 0.65 0
 9 -3 6 8.23 1 0
 9 -3 7 9.91 1.11 0
 9 -3 8 52.77 1.86 0
 9 -3 9 6.55 0.94 0
 9 -3 10 32.65 1.62 0
 9 -2 -9 39.59 1.51 0
 9 -2 -8 0.91 0.67 0
 9 -2 -7 13.72 0.99 0
 9 -2 -6 65.7 1.86 0
 9 -2 -5 12.05 1 0
 9 -2 -4 54.42 1.69 0
 9 -2 -3 4.05 0.77 0
 9 -2 -2 130.4 2.48 0
 9 -2 -1 20.48 1.17 0
 9 -2 0 88.65 2.1 0
 9 -2 1 19.38 1.2 0
 9 -2 2 136.81 2.6 0
 9 -2 3 3.36 0.71 0
 9 -2 4 53.86 1.74 0
 9 -2 5 13.05 1 0
 9 -2 6 62.13 1.88 0
 9 -2 7 12.45 1.12 0
 9 -2 8 2.2 0.72 0
 9 -2 10 16.59 1.27 0
 9 -2 11 16.51 1.27 0
 9 -1 -9 21.84 1.23 0
 9 -1 -8 10.24 0.89 0
 9 -1 -7 18.03 1.13 0
 9 -1 -6 10.7 0.93 0
 9 -1 -4 4.6 0.74 0
 9 -1 -3 1.68 0.57 0
 9 -1 -2 60.76 1.69 0
 9 -1 -1 3.54 0.69 0
 9 -1 0 0.21 0.52 0
 9 -1 1 4.05 0.72 0
 9 -1 3 1.93 0.67 0
 9 -1 4 4.57 0.72 0
 9 -1 5 35.31 1.44 0
 9 -1 6 10.85 0.93 0
 9 -1 7 18.01 1.16 0
 9 -1 8 9.14 1.01 0
 9 -1 9 21.76 1.19 0
 9 -1 10 35.05 1.52 0
 9 -1 11 50.3 1.71 0
 9 0 -9 23.99 1.19 0
 9 0 -6 1.84 0.58 0
 9 0 -5 2.05 0.66 0
 9 0 -4 23.66 1.09 0
 9 0 -3 73.63 1.71 0
 9 0 -2 60.45 1.59 0
 9 0 -1 9.12 0.82 0
 9 0 0 -0.15 0.47 0
 9 0 1 7.29 0.79 0
 9 0 2 59.62 1.63 0
 9 0 3 72.12 1.77 0
 9 0 4 22.15 1.14 0
 9 0 5 2.4 0.68 0
 9 0 6 1.62 0.58 0
 9 0 7 55.18 1.66 0
 9 0 9 23.07 1.24 0
 9 0 10 12.2 1 0
 9 0 11 1.27 0.75 0
 9 0 12 34.78 1.52 0
 9 1 -7 17.53 0.95 0
 9 1 -6 10.99 0.81 0
 9 1 -4 5.44 0.69 0
 9 1 -3 2.55 0.6 0
 9 1 -2 57.01 1.43 0
 9 1 -1 3.67 0.6 0
 9 1 0 0.2 0.43 0
 9 1 1 3.34 0.58 0
 9 1 2 58.22 1.5 0
 9 1 3 1.61 0.52 0
 9 1 5 34.59 1.23 0
 9 1 6 12.11 0.92 0
 9 1 7 18.26 1.02 0
 9 1 8 9.81 0.92 0
 9 1 9 21.94 1.16 0
 9 1 10 34.71 1.37 0
 9 1 11 52.11 1.59 0
 9 1 12 11.15 1.02 0
 10 -3 -4 15.79 1.23 0
 10 -3 -3 90.35 2.26 0
 10 -3 -2 30.67 1.48 0
 10 -3 -1 61.78 1.94 0
 10 -3 0 2.38 0.78 0
 10 -3 1 59.18 1.91 0
 10 -3 2 32.62 1.55 0
 10 -3 3 86.28 2.27 0
 10 -3 4 15.49 1.22 0
 10 -2 -6 19.44 1.23 0
 10 -2 -5 55.16 1.78 0
 10 -2 -4 4.28 0.83 0
 10 -2 -3 5.75 0.88 0
 10 -2 -2 3.03 0.76 0
 10 -2 -1 76.1 2.04 0
 10 -2 0 56.16 1.81 0
 10 -2 1 76.2 2.06 0
 10 -2 2 1.94 0.68 0
 10 -2 3 7.26 1.04 0
 10 -2 4 3.84 0.8 0
 10 -2 5 50.94 1.74 0
 10 -2 6 18.13 1.24 0
 10 -1 -7 39.92 1.51 0
 10 -1 -6 48.66 1.59 0
 10 -1 -5 33.65 1.39 0
 10 -1 -4 27.34 1.31 0
 10 -1 -3 20.73 1.18 0
 10 -1 -2 2.42 0.65 0
 10 -1 -1 30.46 1.27 0
 10 -1 0 2.75 0.68 0
 10 -1 1 29.24 1.3 0
 10 -1 2 1.9 0.67 0
 10 -1 3 24.42 1.32 0
 10 -1 4 24.84 1.26 0
 10 -1 5 40.04 1.57 0
 10 -1 6 47.67 1.69 0
 10 -1 7 35.83 1.53 0
 10 0 -7 58.32 1.65 0
 10 0 -6 41.22 1.41 0
 10 0 -5 34.91 1.33 0
 10 0 -4 30.34 1.24 0
 10 0 -3 57.43 1.62 0
 10 0 -2 22.55 1.1 0
 10 0 -1 0.78 0.57 0
 10 0 0 3.24 0.7 0
 10 0 1 -0.6 0.54 0
 10 0 2 23.67 1.19 0
 10 0 3 59.55 1.7 0
 10 0 4 31.07 1.3 0
 10 0 5 31.75 1.36 0
 10 0 6 40.68 1.46 0
 10 0 7 53.89 1.67 0
 10 0 8 66.51 1.82 0
 10 1 2 2.77 0.59 0
 10 1 3 20.61 1.06 0
 10 1 4 24.38 1.12 0
 10 1 5 36.87 1.34 0
 10 1 6 44.19 1.44 0
 -5 3 2 48.31 0.59 0
 -5 8 -1 19.92 1.14 0
 -4 3 3 118.46 1.04 0
 -4 3 4 35.29 0.52 0
 -4 4 3 142.39 1.49 0
 -4 4 4 53.43 0.91 0
 -4 4 6 81.41 1.04 0
 -4 5 2 54.08 1.15 0
 -4 5 3 43.55 1.03 0
 -4 5 4 24.55 0.81 0
 -4 5 5 9.34 0.54 0
 -4 5 6 36.61 0.9 0
 -4 6 4 3.07 0.47 0
 -4 7 1 76.26 1.77 0
 -4 7 2 12.55 0.9 0
 -4 7 3 32.24 1.21 0
 -4 8 0 4.61 0.84 0
 -4 8 1 13.74 1.03 0
 -4 8 2 17.27 1.13 0
 -4 9 -2 2.24 0.73 0
 -4 9 -1 0.42 0.67 0
 -4 9 0 60.62 1.97 0
 -4 9 1 0.46 0.72 0
 -4 10 -4 12.63 1.33 0
 -4 10 -3 8.52 1.04 0
 -4 10 -2 15.67 1.34 0
 -4 10 -1 3.5 0.85 0
 -3 2 3 736.4 1.98 0
 -3 3 3 281.17 1.8 0
 -3 3 5 325.3 1.92 0
 -3 3 6 5.32 0.36 0
 -3 3 7 409.65 2.31 0
 -3 3 8 64.67 1 0
 -3 4 3 698.26 3.49 0
 -3 4 5 157.19 1.7 0
 -3 4 6 6.97 0.46 0
 -3 4 7 79.44 1.25 0
 -3 4 8 125.03 1.57 0
 -3 4 9 36.88 0.93 0
 -3 5 4 1.3 0.44 0
 -3 5 5 94.13 1.58 0
 -3 5 7 85.15 1.49 0
 -3 5 9 13.23 0.72 0
 -3 5 10 56.61 1.3 0
 -3 6 10 0.69 0.48 0
 -3 7 1 154.3 2.55 0
 -3 7 3 18.13 1.02 0
 -3 7 4 34.73 1.31 0
 -3 7 5 126.27 2.3 0
 -3 7 6 41.99 1.38 0
 -3 7 7 14.01 0.92 0
 -3 7 8 38.71 1.36 0
 -3 7 9 8.63 0.81 0
 -3 8 1 3.76 0.81 0
 -3 8 2 10.24 1.03 0
 -3 8 4 46.49 1.64 0
 -3 8 5 15.85 1.12 0
 -3 8 7 27.61 1.31 0
 -3 8 8 22.88 1.25 0
 -3 9 -1 26.37 1.48 0
 -3 9 0 15.11 1.27 0
 -3 9 1 25.06 1.43 0
 -3 9 3 0.47 0.64 0
 -3 9 4 9.1 1.02 0
 -3 9 5 21.31 1.31 0
 -3 10 -4 14.4 1.44 0
 -3 10 -3 2.19 0.85 0
 -3 10 -2 11.58 1.42 0
 -3 10 -1 -0.63 0.81 0
 -3 10 1 0.52 0.75 0
 -3 10 2 14.82 1.35 0
 -3 10 3 3.03 0.81 0
 -3 10 4 12.26 1.2 0
 -2 2 3 192.65 1.26 0
 -2 2 4 150.87 1.13 0
 -2 2 5 11.54 0.39 0
 -2 2 6 478.81 2.31 0
 -2 2 7 216.49 1.71 0
 -2 3 3 429.18 2.4 0
 -2 3 4 109.18 1.26 0
 -2 3 5 489.33 2.66 0
 -2 3 6 1023.78 4 0
 -2 3 8 136.2 1.66 0
 -2 4 3 127.4 1.6 0
 -2 4 4 314.77 2.56 0
 -2 4 5 219.3 2.15 0
 -2 4 6 42.12 0.99 0
 -2 4 7 285.39 2.58 0
 -2 4 8 240.85 2.44 0
 -2 4 9 10.47 0.66 0
 -2 4 10 59.57 1.35 0
 -2 4 11 24.3 0.97 0
 -2 5 3 376.32 3.18 0
 -2 5 5 63.81 1.4 0
 -2 5 7 20.71 0.88 0
 -2 5 8 38.07 1.15 0
 -2 5 12 153.43 2.42 0
 -2 6 9 10.25 0.79 0
 -2 6 10 124.03 2.3 0
 -2 6 12 32.96 1.33 0
 -2 6 13 12.84 1 0
 -2 7 1 2.86 0.59 0
 -2 7 2 43.42 1.5 0
 -2 7 3 29.78 1.3 0
 -2 7 4 12.56 0.99 0
 -2 7 5 58.36 1.71 0
 -2 7 6 254.49 3.4 0
 -2 7 7 2.71 0.71 0
 -2 7 8 23.54 1.22 0
 -2 7 10 171.64 2.91 0
 -2 7 11 15.35 1.11 0
 -2 7 12 55.78 1.76 0
 -2 8 0 -0.04 0.68 0
 -2 8 1 2.3 0.74 0
 -2 8 2 31.06 1.47 0
 -2 8 4 153.94 2.94 0
 -2 8 5 1.6 0.69 0
 -2 8 8 190.88 3.24 0
 -2 8 9 2.78 0.8 0
 -2 8 10 21.5 1.32 0
 -2 8 11 5.86 0.85 0
 -2 9 -2 2.72 0.83 0
 -2 9 -1 2.72 0.85 0
 -2 9 0 105.87 2.69 0
 -2 9 2 2.89 0.85 0
 -2 9 3 0.91 0.75 0
 -2 9 4 90.35 2.43 0
 -2 9 5 32.29 1.57 0
 -2 9 6 10.07 1.22 0
 -2 9 7 12.98 1.19 0
 -2 9 8 5.86 1 0
 -2 9 9 54.01 1.91 0
 -2 10 -4 14.98 1.47 0
 -2 10 -3 15.08 1.32 0
 -2 10 -2 42.69 2.05 0
 -2 10 -1 4.05 1.02 0
 -2 10 0 43.38 2 0
 -2 10 2 44.64 2.02 0
 -2 10 3 16.4 1.35 0
 -2 10 5 4.9 0.94 0
 -2 10 6 2.89 0.83 0
 -1 1 2 198.75 0.93 0
 -1 1 4 277.66 1.44 0
 -1 1 5 787.05 2.74 0
 -1 2 2 517.92 2.13 0
 -1 2 3 958.04 3.12 0
 -1 2 4 285.38 1.78 0
 -1 2 5 751.08 3.07 0
 -1 2 6 31.88 0.74 0
 -1 2 7 170.22 1.71 0
 -1 2 8 7.23 0.53 0
 -1 3 3 739.94 3.36 0
 -1 3 4 143.44 1.58 0
 -1 3 5 42.55 0.92 0
 -1 3 6 104.19 1.45 0
 -1 3 7 270.66 2.4 0
 -1 3 8 67.41 1.31 0
 -1 3 9 617.21 3.95 0
 -1 4 3 241.82 2.32 0
 -1 4 4 23.89 0.86 0
 -1 4 5 85.29 1.45 0
 -1 4 7 417.1 3.33 0
 -1 4 9 5.63 0.64 0
 -1 5 2 140.08 1.99 0
 -1 5 3 578.87 4.07 0
 -1 5 4 8.6 0.71 0
 -1 5 6 101.02 1.84 0
 -1 5 11 84.91 1.9 0
 -1 5 12 29.94 1.23 0
 -1 5 13 24.93 1.26 0
 -1 6 6 15.61 0.97 0
 -1 6 7 74.11 1.76 0
 -1 6 8 75.45 1.84 0
 -1 6 9 1.57 0.58 0
 -1 6 10 1.63 0.6 0
 -1 6 11 24.7 1.19 0
 -1 6 12 18.79 1.22 0
 -1 6 13 152.14 2.84 0
 -1 6 14 38.32 1.65 0
 -1 7 1 72.91 1.92 0
 -1 7 2 23.08 1.19 0
 -1 7 3 42.86 1.53 0
 -1 7 5 75.62 2.01 0
 -1 7 6 55.71 1.71 0
 -1 7 8 0.24 0.67 0
 -1 7 9 105.03 2.38 0
 -1 7 10 29.38 1.41 0
 -1 7 13 35.76 1.64 0
 -1 7 14 24.74 1.46 0
 -1 8 0 36.73 1.59 0
 -1 8 1 39.35 1.63 0
 -1 8 2 101.75 2.44 0
 -1 8 4 39.36 1.64 0
 -1 8 5 71.02 2.12 0
 -1 8 6 2.8 0.83 0
 -1 8 7 24.51 1.41 0
 -1 8 8 5.54 0.88 0
 -1 8 10 4.82 0.97 0
 -1 8 11 3.47 0.84 0
 -1 8 12 15.57 1.32 0
 -1 8 13 28.84 1.59 0
 -1 8 14 3.22 0.86 0
 -1 9 -2 27.85 1.6 0
 -1 9 -1 10.62 1.3 0
 -1 9 3 11.61 1.31 0
 -1 9 4 5.66 0.97 0
 -1 9 5 5.16 0.97 0
 -1 9 6 14.4 1.32 0
 -1 9 8 20.28 1.5 0
 -1 9 9 27.35 1.62 0
 -1 9 11 30.94 1.68 0
 -1 10 -4 11.12 1.33 0
 -1 10 -3 13.98 1.33 0
 -1 10 -2 8.09 1.3 0
 -1 10 -1 40.94 1.92 0
 -1 10 0 1.57 0.87 0
 -1 10 1 39.02 1.99 0
 -1 10 3 17.49 1.41 0
 -1 10 5 6.14 1.04 0
 -1 10 6 35.36 1.85 0
 -1 10 7 5.8 1.02 0
 -1 10 8 1.26 0.91 0
 0 1 1 523.25 1.63 0
 0 1 2 9985.99 7.88 0
 0 1 3 133.91 1.06 0
 0 1 4 3142.67 5.57 0
 0 1 5 628.26 2.8 0
 0 1 6 101.35 1.27 0
 0 2 2 3255.71 5.97 0
 0 2 3 1397.81 4.14 0
 0 2 4 85.62 1.15 0
 0 2 5 179.94 1.7 0
 0 2 6 3714.37 8 0
 0 2 7 461.19 3.05 0
 0 2 8 2.15 0.41 0
 0 2 9 403.85 3.21 0
 0 3 2 0.68 0.28 0
 0 3 3 104.16 1.4 0
 0 3 4 776.05 3.82 0
 0 3 5 319.72 2.52 0
 0 3 6 72.75 1.3 0
 0 3 7 411.17 3.16 0
 0 3 8 122.76 1.82 0
 0 3 9 151.93 2.13 0
 0 3 10 46.93 1.28 0
 0 4 2 48.93 1.12 0
 0 4 3 1.13 0.37 0
 0 4 4 58.58 1.26 0
 0 4 6 183.42 2.28 0
 0 4 7 142.74 2.11 0
 0 4 8 220.56 2.69 0
 0 4 11 15.16 0.95 0
 0 4 12 324.84 3.71 0
 0 5 3 354.24 3.34 0
 0 5 4 80.36 1.7 0
 0 5 5 107.15 1.96 0
 0 5 9 35.12 1.34 0
 0 5 10 63.57 1.73 0
 0 5 11 36.06 1.37 0
 0 5 12 2.09 0.66 0
 0 6 6 101.42 2.11 0
 0 6 7 100.02 2.15 0
 0 6 8 54.65 1.69 0
 0 6 9 2.28 0.64 0
 0 6 10 109.62 2.41 0
 0 6 11 -0.07 0.55 0
 0 6 13 28.09 1.52 0
 0 6 14 9.22 1.1 0
 0 7 0 0.01 0.45 0
 0 7 1 0.94 0.5 0
 0 7 3 18.92 1.12 0
 0 7 4 11.79 1.04 0
 0 7 5 69.13 1.97 0
 0 7 6 20.37 1.14 0
 0 7 7 4.19 0.82 0
 0 7 8 45.72 1.7 0
 0 7 9 46.09 1.71 0
 0 7 10 100.96 2.5 0
 0 7 11 47.38 1.87 0
 0 7 13 -0.24 0.68 0
 0 7 14 17.9 1.31 0
 0 8 -1 1.53 0.69 0
 0 8 0 2.72 0.73 0
 0 8 1 1.58 0.71 0
 0 8 2 44.77 1.75 0
 0 8 5 6.58 0.97 0
 0 8 6 127.74 2.82 0
 0 8 7 29.13 1.55 0
 0 8 8 2.77 0.84 0
 0 8 9 62.31 2.15 0
 0 8 11 19.98 1.48 0
 0 8 12 9.44 1.18 0
 0 8 13 52.93 2.1 0
 0 8 14 -0.64 0.75 0
 0 9 -3 0.69 0.75 0
 0 9 -2 19.05 1.5 0
 0 9 -1 0.31 0.73 0
 0 9 0 1.12 0.78 0
 0 9 1 0.73 0.76 0
 0 9 2 18 1.45 0
 0 9 3 0.65 0.9 0
 0 9 5 1.09 0.95 0
 0 9 6 7.51 1.09 0
 0 9 7 2.54 0.88 0
 0 9 8 127.8 3.11 0
 0 9 10 21.85 1.57 0
 0 9 12 8.35 1.17 0
 0 9 13 5.17 1.16 0
 0 10 -5 14.8 1.56 0
 0 10 -4 104.54 3.03 0
 0 10 -3 0.74 0.87 0
 0 10 -1 2.57 1.11 0
 0 10 0 243.45 4.51 0
 0 10 1 4.08 1.03 0
 0 10 2 9.07 1.24 0
 0 10 3 0.38 0.84 0
 0 10 5 13.84 1.5 0
 0 10 6 20.64 1.62 0
 0 10 7 1.98 0.93 0
 0 10 8 4.81 1.2 0
 0 10 9 14.66 1.5 0
 1 0 1 1391.2 2.46 0
 1 1 0 133.35 0.92 0
 1 1 1 246.08 1.36 0
 1 1 2 202.62 1.34 0
 1 1 3 2087.74 4.71 0
 1 1 4 290.5 1.97 0
 1 1 6 37.35 0.91 0
 1 2 1 124.74 1.26 0
 1 2 2 517.33 2.64 0
 1 2 3 955.11 3.71 0
 1 2 4 296.4 2.22 0
 1 2 8 6.94 0.55 0
 1 2 9 463.33 3.69 0
 1 3 1 610.63 3.26 0
 1 3 2 89.8 1.35 0
 1 3 3 766.99 3.96 0
 1 3 4 141.02 1.76 0
 1 3 6 105.06 1.69 0
 1 3 7 269.01 2.74 0
 1 3 9 604.68 4.44 0
 1 4 1 248.41 2.46 0
 1 4 2 51.92 1.2 0
 1 4 3 241.21 2.57 0
 1 4 5 85.37 1.62 0
 1 4 6 62.18 1.44 0
 1 4 7 424.82 3.76 0
 1 4 10 47.17 1.49 0
 1 4 11 396.37 4.2 0
 1 4 12 80.48 1.99 0
 1 4 13 56.66 1.79 0
 1 5 1 210.05 2.64 0
 1 5 2 135.11 2.13 0
 1 5 3 575.94 4.44 0
 1 5 8 1.34 0.52 0
 1 5 9 84.41 2.02 0
 1 5 10 18.13 1.15 0
 1 5 11 85.52 2.1 0
 1 5 12 28.21 1.35 0
 1 5 14 14.56 1.21 0
 1 6 2 129.92 2.37 0
 1 6 3 101.79 2.19 0
 1 6 4 113.7 2.27 0
 1 6 5 156.99 2.73 0
 1 6 6 15.93 1 0
 1 6 7 75.7 1.97 0
 1 6 8 75.4 2 0
 1 6 9 2.51 0.67 0
 1 6 10 1.77 0.68 0
 1 6 11 26.48 1.48 0
 1 6 12 20.31 1.4 0
 1 6 14 36.75 1.76 0
 1 7 -1 74.7 1.95 0
 1 7 0 252.47 3.57 0
 1 7 1 74.53 2.01 0
 1 7 5 75.59 2.06 0
 1 7 7 26.26 1.34 0
 1 7 8 -0.28 0.61 0
 1 7 9 106.41 2.58 0
 1 7 10 29.49 1.51 0
 1 7 11 28.01 1.5 0
 1 7 12 -0.05 0.72 0
 1 7 13 33.79 1.79 0
 1 7 14 25.37 1.7 0
 1 7 15 13.67 1.45 0
 1 8 1 42.09 1.77 0
 1 8 2 98.79 2.62 0
 1 8 3 0.48 0.66 0
 1 8 4 37.67 1.73 0
 1 8 6 2.3 0.79 0
 1 8 7 25.24 1.56 0
 1 8 8 5.75 1.04 0
 1 8 9 67.94 2.31 0
 1 8 10 4.55 0.98 0
 1 8 11 5.12 1.14 0
 1 8 12 17.52 1.55 0
 1 8 13 27.98 1.73 0
 1 8 14 4.21 1.03 0
 1 8 15 23.23 1.73 0
 1 9 -4 4.49 0.99 0
 1 9 -3 11.6 1.43 0
 1 9 -1 10.53 1.21 0
 1 9 2 27.43 1.72 0
 1 9 3 13.42 1.4 0
 1 9 4 3.91 0.94 0
 1 9 5 6.17 1.08 0
 1 9 6 15.44 1.48 0
 1 9 7 36.44 1.84 0
 1 9 9 28.08 1.74 0
 1 9 10 4.56 1.16 0
 1 9 11 32.23 1.89 0
 1 9 12 3.61 1.01 0
 1 10 -6 33.6 2.01 0
 1 10 -5 7.83 1.34 0
 1 10 -4 10.11 1.38 0
 1 10 -3 18.79 1.62 0
 1 10 -2 9.39 1.41 0
 1 10 -1 37.33 1.94 0
 1 10 0 1.33 1.09 0
 1 10 2 7.84 1.23 0
 1 10 4 9.9 1.28 0
 1 10 5 7.16 1.18 0
 1 10 6 37.02 1.9 0
 1 10 7 7.23 1.21 0
 1 10 8 1.71 1.07 0
 1 10 9 6.55 1.17 0
 2 1 -1 108.41 0.91 0
 2 1 0 5861.47 6.92 0
 2 1 2 1093.75 3.54 0
 2 1 3 350.96 2.21 0
 2 1 4 1960.57 5.54 0
 2 1 5 32.71 0.87 0
 2 1 6 381.08 2.84 0
 2 2 0 5.57 0.43 0
 2 2 1 557.3 2.87 0
 2 2 2 1966.57 5.5 0
 2 2 3 199.28 1.9 0
 2 2 4 161.14 1.82 0
 2 2 6 485.51 3.41 0
 2 2 7 213.36 2.41 0
 2 2 8 240.74 2.71 0
 2 2 9 200.11 2.57 0
 2 3 0 0.14 0.31 0
 2 3 1 333.66 2.63 0
 2 3 2 447.81 3.11 0
 2 3 3 423.96 3.1 0
 2 3 4 113.18 1.71 0
 2 3 6 1031.32 5.39 0
 2 3 7 13.1 0.75 0
 2 3 8 130.26 2.17 0
 2 3 11 55.79 1.64 0
 2 4 0 25.25 0.88 0
 2 4 1 419.27 3.37 0
 2 4 2 11.01 0.67 0
 2 4 3 128.82 2 0
 2 4 4 308.6 3.07 0
 2 4 5 222.8 2.7 0
 2 4 10 59.3 1.7 0
 2 4 11 26.42 1.25 0
 2 5 7 20.03 1.04 0
 2 5 8 35.53 1.37 0
 2 5 9 44.41 1.57 0
 2 5 10 0.65 0.56 0
 2 5 11 17.59 1.15 0
 2 5 12 159.09 3.07 0
 2 5 13 0.67 0.84 0
 2 6 -1 164.88 2.69 0
 2 6 0 11.76 0.95 0
 2 6 2 251.53 3.42 0
 2 6 3 4.28 0.75 0
 2 6 4 2.45 0.6 0
 2 6 6 15.15 1.01 0
 2 6 7 20.71 1.15 0
 2 6 8 52.64 1.76 0
 2 6 9 9.5 0.93 0
 2 6 11 4.27 0.96 0
 2 6 12 32.56 1.68 0
 2 6 13 13.19 1.21 0
 2 6 14 106.14 2.87 0
 2 7 -2 43.11 1.62 0
 2 7 0 20.06 1.16 0
 2 7 1 3.34 0.73 0
 2 7 2 44.09 1.64 0
 2 7 4 14.67 1.16 0
 2 7 5 57.96 1.88 0
 2 7 7 3.94 0.87 0
 2 7 8 25.33 1.48 0
 2 7 9 23.99 1.42 0
 2 7 10 172.44 3.54 0
 2 7 12 58.53 2.18 0
 2 7 13 5.22 1.15 0
 2 7 15 14.8 1.59 0
 2 8 -4 157.06 3.18 0
 2 8 -3 22.24 1.43 0
 2 8 -1 2.75 0.79 0
 2 8 0 -0.07 0.66 0
 2 8 1 2.67 0.81 0
 2 8 2 32.9 1.59 0
 2 8 4 156.55 3.32 0
 2 8 5 2.07 0.76 0
 2 8 6 44.16 1.94 0
 2 8 7 23.21 1.45 0
 2 8 8 189.24 3.81 0
 2 8 9 2.28 0.88 0
 2 8 10 23.43 1.69 0
 2 8 12 26.71 1.81 0
 2 8 13 2.06 0.96 0
 2 8 14 20.73 1.74 0
 2 9 -6 8.43 1.17 0
 2 9 -5 34.37 1.81 0
 2 9 -4 88.95 2.68 0
 2 9 -3 1.38 0.92 0
 2 9 -2 1.75 0.84 0
 2 9 0 105.59 2.88 0
 2 9 1 2.77 0.98 0
 2 9 2 2.11 1.04 0
 2 9 4 90.74 2.75 0
 2 9 5 32.64 1.84 0
 2 9 6 9.06 1.19 0
 2 9 7 11.85 1.37 0
 2 9 8 7.11 1.23 0
 2 9 9 55.71 2.33 0
 2 9 10 4.46 1.08 0
 2 9 11 14.67 1.62 0
 2 9 12 14.66 1.57 0
 2 10 -7 32.5 2 0
 2 10 -6 2.5 1 0
 2 10 -5 5.6 1.14 0
 2 10 -4 14.22 1.55 0
 2 10 -3 16.38 1.62 0
 2 10 -2 44.38 2.17 0
 2 10 -1 4.54 1.11 0
 2 10 0 45.11 2.27 0
 2 10 1 3.33 1.03 0
 2 10 2 44.12 2.2 0
 2 10 3 13.76 1.56 0
 2 10 5 3.74 1.06 0
 2 10 6 1.88 0.99 0
 2 10 7 30.49 1.88 0
 2 10 8 4.61 1.16 0
 3 1 1 511.17 2.51 0
 3 1 2 386.79 2.36 0
 3 1 3 152.29 1.62 0
 3 1 4 158.61 1.77 0
 3 1 5 42.96 1.01 0
 3 1 6 222.4 2.37 0
 3 2 -2 651.6 2.98 0
 3 2 -1 226.45 1.85 0
 3 2 0 223.68 1.9 0
 3 2 1 225.92 1.96 0
 3 2 2 643.82 3.43 0
 3 2 3 772.09 3.96 0
 3 2 4 108.59 1.63 0
 3 2 5 416.14 3.22 0
 3 2 6 149.42 2.07 0
 3 3 -1 399.21 2.89 0
 3 3 0 344.76 2.78 0
 3 3 2 25.31 0.83 0
 3 3 3 276.62 2.65 0
 3 3 4 21.22 0.84 0
 3 3 5 343.14 3.21 0
 3 3 9 43.02 1.39 0
 3 3 10 16.41 1.08 0
 3 3 11 110.67 2.38 0
 3 4 -2 46.25 1.19 0
 3 4 -1 361.19 3.17 0
 3 4 0 11.7 0.68 0
 3 4 1 365.58 3.32 0
 3 4 3 710.06 4.73 0
 3 4 8 128.22 2.44 0
 3 4 9 38.58 1.47 0
 3 4 10 20.43 1.21 0
 3 4 11 40.89 1.61 0
 3 4 12 50.99 1.85 0
 3 5 4 1.39 0.49 0
 3 5 5 95.61 2.09 0
 3 5 6 57.93 1.72 0
 3 5 7 86.41 2.11 0
 3 5 8 23.08 1.21 0
 3 5 10 57.72 1.95 0
 3 5 11 39.43 1.65 0
 3 5 12 34.88 1.73 0
 3 5 13 23.63 1.42 0
 3 6 -3 267.78 3.45 0
 3 6 -2 26.69 1.25 0
 3 6 -1 115.74 2.35 0
 3 6 0 9.29 0.9 0
 3 6 1 115.53 2.37 0
 3 6 2 26.84 1.29 0
 3 6 3 270.13 3.67 0
 3 6 5 10.15 0.86 0
 3 6 6 27.02 1.38 0
 3 6 7 74.37 2.13 0
 3 6 8 26.67 1.39 0
 3 6 9 29.06 1.55 0
 3 6 10 1.44 0.74 0
 3 6 11 5.22 1.02 0
 3 6 12 26.2 1.58 0
 3 6 14 45.86 2.03 0
 3 7 -4 33.75 1.51 0
 3 7 -2 35.51 1.52 0
 3 7 0 9.39 0.92 0
 3 7 1 148.58 2.97 0
 3 7 2 37.49 1.65 0
 3 7 4 36.71 1.6 0
 3 7 6 43.59 1.76 0
 3 7 7 14.68 1.32 0
 3 7 8 42.73 1.81 0
 3 7 9 7.35 1.18 0
 3 7 10 5.68 1.01 0
 3 7 11 5.35 1.09 0
 3 7 13 19.81 1.56 0
 3 7 14 42.66 2.18 0
 3 8 -6 40.62 1.84 0
 3 8 -5 17.11 1.34 0
 3 8 -4 44.75 1.82 0
 3 8 -3 44.1 1.89 0
 3 8 -2 11.36 1.21 0
 3 8 -1 4.55 1.02 0
 3 8 0 84.4 2.47 0
 3 8 1 4.29 0.9 0
 3 8 3 40.96 1.8 0
 3 8 4 43.29 1.91 0
 3 8 5 17.27 1.45 0
 3 8 6 39.53 1.93 0
 3 8 7 28.93 1.72 0
 3 8 8 23.91 1.58 0
 3 8 9 52.28 2.23 0
 3 8 10 68.39 2.51 0
 3 8 12 63.89 2.5 0
 3 8 13 31.27 2.03 0
 3 9 -10 42.54 2.06 0
 3 9 -9 3.9 1.11 0
 3 9 -7 10.66 1.33 0
 3 9 -6 28.19 1.65 0
 3 9 -5 22.46 1.6 0
 3 9 -4 7.63 1.14 0
 3 9 -2 70.86 2.43 0
 3 9 -1 25.72 1.78 0
 3 9 0 16.48 1.35 0
 3 9 3 1.27 0.85 0
 3 9 4 11.46 1.39 0
 3 9 5 19.36 1.56 0
 3 9 7 12.71 1.56 0
 3 9 8 76.92 2.63 0
 3 9 9 3.17 1.07 0
 3 9 10 43.78 2.21 0
 3 9 11 12.99 1.58 0
 3 10 -6 44.14 2.23 0
 3 10 -3 1.64 1.06 0
 3 10 -1 -0.49 0.85 0
 3 10 0 8.67 1.28 0
 3 10 1 -0.42 1.05 0
 3 10 2 12.82 1.37 0
 3 10 3 1.41 1.15 0
 4 1 0 533.09 2.58 0
 4 1 1 420.08 2.5 0
 4 1 2 43.82 0.94 0
 4 1 3 37.5 0.92 0
 4 1 4 183 2.07 0
 4 2 -3 224.9 1.85 0
 4 2 -1 164.23 1.65 0
 4 2 0 85.19 1.27 0
 4 2 1 170.6 1.84 0
 4 2 2 212.73 2.16 0
 4 2 5 93.91 1.72 0
 4 2 6 181.95 2.45 0
 4 3 -4 35.44 0.93 0
 4 3 -3 123.86 1.68 0
 4 3 -2 42.45 1.05 0
 4 3 -1 181.13 2.09 0
 4 3 0 19.74 0.77 0
 4 3 1 179.12 2.15 0
 4 3 2 43.41 1.12 0
 4 3 3 122.18 1.92 0
 4 3 4 37 1.18 0
 4 3 8 78.26 1.85 0
 4 3 9 97.27 2.14 0
 4 3 10 26.44 1.32 0
 4 4 -5 117.03 1.81 0
 4 4 -4 54.97 1.3 0
 4 4 -3 146.61 2.1 0
 4 4 -2 68.55 1.47 0
 4 4 -1 186.97 2.44 0
 4 4 0 111.11 1.93 0
 4 4 1 178.17 2.42 0
 4 4 6 83.93 1.97 0
 4 4 7 56.09 1.65 0
 4 4 8 7.99 0.98 0
 4 4 9 2.68 0.68 0
 4 4 10 42.69 1.69 0
 4 4 11 29.36 1.51 0
 4 5 -5 10.11 0.83 0
 4 5 1 92.17 1.99 0
 4 5 2 47.83 1.49 0
 4 5 3 43.6 1.41 0
 4 5 4 25.21 1.17 0
 4 5 5 9.01 0.96 0
 4 5 6 35.59 1.43 0
 4 5 7 35.58 1.54 0
 4 5 9 5.02 0.91 0
 4 5 10 146.41 3.05 0
 4 5 11 37.98 1.69 0
 4 5 12 90.62 2.55 0
 4 6 -6 80.4 1.98 0
 4 6 -5 48.92 1.59 0
 4 6 -4 2.78 0.73 0
 4 6 -3 73.01 1.93 0
 4 6 -2 23.12 1.27 0
 4 6 -1 126.9 2.55 0
 4 6 0 0.49 0.55 0
 4 6 1 123.13 2.51 0
 4 6 2 23.46 1.3 0
 4 6 5 48.84 1.79 0
 4 6 6 79.44 2.21 0
 4 6 7 9.81 1.2 0
 4 6 9 47.19 1.85 0
 4 6 11 3.43 1.05 0
 4 6 13 2.9 0.94 0
 4 7 -8 7.36 0.98 0
 4 7 -7 5.38 0.96 0
 4 7 -5 54.24 1.91 0
 4 7 -4 55.39 1.86 0
 4 7 -3 32.91 1.57 0
 4 7 -2 13.58 1.06 0
 4 7 -1 72.9 2.14 0
 4 7 0 -0.1 0.62 0
 4 7 1 72.52 2.18 0
 4 7 2 13.92 1.2 0
 4 7 3 33.74 1.61 0
 4 7 4 54.81 1.94 0
 4 7 6 50.86 2.02 0
 4 7 7 5.24 1.07 0
 4 7 8 8.5 1.23 0
 4 7 9 17.82 1.46 0
 4 7 11 15.02 1.39 0
 4 7 12 28.87 1.88 0
 4 7 13 39.94 2.12 0
 4 8 -12 17.92 1.39 0
 4 8 -11 55.58 2.03 0
 4 8 -10 30.61 1.61 0
 4 8 -7 34.86 1.71 0
 4 8 -6 5.4 0.95 0
 4 8 -3 44.75 1.87 0
 4 8 -1 12.28 1.3 0
 4 8 0 4.76 1.02 0
 4 8 1 12.27 1.16 0
 4 8 2 15.04 1.33 0
 4 8 3 45.81 2 0
 4 8 4 32.63 1.81 0
 4 8 5 7.52 1.22 0
 4 8 6 7.45 1.23 0
 4 8 7 33.94 1.96 0
 4 8 9 18.29 1.7 0
 4 8 10 33.46 2.01 0
 4 8 11 57.87 2.47 0
 4 9 -9 19.33 1.57 0
 4 9 -8 24.93 1.7 0
 4 9 -7 16.89 1.43 0
 4 9 -6 29.77 1.85 0
 4 9 -4 37.08 1.89 0
 4 9 -3 14.77 1.38 0
 4 9 -2 1.84 0.89 0
 4 9 -1 0.69 0.92 0
 4 9 1 0.14 0.79 0
 4 9 2 1.34 0.97 0
 4 9 3 16.69 1.52 0
 4 9 4 37.02 1.91 0
 4 9 6 27.36 1.89 0
 4 9 7 14.84 1.61 0
 4 9 8 26.43 1.84 0
 4 9 9 17.61 1.65 0
 4 10 -2 15.54 1.64 0
 4 10 0 2.01 1.13 0
 4 10 1 3.9 1.13 0
 4 10 2 15.87 1.54 0
 4 10 3 9.16 1.41 0
 5 1 1 182.2 1.81 0
 5 2 -7 19.49 0.55 0
 5 2 -6 17 0.52 0
 5 2 -5 84.57 1.08 0
 5 2 -1 52.03 1.04 0
 5 2 0 232.29 2.16 0
 5 2 1 52.85 1.15 0
 5 2 2 262.05 2.53 0
 5 3 -6 60.93 1.2 0
 5 3 -5 95.84 1.48 0
 5 3 -4 96.46 1.5 0
 5 3 -3 100.03 1.53 0
 5 3 -2 48.97 1.11 0
 5 3 -1 60.08 1.27 0
 5 3 0 84.92 1.54 0
 5 3 1 60.82 1.34 0
 5 3 3 95.1 1.81 0
 5 3 6 61.24 1.67 0
 5 3 7 173.68 2.81 0
 5 3 8 267.59 3.54 0
 5 4 -6 18.46 0.85 0
 5 4 -4 42.73 1.23 0
 5 4 5 110.64 2.25 0
 5 4 6 19.54 1.08 0
 5 4 7 47.12 1.6 0
 5 4 8 63.69 1.93 0
 5 4 9 60.35 1.94 0
 5 4 10 31.03 1.49 0
 5 5 -10 20.87 1.03 0
 5 5 -8 58 1.54 0
 5 5 -5 78.63 1.8 0
 5 5 -4 91.95 1.97 0
 5 5 -3 20.63 1.08 0
 5 5 -2 39.02 1.37 0
 5 5 -1 261.7 3.27 0
 5 5 1 263.84 3.36 0
 5 5 2 39.24 1.44 0
 5 5 3 19.51 1.13 0
 5 5 4 90.97 2.14 0
 5 5 5 80.09 2.08 0
 5 5 6 30.3 1.46 0
 5 5 7 37.99 1.64 0
 5 5 8 60.36 2.05 0
 5 5 9 14.83 1.34 0
 5 5 10 23.36 1.57 0
 5 5 11 20.43 1.53 0
 5 6 -10 1.31 0.56 0
 5 6 -9 38.13 1.47 0
 5 6 -8 0.11 0.53 0
 5 6 -7 10.24 0.91 0
 5 6 -5 5.66 0.84 0
 5 6 -4 16.45 1.07 0
 5 6 -3 131.62 2.61 0
 5 6 -2 27.93 1.35 0
 5 6 2 28.56 1.35 0
 5 6 3 130.76 2.74 0
 5 6 4 17.43 1.17 0
 5 6 5 6.53 0.9 0
 5 6 7 12.06 1.11 0
 5 6 8 0.03 0.7 0
 5 6 9 38.4 1.78 0
 5 6 10 0.58 0.79 0
 5 6 11 24.35 1.59 0
 5 6 12 25.24 1.66 0
 5 7 -10 40.3 1.64 0
 5 7 -9 4.57 0.87 0
 5 7 -8 58.85 1.95 0
 5 7 -7 50.51 1.86 0
 5 7 -5 33.75 1.58 0
 5 7 -4 32.78 1.58 0
 5 7 -3 10.15 1.18 0
 5 7 -2 18.29 1.23 0
 5 7 -1 26.06 1.5 0
 5 7 1 26.92 1.47 0
 5 7 3 8.04 1.11 0
 5 7 4 36.77 1.78 0
 5 7 5 34.24 1.72 0
 5 7 6 24.71 1.52 0
 5 7 7 52.23 2.07 0
 5 7 8 60.43 2.27 0
 5 7 9 5.25 1.11 0
 5 7 10 42.13 2.13 0
 5 7 11 9.31 1.44 0
 5 7 12 35.27 2.08 0
 5 7 13 3.86 1.22 0
 5 8 -10 37.28 1.76 0
 5 8 -9 13.38 1.3 0
 5 8 -8 35.57 1.72 0
 5 8 -7 6.33 1.03 0
 5 8 -6 44.87 1.9 0
 5 8 -5 39.87 1.88 0
 5 8 -4 12.84 1.34 0
 5 8 -3 14.81 1.4 0
 5 8 0 0.69 0.74 0
 5 8 1 18.27 1.46 0
 5 8 2 14.27 1.36 0
 5 8 3 16.82 1.4 0
 5 8 4 14.71 1.48 0
 5 8 6 42.77 1.99 0
 5 8 7 6.94 1.26 0
 5 8 8 35.83 2.02 0
 5 8 9 15.75 1.65 0
 5 8 10 44.5 2.18 0
 5 9 -7 29.75 1.78 0
 5 9 -6 14.64 1.39 0
 5 9 -4 12 1.35 0
 5 9 -3 41.16 1.92 0
 5 9 -2 31.88 1.77 0
 5 9 -1 18.73 1.47 0
 5 9 0 60.79 2.29 0
 5 9 1 18.66 1.61 0
 5 9 2 32.65 1.89 0
 5 9 4 12.96 1.57 0
 6 2 -2 3.46 0.37 0
 6 2 0 112.82 1.57 0
 6 2 1 128.28 1.78 0
 6 3 -3 6.51 0.51 0
 6 3 -1 3.17 0.48 0
 6 3 0 0.48 0.37 0
 6 3 4 13.84 0.92 0
 6 3 7 53.8 1.68 0
 6 4 1 112.58 2.09 0
 6 4 5 181.07 2.96 0
 6 4 7 53.47 1.84 0
 6 4 8 64.48 2.07 0
 6 4 9 180.98 3.36 0
 6 5 -6 14.22 0.9 0
 6 5 -5 102.32 1.99 0
 6 5 -4 69.03 1.68 0
 6 5 -2 21.96 1.09 0
 6 5 0 66.69 1.78 0
 6 5 2 21.33 1.18 0
 6 5 3 70.51 1.92 0
 6 5 5 110.99 2.52 0
 6 5 6 16.18 1.24 0
 6 5 9 31.08 1.71 0
 6 5 10 75.93 2.4 0
 6 6 -7 5.05 0.81 0
 6 6 -6 78.98 1.97 0
 6 6 -5 86.15 2.04 0
 6 6 0 71.17 2.01 0
 6 6 1 112.33 2.52 0
 6 6 4 28.36 1.56 0
 6 6 7 4.55 0.97 0
 6 6 8 17.54 1.41 0
 6 6 9 82.55 2.59 0
 6 6 11 36.11 2 0
 6 7 -3 62.1 1.99 0
 6 7 -2 79.31 2.23 0
 6 7 0 12.78 1.24 0
 6 7 1 74.04 2.3 0
 6 7 3 62.25 2.2 0
 6 7 4 59.25 2.17 0
 6 7 5 7.08 1.12 0
 6 7 6 19.24 1.55 0
 6 7 9 6.85 1.23 0
 6 7 10 9.72 1.32 0
 6 7 11 24.07 1.82 0
 6 8 -7 26.82 1.53 0
 6 8 -6 14.81 1.25 0
 6 8 -5 18.18 1.37 0
 6 8 -4 30.22 1.56 0
 6 8 -3 9.97 1.17 0
 6 8 -2 5.64 1.01 0
 6 8 -1 0.81 0.83 0
 6 8 1 1.32 0.84 0
 6 8 2 7.19 1.17 0
 6 8 4 33.29 1.82 0
 6 8 5 18.06 1.6 0
 6 8 6 16.03 1.48 0
 6 8 7 26.21 1.83 0
 6 8 8 8 1.3 0
 6 9 -2 13.9 1.45 0
 6 9 -1 2.14 0.96 0
 6 9 1 2.3 0.99 0
 6 9 2 13.67 1.65 0
 7 3 3 43.91 1.38 0
 7 4 -1 13.19 0.83 0
 7 4 1 13.57 0.89 0
 7 4 2 15.38 0.95 0
 7 4 3 13.39 0.99 0
 7 4 4 80.49 2.02 0
 7 4 5 23.18 1.29 0
 7 4 6 24.53 1.37 0
 7 5 -2 18.63 1.02 0
 7 5 0 1.57 0.58 0
 7 5 1 35.67 1.42 0
 7 5 2 20.42 1.21 0
 7 5 3 7.1 0.92 0
 7 5 4 122.11 2.62 0
 7 5 5 11.04 1.16 0
 7 5 6 19.14 1.38 0
 7 5 7 10.36 1.09 0
 7 5 8 115.12 2.85 0
 7 6 -1 3.16 0.77 0
 7 6 0 16.61 1.2 0
 7 6 2 52.96 1.86 0
 7 6 6 107.65 2.71 0
 7 6 7 -0 0.82 0
 7 6 9 6.06 1.07 0
 7 7 -2 64.9 2.02 0
 7 7 -1 0.53 0.67 0
 7 7 0 28.9 1.54 0
 7 7 1 0.79 0.75 0
 7 7 2 62.88 2.15 0
 7 7 3 9.21 1.21 0
 7 7 5 5.66 1.05 0
 7 7 7 19.65 1.59 0
 7 7 8 28.09 1.77 0
 7 7 9 21.31 1.73 0
 7 8 -2 1.15 0.79 0
 7 8 -1 3.78 0.95 0
 7 8 0 57.04 2.12 0
 7 8 1 3.66 0.97 0
 7 8 2 2.23 0.9 0
 7 8 3 7.73 1.17 0
 7 8 4 47.28 2.1 0
 8 5 3 1.66 0.75 0
 8 5 4 20.09 1.28 0
 8 6 3 55.56 1.92 0
 8 6 4 10.06 1.13 0
 8 6 5 4.24 0.88 0
 8 7 4 4.88 0.99 0
 -3 0 -14 34.71 0.76 0
 -3 0 -12 185.35 1.46 0
 -3 1 -13 52.33 0.76 0
 -3 1 -12 47.83 0.68 0
 -3 1 -11 23.33 0.46 0
 -3 1 -10 127.06 0.9 0
 -3 1 -9 42.96 0.48 0
 -3 1 -8 417.67 1.19 0
 -3 1 -7 6.64 0.13 0
 -3 2 -11 21.74 0.43 0
 -3 2 -10 361.72 1.48 0
 -3 2 -9 441.52 1.47 0
 -2 -2 -19 1.88 0.48 0
 -2 -1 -18 124.59 1.85 0
 -2 -1 -17 98.16 1.61 0
 -2 0 -18 18.57 0.78 0
 -2 0 -17 84.08 1.4 0
 -2 0 -16 3.28 0.39 0
 -2 0 -14 26.77 0.75 0
 -2 0 -13 28.84 0.74 0
 -2 1 -13 171.52 1.58 0
 -2 1 -12 163.46 1.45 0
 -2 1 -11 170.22 1.39 0
 -2 1 -10 89.5 0.95 0
 -2 1 -9 97.62 0.9 0
 -2 1 -8 13.91 0.34 0
 -2 1 -7 266.33 1.18 0
 -2 2 -14 42.46 0.86 0
 -2 2 -13 105.48 1.23 0
 -2 2 -12 91.35 1.09 0
 -2 2 -11 93.97 1.04 0
 -2 2 -10 4.7 0.29 0
 -2 2 -9 197.23 1.29 0
 -2 2 -8 231.49 1.28 0
 -2 2 -7 207.61 1.13 0
 -2 2 -6 480.2 1.6 0
 -2 3 -14 10.57 0.5 0
 -2 3 -12 146.4 1.45 0
 -2 3 -10 385.49 2.13 0
 -2 3 -9 86.38 0.99 0
 -2 3 -8 136.18 1.19 0
 -2 3 -7 12.45 0.39 0
 -2 4 -13 0.41 0.26 0
 -2 4 -12 55.42 1.01 0
 -1 -3 -22 66.01 1.71 0
 -1 -3 -21 56.2 1.58 0
 -1 -2 -20 73.25 1.69 0
 -1 -2 -19 27.58 1.11 0
 -1 -1 -21 0.9 0.46 0
 -1 -1 -20 6.59 0.7 0
 -1 -1 -19 14.04 0.86 0
 -1 -1 -18 29.47 1.05 0
 -1 -1 -17 34.04 1.09 0
 -1 0 -20 32.2 1.09 0
 -1 0 -19 18.1 0.87 0
 -1 0 -18 63.18 1.39 0
 -1 0 -17 1.21 0.45 0
 -1 0 -16 1.2 0.38 0
 -1 0 -15 123.56 1.71 0
 -1 0 -13 28.05 0.81 0
 -1 1 -19 14.41 0.78 0
 -1 1 -18 27.15 0.94 0
 -1 1 -16 78.94 1.39 0
 -1 1 -13 198.12 1.88 0
 -1 1 -12 3.08 0.37 0
 -1 1 -11 24.45 0.64 0
 -1 1 -10 213.39 1.64 0
 -1 1 -9 394.46 2.06 0
 -1 1 -8 392.22 1.9 0
 -1 1 -7 577.69 2.09 0
 -1 1 -6 37.48 0.51 0
 -1 1 -5 772.64 1.91 0
 -1 1 -2 201.15 0.65 0
 -1 2 -18 11.48 0.66 0
 -1 2 -17 13.62 0.71 0
 -1 2 -16 7.87 0.55 0
 -1 2 -15 24.94 0.78 0
 -1 2 -13 114.42 1.45 0
 -1 2 -12 53.68 0.95 0
 -1 2 -11 10.46 0.45 0
 -1 2 -10 13.7 0.5 0
 -1 2 -9 445.38 2.22 0
 -1 2 -8 7.35 0.34 0
 -1 2 -7 170.72 1.22 0
 -1 2 -6 32.39 0.51 0
 -1 2 -5 742.89 2.17 0
 -1 2 -3 935.51 2.35 0
 -1 3 -15 1.3 0.36 0
 -1 3 -12 84.01 1.23 0
 -1 3 -11 81.13 1.16 0
 -1 3 -10 50.2 0.88 0
 -1 3 -9 606.03 2.8 0
 -1 3 -8 66.3 0.92 0
 -1 3 -7 255.64 1.7 0
 -1 3 -6 102.2 1.06 0
 -1 3 -5 42.15 0.68 0
 -1 4 -16 63.78 1.35 0
 -1 4 -15 50.23 1.16 0
 -1 4 -14 60.92 1.24 0
 -1 4 -11 390.96 2.74 0
 -1 4 -10 48.64 0.99 0
 -1 4 -8 64.31 1.06 0
 -1 4 -7 418.53 2.61 0
 -1 5 -15 240.64 2.61 0
 -1 5 -12 28.24 0.91 0
 0 -3 -21 33.79 1.39 0
 0 -2 -21 7.58 0.95 0
 0 -2 -20 2.6 0.63 0
 0 -2 -19 40.4 1.38 0
 0 -1 -22 4.16 0.65 0
 0 -1 -21 3.18 0.6 0
 0 -1 -20 39.79 1.33 0
 0 -1 -19 42.26 1.35 0
 0 -1 -18 -0.22 0.44 0
 0 0 -21 0.46 0.52 0
 0 0 -20 0.96 0.49 0
 0 0 -19 0.96 0.52 0
 0 0 -18 259.97 2.89 0
 0 0 -17 0.29 0.4 0
 0 0 -15 0.25 0.4 0
 0 0 -14 88.95 1.51 0
 0 1 -21 2.98 0.56 0
 0 1 -20 38.23 1.24 0
 0 1 -18 0.3 0.49 0
 0 1 -16 34.4 1.01 0
 0 1 -15 118.91 1.75 0
 0 1 -14 2.63 0.42 0
 0 1 -12 46.37 0.97 0
 0 1 -11 147.6 1.57 0
 0 1 -9 4.68 0.36 0
 0 1 -8 686.8 2.77 0
 0 1 -7 33.81 0.6 0
 0 1 -6 104.32 0.95 0
 0 1 -4 3214.2 4.14 0
 0 1 -1 512.46 1.27 0
 0 2 -21 8.72 0.76 0
 0 2 -20 1.91 0.49 0
 0 2 -18 46.57 1.28 0
 0 2 -17 49.27 1.24 0
 0 2 -16 40.22 1.12 0
 0 2 -15 88.6 1.53 0
 0 2 -14 12.76 0.67 0
 0 2 -12 55.4 1.08 0
 0 2 -11 4.32 0.43 0
 0 2 -10 397.52 2.45 0
 0 2 -9 403.52 2.34 0
 0 2 -7 457.2 2.21 0
 0 2 -6 3696.14 5.86 0
 0 2 -5 180.17 1.23 0
 0 2 -4 81.43 0.8 0
 0 2 -3 1375.19 3.08 0
 0 2 -2 3254.43 4.69 0
 0 3 -19 1.04 0.45 0
 0 3 -18 2.4 0.53 0
 0 3 -17 41.41 1.18 0
 0 3 -16 55.84 1.3 0
 0 3 -14 3.73 0.46 0
 0 3 -11 379.13 2.65 0
 0 3 -10 45.54 0.93 0
 0 3 -9 157.27 1.58 0
 0 3 -8 124.34 1.36 0
 0 3 -7 389.63 2.26 0
 0 3 -6 72.82 0.98 0
 0 3 -5 316.03 1.93 0
 0 3 -4 791.19 2.98 0
 0 3 -3 102.78 1.11 0
 0 4 -19 11.37 0.82 0
 0 4 -18 0.1 0.48 0
 0 4 -17 0.92 0.48 0
 0 4 -14 7.35 0.62 0
 0 4 -9 171.48 1.86 0
 0 4 -8 219.31 2.04 0
 0 4 -7 140.99 1.62 0
 0 4 -6 182.17 1.77 0
 0 4 -5 23.89 0.69 0
 0 5 -18 5.17 0.7 0
 0 5 -17 12.78 0.83 0
 0 5 -16 3.84 0.61 0
 0 5 -15 14.91 0.86 0
 0 5 -13 15.57 0.79 0
 0 5 -12 1.88 0.47 0
 0 5 -11 36.19 1.06 0
 1 -3 -20 4.92 0.84 0
 1 -2 -22 24.27 1.22 0
 1 -2 -21 26.91 1.22 0
 1 -2 -19 28.58 1.27 0
 1 -1 -21 1.91 0.65 0
 1 -1 -19 16.14 1.01 0
 1 -1 -18 30.73 1.19 0
 1 -1 -17 33.02 1.22 0
 1 -1 -16 81.95 1.69 0
 1 0 -22 0.83 0.52 0
 1 0 -21 0.48 0.6 0
 1 0 -20 33.97 1.26 0
 1 0 -19 16.42 0.94 0
 1 0 -17 1.73 0.55 0
 1 0 -16 0.85 0.49 0
 1 0 -15 124.81 1.93 0
 1 0 -14 51.73 1.22 0
 1 0 -1 1344.57 1.96 0
 1 1 -22 31.06 1.27 0
 1 1 -21 0.84 0.54 0
 1 1 -20 6.9 0.79 0
 1 1 -19 13.19 0.88 0
 1 1 -18 31.23 1.17 0
 1 1 -17 32.83 1.14 0
 1 1 -16 76.23 1.55 0
 1 1 -14 37.3 1.01 0
 1 1 -11 23.59 0.72 0
 1 1 -10 210.23 1.92 0
 1 1 -9 388.19 2.44 0
 1 1 -8 386.96 2.29 0
 1 1 -7 589.96 2.64 0
 1 1 -6 36.69 0.67 0
 1 1 -5 797.84 2.63 0
 1 1 -4 276.11 1.44 0
 1 1 -3 2059.2 3.53 0
 1 1 -2 201.41 1.03 0
 1 1 -1 237.06 1.03 0
 1 1 0 130.04 0.76 0
 1 2 -22 22.39 1.11 0
 1 2 -20 72.45 1.73 0
 1 2 -19 28.66 1.12 0
 1 2 -18 12.01 0.86 0
 1 2 -17 12.33 0.76 0
 1 2 -16 7.43 0.68 0
 1 2 -15 23.69 0.92 0
 1 2 -14 70.59 1.4 0
 1 2 -9 436.84 2.64 0
 1 2 -8 6.72 0.41 0
 1 2 -7 173.73 1.5 0
 1 2 -5 748.77 2.77 0
 1 2 -4 298.59 1.67 0
 1 2 -3 982.42 2.88 0
 1 2 -2 529 2.09 0
 1 2 -1 124.18 1.01 0
 1 3 -21 51.56 1.49 0
 1 3 -20 4.16 0.66 0
 1 3 -19 17.55 0.92 0
 1 3 -17 29.07 1.12 0
 1 3 -16 44.48 1.26 0
 1 3 -15 0.83 0.41 0
 1 3 -13 125.59 1.81 0
 1 3 -12 82.46 1.44 0
 1 3 -9 612.24 3.31 0
 1 3 -8 68.88 1.12 0
 1 3 -7 267.74 2.03 0
 1 3 -6 101.24 1.23 0
 1 3 -4 143.63 1.39 0
 1 3 -3 733.3 3.04 0
 1 3 -2 90.73 1.1 0
 1 4 -21 4.79 0.69 0
 1 4 -20 39.45 1.37 0
 1 4 -19 35.19 1.28 0
 1 4 -18 34 1.23 0
 1 4 -17 19.84 1 0
 1 4 -15 51.05 1.34 0
 1 4 -14 60.55 1.38 0
 1 4 -13 51.34 1.25 0
 1 4 -12 79.2 1.5 0
 1 4 -11 383.35 3.06 0
 1 4 -8 65.13 1.2 0
 1 4 -7 424.29 2.9 0
 1 4 -6 63.3 1.14 0
 1 4 -5 89 1.33 0
 1 4 -4 25.07 0.74 0
 1 5 -20 48.18 1.53 0
 1 5 -19 51.94 1.57 0
 1 5 -18 7.82 0.86 0
 1 5 -17 3.23 0.61 0
 1 5 -16 68.12 1.69 0
 1 5 -15 243.62 3 0
 1 5 -14 14.29 0.88 0
 1 5 -13 25.88 1.06 0
 1 5 -12 29.86 1.06 0
 1 5 -11 82.21 1.6 0
 1 5 -10 18.86 0.83 0
 1 5 -9 89.49 1.6 0
 1 6 -16 12.81 0.95 0
 1 6 -15 19.6 1.08 0
 1 6 -12 18.71 0.95 0
 1 6 -11 26.23 1.07 0
 2 -3 -21 0.21 0.65 0
 2 -3 -20 12.33 1.1 0
 2 -2 -21 31.11 1.41 0
 2 -2 -20 34.17 1.36 0
 2 -2 -19 1.42 0.7 0
 2 -2 -18 10.6 0.88 0
 2 -1 -22 36.16 1.43 0
 2 -1 -21 22.2 1.22 0
 2 -1 -19 49.71 1.51 0
 2 -1 -16 34.02 1.24 0
 2 -1 -15 41.3 1.28 0
 2 0 -21 55.82 1.68 0
 2 0 -20 0.85 0.56 0
 2 0 -19 139.81 2.41 0
 2 0 -18 20.43 1.03 0
 2 0 -16 3.76 0.6 0
 2 0 -15 260.36 2.89 0
 2 0 -14 26.48 0.94 0
 2 0 -13 31.78 1.03 0
 2 0 -4 325.91 1.75 0
 2 0 -3 99.48 0.88 0
 2 0 -2 344.5 1.43 0
 2 1 -21 23.5 1.21 0
 2 1 -19 50.41 1.51 0
 2 1 -17 104.09 1.99 0
 2 1 -16 33.31 1.11 0
 2 1 -13 169.81 2.15 0
 2 1 -10 86.72 1.35 0
 2 1 -9 95.04 1.33 0
 2 1 -8 14.12 0.55 0
 2 1 -7 264.85 1.93 0
 2 1 -6 353.69 2.09 0
 2 1 -4 1986.76 4.27 0
 2 1 -2 1082.48 2.75 0
 2 1 0 5901.7 5.8 0
 2 2 -21 30.58 1.3 0
 2 2 -20 31.27 1.31 0
 2 2 -19 1.73 0.57 0
 2 2 -18 11.83 0.92 0
 2 2 -17 0.47 0.47 0
 2 2 -16 94.58 1.83 0
 2 2 -15 41.67 1.22 0
 2 2 -14 38.58 1.13 0
 2 2 -13 100.27 1.67 0
 2 2 -12 88.63 1.52 0
 2 2 -9 200.54 1.95 0
 2 2 -8 242.44 2.04 0
 2 2 -7 216.37 1.84 0
 2 2 -4 155.21 1.35 0
 2 2 -3 198.33 1.47 0
 2 2 -2 1982.44 4.38 0
 2 2 -1 541.17 2.29 0
 2 2 0 5.42 0.31 0
 2 3 -21 0.33 0.55 0
 2 3 -20 12.94 0.98 0
 2 3 -19 5.86 0.77 0
 2 3 -18 5.73 0.71 0
 2 3 -17 25.85 1.1 0
 2 3 -16 42.02 1.32 0
 2 3 -15 14.43 0.83 0
 2 3 -14 11.64 0.76 0
 2 3 -13 29.19 0.99 0
 2 3 -12 141.63 1.97 0
 2 3 -11 57.29 1.25 0
 2 3 -8 136.3 1.65 0
 2 3 -7 13.24 0.57 0
 2 3 -6 1010.72 4.05 0
 2 3 -5 485.71 2.74 0
 2 3 -4 113.46 1.33 0
 2 3 -3 441.47 2.54 0
 2 3 -2 442.89 2.51 0
 2 4 -20 6.58 0.82 0
 2 4 -19 11.27 0.89 0
 2 4 -18 7.58 0.76 0
 2 4 -17 20.96 1.09 0
 2 4 -16 19.5 1.04 0
 2 4 -15 15.24 0.91 0
 2 4 -14 19.01 0.88 0
 2 4 -13 0.55 0.4 0
 2 4 -12 54.63 1.33 0
 2 4 -11 24.37 0.91 0
 2 4 -6 42.18 0.99 0
 2 4 -5 228.28 2.18 0
 2 4 -3 132.01 1.69 0
 2 5 -19 25.24 1.26 0
 2 5 -18 9.95 0.92 0
 2 5 -17 17.32 1.09 0
 2 5 -16 65.93 1.73 0
 2 5 -15 3.39 0.7 0
 2 5 -14 8.29 0.82 0
 2 5 -13 -0.03 0.43 0
 2 5 -12 153.59 2.36 0
 2 5 -11 16.18 0.87 0
 2 5 -10 0.77 0.43 0
 2 5 -9 42.01 1.19 0
 2 6 -18 5.56 0.85 0
 2 6 -17 15.06 1.08 0
 2 6 -16 8.03 0.89 0
 2 6 -15 2.05 0.67 0
 2 6 -14 100.22 2.17 0
 2 6 -12 33.87 1.28 0
 2 6 -10 129.15 2.32 0
 2 6 -9 9.6 0.76 0
 3 -3 -20 5.45 0.89 0
 3 -3 -19 11.55 0.98 0
 3 -3 -18 -0.43 0.61 0
 3 -2 -20 5.76 0.92 0
 3 -2 -19 40.03 1.52 0
 3 -2 -18 3.06 0.69 0
 3 -2 -17 13.02 0.93 0
 3 -2 -16 3.17 0.66 0
 3 -1 -21 24.19 1.3 0
 3 -1 -20 5.63 0.85 0
 3 -1 -19 31.07 1.36 0
 3 -1 -18 34.09 1.37 0
 3 -1 -17 30.41 1.26 0
 3 -1 -14 157.18 2.32 0
 3 -1 -13 52.57 1.34 0
 3 -1 1 501.72 1.18 0
 3 0 -21 1.25 0.61 0
 3 0 -20 48.52 1.55 0
 3 0 -19 1.96 0.62 0
 3 0 -18 25.84 1.18 0
 3 0 -17 64.46 1.69 0
 3 0 -15 109.52 2 0
 3 0 -14 32.71 1.08 0
 3 0 -13 207.92 2.49 0
 3 0 -12 182.09 2.25 0
 3 0 -11 103.52 1.67 0
 3 0 -8 85.6 1.27 0
 3 0 -7 35.67 0.8 0
 3 0 -6 473.62 2.61 0
 3 0 -4 1252.43 3.66 0
 3 0 -3 363.85 1.83 0
 3 0 -2 271.9 1.44 0
 3 1 -21 25.9 1.29 0
 3 1 -20 7.56 0.92 0
 3 1 -18 34.54 1.33 0
 3 1 -17 30.83 1.24 0
 3 1 -16 10.08 0.76 0
 3 1 -15 45.92 1.3 0
 3 1 -13 52.99 1.27 0
 3 1 -12 48.32 1.19 0
 3 1 -11 22.99 0.8 0
 3 1 -8 423.97 2.76 0
 3 1 -7 7.67 0.42 0
 3 1 -6 218.4 1.79 0
 3 1 -5 42.51 0.79 0
 3 1 -4 157.97 1.35 0
 3 1 -1 522.27 2.05 0
 3 1 1 516.51 1.96 0
 3 2 -21 38.37 1.43 0
 3 2 -20 6.28 0.86 0
 3 2 -19 37.93 1.38 0
 3 2 -17 13.15 0.95 0
 3 2 -16 3.7 0.66 0
 3 2 -15 20.78 1.01 0
 3 2 -14 59.06 1.42 0
 3 2 -13 59.1 1.4 0
 3 2 -12 120.15 1.86 0
 3 2 -11 23.26 0.86 0
 3 2 -6 148.6 1.59 0
 3 2 -5 427.95 2.54 0
 3 2 -4 105.32 1.23 0
 3 2 -3 758.41 3.07 0
 3 2 -2 655.75 2.79 0
 3 2 -1 223.32 1.63 0
 3 2 0 224.04 1.62 0
 3 3 -20 4.45 0.74 0
 3 3 -19 11.9 0.96 0
 3 3 -18 0.55 0.57 0
 3 3 -17 9.75 0.87 0
 3 3 -16 1.76 0.53 0
 3 3 -15 11.1 0.85 0
 3 3 -14 10.56 0.76 0
 3 3 -13 17.05 0.84 0
 3 3 -12 44.95 1.2 0
 3 3 -11 113.53 1.82 0
 3 3 -10 18.11 0.76 0
 3 3 -6 6.14 0.47 0
 3 3 -5 331.08 2.45 0
 3 3 -4 21.32 0.66 0
 3 3 -3 278.99 2.17 0
 3 3 -2 25.72 0.7 0
 3 3 -1 400 2.58 0
 3 4 -18 23.91 1.17 0
 3 4 -17 -0.33 0.53 0
 3 4 -16 25.98 1.2 0
 3 4 -15 84.27 1.89 0
 3 4 -13 14.14 0.88 0
 3 4 -11 41.8 1.22 0
 3 4 -10 21.07 0.89 0
 3 4 -9 37.2 1.1 0
 3 4 -7 76.07 1.41 0
 3 4 -3 719.2 3.99 0
 3 5 -19 5.59 0.86 0
 3 5 -17 20.37 1.19 0
 3 5 -16 58.19 1.76 0
 3 5 -15 5.04 0.74 0
 3 5 -14 49.43 1.55 0
 3 5 -13 25.35 1.2 0
 3 5 -12 34.66 1.24 0
 3 5 -11 38.63 1.29 0
 3 5 -10 56.4 1.48 0
 3 5 -8 21.37 0.95 0
 3 5 -7 86.22 1.69 0
 3 5 -6 55.61 1.34 0
 3 5 -5 92.1 1.7 0
 3 6 -17 13.02 1.13 0
 3 6 -16 32.16 1.39 0
 3 6 -15 30.38 1.34 0
 3 6 -14 46.82 1.57 0
 3 6 -12 25.6 1.19 0
 3 6 -11 4.73 0.72 0
 3 6 -9 33.44 1.26 0
 3 6 -8 27.37 1.22 0
 4 -4 -19 9.45 1.14 0
 4 -4 -18 1.41 0.71 0
 4 -3 -19 16.06 1.18 0
 4 -3 -18 28 1.37 0
 4 -3 -17 32.08 1.39 0
 4 -3 -16 18.52 1.09 0
 4 -2 -20 20.29 1.26 0
 4 -2 -19 9.21 1.1 0
 4 -2 -18 29.58 1.36 0
 4 -2 -17 44.63 1.57 0
 4 -2 -16 31.73 1.32 0
 4 -2 -15 12.82 0.87 0
 4 -2 -14 17.44 0.97 0
 4 -2 1 167.08 0.88 0
 4 -1 -20 8.3 1.02 0
 4 -1 -18 59.17 1.76 0
 4 -1 -16 23.23 1.11 0
 4 -1 -15 2.81 0.67 0
 4 -1 -14 58.35 1.49 0
 4 -1 -13 35.48 1.17 0
 4 -1 -12 209.78 2.58 0
 4 -1 -11 87.63 1.63 0
 4 -1 -10 28.6 0.96 0
 4 -1 -7 127.79 1.6 0
 4 -1 -5 133.88 1.45 0
 4 -1 1 431.39 1.29 0
 4 0 -20 1.37 0.68 0
 4 0 -19 4.41 0.81 0
 4 0 -18 11.08 0.9 0
 4 0 -17 3.81 0.77 0
 4 0 -16 113.41 2.15 0
 4 0 -15 54.4 1.47 0
 4 0 -14 181.15 2.54 0
 4 0 -13 13.46 0.81 0
 4 0 -12 56.77 1.34 0
 4 0 -11 133.24 1.91 0
 4 0 -6 108.39 1.36 0
 4 0 -5 1.28 0.26 0
 4 0 -4 387.51 2.21 0
 4 0 -3 12.32 0.41 0
 4 0 -2 152.59 1.22 0
 4 1 -20 8.56 0.89 0
 4 1 -19 39.25 1.51 0
 4 1 -18 58.8 1.68 0
 4 1 -17 29.94 1.26 0
 4 1 -16 24.36 1.15 0
 4 1 -15 2.88 0.59 0
 4 1 -14 52.58 1.4 0
 4 1 -13 33.2 1.1 0
 4 1 -12 201.31 2.45 0
 4 1 -10 28.56 0.93 0
 4 1 -7 125.54 1.57 0
 4 1 -6 221.14 1.95 0
 4 1 -5 128.13 1.42 0
 4 1 -4 187.51 1.64 0
 4 1 -2 45.94 0.76 0
 4 1 -1 431.86 2.09 0
 4 1 1 414.33 1.95 0
 4 2 -20 22.69 1.19 0
 4 2 -18 27.84 1.32 0
 4 2 -16 30.65 1.27 0
 4 2 -15 14.66 0.92 0
 4 2 -14 17.75 0.98 0
 4 2 -13 1.95 0.48 0
 4 2 -12 13.62 0.78 0
 4 2 -11 68.13 1.43 0
 4 2 -10 216.84 2.43 0
 4 2 -9 65.01 1.3 0
 4 2 -6 176.15 1.86 0
 4 2 -5 94.27 1.31 0
 4 2 -4 18.17 0.59 0
 4 2 -3 223.68 1.86 0
 4 2 -2 210.25 1.76 0
 4 2 -1 174.77 1.59 0
 4 2 0 86.57 1.12 0
 4 3 -20 18.18 1.22 0
 4 3 -19 16.63 1.13 0
 4 3 -18 28.24 1.29 0
 4 3 -17 29.49 1.31 0
 4 3 -16 18.76 1.11 0
 4 3 -15 46.44 1.44 0
 4 3 -14 16.97 0.93 0
 4 3 -13 125.61 2.16 0
 4 3 -12 36.23 1.17 0
 4 3 -10 25.6 0.93 0
 4 3 -9 95.82 1.64 0
 4 3 -8 81.33 1.48 0
 4 3 -4 37.67 0.91 0
 4 3 -3 125.29 1.6 0
 4 3 -2 41.8 0.93 0
 4 3 -1 180.94 1.88 0
 4 4 -19 8.03 0.95 0
 4 4 -18 1.05 0.63 0
 4 4 -17 57.33 1.76 0
 4 4 -14 8.15 0.93 0
 4 4 -13 30.79 1.24 0
 4 4 -11 27.81 1.1 0
 4 4 -10 43.66 1.28 0
 4 4 -9 3.04 0.54 0
 4 4 -8 9.02 0.64 0
 4 4 -6 80.63 1.52 0
 4 5 -18 27.58 1.36 0
 4 5 -17 11.66 1.09 0
 4 5 -16 19.93 1.16 0
 4 5 -15 18.82 1.15 0
 4 5 -14 92.43 2.11 0
 4 5 -13 5.52 0.75 0
 4 5 -12 93.76 2.07 0
 4 5 -11 35.68 1.33 0
 4 5 -10 154.68 2.52 0
 4 5 -9 3.72 0.64 0
 4 5 -8 113.94 2.06 0
 4 5 -7 33.92 1.17 0
 4 5 -5 8.81 0.71 0
 4 6 -14 45.58 1.68 0
 4 6 -13 3.99 0.81 0
 4 6 -12 29.05 1.29 0
 4 6 -11 3.84 0.7 0
 4 6 -9 44.59 1.48 0
 4 6 -8 24.97 1.25 0
 5 -5 -17 1.34 0.83 0
 5 -4 -18 1.01 0.69 0
 5 -4 -17 6.62 0.91 0
 5 -4 -16 21.3 1.27 0
 5 -3 -18 6.28 0.95 0
 5 -3 -17 2.42 0.73 0
 5 -3 -15 48.39 1.56 0
 5 -3 -14 76.91 1.89 0
 5 -3 1 61.46 0.62 0
 5 -2 -18 50.9 1.69 0
 5 -2 -17 5.84 0.84 0
 5 -2 -16 1.41 0.61 0
 5 -2 -15 13.06 0.99 0
 5 -2 -14 123.18 2.26 0
 5 -2 -13 1.33 0.53 0
 5 -2 -12 21.51 1 0
 5 -2 -11 78.94 1.7 0
 5 -2 -10 199.36 2.47 0
 5 -2 -9 33.49 1.03 0
 5 -2 -8 89.06 1.53 0
 5 -2 -3 47.08 0.83 0
 5 -2 -2 271.18 1.75 0
 5 -2 0 235.95 1.26 0
 5 -2 1 53.3 0.49 0
 5 -1 -19 14.82 1.04 0
 5 -1 -18 5.6 0.82 0
 5 -1 -17 12 0.98 0
 5 -1 -16 87.88 2.01 0
 5 -1 -15 37.22 1.31 0
 5 -1 -14 44.36 1.4 0
 5 -1 -13 58.83 1.52 0
 5 -1 -12 35.65 1.19 0
 5 -1 -11 53.07 1.31 0
 5 -1 -10 10.57 0.7 0
 5 -1 -9 130.86 1.84 0
 5 -1 -6 351.94 2.57 0
 5 -1 -5 12.64 0.55 0
 5 -1 -4 166.65 1.58 0
 5 -1 -3 291.95 1.91 0
 5 -1 1 182.95 0.95 0
 5 0 -18 2.11 0.74 0
 5 0 -17 82.32 1.95 0
 5 0 -16 14.06 0.94 0
 5 0 -15 19.07 1.03 0
 5 0 -14 3.25 0.6 0
 5 0 -13 110.59 1.99 0
 5 0 -12 0.87 0.49 0
 5 0 -10 12.16 0.67 0
 5 0 -9 112.47 1.7 0
 5 0 -8 220.57 2.27 0
 5 0 -5 292.33 2.2 0
 5 0 -4 630.87 3.04 0
 5 0 -3 75.66 1.02 0
 5 0 -1 392.27 1.97 0
 5 0 1 391.58 1.71 0
 5 1 -18 6.1 0.82 0
 5 1 -17 11.55 0.91 0
 5 1 -16 84.23 1.94 0
 5 1 -15 38.68 1.34 0
 5 1 -11 51.65 1.33 0
 5 1 -10 10.77 0.68 0
 5 1 -9 129.43 1.86 0
 5 1 -8 96.84 1.56 0
 5 1 -5 12.68 0.57 0
 5 1 -4 165.13 1.66 0
 5 1 -3 289.7 2.08 0
 5 1 -2 767.47 3.2 0
 5 1 -1 189.34 1.56 0
 5 1 0 473.42 2.37 0
 5 2 -18 52.66 1.67 0
 5 2 -17 4.74 0.76 0
 5 2 -16 1.94 0.66 0
 5 2 -15 13.85 1 0
 5 2 -13 1.48 0.52 0
 5 2 -12 20.12 0.93 0
 5 2 -11 75.46 1.64 0
 5 2 -10 198.07 2.47 0
 5 2 -9 33.89 1.07 0
 5 2 -8 85.58 1.53 0
 5 2 -7 20.24 0.78 0
 5 2 -2 271.58 2.17 0
 5 2 -1 53.55 0.99 0
 5 2 0 243.24 2.04 0
 5 3 -18 4.66 0.8 0
 5 3 -17 1.81 0.75 0
 5 3 -16 12.22 0.96 0
 5 3 -15 44.64 1.52 0
 5 3 -14 77.86 1.87 0
 5 3 -13 9.38 0.87 0
 5 3 -12 163.19 2.49 0
 5 3 -11 10.79 0.77 0
 5 3 -10 176.63 2.43 0
 5 3 -9 1.36 0.44 0
 5 3 -8 269.44 2.77 0
 5 3 -7 172.05 2.19 0
 5 3 -6 61.48 1.31 0
 5 4 -18 0.71 0.72 0
 5 4 -17 6.74 0.87 0
 5 4 -16 20.68 1.22 0
 5 4 -15 1.31 0.64 0
 5 4 -14 8.32 0.9 0
 5 4 -12 22.67 1.07 0
 5 4 -11 8.84 0.85 0
 5 4 -10 28.81 1.16 0
 5 4 -9 60.7 1.54 0
 5 4 -8 61.56 1.49 0
 5 4 -7 51.81 1.37 0
 5 4 -6 19.73 0.9 0
 5 4 -5 115.04 1.9 0
 5 4 -4 44.5 1.19 0
 5 4 -3 247.22 2.7 0
 5 5 -17 1.05 0.68 0
 5 5 -16 16.95 1.22 0
 5 5 -15 1.73 0.71 0
 5 5 -14 40.24 1.58 0
 5 5 -13 18 1.18 0
 5 5 -12 0.27 0.56 0
 5 5 -11 20.01 1.15 0
 5 5 -10 20.84 1.14 0
 5 5 -9 14.51 0.92 0
 5 5 -8 60.72 1.64 0
 5 5 -6 29.5 1.13 0
 5 5 -5 80.29 1.81 0
 5 6 -15 1.37 0.69 0
 5 6 -14 20.47 1.29 0
 5 6 -12 20.57 1.2 0
 5 6 -10 1.25 0.6 0
 5 6 -9 38.99 1.49 0
 6 -5 -15 13.54 1.12 0
 6 -5 -14 62.04 1.81 0
 6 -4 -16 21.47 1.21 0
 6 -4 -15 60.69 1.78 0
 6 -4 -14 14.38 1.06 0
 6 -4 -13 54.73 1.62 0
 6 -4 -12 73.13 1.78 0
 6 -3 -16 48.74 1.63 0
 6 -3 -15 5.4 0.79 0
 6 -3 -14 28.97 1.28 0
 6 -3 -13 71.74 1.76 0
 6 -3 -12 2.41 0.59 0
 6 -3 -11 82.85 1.74 0
 6 -3 -10 29.41 1.09 0
 6 -3 -9 45.36 1.26 0
 6 -3 -8 25.11 0.93 0
 6 -3 -7 54.46 1.25 0
 6 -3 -6 26.25 0.86 0
 6 -3 -3 7.22 0.43 0
 6 -3 -1 3.75 0.27 0
 6 -2 -18 55.41 1.75 0
 6 -2 -17 41.97 1.54 0
 6 -2 -16 16.85 1.11 0
 6 -2 -15 64.85 1.72 0
 6 -2 -14 10.97 0.87 0
 6 -2 -13 66.89 1.68 0
 6 -2 -12 12.62 0.84 0
 6 -2 -11 135.64 2.17 0
 6 -2 -10 15.43 0.88 0
 6 -2 -8 -0.03 0.34 0
 6 -2 -7 104.93 1.61 0
 6 -2 -4 31.19 0.76 0
 6 -2 -3 3.55 0.33 0
 6 -2 -2 4.07 0.31 0
 6 -2 0 113.97 0.89 0
 6 -1 -18 12.22 1.1 0
 6 -1 -17 22.07 1.21 0
 6 -1 -16 3.93 0.7 0
 6 -1 -15 11.23 0.88 0
 6 -1 -14 34.37 1.25 0
 6 -1 -13 8.71 0.77 0
 6 -1 -12 35.44 1.24 0
 6 -1 -11 14.63 0.81 0
 6 -1 -10 2.28 0.48 0
 6 -1 -9 16.01 0.78 0
 6 -1 -8 13.9 0.7 0
 6 -1 -7 9.94 0.61 0
 6 -1 -4 25.26 0.69 0
 6 -1 -3 19.2 0.57 0
 6 -1 -2 11.22 0.43 0
 6 -1 0 0.99 0.15 0
 6 0 -18 7.95 0.98 0
 6 0 -17 28.28 1.34 0
 6 0 -16 51.98 1.64 0
 6 0 -14 11.06 0.94 0
 6 0 -13 3.49 0.59 0
 6 0 -12 9.55 0.83 0
 6 0 -11 150.11 2.25 0
 6 0 -10 20.23 0.91 0
 6 0 -9 20.05 0.82 0
 6 0 -8 43.14 1.12 0
 6 0 -7 200.29 2.19 0
 6 0 -4 26.84 0.72 0
 6 0 -3 1.4 0.3 0
 6 0 -1 138.04 1.29 0
 6 0 1 137.29 1.14 0
 6 1 -18 12.46 1.1 0
 6 1 -17 23.22 1.27 0
 6 1 -16 3.84 0.72 0
 6 1 -15 10.78 0.94 0
 6 1 -14 34.97 1.35 0
 6 1 -12 34.47 1.22 0
 6 1 -11 12.38 0.83 0
 6 1 -10 2.89 0.53 0
 6 1 -9 14.42 0.81 0
 6 1 -7 9.28 0.61 0
 6 1 -6 32.11 0.93 0
 6 1 -3 20.08 0.66 0
 6 1 -2 11.36 0.52 0
 6 1 -1 1 0.25 0
 6 1 0 1.14 0.24 0
 6 2 -18 53.9 1.78 0
 6 2 -17 42.6 1.62 0
 6 2 -16 14.17 1.08 0
 6 2 -15 64.49 1.79 0
 6 2 -14 11.11 0.88 0
 6 2 -13 69.63 1.73 0
 6 2 -12 12.44 0.84 0
 6 2 -11 130.06 2.2 0
 6 2 -10 13.58 0.79 0
 6 2 -9 4.91 0.59 0
 6 2 -8 0.06 0.34 0
 6 2 -7 103.42 1.71 0
 6 2 -6 0.03 0.37 0
 6 2 -5 132.1 1.8 0
 6 2 -1 131.87 1.63 0
 6 3 -17 26.98 1.36 0
 6 3 -15 5.99 0.88 0
 6 3 -14 30.58 1.36 0
 6 3 -12 2.41 0.59 0
 6 3 -11 86.5 1.91 0
 6 3 -10 30.26 1.14 0
 6 3 -9 42.69 1.27 0
 6 3 -8 24.23 1.02 0
 6 3 -7 53.94 1.36 0
 6 3 -6 24.66 0.95 0
 6 3 -4 12.74 0.72 0
 6 3 -3 6.12 0.56 0
 6 4 -16 19.73 1.26 0
 6 4 -15 58.92 1.79 0
 6 4 -14 13.41 1 0
 6 4 -12 73.13 1.92 0
 6 4 -11 39.31 1.42 0
 6 4 -9 181.63 2.72 0
 6 4 -8 63.66 1.64 0
 6 4 -7 50.93 1.47 0
 6 4 -6 57.31 1.5 0
 6 4 -5 177.43 2.46 0
 6 4 -4 13.45 0.84 0
 6 5 -15 11.23 1.19 0
 6 5 -14 58.99 1.95 0
 6 5 -13 71.9 2.02 0
 6 5 -12 0.57 0.64 0
 6 5 -11 89.98 2.14 0
 6 5 -10 75.38 1.95 0
 6 5 -9 28.78 1.25 0
 6 5 -8 30.35 1.34 0
 6 5 -7 131.32 2.42 0
 6 5 -6 14.66 0.98 0
 6 6 -13 31.69 1.55 0
 6 6 -12 39.86 1.62 0
 6 6 -10 23.53 1.45 0
 7 -6 -12 13.9 0.97 0
 7 -6 -11 7.29 0.82 0
 7 -6 -10 57.04 1.53 0
 7 -5 -13 12.09 0.99 0
 7 -5 -12 14.7 0.98 0
 7 -5 -8 115.64 1.92 0
 7 -5 -7 11.1 0.73 0
 7 -4 -13 15.02 1.03 0
 7 -4 -12 45.12 1.44 0
 7 -4 -11 52.57 1.5 0
 7 -4 -10 47.57 1.38 0
 7 -4 -9 8 0.74 0
 7 -4 -8 60.93 1.38 0
 7 -4 -7 32.53 1 0
 7 -4 -6 21.43 0.82 0
 7 -4 -5 22.64 0.77 0
 7 -3 -15 38.16 1.4 0
 7 -3 -14 52.02 1.58 0
 7 -3 -12 2.59 0.61 0
 7 -3 -11 7.77 0.81 0
 7 -3 -9 131.04 2.03 0
 7 -3 -8 18.02 0.84 0
 7 -3 -6 15.97 0.69 0
 7 -3 -5 45.95 1.01 0
 7 -2 -16 2.64 0.68 0
 7 -2 -15 37.89 1.42 0
 7 -2 -12 0.29 0.58 0
 7 -2 -11 122.86 2.12 0
 7 -2 -10 9.3 0.7 0
 7 -2 -9 3.5 0.52 0
 7 -2 -8 99.88 1.7 0
 7 -2 -7 122.2 1.75 0
 7 -2 -6 38.17 0.97 0
 7 -2 -5 94.16 1.38 0
 7 -2 -3 20.9 0.61 0
 7 -1 -16 25.39 1.28 0
 7 -1 -15 37.66 1.44 0
 7 -1 -14 31.96 1.32 0
 7 -1 -13 52.22 1.49 0
 7 -1 -12 2.8 0.63 0
 7 -1 -11 23.78 1.07 0
 7 -1 -10 24.02 1.02 0
 7 -1 -9 94.23 1.69 0
 7 -1 -8 72.81 1.47 0
 7 -1 -7 14.7 0.73 0
 7 -1 -6 89.75 1.45 0
 7 -1 -3 119.24 1.37 0
 7 0 -16 95.17 2.13 0
 7 0 -15 0.2 0.6 0
 7 0 -14 0.53 0.55 0
 7 0 -13 18.41 1.07 0
 7 0 -12 9.5 0.86 0
 7 0 -11 40.41 1.31 0
 7 0 -10 9.28 0.76 0
 7 0 -8 4.09 0.56 0
 7 0 -7 67.58 1.38 0
 7 0 -6 59.25 1.24 0
 7 0 -5 38.16 0.95 0
 7 0 -2 793.69 3.45 0
 7 1 -16 23.75 1.27 0
 7 1 -15 38.73 1.48 0
 7 1 -13 48.9 1.53 0
 7 1 -12 2.64 0.61 0
 7 1 -11 24.61 1.12 0
 7 1 -10 21.67 0.99 0
 7 1 -9 98.77 1.81 0
 7 1 -8 74.08 1.55 0
 7 1 -7 12.41 0.73 0
 7 1 -6 87.32 1.54 0
 7 1 -5 45.34 1.09 0
 7 1 -4 198.67 2.09 0
 7 1 -1 38.26 0.86 0
 7 2 -16 3.08 0.75 0
 7 2 -13 52.19 1.59 0
 7 2 -12 1.44 0.64 0
 7 2 -11 123.98 2.22 0
 7 2 -10 9.33 0.85 0
 7 2 -9 3.34 0.62 0
 7 2 -8 93.82 1.77 0
 7 2 -7 121.28 1.96 0
 7 2 -6 39.16 1.13 0
 7 2 -4 178.38 2.16 0
 7 2 -3 22.88 0.82 0
 7 2 -2 15.85 0.7 0
 7 3 -15 36.78 1.51 0
 7 3 -14 50.63 1.67 0
 7 3 -13 43.38 1.55 0
 7 3 -12 1.63 0.65 0
 7 3 -11 9.06 0.89 0
 7 3 -10 53.69 1.55 0
 7 3 -9 130.97 2.29 0
 7 3 -8 17.44 0.97 0
 7 3 -7 45.35 1.38 0
 7 3 -6 15.41 0.89 0
 7 3 -5 43.79 1.24 0
 7 3 -4 14.22 0.76 0
 7 3 -3 43.55 1.21 0
 7 4 -13 14.28 1.15 0
 7 4 -12 42.05 1.53 0
 7 4 -11 48.89 1.65 0
 7 4 -10 47.87 1.63 0
 7 4 -8 60.32 1.67 0
 7 4 -7 31.45 1.22 0
 7 4 -6 22.48 1.04 0
 7 4 -5 25.23 1.12 0
 7 5 -13 13.02 1.17 0
 7 5 -12 15.17 1.17 0
 7 5 -11 4.65 0.78 0
 7 5 -10 2.68 0.69 0
 7 5 -8 116.27 2.51 0
 8 -4 -12 0.41 0.51 0
 8 -4 -11 9.07 0.78 0
 8 -3 -13 4.17 0.66 0
 8 -3 -12 17.01 0.99 0
 8 -3 -10 3.55 0.59 0
 8 -2 -14 5.14 0.81 0
 8 -2 -12 0.25 0.49 0
 8 -2 -11 10.14 0.82 0
 8 -2 -10 2.37 0.52 0
 8 -2 -9 15.18 0.84 0
 8 -2 -8 -0.23 0.36 0
 8 -2 -7 55.41 1.23 0
 8 -1 -14 1.36 0.59 0
 8 -1 -13 27.7 1.24 0
 8 -1 -12 13.26 0.98 0
 8 -1 -11 107.58 2.03 0
 8 -1 -10 45.86 1.3 0
 8 -1 -8 4.23 0.55 0
 8 -1 -7 117.04 1.79 0
 8 -1 -6 18.79 0.76 0
 8 0 -14 11.94 1.01 0
 8 0 -13 39.52 1.42 0
 8 0 -11 49.56 1.44 0
 8 0 -10 7.19 0.77 0
 8 0 -9 15.1 0.87 0
 8 0 -6 15.24 0.74 0
 8 0 -5 0.25 0.29 0
 8 0 -4 2.39 0.4 0
 8 1 -14 0.59 0.63 0
 8 1 -13 26.88 1.26 0
 8 1 -12 12.87 0.92 0
 8 1 -11 112.64 2.14 0
 8 1 -10 45.95 1.37 0
 8 1 -9 63.52 1.53 0
 8 1 -8 4.72 0.64 0
 8 1 -7 113.93 1.88 0
 8 1 -6 20.04 0.88 0
 8 1 -5 130.19 1.88 0
 8 1 -4 45.32 1.11 0
 8 1 -3 42.9 1.03 0
 8 2 -14 5.39 0.78 0
 8 2 -12 -0.03 0.57 0
 8 2 -10 1.53 0.53 0
 8 2 -9 13.77 0.89 0
 8 2 -8 0.87 0.57 0
 8 2 -6 67.62 1.54 0
 8 2 -4 23.29 0.92 0
 8 2 -3 34.76 1.05 0
 8 3 -13 4.81 0.8 0
 8 3 -12 16.01 1.13 0
 8 3 -11 110.29 2.3 0
 8 3 -10 5.12 0.74 0
 8 3 -9 24.19 1.15 0
 8 3 -8 40.29 1.41 0
 8 3 -7 34.73 1.3 0
 8 3 -6 34.26 1.25 0
 8 4 -12 0.62 0.62 0
 8 4 -11 9.85 1 0
 8 4 -9 105.06 2.28 0
 8 4 -8 2.78 0.73 0
 8 4 -7 37.64 1.42 0
 9 -1 -12 11.18 0.87 0
 9 -1 -11 49.1 1.4 0
 9 0 -12 36.75 1.31 0
 9 0 -11 1.76 0.52 0
 9 0 -10 12.41 0.84 0
 9 0 -9 23.52 1 0
 9 1 -12 11.89 0.96 0
 9 1 -11 51.21 1.5 0
 9 1 -10 35.42 1.26 0
 9 1 -9 22.14 1.02 0
 9 1 -8 8.86 0.76 0
 9 1 -7 17.49 0.9 0
 9 2 -11 15.62 1.03 0
 9 2 -10 15.57 0.99 0
 9 2 -9 40.97 1.39 0
 9 2 -8 2.74 0.58 0
 9 2 -7 13.3 0.86 0
 9 2 -6 62.26 1.51 0
 9 3 -10 32.55 1.37 0
 9 3 -9 8.01 0.9 0
 9 3 -8 46.26 1.5 0
 9 3 -7 9.59 0.87 0
 -2 -3 8 128.98 0.87 0
 -2 -2 9 197.26 1.15 0
 -2 -2 10 4.08 0.26 0
 -2 -2 11 95.49 0.99 0
 -2 -2 12 88.79 1.02 0
 -1 -5 9 84.47 1.36 0
 -1 -5 10 16.94 0.68 0
 -1 -4 7 405.89 2.48 0
 -1 -4 8 62.56 1.03 0
 -1 -4 9 5.18 0.41 0
 -1 -4 10 46 0.94 0
 -1 -4 11 392.04 2.66 0
 -1 -4 12 78.35 1.28 0
 -1 -3 4 139.34 1.21 0
 -1 -3 6 102.82 1.06 0
 -1 -3 7 267.27 1.74 0
 -1 -3 8 66.86 0.93 0
 -1 -3 9 586.4 2.75 0
 -1 -3 10 49.8 0.89 0
 -1 -3 11 77.32 1.14 0
 -1 -3 13 124.05 1.56 0
 -1 -2 3 927.9 2.26 0
 -1 -2 5 724.48 2.08 0
 -1 -2 6 33.83 0.53 0
 -1 -2 7 171.88 1.22 0
 -1 -2 10 13.11 0.49 0
 -1 -2 11 10.88 0.49 0
 -1 -2 12 53.72 0.99 0
 -1 -2 15 25.69 0.84 0
 -1 -1 17 33.33 1.02 0
 0 -5 5 109.82 1.74 0
 0 -5 6 0.41 0.38 0
 0 -5 8 20.1 0.83 0
 0 -5 10 64.29 1.42 0
 0 -4 3 1.41 0.35 0
 0 -4 6 187.19 1.95 0
 0 -4 7 139.59 1.73 0
 0 -4 8 221.89 2.19 0
 0 -4 9 170.42 1.97 0
 0 -4 10 108.94 1.63 0
 0 -4 11 14.93 0.73 0
 0 -4 12 328.29 2.91 0
 0 -4 15 15.08 0.83 0
 0 -3 2 0.46 0.31 0
 0 -3 3 97.98 1.15 0
 0 -3 4 774.03 3.22 0
 0 -3 5 329.27 2.14 0
 0 -3 7 401.24 2.49 0
 0 -3 8 122.43 1.46 0
 0 -3 9 155.24 1.69 0
 0 -3 10 47.12 1.05 0
 0 -3 11 386.86 2.88 0
 0 -3 12 16.69 0.75 0
 0 -3 13 3.4 0.46 0
 0 -3 16 55.38 1.37 0
 0 -2 1 67.87 0.79 0
 0 -2 2 3221.73 5.14 0
 0 -2 3 1346.9 3.33 0
 0 -2 5 179.23 1.35 0
 0 -2 6 3687.78 6.29 0
 0 -2 8 1.82 0.31 0
 0 -2 9 391.41 2.43 0
 0 -2 10 389.99 2.57 0
 0 -2 11 4.56 0.47 0
 0 -2 13 251.72 2.43 0
 0 -2 18 44.66 1.32 0
 0 -1 1 510.69 1.4 0
 0 -1 2 9849 6.35 0
 0 -1 3 131.42 0.81 0
 0 -1 17 41 1.22 0
 0 -1 18 0.57 0.52 0
 0 -1 19 40.63 1.31 0
 1 -7 10 29.23 1.28 0
 1 -7 12 0.58 0.64 0
 1 -6 9 1.33 0.5 0
 1 -6 10 1.53 0.55 0
 1 -6 11 24.84 1.14 0
 1 -6 12 18.84 1.06 0
 1 -5 3 584.57 4.15 0
 1 -5 4 8.72 0.69 0
 1 -5 5 56.54 1.32 0
 1 -5 6 103.45 1.78 0
 1 -5 7 225.33 2.68 0
 1 -5 12 28.36 1.15 0
 1 -5 14 13.08 0.93 0
 1 -4 1 240.82 2.38 0
 1 -4 2 53.57 1.15 0
 1 -4 3 238.1 2.33 0
 1 -4 4 25.21 0.82 0
 1 -4 5 87.51 1.46 0
 1 -4 6 62.4 1.3 0
 1 -4 7 414.67 3.2 0
 1 -4 8 64.23 1.36 0
 1 -4 9 5.48 0.61 0
 1 -4 10 45.04 1.18 0
 1 -4 14 55.98 1.49 0
 1 -3 0 347.6 2.47 0
 1 -3 1 602.44 3.15 0
 1 -3 2 94.11 1.31 0
 1 -3 3 768.09 3.58 0
 1 -3 4 142.37 1.57 0
 1 -3 5 43.31 0.94 0
 1 -3 6 98.8 1.39 0
 1 -3 7 268.9 2.33 0
 1 -3 8 69.03 1.28 0
 1 -3 9 618.68 3.75 0
 1 -3 10 51.94 1.21 0
 1 -3 11 77.49 1.53 0
 1 -3 15 1.04 0.48 0
 1 -3 17 28.32 1.23 0
 1 -3 18 69.49 1.76 0
 1 -2 0 1.79 0.26 0
 1 -2 1 125.4 1.23 0
 1 -2 2 508.67 2.39 0
 1 -2 3 980 3.38 0
 1 -2 4 300.84 1.98 0
 1 -2 5 763.68 3.2 0
 1 -2 6 32.14 0.75 0
 1 -2 7 167.19 1.65 0
 1 -2 9 442.63 2.92 0
 1 -2 10 13.63 0.63 0
 1 -2 11 11.2 0.66 0
 1 -2 15 24.79 0.99 0
 1 -2 17 12.75 0.92 0
 1 -2 18 11.86 0.9 0
 1 -2 19 26.62 1.22 0
 1 -1 -1 251.21 1.34 0
 1 -1 0 134.09 0.96 0
 1 -1 1 245.47 1.3 0
 1 -1 2 206.76 1.23 0
 1 -1 3 2041.64 4.03 0
 1 -1 4 288.43 1.64 0
 1 -1 17 32.11 1.19 0
 1 -1 18 30.34 1.24 0
 1 -1 19 13.91 0.98 0
 1 -1 21 0.54 0.68 0
 1 0 21 0.72 0.59 0
 2 -7 7 3.28 0.79 0
 2 -7 8 23.8 1.26 0
 2 -7 10 166.78 3.04 0
 2 -7 11 13.06 1.14 0
 2 -7 13 4.83 0.85 0
 2 -7 14 9.39 1.13 0
 2 -6 5 55.09 1.57 0
 2 -6 6 13.85 1 0
 2 -6 9 9.95 0.85 0
 2 -6 10 129.06 2.49 0
 2 -6 11 3.73 0.74 0
 2 -6 12 32.28 1.36 0
 2 -6 15 1.59 0.71 0
 2 -6 16 9.26 1.03 0
 2 -5 2 4.04 0.61 0
 2 -5 9 42.54 1.4 0
 2 -5 10 0.43 0.5 0
 2 -5 12 148.95 2.6 0
 2 -5 13 -0.16 0.52 0
 2 -5 14 5.48 0.78 0
 2 -5 15 2.81 0.69 0
 2 -5 16 63.33 1.87 0
 2 -5 17 16.07 1.13 0
 2 -4 0 25.06 0.89 0
 2 -4 1 421.41 3.32 0
 2 -4 2 10.04 0.67 0
 2 -4 3 130.5 1.91 0
 2 -4 4 314.36 2.93 0
 2 -4 5 224.96 2.52 0
 2 -4 6 42.01 1.17 0
 2 -4 7 272.5 2.85 0
 2 -4 11 25.02 1.04 0
 2 -4 12 53.78 1.53 0
 2 -4 13 0.45 0.5 0
 2 -4 14 19.62 1.04 0
 2 -4 15 14.88 1.04 0
 2 -4 17 20.74 1.24 0
 2 -4 18 6.3 0.89 0
 2 -4 19 11.08 1.07 0
 2 -3 -1 333.13 2.65 0
 2 -3 0 -0 0.29 0
 2 -3 1 328.09 2.59 0
 2 -3 2 456.33 3.04 0
 2 -3 3 429.68 2.95 0
 2 -3 4 110.98 1.58 0
 2 -3 5 504.36 3.31 0
 2 -3 6 1038.99 4.85 0
 2 -3 7 13.33 0.67 0
 2 -3 8 135.46 1.92 0
 2 -3 9 86.15 1.61 0
 2 -3 12 145.24 2.28 0
 2 -3 13 28.1 1.15 0
 2 -3 14 10.77 0.83 0
 2 -3 15 14.27 1.02 0
 2 -3 16 41.92 1.5 0
 2 -3 17 25.47 1.27 0
 2 -3 18 5.67 0.86 0
 2 -3 19 5.64 0.88 0
 2 -3 20 12.67 1.13 0
 2 -2 -2 1953.15 5.44 0
 2 -2 -1 563.96 2.88 0
 2 -2 1 552.37 2.82 0
 2 -2 2 1962.19 5.31 0
 2 -2 3 195.3 1.75 0
 2 -2 5 11.8 0.58 0
 2 -2 6 479.74 3 0
 2 -2 7 212.7 2.09 0
 2 -2 8 231.06 2.27 0
 2 -2 9 197.29 2.19 0
 2 -2 10 4.73 0.59 0
 2 -2 13 97.21 1.87 0
 2 -2 14 40.31 1.27 0
 2 -2 15 41.85 1.35 0
 2 -2 17 -0.38 0.51 0
 2 -2 18 12 1.07 0
 2 -2 19 1.62 0.68 0
 2 -2 20 31.01 1.42 0
 2 -2 21 31.51 1.46 0
 2 -1 -2 1084.4 3.27 0
 2 -1 -1 116.21 1.1 0
 2 -1 0 5902.78 7.41 0
 2 -1 1 110.8 1.09 0
 2 -1 2 1093.66 3.43 0
 2 -1 3 348.21 2.05 0
 2 -1 4 1931.36 4.94 0
 2 -1 5 32.08 0.72 0
 2 -1 16 34.79 1.32 0
 2 -1 17 101.1 2.19 0
 2 -1 18 121.51 2.45 0
 2 -1 19 47.25 1.64 0
 2 -1 20 9.12 1.12 0
 2 -1 22 35.7 1.6 0
 2 0 0 5564.86 5.72 0
 2 0 1 946.07 2.53 0
 2 0 20 0.1 0.62 0
 2 0 21 56.55 1.89 0
 2 0 22 27.04 1.43 0
 3 -8 10 64.95 2.16 0
 3 -8 11 4.25 0.97 0
 3 -8 13 29.74 1.66 0
 3 -8 14 13.8 1.34 0
 3 -7 5 124.86 2.74 0
 3 -7 6 41.59 1.75 0
 3 -7 7 13.15 1.2 0
 3 -7 8 40.34 1.72 0
 3 -7 9 8.37 0.98 0
 3 -7 10 5.42 0.89 0
 3 -7 11 5.93 0.92 0
 3 -7 13 20.35 1.37 0
 3 -7 14 40.17 1.72 0
 3 -6 2 28.04 1.26 0
 3 -6 3 258.93 3.51 0
 3 -6 4 65.73 1.86 0
 3 -6 7 70.86 1.92 0
 3 -6 8 25.51 1.28 0
 3 -6 10 0.5 0.74 0
 3 -6 11 4.19 0.86 0
 3 -6 12 24.15 1.3 0
 3 -6 13 4.55 0.95 0
 3 -6 14 42.38 1.78 0
 3 -6 15 29.42 1.59 0
 3 -6 16 30.49 1.57 0
 3 -6 17 13.46 1.25 0
 3 -5 4 1.1 0.48 0
 3 -5 5 93.72 1.98 0
 3 -5 6 55.41 1.62 0
 3 -5 7 86.13 1.97 0
 3 -5 8 20.11 1.14 0
 3 -5 9 13.94 0.94 0
 3 -5 10 55.75 1.69 0
 3 -5 11 37.31 1.44 0
 3 -5 13 24.57 1.33 0
 3 -5 14 47.27 1.75 0
 3 -5 15 5.05 0.85 0
 3 -5 16 55.64 1.91 0
 3 -4 -1 367.19 3.4 0
 3 -4 0 12.75 0.74 0
 3 -4 1 352.07 3.28 0
 3 -4 2 45.62 1.28 0
 3 -4 3 693.73 4.65 0
 3 -4 8 122.61 2.16 0
 3 -4 9 36.55 1.29 0
 3 -4 10 20.98 1.11 0
 3 -4 11 40.53 1.42 0
 3 -4 13 14.24 1.03 0
 3 -4 14 29.41 1.37 0
 3 -4 15 81.34 2.1 0
 3 -4 16 25.14 1.43 0
 3 -4 17 -0.01 0.63 0
 3 -4 19 28.36 1.5 0
 3 -4 20 7.72 1.07 0
 3 -3 -1 397.68 3.1 0
 3 -3 0 335.53 2.84 0
 3 -3 1 403.77 3.15 0
 3 -3 2 25.09 0.89 0
 3 -3 5 330.04 2.97 0
 3 -3 6 4.84 0.6 0
 3 -3 10 16.99 0.91 0
 3 -3 11 113.69 2.15 0
 3 -3 13 16.81 1.08 0
 3 -3 14 10.3 0.92 0
 3 -3 15 11.42 1.09 0
 3 -3 16 1.55 0.67 0
 3 -3 17 7.97 0.98 0
 3 -3 18 0.43 0.66 0
 3 -3 19 9.95 1.21 0
 3 -3 20 3.69 0.97 0
 3 -3 21 0.83 0.73 0
 3 -2 -2 666.97 3.48 0
 3 -2 -1 229.3 2.06 0
 3 -2 1 226.9 2.05 0
 3 -2 2 656.47 3.5 0
 3 -2 3 772.04 3.91 0
 3 -2 5 422.39 3.06 0
 3 -2 6 142 1.87 0
 3 -2 8 184.77 2.27 0
 3 -2 11 22.24 1.04 0
 3 -2 12 115.06 2.11 0
 3 -2 14 58.78 1.64 0
 3 -2 15 20.3 1.14 0
 3 -2 18 3.24 0.78 0
 3 -2 19 38.59 1.69 0
 3 -2 20 5.06 0.91 0
 3 -2 21 39.19 1.73 0
 3 -1 -3 150.06 1.43 0
 3 -1 -2 394.07 2.26 0
 3 -1 -1 520.78 2.6 0
 3 -1 0 57.61 0.93 0
 3 -1 2 399.08 2.45 0
 3 -1 3 150.98 1.58 0
 3 -1 5 41.31 0.94 0
 3 -1 6 220.82 2.14 0
 3 -1 7 6.59 0.51 0
 3 -1 8 428.55 3.2 0
 3 -1 11 23.01 0.92 0
 3 -1 12 46.25 1.34 0
 3 -1 13 51.95 1.44 0
 3 -1 14 154.96 2.52 0
 3 -1 15 46.27 1.55 0
 3 -1 16 9.93 0.98 0
 3 -1 17 30.2 1.37 0
 3 -1 18 34.58 1.57 0
 3 -1 19 30.52 1.5 0
 3 -1 20 7.08 0.97 0
 3 -1 21 25.18 1.44 0
 3 0 -1 148.93 1.16 0
 3 0 0 0.46 0.21 0
 3 0 1 148.85 1.26 0
 3 0 2 267.43 1.79 0
 3 0 19 1.52 0.84 0
 3 0 20 50.11 1.88 0
 3 0 21 0.8 0.89 0
 3 1 -2 380.81 1.35 0
 3 1 21 25.79 1.48 0
 4 -8 9 18.53 1.49 0
 4 -8 10 30.95 1.82 0
 4 -8 11 56.83 2.27 0
 4 -8 12 18.14 1.51 0
 4 -7 4 55.93 2.04 0
 4 -7 6 51.95 1.95 0
 4 -7 7 5.51 0.96 0
 4 -7 8 7.79 1.06 0
 4 -7 9 19.94 1.47 0
 4 -7 10 12.56 1.3 0
 4 -7 11 14.5 1.31 0
 4 -7 12 28.06 1.66 0
 4 -7 13 40.55 1.81 0
 4 -7 14 4.76 0.95 0
 4 -7 15 38.68 1.81 0
 4 -6 2 22.79 1.23 0
 4 -6 3 71.64 2.05 0
 4 -6 4 3.47 0.72 0
 4 -6 5 48.27 1.78 0
 4 -6 6 78.09 2.16 0
 4 -6 7 7.42 0.93 0
 4 -6 8 23.8 1.4 0
 4 -6 9 45.31 1.73 0
 4 -6 10 58.1 2 0
 4 -6 11 3.49 0.86 0
 4 -6 12 29.04 1.64 0
 4 -6 15 4.48 0.94 0
 4 -6 16 25.43 1.6 0
 4 -6 17 75.6 2.39 0
 4 -5 0 0.44 0.49 0
 4 -5 1 94.8 2.1 0
 4 -5 3 45.88 1.54 0
 4 -5 4 23.59 1.2 0
 4 -5 6 37.25 1.42 0
 4 -5 7 34.79 1.41 0
 4 -5 8 111.37 2.41 0
 4 -5 9 4.58 0.78 0
 4 -5 10 138.76 2.77 0
 4 -5 11 36.37 1.54 0
 4 -5 12 88.64 2.34 0
 4 -5 13 4.8 0.89 0
 4 -5 15 19.48 1.35 0
 4 -5 16 18.93 1.42 0
 4 -5 17 11.3 1.26 0
 4 -5 18 27.78 1.65 0
 4 -4 5 114.37 2.13 0
 4 -4 6 79.33 1.84 0
 4 -4 7 57.98 1.64 0
 4 -4 8 8.64 0.81 0
 4 -4 9 3.74 0.74 0
 4 -4 12 93.31 2.22 0
 4 -4 13 30.58 1.46 0
 4 -4 14 6.77 0.95 0
 4 -4 16 72.32 2.22 0
 4 -4 17 58.79 2.01 0
 4 -4 18 1.07 0.81 0
 4 -3 -2 44.52 1.19 0
 4 -3 -1 187.03 2.37 0
 4 -3 1 181.78 2.35 0
 4 -3 8 81.73 1.78 0
 4 -3 9 99.04 2.04 0
 4 -3 11 42 1.47 0
 4 -3 12 38.1 1.48 0
 4 -3 13 122.58 2.58 0
 4 -3 14 17.15 1.26 0
 4 -3 16 19.13 1.38 0
 4 -3 17 29.76 1.63 0
 4 -3 18 26.82 1.57 0
 4 -3 19 18.92 1.47 0
 4 -3 20 20.1 1.47 0
 4 -2 -3 227.21 2.28 0
 4 -2 -2 206.5 2.15 0
 4 -2 -1 174.07 2 0
 4 -2 0 89.56 1.48 0
 4 -2 1 170.02 1.99 0
 4 -2 2 215.57 2.27 0
 4 -2 3 229.38 2.39 0
 4 -2 5 93.98 1.69 0
 4 -2 9 62.38 1.53 0
 4 -2 10 212.18 2.85 0
 4 -2 12 14.31 1.02 0
 4 -2 13 1.23 0.69 0
 4 -2 14 17.46 1.11 0
 4 -2 15 12.85 1.17 0
 4 -2 16 31.47 1.49 0
 4 -2 17 41.59 1.68 0
 4 -2 18 30.28 1.58 0
 4 -2 19 8.16 1.11 0
 4 -1 -3 36.87 0.83 0
 4 -1 -2 47.35 0.95 0
 4 -1 0 557.77 3.11 0
 4 -1 1 434.26 2.83 0
 4 -1 4 178.95 2.01 0
 4 -1 5 132.56 1.81 0
 4 -1 6 217.41 2.37 0
 4 -1 9 3.16 0.51 0
 4 -1 10 28.47 1.12 0
 4 -1 11 86.58 1.86 0
 4 -1 12 205.58 2.88 0
 4 -1 13 33.18 1.36 0
 4 -1 14 53.23 1.67 0
 4 -1 15 3.21 0.72 0
 4 -1 16 24.55 1.3 0
 4 -1 17 32.05 1.52 0
 4 -1 18 59.85 2.05 0
 4 -1 19 39.32 1.76 0
 4 0 -2 155.17 1.38 0
 4 0 -1 62.03 0.91 0
 4 0 0 354.01 2.22 0
 4 0 1 61.67 1.01 0
 4 0 2 153.5 1.59 0
 4 0 3 12.74 0.55 0
 4 0 4 381.73 2.68 0
 4 0 16 113.2 2.52 0
 4 0 17 4.45 0.85 0
 4 0 19 4.16 0.9 0
 4 0 20 1.06 0.91 0
 4 0 21 -0.55 0.76 0
 4 1 -3 35.38 0.5 0
 4 1 -2 46.01 0.63 0
 4 1 0 562.42 2.48 0
 4 1 1 417.64 2.27 0
 4 1 20 6.62 1.06 0
 4 2 -2 214 1.15 0
 5 -8 8 35.15 1.97 0
 5 -8 10 37.85 2.03 0
 5 -8 11 0.88 0.92 0
 5 -7 4 32.32 1.67 0
 5 -7 6 22.87 1.63 0
 5 -7 7 48.39 2.03 0
 5 -7 8 60.84 2.3 0
 5 -7 10 38.29 1.94 0
 5 -7 12 29.39 1.77 0
 5 -6 4 18.67 1.34 0
 5 -6 5 6.41 1.02 0
 5 -6 6 52.24 1.96 0
 5 -6 7 9.62 1.03 0
 5 -6 8 -0.38 0.77 0
 5 -6 9 39.56 1.78 0
 5 -6 11 22.45 1.6 0
 5 -6 13 8.44 1.25 0
 5 -6 14 21.56 1.62 0
 5 -6 15 0.9 0.91 0
 5 -5 1 261.79 3.64 0
 5 -5 2 38.35 1.48 0
 5 -5 3 20.01 1.22 0
 5 -5 4 91.13 2.24 0
 5 -5 6 31 1.49 0
 5 -5 7 42.22 1.74 0
 5 -5 8 59.15 1.92 0
 5 -5 9 14.79 1.23 0
 5 -5 10 20.67 1.36 0
 5 -5 11 21.22 1.36 0
 5 -5 12 -0.45 0.72 0
 5 -5 13 17.61 1.33 0
 5 -5 14 39.83 1.85 0
 5 -5 16 16.77 1.48 0
 5 -4 -1 31.37 1.22 0
 5 -4 0 44.23 1.4 0
 5 -4 1 30.05 1.19 0
 5 -4 2 6.59 0.81 0
 5 -4 3 236.34 3.23 0
 5 -4 4 42.78 1.5 0
 5 -4 7 47.7 1.59 0
 5 -4 8 58.8 1.84 0
 5 -4 9 58.4 1.82 0
 5 -4 10 31.88 1.43 0
 5 -4 11 9.62 1.12 0
 5 -4 12 22.54 1.38 0
 5 -4 13 6.35 1.06 0
 5 -4 14 6.86 1.08 0
 5 -4 15 1.82 0.95 0
 5 -4 16 20.43 1.4 0
 5 -4 17 7.06 1.19 0
 5 -4 18 -0.14 0.81 0
 5 -3 5 98.03 2.01 0
 5 -3 7 169.7 2.69 0
 5 -3 8 279.52 3.56 0
 5 -3 9 1.86 0.64 0
 5 -3 10 173.6 2.96 0
 5 -3 11 13.67 1.14 0
 5 -3 14 77.06 2.26 0
 5 -3 16 13.34 1.22 0
 5 -3 17 3.52 1.08 0
 5 -3 19 9.88 1.28 0
 5 -2 -3 45.53 1.18 0
 5 -2 -2 258.94 2.62 0
 5 -2 -1 51.63 1.24 0
 5 -2 0 237.88 2.56 0
 5 -2 1 54.03 1.29 0
 5 -2 7 21.1 1.01 0
 5 -2 8 87.36 1.94 0
 5 -2 9 34.73 1.36 0
 5 -2 10 194.39 2.99 0
 5 -2 11 74.14 1.94 0
 5 -2 12 20.98 1.19 0
 5 -2 14 124.1 2.68 0
 5 -2 15 12.78 1.3 0
 5 -2 16 0.97 0.74 0
 5 -2 17 4.3 0.95 0
 5 -2 18 52.58 2.07 0
 5 -2 19 8.53 1.15 0
 5 -1 -3 286.61 2.41 0
 5 -1 -2 767.75 3.96 0
 5 -1 0 466.35 3.2 0
 5 -1 2 780.3 4.36 0
 5 -1 3 291.46 2.78 0
 5 -1 4 162.26 2.15 0
 5 -1 7 110.98 1.97 0
 5 -1 8 95.01 1.9 0
 5 -1 9 127.67 2.27 0
 5 -1 10 11.6 0.84 0
 5 -1 11 53.33 1.64 0
 5 -1 12 33.52 1.42 0
 5 -1 13 56.03 1.74 0
 5 -1 14 40.58 1.65 0
 5 -1 16 85.79 2.38 0
 5 -1 17 15.98 1.38 0
 5 -1 18 7.15 1.14 0
 5 -1 19 17.25 1.36 0
 5 0 -2 219.8 1.87 0
 5 0 -1 394.35 2.58 0
 5 0 0 0.17 0.3 0
 5 0 2 221.06 2.19 0
 5 0 4 629.26 3.86 0
 5 0 8 224.98 2.75 0
 5 0 9 113.88 2.04 0
 5 0 10 12.63 0.91 0
 5 0 11 30.94 1.28 0
 5 0 12 0.58 0.53 0
 5 0 13 109.58 2.35 0
 5 0 14 4.01 0.78 0
 5 0 15 20.89 1.34 0
 5 0 17 79.75 2.32 0
 5 0 18 1.47 0.82 0
 5 0 19 17.41 1.46 0
 5 1 -3 277.3 1.65 0
 5 1 -1 185.83 1.59 0
 5 1 0 476 2.69 0
 5 1 1 186.88 1.8 0
 5 1 2 760.56 3.72 0
 5 1 3 293.23 2.47 0
 5 1 17 13.09 1.28 0
 5 1 19 15.92 1.45 0
 5 2 -2 263.28 1.51 0
 5 2 0 238.81 1.78 0
 5 2 1 51.99 0.94 0
 5 3 -2 51.71 0.63 0
 5 3 -1 60.53 0.8 0
 6 -8 8 6.77 1.21 0
 6 -7 5 7.65 1.3 0
 6 -7 6 16.88 1.42 0
 6 -7 10 8.96 1.27 0
 6 -7 11 24.02 1.79 0
 6 -6 2 76.12 2.33 0
 6 -6 3 71.87 2.35 0
 6 -6 4 29.04 1.64 0
 6 -6 6 77.84 2.45 0
 6 -6 7 5.96 1.02 0
 6 -6 8 17.29 1.47 0
 6 -6 9 84.38 2.66 0
 6 -6 10 20.31 1.58 0
 6 -6 11 31.74 1.86 0
 6 -6 13 33.84 1.95 0
 6 -6 14 13.31 1.51 0
 6 -5 0 66.53 2 0
 6 -5 1 59.55 1.92 0
 6 -5 3 70.49 2.11 0
 6 -5 4 68.9 2.07 0
 6 -5 5 104.97 2.59 0
 6 -5 7 131.67 2.93 0
 6 -5 11 91.99 2.67 0
 6 -5 12 -0.34 0.79 0
 6 -5 13 69.48 2.41 0
 6 -4 -1 116.8 2.42 0
 6 -4 0 0.18 0.55 0
 6 -4 1 111.52 2.37 0
 6 -4 2 26.49 1.25 0
 6 -4 3 37.93 1.47 0
 6 -4 4 12.03 1.04 0
 6 -4 5 185.61 3.13 0
 6 -4 6 61.24 1.89 0
 6 -4 7 53.5 1.85 0
 6 -4 8 63.36 2.04 0
 6 -4 9 186.31 3.44 0
 6 -4 10 30.21 1.64 0
 6 -4 11 41.08 1.81 0
 6 -4 12 75.59 2.39 0
 6 -4 13 47.87 1.92 0
 6 -4 15 57.15 2.15 0
 6 -4 16 19.56 1.6 0
 6 -3 -2 61.28 1.58 0
 6 -3 -1 4 0.66 0
 6 -3 1 4.77 0.68 0
 6 -3 2 63.09 1.73 0
 6 -3 3 5.81 0.79 0
 6 -3 5 31.48 1.3 0
 6 -3 8 24 1.32 0
 6 -3 9 42.9 1.68 0
 6 -3 10 30.47 1.55 0
 6 -3 11 79.94 2.23 0
 6 -3 12 3.23 0.96 0
 6 -3 13 70.14 2.27 0
 6 -3 14 31.86 1.73 0
 6 -3 15 6.53 1.13 0
 6 -3 16 45.25 2.03 0
 6 -3 17 28.94 1.79 0
 6 -2 2 3.62 0.56 0
 6 -2 3 2.76 0.61 0
 6 -2 4 29.85 1.18 0
 6 -2 5 134.68 2.33 0
 6 -2 6 0.14 0.48 0
 6 -2 7 101.88 2.16 0
 6 -2 8 -0.11 0.62 0
 6 -2 9 4.7 0.84 0
 6 -2 11 132.08 2.73 0
 6 -2 12 13.85 1.24 0
 6 -2 13 64.87 2.17 0
 6 -2 14 11.74 1.36 0
 6 -2 15 68.2 2.22 0
 6 -2 16 14.38 1.42 0
 6 -2 17 41.88 2 0
 6 -2 18 51.36 2.15 0
 6 -1 -2 11.09 0.64 0
 6 -1 0 1.33 0.42 0
 6 -1 6 32.26 1.24 0
 6 -1 8 12.81 0.98 0
 6 -1 9 15.6 1.08 0
 6 -1 10 3.1 0.7 0
 6 -1 12 36.48 1.57 0
 6 -1 13 7.39 1.02 0
 6 -1 14 34.33 1.67 0
 6 -1 15 10.76 1.14 0
 6 -1 16 3.17 1 0
 6 -1 18 11.82 1.43 0
 6 0 -2 24.06 0.77 0
 6 0 1 142.27 1.88 0
 6 0 2 22.98 0.9 0
 6 0 5 115.86 1.98 0
 6 0 6 18.13 0.93 0
 6 0 7 202.28 2.78 0
 6 0 8 43.62 1.41 0
 6 0 9 19.24 1.06 0
 6 0 10 19.51 1.15 0
 6 0 11 147.54 2.69 0
 6 0 12 8.71 0.94 0
 6 0 13 3.35 0.82 0
 6 0 14 8.83 1.02 0
 6 0 15 -1.13 0.69 0
 6 0 16 46.46 1.9 0
 6 0 17 28.5 1.65 0
 6 0 18 7.49 1.18 0
 6 1 -3 18.23 0.51 0
 6 1 -1 0.72 0.28 0
 6 1 0 0.91 0.31 0
 6 1 1 0.81 0.34 0
 6 1 7 10.34 0.76 0
 6 1 8 13.62 0.86 0
 6 1 9 14.37 1 0
 6 1 10 2.3 0.64 0
 6 1 11 14.55 1.08 0
 6 1 12 34.59 1.54 0
 6 1 13 8.46 1.02 0
 6 1 14 34.25 1.65 0
 6 1 15 10.9 1.21 0
 6 1 16 4.14 0.92 0
 6 1 17 21.92 1.52 0
 6 1 18 13.19 1.36 0
 6 2 1 131.74 1.61 0
 6 2 3 2.91 0.49 0
 6 2 17 41.88 1.84 0
 6 3 1 3.66 0.46 0
 7 -7 5 3.5 1.02 0
 7 -7 6 3.12 1.09 0
 7 -7 8 28.89 1.9 0
 7 -6 2 53.31 2.15 0
 7 -6 3 13.62 1.3 0
 7 -6 4 7.97 1.16 0
 7 -6 6 108.8 2.93 0
 7 -6 7 0.03 0.94 0
 7 -6 8 19.78 1.61 0
 7 -6 9 5.41 1.15 0
 7 -6 10 52.21 2.28 0
 7 -6 11 5.66 1.31 0
 7 -5 1 37.72 1.77 0
 7 -5 2 20.17 1.42 0
 7 -5 3 6.91 1.02 0
 7 -5 4 118.77 2.81 0
 7 -5 8 112.51 2.9 0
 7 -5 9 13.86 1.35 0
 7 -5 11 4.65 1.06 0
 7 -5 12 14.31 1.55 0
 7 -5 13 12.25 1.53 0
 7 -4 -1 13.09 1.12 0
 7 -4 0 197.41 3.35 0
 7 -4 1 13.2 1.13 0
 7 -4 2 14.21 1.16 0
 7 -4 4 77.47 2.19 0
 7 -4 5 22.46 1.44 0
 7 -4 6 22.51 1.42 0
 7 -4 7 30.98 1.58 0
 7 -4 10 48.55 2.06 0
 7 -4 11 48 2.05 0
 7 -4 13 13.9 1.32 0
 7 -4 14 27.9 1.76 0
 7 -3 -2 202.88 3 0
 7 -3 -1 0.52 0.56 0
 7 -3 0 6.14 0.84 0
 7 -3 1 1 0.58 0
 7 -3 2 199.71 3.14 0
 7 -3 4 14.98 1.04 0
 7 -3 5 43.47 1.71 0
 7 -3 6 15.51 1.24 0
 7 -3 8 16.71 1.32 0
 7 -3 9 130.97 2.86 0
 7 -3 10 52.79 1.98 0
 7 -3 11 9.31 1.23 0
 7 -3 12 2.57 0.91 0
 7 -3 13 43.37 1.96 0
 7 -3 14 52.1 2.18 0
 7 -3 15 36.82 1.89 0
 7 -2 -3 21.06 1.01 0
 7 -2 -2 15.98 0.93 0
 7 -2 -1 65.24 1.61 0
 7 -2 0 7.11 0.8 0
 7 -2 3 22.84 1.18 0
 7 -2 4 182.12 2.9 0
 7 -2 6 39.53 1.5 0
 7 -2 8 93.69 2.29 0
 7 -2 9 4.61 0.86 0
 7 -2 10 10.24 1.04 0
 7 -2 11 120.95 2.81 0
 7 -2 12 1.39 0.79 0
 7 -2 13 52.61 2.08 0
 7 -2 14 39.65 1.88 0
 7 -2 15 38.3 1.85 0
 7 -2 16 2.73 1.07 0
 7 -1 1 37.96 1.23 0
 7 -1 2 87.59 1.83 0
 7 -1 3 113.91 2.14 0
 7 -1 4 204.62 2.9 0
 7 -1 5 45.68 1.46 0
 7 -1 6 90.31 2.06 0
 7 -1 9 98.12 2.36 0
 7 -1 10 22.29 1.31 0
 7 -1 11 25.18 1.52 0
 7 -1 12 2.97 0.85 0
 7 -1 13 49.47 1.92 0
 7 -1 14 30.66 1.7 0
 7 -1 15 38.3 1.93 0
 7 0 -2 799.52 4.26 0
 7 0 -1 93.4 1.6 0
 7 0 3 0.13 0.43 0
 7 0 4 19.97 1 0
 7 0 5 37.19 1.35 0
 7 0 7 67.24 1.77 0
 7 0 9 5.24 0.81 0
 7 0 10 9.44 1.15 0
 7 0 11 39.91 1.68 0
 7 0 12 7.84 1.1 0
 7 0 13 16.94 1.35 0
 7 0 14 0.19 0.73 0
 7 0 15 0.71 0.9 0
 7 1 0 378.44 2.95 0
 7 1 3 116.77 1.94 0
 7 1 4 202.89 2.6 0
 7 1 5 47.09 1.41 0
 7 1 6 90.83 1.96 0
 7 1 7 11.87 0.91 0
 7 1 9 94.22 2.17 0
 7 1 12 3.23 0.93 0
 7 1 13 52.38 1.9 0
 7 1 14 30.85 1.61 0
 7 1 15 38.29 1.79 0
 7 1 16 22.23 1.61 0
 7 2 1 66.64 1.29 0
 7 2 3 21.77 0.87 0
 7 2 5 94.8 1.83 0
 7 2 6 38.22 1.25 0
 7 2 8 100.07 2.13 0
 7 2 9 4.43 0.75 0
 7 2 10 10.47 0.96 0
 7 2 11 126.05 2.59 0
 7 2 12 0.89 0.7 0
 7 2 13 55.4 1.97 0
 7 2 14 38.69 1.68 0
 7 2 15 36.9 1.79 0
 7 2 16 2.42 1.06 0
 7 3 3 44.24 1.16 0
 7 3 5 44.99 1.29 0
 7 3 7 44.54 1.38 0
 7 3 14 49.86 1.93 0
 7 3 15 40.05 1.82 0
 7 4 3 13.26 0.72 0
 7 4 4 77.57 1.55 0
 8 -6 3 52.59 2.23 0
 8 -6 4 9.59 1.28 0
 8 -6 5 3.61 1.06 0
 8 -6 6 10.87 1.47 0
 8 -6 7 46.79 2.16 0
 8 -6 8 -0.08 0.88 0
 8 -5 1 50.42 1.99 0
 8 -5 2 2.65 0.91 0
 8 -5 3 2.44 0.88 0
 8 -5 4 20.27 1.57 0
 8 -5 5 160.01 3.5 0
 8 -5 6 0.38 0.8 0
 8 -5 7 7.75 1.25 0
 8 -5 8 2.31 0.96 0
 8 -5 9 26.92 1.71 0
 8 -5 10 2.38 0.97 0
 8 -4 0 54.25 1.97 0
 8 -4 1 19.26 1.33 0
 8 -4 2 18.55 1.38 0
 8 -4 3 15.26 1.31 0
 8 -4 4 34.05 1.72 0
 8 -4 5 6.7 1.03 0
 8 -4 6 14.84 1.36 0
 8 -4 7 37.93 1.92 0
 8 -4 8 4.03 1.04 0
 8 -4 9 107.48 2.88 0
 8 -4 11 8.57 1.32 0
 8 -4 12 0.81 0.91 0
 8 -3 -1 139.37 2.69 0
 8 -3 0 4.92 0.8 0
 8 -3 1 139.8 2.77 0
 8 -3 2 80.21 2.18 0
 8 -3 3 56.12 1.95 0
 8 -3 4 50.62 1.86 0
 8 -3 5 45.36 1.85 0
 8 -3 9 24.17 1.61 0
 8 -3 10 5.77 1.1 0
 8 -3 11 100.53 2.82 0
 8 -3 12 14.73 1.42 0
 8 -3 13 4.04 1.06 0
 8 -2 -2 34.76 1.3 0
 8 -2 1 77.59 1.95 0
 8 -2 2 35.56 1.48 0
 8 -2 3 36.21 1.5 0
 8 -2 4 24.68 1.39 0
 8 -2 5 74.82 2.06 0
 8 -2 6 66.81 2 0
 8 -2 7 56.88 1.96 0
 8 -2 8 0.74 0.76 0
 8 -2 9 14.69 1.33 0
 8 -2 10 1.45 0.84 0
 8 -2 11 10.53 1.19 0
 8 -2 12 0.21 0.99 0
 8 -2 13 41.19 2 0
 8 -2 14 6.17 1.19 0
 8 -1 -1 41.83 1.3 0
 8 -1 1 44.62 1.44 0
 8 -1 2 27.96 1.24 0
 8 -1 3 40.66 1.42 0
 8 -1 5 135.27 2.63 0
 8 -1 6 19.42 1.27 0
 8 -1 7 114.28 2.54 0
 8 -1 8 4.26 0.9 0
 8 -1 9 65.85 2.09 0
 8 -1 10 46.37 1.91 0
 8 -1 11 110.23 2.77 0
 8 -1 12 13.55 1.37 0
 8 -1 13 28.19 1.67 0
 8 -1 14 2.31 0.99 0
 8 0 0 32.9 1.13 0
 8 0 1 4.04 0.61 0
 8 0 2 12.92 0.91 0
 8 0 3 22.51 1.08 0
 8 0 4 2.53 0.6 0
 8 0 5 -0.15 0.54 0
 8 0 7 81.35 2.14 0
 8 0 8 115.55 2.52 0
 8 0 10 5.94 0.96 0
 8 0 11 49.93 1.94 0
 8 0 12 43.01 1.91 0
 8 0 13 37.14 1.87 0
 8 0 14 9.99 1.29 0
 8 1 1 41.3 1.18 0
 8 1 2 25.25 1.01 0
 8 1 4 48.79 1.46 0
 8 1 5 137.83 2.44 0
 8 1 6 19.14 1.12 0
 8 1 7 118.79 2.46 0
 8 1 8 4.24 0.78 0
 8 1 9 65.56 1.98 0
 8 1 10 46.26 1.82 0
 8 1 11 107.08 2.57 0
 8 1 12 12.39 1.19 0
 8 1 13 26.67 1.52 0
 8 2 3 36.64 1.19 0
 8 2 4 25.01 1.07 0
 8 2 5 75.48 1.79 0
 8 2 7 56.29 1.67 0
 8 2 8 -0.64 0.61 0
 8 2 9 13.97 1.13 0
 8 2 11 10.42 1.05 0
 8 2 12 0.11 0.7 0
 8 2 13 38.14 1.72 0
 8 2 14 6.69 1.08 0
 8 3 4 49.65 1.36 0
 8 3 5 45.44 1.39 0
 8 3 7 33.1 1.31 0
 8 3 8 41.54 1.51 0
 8 3 9 24.96 1.28 0
 8 3 10 4.7 0.91 0
 8 3 12 15.72 1.33 0
 8 3 13 4.39 0.96 0
 8 4 6 12.73 0.91 0
 8 4 8 3.56 0.77 0
 8 4 9 111.21 2.37 0
 8 4 11 10.1 1.21 0
 8 4 12 1 0.8 0
 8 5 9 25.32 1.27 0
 8 5 10 0.95 0.69 0
 8 5 11 16.95 1.23 0
 9 -5 3 7.76 1.25 0
 9 -5 4 5.2 1.09 0
 9 -4 1 12.63 1.2 0
 9 -4 2 14.07 1.3 0
 9 -4 3 28.5 1.67 0
 9 -4 4 57.79 2.17 0
 9 -4 5 17.04 1.42 0
 9 -4 6 40.49 1.97 0
 9 -4 7 6.74 1.2 0
 9 -4 8 85.57 2.73 0
 9 -3 1 15.12 1.19 0
 9 -3 2 25.05 1.45 0
 9 -3 3 15.01 1.21 0
 9 -3 4 116.5 2.8 0
 9 -3 5 -0.51 0.7 0
 9 -3 6 12.54 1.32 0
 9 -3 8 49.7 2.07 0
 9 -3 9 7.35 1.12 0
 9 -3 10 32.28 1.77 0
 9 -2 -1 17.35 1.1 0
 9 -2 0 82.77 2.06 0
 9 -2 1 19.14 1.16 0
 9 -2 2 132.09 2.7 0
 9 -2 3 4.63 0.91 0
 9 -2 4 54.58 1.92 0
 9 -2 5 13.4 1.25 0
 9 -2 9 41.46 1.87 0
 9 -2 10 14.84 1.35 0
 9 -2 11 15.73 1.49 0
 9 -1 2 58.03 1.74 0
 9 -1 3 2.01 0.65 0
 9 -1 4 5.23 0.83 0
 9 -1 5 35.02 1.57 0
 9 -1 6 11.12 1.19 0
 9 -1 9 20.7 1.4 0
 9 -1 10 36.75 1.77 0
 9 -1 11 52.47 2.11 0
 9 0 2 57.66 1.64 0
 9 0 3 71.82 1.83 0
 9 0 4 22.83 1.22 0
 9 0 5 1.51 0.66 0
 9 0 6 1.35 0.64 0
 9 0 7 55.34 1.87 0
 9 0 8 91.04 2.39 0
 9 0 9 23.86 1.51 0
 9 0 10 13.03 1.33 0
 9 0 11 1.44 0.82 0
 9 0 12 32.3 1.8 0
 9 1 4 5.21 0.72 0
 9 1 5 33.99 1.36 0
 9 1 6 11.22 1 0
 9 1 8 10.41 1.14 0
 9 1 9 21.25 1.39 0
 9 1 10 36.61 1.73 0
 9 1 11 49.52 1.92 0
 9 2 6 64.22 1.78 0
 9 2 7 12.84 1.07 0
 9 2 8 1.46 0.7 0
 9 2 9 39.57 1.67 0
 9 2 10 13.1 1.2 0
 9 2 11 17.09 1.38 0
 9 3 8 49.91 1.7 0
 9 3 9 6.11 0.92 0
 9 3 10 32.57 1.53 0
 10 -3 2 31.63 1.6 0
 10 -3 3 83.41 2.38 0
 10 -3 4 15.48 1.36 0
 10 -3 5 6.4 1.07 0
 10 -2 3 6.46 0.95 0
 10 -2 4 3.95 0.91 0
 10 -2 5 56.99 2.02 0
 10 -2 6 15.12 1.36 0
 10 -2 7 29.49 1.68 0
 10 -1 5 35.91 1.64 0
 10 -1 6 45.79 1.81 0
 10 -1 7 37.25 1.73 0
 10 0 7 56.29 1.93 0
 10 0 8 67.02 2.11 0
 -4 3 -4 35.98 0.53 0
 -4 4 -8 9.4 0.52 0
 -4 4 -7 55.61 0.98 0
 -4 4 -6 81.13 1.07 0
 -4 4 -5 117.44 1.16 0
 -4 4 -4 53.53 0.71 0
 -4 4 -3 136.36 0.96 0
 -4 5 -17 11.19 0.95 0
 -4 5 -16 18.15 1.07 0
 -4 5 -15 20.22 1.07 0
 -4 5 -14 97.77 1.95 0
 -4 5 -13 6.36 0.77 0
 -4 5 -12 89.29 1.72 0
 -4 5 -8 114.02 1.56 0
 -4 5 -5 8.3 0.41 0
 -3 2 -2 632.63 1.5 0
 -3 3 -4 20.97 0.49 0
 -3 3 -3 283.6 1.47 0
 -3 3 -2 25.23 0.41 0
 -3 3 -1 384.01 1.3 0
 -3 4 -7 80.03 1.25 0
 -3 4 -6 7.07 0.44 0
 -3 4 -5 152.26 1.48 0
 -3 4 -4 163.35 1.44 0
 -3 4 -3 704.54 2.74 0
 -3 4 -2 44.28 0.67 0
 -3 5 -19 4.02 0.86 0
 -3 5 -18 18.21 1.21 0
 -3 5 -17 20.03 1.22 0
 -3 5 -16 54.11 1.67 0
 -3 5 -15 4.44 0.72 0
 -3 5 -14 51.23 1.5 0
 -3 5 -13 24.91 1.12 0
 -3 5 -11 37.51 1.18 0
 -3 5 -7 83.73 1.38 0
 -3 5 -6 56.04 1.09 0
 -3 5 -5 93.48 1.31 0
 -3 5 -4 1.45 0.27 0
 -3 5 -3 13.88 0.52 0
 -3 5 -2 41.37 0.8 0
 -3 6 -18 56.57 1.8 0
 -3 6 -17 13.88 1.09 0
 -3 6 -14 47.93 1.55 0
 -3 6 -13 3.24 0.6 0
 -3 6 -12 24.2 1.09 0
 -3 6 -10 0.62 0.45 0
 -3 6 -9 29.66 1.02 0
 -3 6 -5 9.9 0.58 0
 -3 6 -4 64.92 1.2 0
 -3 6 -2 27.15 0.76 0
 -3 6 -1 115.65 1.45 0
 -3 7 -14 42.63 1.51 0
 -3 7 -11 4.6 0.69 0
 -3 7 -10 4.78 0.65 0
 -3 7 -9 8.02 0.68 0
 -3 7 -3 16.09 0.72 0
 -3 7 -2 32.43 0.92 0
 -2 2 -1 538.62 1.43 0
 -2 2 0 5.32 0.16 0
 -2 3 -4 112.58 1.14 0
 -2 3 -3 430.72 2.02 0
 -2 3 -2 441.03 1.91 0
 -2 3 -1 322.91 1.57 0
 -2 3 0 -0.05 0.13 0
 -2 4 -7 283.05 2.42 0
 -2 4 -6 43.09 0.93 0
 -2 4 -5 231.27 1.94 0
 -2 4 -4 310.36 2.14 0
 -2 4 -3 129.22 1.35 0
 -2 4 -2 11.24 0.43 0
 -2 4 -1 410.57 2.22 0
 -2 4 0 24.58 0.57 0
 -2 5 -18 8.37 1 0
 -2 5 -17 18.61 1.23 0
 -2 5 -16 70.35 1.96 0
 -2 5 -15 3.76 0.74 0
 -2 5 -14 6.74 0.83 0
 -2 5 -13 0.3 0.48 0
 -2 5 -11 14.28 0.83 0
 -2 5 -10 1.01 0.42 0
 -2 5 -7 20.08 0.79 0
 -2 5 -6 9.59 0.6 0
 -2 5 -4 124.75 1.59 0
 -2 5 -3 369.83 2.57 0
 -2 5 -2 4.09 0.4 0
 -2 5 -1 255.02 2.09 0
 -2 5 0 480.6 2.83 0
 -2 5 1 253.55 2.07 0
 -2 6 -18 7.04 0.94 0
 -2 6 -17 15.5 1.15 0
 -2 6 -15 2.15 0.64 0
 -2 6 -13 12.1 0.88 0
 -2 6 -12 34.88 1.27 0
 -2 6 -11 4.3 0.66 0
 -2 6 -9 10.22 0.74 0
 -2 6 -8 51.44 1.31 0
 -2 6 -4 2.1 0.44 0
 -2 6 -3 5.34 0.49 0
 -2 6 -2 258.87 2.44 0
 -2 6 -1 166.71 1.97 0
 -2 6 0 12.28 0.64 0
 -2 7 -17 4.18 0.76 0
 -2 7 -16 14.29 1.12 0
 -2 7 -15 15.87 1.16 0
 -2 7 -14 10.44 0.95 0
 -2 7 -13 4.15 0.71 0
 -2 7 -12 56.68 1.64 0
 -2 7 -11 13.88 1.01 0
 -2 7 -10 166.48 2.62 0
 -2 7 -7 3.26 0.53 0
 -2 8 -15 4.96 0.83 0
 -2 8 -14 18.49 1.2 0
 -2 8 -13 3.51 0.73 0
 -2 8 -11 7.6 0.93 0
 -2 8 -10 22.31 1.14 0
 -2 8 -9 2.22 0.59 0
 -2 8 -7 22.77 1.1 0
 -2 8 -6 44.17 1.4 0
 -2 8 -5 1.12 0.49 0
 -2 8 -3 20.14 0.98 0
 -2 8 -1 3.16 0.54 0
 -2 9 -7 10.4 0.91 0
 -2 9 -6 9.68 0.86 0
 -1 2 -2 507.76 1.83 0
 -1 2 -1 121.24 0.85 0
 -1 2 0 1.71 0.17 0
 -1 2 1 120.13 0.86 0
 -1 3 -4 146.66 1.39 0
 -1 3 -3 747.71 2.89 0
 -1 3 -2 90.6 0.99 0
 -1 3 -1 597.34 2.41 0
 -1 3 0 352.1 1.86 0
 -1 3 1 611.03 2.49 0
 -1 4 -7 421.7 3.04 0
 -1 4 -6 60.44 1.14 0
 -1 4 -5 87.46 1.28 0
 -1 4 -4 25.16 0.71 0
 -1 4 -3 236.26 1.94 0
 -1 4 -2 53.69 0.91 0
 -1 4 -1 243.06 1.9 0
 -1 4 0 4.18 0.32 0
 -1 4 1 241.7 1.91 0
 -1 5 -19 51.78 1.94 0
 -1 5 -18 8.2 0.98 0
 -1 5 -17 3.64 0.87 0
 -1 5 -16 67.66 1.96 0
 -1 5 -15 239.78 3.42 0
 -1 5 -14 14.17 1.04 0
 -1 5 -13 25.99 1.18 0
 -1 5 -12 28.89 1.19 0
 -1 5 -11 87.31 1.83 0
 -1 5 -6 103.59 1.65 0
 -1 5 -5 60.84 1.24 0
 -1 5 -4 8.28 0.52 0
 -1 5 -3 573.02 3.43 0
 -1 5 -2 137.87 1.68 0
 -1 5 -1 203.29 2.03 0
 -1 5 0 15.32 0.64 0
 -1 5 1 206.36 2.08 0
 -1 6 -16 12.55 1.05 0
 -1 6 -15 17.8 1.18 0
 -1 6 -14 36.44 1.51 0
 -1 6 -12 21 1.1 0
 -1 6 -11 25.91 1.19 0
 -1 6 -10 1.3 0.48 0
 -1 6 -9 2.19 0.51 0
 -1 6 -8 75.46 1.64 0
 -1 6 -2 131.79 1.89 0
 -1 6 -1 172.6 2.17 0
 -1 6 0 48.63 1.18 0
 -1 6 1 174.24 2.16 0
 -1 7 -17 37.35 1.68 0
 -1 7 -16 14.84 1.23 0
 -1 7 -15 14.25 1.13 0
 -1 7 -14 25.94 1.39 0
 -1 7 -13 33.58 1.48 0
 -1 7 -12 0.61 0.63 0
 -1 7 -11 28.53 1.29 0
 -1 7 -10 27.75 1.26 0
 -1 7 -9 106.76 2.19 0
 -1 7 -8 0.07 0.44 0
 -1 7 -7 26.04 1.14 0
 -1 7 -6 56.23 1.5 0
 -1 7 -5 76.29 1.66 0
 -1 7 -4 88.03 1.8 0
 -1 7 -3 43.1 1.27 0
 -1 7 -2 23.4 0.99 0
 -1 8 -15 21.82 1.3 0
 -1 8 -14 3.59 0.88 0
 -1 8 -13 25.93 1.4 0
 -1 8 -11 4.66 0.77 0
 -1 8 -10 3.53 0.8 0
 -1 8 -8 4.97 0.76 0
 -1 8 -7 25.31 1.2 0
 -1 8 -6 1.39 0.54 0
 -1 8 -4 38.5 1.38 0
 -1 8 -3 0.18 0.45 0
 -1 8 -2 98.73 2 0
 -1 8 -1 38.69 1.29 0
 -1 8 0 34.86 1.25 0
 -1 9 -13 52.76 1.88 0
 -1 9 -12 3 0.82 0
 -1 9 -11 30.51 1.47 0
 -1 9 -10 4.71 0.85 0
 -1 9 -8 17.35 1.18 0
 -1 9 -6 13.51 1.05 0
 -1 9 -5 5.95 0.78 0
 -1 9 -4 5.68 0.75 0
 -1 9 -3 12.66 1.01 0
 -1 10 -9 4.83 0.81 0
 -1 10 -8 0.96 0.63 0
 -1 10 -5 6.32 0.84 0
 -1 10 -4 11.32 1.03 0
 -1 10 -3 16.42 1.13 0
 0 1 -1 523.66 1.42 0
 0 1 0 0.14 0.09 0
 0 1 1 528.25 1.5 0
 0 2 -2 3267.53 5.13 0
 0 2 -1 68.61 0.74 0
 0 2 0 74.15 0.76 0
 0 2 1 68.98 0.78 0
 0 3 -5 330.93 2.29 0
 0 3 -4 779.08 3.32 0
 0 3 -3 98.53 1.18 0
 0 3 -2 1.03 0.28 0
 0 3 -1 50.35 0.85 0
 0 3 0 0.16 0.2 0
 0 3 2 0.66 0.27 0
 0 4 -7 138.54 1.84 0
 0 4 -6 182.22 1.99 0
 0 4 -5 23.15 0.73 0
 0 4 -4 60.9 1.09 0
 0 4 -3 1.35 0.33 0
 0 4 -2 48.82 0.95 0
 0 4 -1 594.08 3.16 0
 0 4 0 724.65 3.52 0
 0 4 1 609.5 3.26 0
 0 4 2 48.06 1 0
 0 5 -20 0.72 0.8 0
 0 5 -19 1.12 0.73 0
 0 5 -17 12.45 1.07 0
 0 5 -16 4.57 0.84 0
 0 5 -15 14.6 1.1 0
 0 5 -13 14.35 1.04 0
 0 5 -11 36.24 1.24 0
 0 5 -9 33.62 1.15 0
 0 5 -5 106.98 1.69 0
 0 5 -3 353.32 2.87 0
 0 5 0 0.36 0.31 0
 0 5 1 58.46 1.24 0
 0 5 2 91.48 1.52 0
 0 6 -18 18.56 1.39 0
 0 6 -17 7.99 0.99 0
 0 6 -16 9.04 1.03 0
 0 6 -15 24.54 1.38 0
 0 6 -13 27.37 1.36 0
 0 6 -12 59.5 1.75 0
 0 6 -11 -0.07 0.52 0
 0 6 -10 107.06 2.11 0
 0 6 -9 1.4 0.48 0
 0 6 -8 54.2 1.45 0
 0 6 -7 99.77 1.92 0
 0 6 -6 104.42 1.93 0
 0 7 -17 8.36 1.11 0
 0 7 -16 3.65 0.9 0
 0 7 -15 18.36 1.32 0
 0 7 -14 18.83 1.31 0
 0 7 -12 18.44 1.14 0
 0 7 -7 4.17 0.66 0
 0 7 -6 19.12 0.98 0
 0 7 -5 66.38 1.67 0
 0 7 -4 11.98 0.83 0
 0 7 -3 18.93 1.01 0
 0 7 -2 89.06 1.88 0
 0 7 -1 0.52 0.43 0
 0 7 0 0.46 0.44 0
 0 8 -15 0.21 0.68 0
 0 8 -14 -0.23 0.68 0
 0 8 -13 49.08 1.86 0
 0 8 -12 7.76 1.05 0
 0 8 -11 18.34 1.22 0
 0 8 -8 3.28 0.7 0
 0 8 -7 29.88 1.39 0
 0 8 -6 125.95 2.5 0
 0 8 -4 1.65 0.57 0
 0 8 -3 2.02 0.65 0
 0 8 -2 43.73 1.46 0
 0 8 -1 0.98 0.52 0
 0 8 0 3.09 0.64 0
 0 9 -10 21.55 1.39 0
 0 9 -9 7.74 1.02 0
 0 9 -8 131.24 2.81 0
 0 9 -7 3.65 0.85 0
 0 9 -5 2.26 0.76 0
 0 9 -4 177.91 3.1 0
 0 9 -3 0.04 0.56 0
 0 9 -2 19.85 1.22 0
 0 9 -1 0.89 0.58 0
 0 10 -9 14.1 1.26 0
 0 10 -7 1.73 0.73 0
 0 10 -6 19.66 1.35 0
 0 10 -5 14.14 1.14 0
 0 10 -3 -0.12 0.6 0
 1 1 -2 203.26 1.14 0
 1 1 -1 247.33 1.18 0
 1 1 0 133.14 0.88 0
 1 1 1 245.32 1.25 0
 1 2 -3 962.11 3.24 0
 1 2 -2 504.95 2.26 0
 1 2 -1 121.82 1.1 0
 1 2 1 121.81 1.14 0
 1 2 2 513.41 2.4 0
 1 3 -4 141.54 1.53 0
 1 3 -3 746.73 3.36 0
 1 3 -1 609.91 2.94 0
 1 3 0 351.06 2.29 0
 1 3 1 622.93 3.07 0
 1 3 2 90.25 1.23 0
 1 4 -20 38.97 1.81 0
 1 4 -19 36.48 1.71 0
 1 4 -18 35.98 1.56 0
 1 4 -11 395.69 3.74 0
 1 4 -10 45.57 1.26 0
 1 4 -6 61.17 1.29 0
 1 4 -5 88.23 1.45 0
 1 4 -3 240.5 2.22 0
 1 4 -2 53.33 1.05 0
 1 4 -1 249.51 2.24 0
 1 4 0 4.86 0.41 0
 1 4 1 235.92 2.2 0
 1 4 2 54.9 1.11 0
 1 5 -19 53.45 1.95 0
 1 5 -18 7.31 1.09 0
 1 5 -17 2.69 0.8 0
 1 5 -15 245.93 3.63 0
 1 5 -14 13.96 1.09 0
 1 5 -13 26.52 1.22 0
 1 5 -12 29.39 1.25 0
 1 5 -10 17.81 0.96 0
 1 5 -9 88.27 1.79 0
 1 5 -8 2.01 0.45 0
 1 5 -3 577.41 3.88 0
 1 5 -2 140.21 1.94 0
 1 5 -1 201.65 2.29 0
 1 5 0 15.27 0.77 0
 1 5 1 203.25 2.34 0
 1 5 2 140.35 1.96 0
 1 6 -18 54.1 2.02 0
 1 6 -17 69.65 2.16 0
 1 6 -16 12.7 1.11 0
 1 6 -15 18.41 1.29 0
 1 6 -14 36.1 1.59 0
 1 6 -12 22.75 1.25 0
 1 6 -11 26.17 1.28 0
 1 6 -10 1.47 0.54 0
 1 6 -9 1.49 0.52 0
 1 6 -7 73.06 1.7 0
 1 6 -6 15.72 0.86 0
 1 6 -4 107.1 1.93 0
 1 7 -17 38.35 1.76 0
 1 7 -14 26.49 1.48 0
 1 7 -12 1.19 0.74 0
 1 7 -11 26.82 1.38 0
 1 7 -9 99.5 2.21 0
 1 7 -8 0.52 0.52 0
 1 7 -7 25.84 1.25 0
 1 7 -3 45.81 1.47 0
 1 7 0 249.06 3.2 0
 1 7 1 72.25 1.78 0
 1 7 2 21.65 1.03 0
 1 8 -15 20.81 1.46 0
 1 8 -14 3.54 0.86 0
 1 8 -13 26.81 1.54 0
 1 8 -12 16.51 1.32 0
 1 8 -11 3.55 0.8 0
 1 8 -10 4.14 0.8 0
 1 8 -7 25.46 1.28 0
 1 8 -5 71.97 1.96 0
 1 8 -4 38.19 1.45 0
 1 8 -3 0.71 0.55 0
 1 8 -2 103.68 2.31 0
 1 8 -1 39.53 1.45 0
 1 8 0 36.98 1.46 0
 1 8 1 41.21 1.51 0
 1 9 -12 3.28 0.97 0
 1 9 -11 28.88 1.6 0
 1 9 -10 4.78 0.89 0
 1 9 -9 27.45 1.56 0
 1 9 -8 18.31 1.36 0
 1 9 -6 13.46 1.21 0
 1 9 -5 5.6 0.87 0
 1 9 -4 5.1 0.84 0
 1 9 -3 13.01 1.17 0
 1 9 -2 25.56 1.42 0
 1 9 -1 9.64 1.02 0
 1 9 0 9.35 0.94 0
 1 10 -9 5.84 1.01 0
 1 10 -8 0.7 0.69 0
 1 10 -7 5.47 0.92 0
 1 10 -5 7.31 1.05 0
 1 10 -4 11.95 1.24 0
 2 1 -3 353.35 1.81 0
 2 1 -2 1100.85 3 0
 2 1 -1 112.97 0.96 0
 2 1 0 5911.9 6.78 0
 2 1 1 112.19 1 0
 2 2 -5 11.55 0.51 0
 2 2 -3 199.67 1.64 0
 2 2 -2 1990.8 4.94 0
 2 2 -1 561.71 2.62 0
 2 2 0 5.72 0.4 0
 2 2 1 554.61 2.67 0
 2 2 2 1963.99 5.16 0
 2 3 -21 -0.36 0.71 0
 2 3 -8 131.76 1.88 0
 2 3 -7 13.1 0.67 0
 2 3 -6 995.99 4.55 0
 2 3 -5 504 3.15 0
 2 3 -3 433.31 2.76 0
 2 3 -2 453.17 2.79 0
 2 3 -1 327.25 2.37 0
 2 3 0 -0.01 0.23 0
 2 3 1 322.53 2.4 0
 2 3 2 451.52 2.9 0
 2 4 -20 7.09 1.06 0
 2 4 -18 7.08 1.01 0
 2 4 -16 19.55 1.27 0
 2 4 -15 14.72 1.11 0
 2 4 -14 17.61 1.08 0
 2 4 -13 0.55 0.48 0
 2 4 -12 55.47 1.54 0
 2 4 -11 24.09 1.03 0
 2 4 -9 9.7 0.67 0
 2 4 -5 222.27 2.38 0
 2 4 -3 129.14 1.77 0
 2 4 -2 10.45 0.57 0
 2 4 -1 406.91 3.03 0
 2 4 1 411.47 3.1 0
 2 4 2 10.5 0.58 0
 2 5 -19 24.62 1.45 0
 2 5 -17 16.3 1.27 0
 2 5 -15 2.73 0.76 0
 2 5 -14 5.8 0.86 0
 2 5 -13 0.31 0.53 0
 2 5 -11 17.17 1.02 0
 2 5 -10 0.93 0.47 0
 2 5 -9 42.78 1.38 0
 2 5 -7 19.02 0.89 0
 2 5 -6 8.97 0.66 0
 2 6 -16 8.77 1.09 0
 2 6 -15 1.75 0.74 0
 2 6 -14 98.7 2.46 0
 2 6 -13 12.77 1.04 0
 2 6 -12 34.33 1.44 0
 2 6 -11 4.5 0.74 0
 2 6 -9 9.47 0.9 0
 2 6 -8 49.61 1.55 0
 2 6 -7 19.99 1 0
 2 6 -6 14.26 0.91 0
 2 6 -5 55.01 1.51 0
 2 6 -4 2.61 0.51 0
 2 6 -3 5.88 0.71 0
 2 6 -2 255.21 3.08 0
 2 6 -1 160.18 2.46 0
 2 6 0 11.68 0.78 0
 2 7 -16 13.34 1.27 0
 2 7 -15 16.74 1.4 0
 2 7 -14 10.13 1.08 0
 2 7 -13 4.87 0.89 0
 2 7 -12 55.64 1.93 0
 2 7 -11 13.52 1.08 0
 2 7 -10 167.2 3.04 0
 2 7 -9 22.22 1.2 0
 2 7 -8 23.54 1.21 0
 2 7 -6 256.62 3.53 0
 2 7 -5 55.72 1.71 0
 2 7 -4 12.9 0.99 0
 2 7 -3 28.76 1.24 0
 2 7 -1 2.87 0.59 0
 2 7 0 20.18 1.09 0
 2 7 1 2.54 0.6 0
 2 7 2 43.81 1.48 0
 2 8 -14 19.67 1.45 0
 2 8 -13 3.7 0.93 0
 2 8 -11 6.84 1.02 0
 2 8 -10 21.9 1.33 0
 2 8 -9 2.92 0.89 0
 2 8 -8 188.63 3.35 0
 2 8 -6 44.7 1.72 0
 2 8 -5 2.18 0.68 0
 2 8 -3 20.96 1.2 0
 2 8 -2 30.46 1.38 0
 2 8 0 0.59 0.62 0
 2 8 1 2.39 0.64 0
 2 9 -12 14.43 1.33 0
 2 9 -11 14.43 1.24 0
 2 9 -10 3.14 0.9 0
 2 9 -8 6.21 1.06 0
 2 9 -5 32.65 1.6 0
 2 9 -4 86.37 2.41 0
 2 9 -3 1.26 0.71 0
 2 9 -2 3.52 0.82 0
 2 9 -1 2.81 0.77 0
 2 9 0 109.29 2.6 0
 2 10 -8 3.97 0.95 0
 2 10 -6 2.64 0.92 0
 2 10 -5 4.96 1.06 0
 2 10 -4 13.84 1.29 0
 2 10 -3 15.64 1.35 0
 2 10 -2 44.06 1.87 0
 3 -1 -2 375.52 0.97 0
 3 1 -5 41.74 0.79 0
 3 1 -4 155.58 1.38 0
 3 1 -3 153.97 1.32 0
 3 1 -2 390.49 2.01 0
 3 1 -1 514.87 2.27 0
 3 1 0 58.96 0.83 0
 3 1 1 495.51 2.3 0
 3 2 -8 189.35 2.13 0
 3 2 -7 185.25 2 0
 3 2 -6 139.93 1.65 0
 3 2 -5 424.71 2.73 0
 3 2 -4 105.64 1.34 0
 3 2 -3 758.47 3.41 0
 3 2 -2 662.2 3.13 0
 3 2 -1 234.14 1.88 0
 3 2 0 226.2 1.86 0
 3 2 1 226.28 1.9 0
 3 2 2 651.95 3.24 0
 3 3 -20 5.84 0.98 0
 3 3 -18 0.19 0.68 0
 3 3 -16 1.17 0.62 0
 3 3 -12 45.72 1.37 0
 3 3 -11 109.75 1.97 0
 3 3 -10 17.62 0.88 0
 3 3 -6 6 0.56 0
 3 3 -5 340.56 2.77 0
 3 3 -3 289.39 2.44 0
 3 3 -2 25.77 0.76 0
 3 3 -1 411.27 2.88 0
 3 3 0 335.31 2.61 0
 3 3 1 409.2 2.91 0
 3 3 2 26.34 0.82 0
 3 4 -19 27.05 1.48 0
 3 4 -18 24.58 1.48 0
 3 4 -17 0.51 0.68 0
 3 4 -15 82.99 2.11 0
 3 4 -14 30.01 1.35 0
 3 4 -12 51.76 1.59 0
 3 4 -11 40.87 1.34 0
 3 4 -10 20.87 1.01 0
 3 4 -9 36.96 1.19 0
 3 4 -8 127.56 2.08 0
 3 4 -3 722.32 4.33 0
 3 4 -2 45.4 1.12 0
 3 4 -1 366.24 3.09 0
 3 4 0 11.99 0.7 0
 3 4 2 45.95 1.16 0
 3 5 -18 18.11 1.36 0
 3 5 -17 20.35 1.3 0
 3 5 -16 57.6 1.92 0
 3 5 -15 5.31 0.87 0
 3 5 -14 49.1 1.77 0
 3 5 -13 25.69 1.34 0
 3 5 -12 36.67 1.45 0
 3 5 -11 38.08 1.45 0
 3 5 -10 57.83 1.65 0
 3 5 -9 13.7 0.93 0
 3 5 -7 88.72 1.87 0
 3 5 -6 55.95 1.44 0
 3 5 -4 1.75 0.44 0
 3 6 -17 12.82 1.21 0
 3 6 -16 30.92 1.54 0
 3 6 -15 29.64 1.58 0
 3 6 -14 44.09 1.75 0
 3 6 -12 24.2 1.42 0
 3 6 -10 0.72 0.55 0
 3 6 -9 30.81 1.3 0
 3 6 -7 71.04 1.83 0
 3 6 -6 26.7 1.19 0
 3 6 -5 11.38 0.86 0
 3 6 -3 256.33 3.24 0
 3 6 -2 28.1 1.15 0
 3 6 -1 118.78 2.24 0
 3 6 0 9.38 0.76 0
 3 6 1 117.98 2.23 0
 3 6 2 26.22 1.16 0
 3 7 -16 17.84 1.41 0
 3 7 -15 16.89 1.39 0
 3 7 -14 39.51 1.72 0
 3 7 -13 20.48 1.43 0
 3 7 -12 14.07 1.26 0
 3 7 -11 5.21 0.87 0
 3 7 -10 4.34 0.82 0
 3 7 -9 8.97 0.95 0
 3 7 -8 40.45 1.57 0
 3 7 -7 12.72 1 0
 3 7 -6 43.23 1.62 0
 3 7 -5 126.69 2.55 0
 3 7 -4 34.24 1.39 0
 3 7 -2 35.3 1.39 0
 3 7 -1 157.58 2.87 0
 3 7 0 8.82 0.83 0
 3 7 1 148.43 2.72 0
 3 8 -11 6.38 1.01 0
 3 8 -10 66.02 2.2 0
 3 8 -9 49.29 1.88 0
 3 8 -8 23.98 1.47 0
 3 8 -7 26.88 1.51 0
 3 8 -4 47.52 1.82 0
 3 8 -3 43.18 1.73 0
 3 8 -1 4.45 0.88 0
 3 8 0 86.66 2.32 0
 3 8 1 5.34 0.83 0
 3 9 -11 12.35 1.27 0
 3 9 -10 44.3 1.97 0
 3 9 -9 3.09 0.92 0
 3 9 -8 77.49 2.44 0
 3 9 -7 10.97 1.32 0
 3 9 -6 26.93 1.57 0
 3 9 -5 21.62 1.51 0
 3 9 -3 0.14 0.7 0
 3 9 -2 70.3 2.19 0
 3 10 -6 43.75 1.99 0
 3 10 -5 4 0.99 0
 3 10 -4 13.49 1.29 0
 3 10 -3 1.61 0.81 0
 3 10 -2 13.39 1.38 0
 4 -2 -4 16.68 0.25 0
 4 -1 -4 177.67 1.07 0
 4 0 -6 104.83 1.21 0
 4 0 -5 1.08 0.24 0
 4 1 -8 78.99 1.33 0
 4 1 -7 127.83 1.57 0
 4 1 -6 219.78 1.95 0
 4 1 -5 130.38 1.43 0
 4 1 -4 184.14 1.63 0
 4 1 -3 37.31 0.74 0
 4 1 -2 44.87 0.79 0
 4 1 -1 425.72 2.31 0
 4 1 0 547.57 2.63 0
 4 2 -20 23.5 1.43 0
 4 2 -18 28.88 1.43 0
 4 2 -17 39.78 1.58 0
 4 2 -16 29.79 1.31 0
 4 2 -15 13.99 0.99 0
 4 2 -14 17.16 0.99 0
 4 2 -13 1.03 0.5 0
 4 2 -12 14.84 0.84 0
 4 2 -11 68.11 1.52 0
 4 2 -7 159.88 1.92 0
 4 2 -6 174.16 1.95 0
 4 2 -5 95.25 1.42 0
 4 2 -4 17.54 0.67 0
 4 2 -3 227.16 2.04 0
 4 2 -2 219.18 1.99 0
 4 2 -1 174.02 1.78 0
 4 2 0 88.34 1.29 0
 4 2 1 167.93 1.77 0
 4 3 -19 17.07 1.3 0
 4 3 -17 29.6 1.49 0
 4 3 -16 18.58 1.22 0
 4 3 -15 46.47 1.63 0
 4 3 -14 16.57 1.08 0
 4 3 -13 122.18 2.32 0
 4 3 -12 34.77 1.28 0
 4 3 -11 43.65 1.35 0
 4 3 -10 25.03 1.01 0
 4 3 -9 95.17 1.78 0
 4 3 -5 422.45 3.25 0
 4 3 -4 36.98 1.01 0
 4 3 -3 120.7 1.72 0
 4 3 -2 41.73 1.02 0
 4 3 -1 184.78 2.1 0
 4 3 0 19.71 0.78 0
 4 3 1 183.54 2.13 0
 4 4 -19 8.49 1.14 0
 4 4 -18 0.97 0.72 0
 4 4 -17 55.69 1.89 0
 4 4 -16 73.09 2.08 0
 4 4 -15 41.21 1.61 0
 4 4 -14 7.47 0.98 0
 4 4 -11 30.02 1.27 0
 4 4 -9 2.96 0.55 0
 4 4 -8 9.31 0.72 0
 4 4 -6 81.03 1.67 0
 4 5 -17 11.31 1.34 0
 4 5 -16 19.61 1.41 0
 4 5 -15 20 1.36 0
 4 5 -14 94.57 2.37 0
 4 5 -13 5.34 0.83 0
 4 5 -12 89.42 2.17 0
 4 5 -11 36.58 1.45 0
 4 5 -10 139.76 2.6 0
 4 5 -9 5.1 0.77 0
 4 5 -8 113.23 2.26 0
 4 5 -6 36.61 1.26 0
 4 5 -5 8.64 0.73 0
 4 5 -4 25.45 1.1 0
 4 5 -2 48.79 1.4 0
 4 5 -1 95.8 1.9 0
 4 5 0 0.78 0.42 0
 4 6 -15 4.87 0.98 0
 4 6 -14 42.03 1.72 0
 4 6 -13 4.85 0.92 0
 4 6 -11 3.48 0.76 0
 4 6 -10 58.85 1.87 0
 4 6 -9 45.69 1.59 0
 4 6 -8 24.08 1.21 0
 4 6 -7 8.32 0.94 0
 4 6 -6 78.57 1.98 0
 4 6 -5 49.78 1.63 0
 4 6 -4 3.23 0.69 0
 4 6 -3 70.87 1.86 0
 4 6 -2 22.16 1.09 0
 4 6 -1 128.48 2.44 0
 4 6 0 0.1 0.56 0
 4 6 1 125.69 2.43 0
 4 7 -14 5.28 1.06 0
 4 7 -13 40.99 1.83 0
 4 7 -12 24.83 1.49 0
 4 7 -11 13.4 1.29 0
 4 7 -10 13.92 1.14 0
 4 7 -8 8.32 1.03 0
 4 7 -7 5.91 0.93 0
 4 7 -6 51.74 1.83 0
 4 7 -5 55.09 1.81 0
 4 7 -4 55.59 1.82 0
 4 7 -3 33.04 1.48 0
 4 7 -2 14.18 1.09 0
 4 7 0 0.3 0.6 0
 4 8 -12 18.49 1.34 0
 4 8 -11 54.86 2.07 0
 4 8 -10 33.2 1.77 0
 4 8 -9 18.76 1.35 0
 4 8 -8 71.94 2.33 0
 4 8 -7 33.24 1.72 0
 4 8 -6 6.95 1.08 0
 4 8 -5 7.49 1 0
 4 8 -4 31.13 1.6 0
 4 8 -3 44.21 1.75 0
 4 8 -2 16.11 1.28 0
 4 8 0 4.86 0.95 0
 4 9 -9 17.23 1.46 0
 4 9 -3 14.42 1.31 0
 4 9 -2 2.21 0.82 0
 4 10 -3 9.84 1.2 0
 5 -2 -7 20.98 0.47 0
 5 -1 -6 353.31 1.87 0
 5 -1 -5 11.78 0.33 0
 5 0 -20 0.39 0.56 0
 5 0 -19 17.47 1.11 0
 5 0 -9 112.24 1.52 0
 5 0 -8 222.79 2 0
 5 0 -7 11.88 0.51 0
 5 0 -6 1.67 0.26 0
 5 0 -3 76 0.89 0
 5 0 -2 211.4 1.4 0
 5 1 -20 53.7 1.79 0
 5 1 -19 16.5 1.16 0
 5 1 -18 6.46 0.83 0
 5 1 -17 13.77 1.06 0
 5 1 -16 84.28 1.97 0
 5 1 -15 38.04 1.36 0
 5 1 -14 40.7 1.36 0
 5 1 -13 55.98 1.43 0
 5 1 -12 33.95 1.1 0
 5 1 -11 49.64 1.25 0
 5 1 -8 98.31 1.51 0
 5 1 -7 112.89 1.53 0
 5 1 -6 357.15 2.58 0
 5 1 -5 11.75 0.52 0
 5 1 -4 163.46 1.64 0
 5 1 -3 281.5 2.1 0
 5 1 -2 749.33 3.33 0
 5 1 -1 181.7 1.64 0
 5 2 -19 8.51 0.96 0
 5 2 -18 52.42 1.77 0
 5 2 -17 4.16 0.74 0
 5 2 -16 2.53 0.66 0
 5 2 -15 13.56 0.95 0
 5 2 -14 120.72 2.3 0
 5 2 -13 0.56 0.48 0
 5 2 -12 20.46 0.95 0
 5 2 -11 72.1 1.62 0
 5 2 -9 33.1 1.07 0
 5 2 -6 19.05 0.77 0
 5 2 -5 87.52 1.44 0
 5 2 -4 241.21 2.3 0
 5 2 -3 45.28 1.03 0
 5 2 -2 264.98 2.35 0
 5 2 -1 51.04 1.07 0
 5 2 0 231.24 2.19 0
 5 3 -19 9.31 1.09 0
 5 3 -18 6.21 0.88 0
 5 3 -17 2.69 0.78 0
 5 3 -16 11.97 1.08 0
 5 3 -15 46.01 1.59 0
 5 3 -14 75.79 1.97 0
 5 3 -13 10.59 0.92 0
 5 3 -12 160.06 2.62 0
 5 3 -11 11.88 0.92 0
 5 3 -9 1.5 0.49 0
 5 3 -7 166.63 2.3 0
 5 3 -2 51.11 1.23 0
 5 3 -1 61.82 1.32 0
 5 3 0 87.31 1.58 0
 5 3 1 61.19 1.33 0
 5 4 -18 0.63 0.78 0
 5 4 -17 5.52 0.99 0
 5 4 -16 20.11 1.34 0
 5 4 -15 2.67 0.73 0
 5 4 -14 7.12 0.94 0
 5 4 -13 6.28 0.84 0
 5 4 -11 9.3 0.93 0
 5 4 -10 30.65 1.29 0
 5 4 -9 57.82 1.6 0
 5 4 -7 47.75 1.38 0
 5 4 -5 111.44 2.02 0
 5 4 -4 46.45 1.31 0
 5 4 -3 235.12 2.82 0
 5 4 -2 6.59 0.62 0
 5 4 -1 31.34 1.14 0
 5 5 -17 0.97 0.84 0
 5 5 -16 15.74 1.3 0
 5 5 -15 3.39 0.82 0
 5 5 -14 40.74 1.72 0
 5 5 -13 16.26 1.22 0
 5 5 -12 -0.13 0.6 0
 5 5 -11 21.58 1.26 0
 5 5 -10 20.27 1.19 0
 5 5 -9 13.08 0.94 0
 5 5 -8 58.65 1.7 0
 5 5 -7 42.47 1.5 0
 5 5 -5 82.6 1.9 0
 5 5 -4 91.77 2.01 0
 5 5 -3 20.02 1.07 0
 5 5 -2 39.51 1.36 0
 5 5 -1 261.06 3.28 0
 5 5 0 4.69 0.64 0
 5 5 1 255.15 3.26 0
 5 6 -15 1.36 0.79 0
 5 6 -14 20.94 1.41 0
 5 6 -13 7.68 1.1 0
 5 6 -12 20.78 1.39 0
 5 6 -11 22.54 1.4 0
 5 6 -10 1.44 0.67 0
 5 6 -9 37.99 1.58 0
 5 6 -8 0.44 0.61 0
 5 6 -7 10.51 0.95 0
 5 6 -6 52.65 1.77 0
 5 6 -5 5.76 0.78 0
 5 6 -4 16.94 1.12 0
 5 6 -2 27.17 1.27 0
 5 6 -1 82.42 2.1 0
 5 6 0 20.35 1.11 0
 5 7 -13 4.15 0.99 0
 5 7 -12 31.58 1.69 0
 5 7 -11 8.06 1.07 0
 5 7 -10 40.34 1.76 0
 5 7 -9 5.22 0.98 0
 5 7 -8 61.64 2.09 0
 5 7 -6 23.05 1.44 0
 5 7 -5 34.92 1.55 0
 5 7 -4 35.08 1.64 0
 5 7 -3 9.93 1.06 0
 5 7 -2 17.79 1.21 0
 5 7 -1 26.35 1.4 0
 5 7 0 5.95 0.91 0
 5 8 -11 0.22 0.78 0
 5 8 -10 39.79 1.87 0
 5 8 -9 15.21 1.38 0
 5 8 -8 35.07 1.76 0
 5 8 -7 6.91 1.03 0
 5 8 -6 42.46 1.83 0
 5 8 -4 11.66 1.34 0
 5 8 -3 15.43 1.22 0
 5 8 -2 17.71 1.38 0
 5 8 -1 20.67 1.43 0
 5 9 -7 31.42 1.76 0
 5 9 -6 13.28 1.41 0
 5 9 -5 1.01 0.92 0
 5 9 -4 11.98 1.31 0
 5 9 -3 39.83 1.82 0
 5 9 -2 32.79 1.8 0
 6 0 -14 9.95 0.73 0
 6 0 -13 3.67 0.51 0
 6 0 -12 9.36 0.65 0
 6 0 -9 19.32 0.7 0
 6 0 -5 119.77 1.25 0
 6 0 -4 25.12 0.57 0
 6 0 -3 1.34 0.19 0
 6 1 -17 22.05 1.15 0
 6 1 -16 4.49 0.68 0
 6 1 -15 11.71 0.88 0
 6 1 -14 33.12 1.21 0
 6 1 -13 8.14 0.74 0
 6 1 -11 12.94 0.76 0
 6 1 -10 2.35 0.42 0
 6 1 -7 9.23 0.55 0
 6 1 -6 32.62 0.85 0
 6 1 -5 16.62 0.63 0
 6 1 -4 24.41 0.71 0
 6 1 -3 19.4 0.63 0
 6 2 -18 52.13 1.71 0
 6 2 -17 43.54 1.57 0
 6 2 -16 15.3 1.05 0
 6 2 -15 65.8 1.76 0
 6 2 -14 10.83 0.93 0
 6 2 -12 11.81 0.85 0
 6 2 -11 130.59 2.19 0
 6 2 -10 14.82 0.85 0
 6 2 -9 4.88 0.56 0
 6 2 -8 -0.03 0.33 0
 6 2 -4 31.25 0.93 0
 6 2 -3 3.06 0.44 0
 6 2 -2 4.18 0.46 0
 6 3 -17 26.16 1.38 0
 6 3 -16 46.64 1.66 0
 6 3 -15 6.24 0.87 0
 6 3 -13 67.78 1.84 0
 6 3 -12 3.04 0.63 0
 6 3 -11 82.44 1.89 0
 6 3 -10 29.9 1.19 0
 6 3 -9 41.61 1.34 0
 6 3 -8 22.81 0.98 0
 6 3 -7 55.55 1.4 0
 6 3 -6 25.17 1.01 0
 6 3 -4 12.49 0.73 0
 6 4 -16 18.91 1.27 0
 6 4 -14 15.53 1.16 0
 6 4 -13 46.17 1.61 0
 6 4 -11 41.79 1.55 0
 6 4 -10 30.85 1.33 0
 6 4 -8 61.09 1.69 0
 6 4 -7 50.09 1.48 0
 6 4 -6 56.51 1.53 0
 6 4 -5 181.94 2.68 0
 6 4 -4 13.7 0.9 0
 6 4 -3 36.66 1.27 0
 6 4 -2 26.65 1.12 0
 6 4 -1 114.07 2.09 0
 6 4 0 -0.08 0.46 0
 6 5 -15 11.13 1.06 0
 6 5 -14 55.64 1.95 0
 6 5 -13 69.38 2.09 0
 6 5 -9 30.3 1.38 0
 6 5 -8 32.27 1.42 0
 6 5 -7 132.16 2.59 0
 6 5 -6 15.46 1 0
 6 5 -4 69.22 1.81 0
 6 5 -3 71.1 1.86 0
 6 5 -2 23.3 1.2 0
 6 5 -1 59.84 1.7 0
 6 6 -12 41.98 1.72 0
 6 6 -11 33.14 1.58 0
 6 6 -10 20.85 1.38 0
 6 6 -9 80.23 2.25 0
 6 6 -7 5.84 0.89 0
 6 6 -5 83.76 2.18 0
 6 6 -4 26.97 1.38 0
 6 6 -3 71.56 2.06 0
 6 6 -2 77.69 2.12 0
 6 7 -11 22.49 1.49 0
 6 7 -10 8.92 1.1 0
 6 7 -9 7.61 1.1 0
 6 7 -8 37.45 1.74 0
 6 7 -7 29.37 1.54 0
 6 7 -6 17.46 1.3 0
 6 7 -5 6.99 1.1 0
 6 7 -4 57.76 1.96 0
 6 7 -1 66.52 2.08 0
 6 8 -8 7.38 1.18 0
 6 8 -7 25.85 1.63 0
 6 8 -6 17.58 1.39 0
 6 8 -5 17.55 1.39 0
 6 8 -4 32.3 1.73 0
 6 8 -3 10.48 1.22 0
 6 8 -2 5.03 0.93 0
 7 2 -10 9.44 0.74 0
 7 2 -9 3.66 0.54 0
 7 2 -8 94.47 1.72 0
 7 2 -6 38.75 1.09 0
 7 3 -15 37.63 1.48 0
 7 3 -14 48.33 1.6 0
 7 3 -13 41.89 1.47 0
 7 3 -12 2.3 0.66 0
 7 3 -11 8.13 0.82 0
 7 3 -9 126.81 2.24 0
 7 3 -7 42.33 1.31 0
 7 3 -6 14.68 0.86 0
 7 3 -5 41.21 1.25 0
 7 3 -3 43.53 1.26 0
 7 4 -14 26.83 1.36 0
 7 4 -12 44.99 1.61 0
 7 4 -11 47.29 1.62 0
 7 4 -9 7.45 0.82 0
 7 4 -7 30.82 1.29 0
 7 4 -6 22.12 1.12 0
 7 4 -5 25.06 1.17 0
 7 4 -4 78.73 1.82 0
 7 4 -3 14.01 0.94 0
 7 4 -2 14.46 0.9 0
 7 5 -13 12.81 1.15 0
 7 5 -12 13.03 1.14 0
 7 5 -11 4.28 0.88 0
 7 5 -10 1.49 0.65 0
 7 5 -9 12.37 1 0
 7 5 -7 11.94 1.04 0
 7 5 -6 17.89 1.15 0
 7 5 -4 122.74 2.49 0
 7 5 -3 7.87 0.92 0
 7 6 -11 6.27 0.97 0
 7 6 -10 52.07 1.91 0
 7 6 -9 4.48 0.85 0
 7 6 -7 -0.15 0.6 0
 7 6 -6 107.53 2.55 0
 7 6 -3 12.58 1.08 0
 7 7 -9 21.25 1.42 0
 7 7 -7 19.46 1.41 0
 7 7 -5 3.8 0.96 0
 7 7 -4 4.7 0.88 0
 7 7 -3 10.11 1.17 0
 8 4 -8 3.39 0.66 0
 8 4 -7 37.08 1.38 0
 8 4 -6 11.72 0.89 0
 8 4 -5 5.82 0.72 0
 8 4 -4 33.96 1.27 0
 8 5 -10 2.09 0.66 0
 8 5 -9 26.65 1.34 0
 8 5 -8 1.67 0.72 0
 8 5 -7 8.07 0.93 0
 8 5 -6 -0.42 0.49 0
 8 6 -7 47.21 1.75 0
 8 6 -6 9.79 1.02 0
 8 6 -5 3.4 0.79 0
 -4 -6 -6 79.57 1.44 0
 -4 -6 -5 49.43 1.11 0
 -4 -5 -9 4.34 0.52 0
 -4 -5 -8 118.42 1.62 0
 -4 -5 -7 36.05 0.91 0
 -4 -5 -6 37.18 0.88 0
 -4 -5 -5 9.88 0.51 0
 -4 -4 -13 32.25 1.09 0
 -4 -4 -10 45.18 1.05 0
 -4 -4 -9 3.9 0.45 0
 -4 -4 -8 9.56 0.51 0
 -4 -4 -4 54.59 0.82 0
 -4 -3 -14 15.68 0.87 0
 -4 -3 -13 120.17 1.89 0
 -4 -3 -11 45.38 1.06 0
 -4 -3 -10 25.37 0.79 0
 -4 -3 -9 102.74 1.35 0
 -4 -3 -8 81.61 1.12 0
 -4 -3 -7 87.49 1.06 0
 -4 -3 -6 122.68 1.13 0
 -4 -3 -5 429.57 1.84 0
 -4 -3 -3 122.79 0.79 0
 -4 -3 -2 40.81 0.43 0
 -4 -2 -15 13.86 0.9 0
 -4 -2 -14 16.29 0.87 0
 -4 -2 -11 69.47 1.29 0
 -4 -2 -10 221.96 2.06 0
 -4 -2 -8 170.99 1.52 0
 -4 -2 -7 157.9 1.31 0
 -4 -2 -6 179.72 1.2 0
 -4 -2 -5 91.25 0.69 0
 -3 -8 -8 26.29 1.24 0
 -3 -8 -7 28.5 1.22 0
 -3 -7 -12 13.66 1.02 0
 -3 -7 -9 9.15 0.84 0
 -3 -7 -8 40.3 1.34 0
 -3 -7 -7 14.11 0.89 0
 -3 -6 -15 30.7 1.36 0
 -3 -6 -14 47.12 1.53 0
 -3 -6 -13 4.77 0.74 0
 -3 -6 -12 25.93 1.17 0
 -3 -6 -11 3.52 0.65 0
 -3 -6 -10 0.8 0.5 0
 -3 -6 -9 29.48 1.1 0
 -3 -6 -8 25.58 1.02 0
 -3 -5 -17 22.21 1.24 0
 -3 -5 -16 57.22 1.71 0
 -3 -5 -15 6.24 0.82 0
 -3 -5 -14 52.04 1.52 0
 -3 -5 -13 25.04 1.14 0
 -3 -5 -12 36.12 1.23 0
 -3 -5 -7 87.87 1.53 0
 -3 -5 -6 55.63 1.21 0
 -3 -4 -19 28.22 1.43 0
 -3 -4 -17 -0.12 0.59 0
 -3 -4 -16 24.72 1.23 0
 -3 -4 -15 85.33 1.92 0
 -3 -4 -14 29.96 1.22 0
 -3 -4 -13 15.28 0.88 0
 -3 -4 -12 51.41 1.34 0
 -3 -4 -6 7.57 0.49 0
 -3 -4 -5 155.18 1.61 0
 -3 -3 -19 11.29 1.07 0
 -3 -3 -18 0.69 0.64 0
 -3 -3 -17 9.73 0.98 0
 -3 -3 -16 1.04 0.57 0
 -3 -3 -15 11 0.9 0
 -3 -3 -13 15.56 0.84 0
 -3 -3 -10 17.77 0.73 0
 -3 -3 -7 427.16 2.62 0
 -3 -3 -6 5.54 0.4 0
 -3 -3 -5 331.9 2.02 0
 -3 -3 -4 20.79 0.52 0
 -3 -2 -18 3.05 0.74 0
 -3 -2 -17 13.69 1.03 0
 -3 -2 -16 3.62 0.74 0
 -3 -2 -15 20.77 1.08 0
 -3 -2 -14 61.64 1.54 0
 -3 -2 -11 21.97 0.86 0
 -3 -2 -10 382.42 2.86 0
 -3 -2 -8 191.66 1.77 0
 -3 -2 -7 186.39 1.6 0
 -3 -2 -6 147.9 1.3 0
 -3 -2 -5 423.14 1.92 0
 -3 -2 -4 103.63 0.85 0
 -3 -2 -3 744.18 1.93 0
 -3 -1 -16 11.88 1.01 0
 -3 -1 -15 46.15 1.43 0
 -3 -1 -14 154.62 2.37 0
 -3 -1 -9 45.63 0.99 0
 -3 -1 -8 433.98 2.59 0
 -3 -1 -7 7.7 0.42 0
 -3 -1 -6 221.52 1.51 0
 -3 -1 -5 40.22 0.58 0
 -3 -1 -4 156.24 0.91 0
 -2 -10 -7 29.37 1.49 0
 -2 -9 -12 16.07 1.26 0
 -2 -9 -10 4.42 0.88 0
 -2 -9 -8 5.81 1 0
 -2 -8 -15 6.17 0.99 0
 -2 -8 -14 18.57 1.3 0
 -2 -8 -13 3.07 0.82 0
 -2 -8 -12 28.71 1.46 0
 -2 -8 -11 5.92 0.95 0
 -2 -8 -9 2.3 0.79 0
 -2 -8 -8 195.97 3.09 0
 -2 -7 -17 3.65 0.89 0
 -2 -7 -16 13.05 1.19 0
 -2 -7 -15 19.05 1.27 0
 -2 -7 -14 10.48 1.19 0
 -2 -7 -13 6.22 0.94 0
 -2 -7 -11 13.72 1.05 0
 -2 -7 -10 172.49 2.88 0
 -2 -7 -9 23.51 1.23 0
 -2 -7 -8 24.38 1.18 0
 -2 -6 -18 6.4 0.98 0
 -2 -6 -17 15.37 1.25 0
 -2 -6 -16 9.36 1.07 0
 -2 -6 -15 2.03 0.75 0
 -2 -6 -13 12.97 1.08 0
 -2 -6 -12 35.19 1.42 0
 -2 -6 -11 4.55 0.78 0
 -2 -6 -10 127.9 2.3 0
 -2 -6 -9 9.07 0.79 0
 -2 -6 -8 51.88 1.45 0
 -2 -5 -19 27.38 1.52 0
 -2 -5 -18 11.1 1.19 0
 -2 -5 -17 16.62 1.22 0
 -2 -5 -16 70.11 1.96 0
 -2 -5 -15 3.7 0.87 0
 -2 -5 -14 8.84 0.86 0
 -2 -5 -13 0.5 0.59 0
 -2 -5 -12 156.24 2.52 0
 -2 -5 -11 16.56 0.98 0
 -2 -5 -10 1.19 0.5 0
 -2 -5 -7 19.49 0.84 0
 -2 -4 -20 7.93 1.12 0
 -2 -4 -19 12.2 1.22 0
 -2 -4 -17 21.92 1.33 0
 -2 -4 -16 20.34 1.25 0
 -2 -4 -14 19.12 1.02 0
 -2 -4 -13 0.32 0.56 0
 -2 -4 -11 23.49 0.99 0
 -2 -4 -9 9.92 0.7 0
 -2 -4 -8 242.93 2.49 0
 -2 -4 -7 283.04 2.58 0
 -2 -3 -21 0.08 0.71 0
 -2 -3 -20 13.55 1.25 0
 -2 -3 -19 6.53 1.04 0
 -2 -3 -18 6.22 0.95 0
 -2 -3 -16 43.6 1.52 0
 -2 -3 -15 16.34 1.07 0
 -2 -3 -14 11.21 0.89 0
 -2 -3 -13 27.86 1.12 0
 -2 -3 -8 137.69 1.75 0
 -2 -3 -6 1031.23 4.09 0
 -2 -3 -5 500.37 2.67 0
 -2 -2 -20 29.3 1.57 0
 -2 -2 -19 1.18 0.71 0
 -2 -2 -18 11.96 1.17 0
 -2 -2 -17 0.1 0.59 0
 -2 -2 -16 96.03 2.14 0
 -2 -2 -15 42.16 1.42 0
 -2 -2 -11 94.06 1.64 0
 -2 -2 -9 199.99 2.05 0
 -2 -2 -8 245.91 2.14 0
 -2 -2 -7 218.53 1.86 0
 -2 -2 -4 150.13 1.19 0
 -2 -1 -18 125.55 2.64 0
 -2 -1 -17 102.36 2.27 0
 -2 -1 -16 34.88 1.39 0
 -2 -1 -15 40.46 1.38 0
 -2 -1 -14 74.89 1.71 0
 -2 -1 -10 91.74 1.48 0
 -2 -1 -9 95.68 1.41 0
 -2 -1 -8 15.42 0.61 0
 -2 -1 -7 273.34 1.97 0
 -2 -1 -6 376.25 2.09 0
 -2 -1 -4 1914.39 3.59 0
 -2 -1 -3 345.83 1.29 0
 -2 0 -15 258 3.34 0
 -2 0 -11 134.21 1.92 0
 -2 0 -10 72.7 1.37 0
 -2 0 -9 37.54 0.94 0
 -2 0 -8 180.09 1.8 0
 -2 0 -7 9.51 0.47 0
 -2 0 -6 156.29 1.39 0
 -2 0 -5 991.94 3.06 0
 -2 0 -4 322.13 1.6 0
 -1 -10 -9 5.29 0.98 0
 -1 -10 -8 -0.14 0.88 0
 -1 -9 -13 57.99 2.08 0
 -1 -9 -12 2.8 0.88 0
 -1 -9 -11 30.57 1.66 0
 -1 -9 -9 24.88 1.47 0
 -1 -9 -8 18.61 1.34 0
 -1 -8 -12 18.48 1.38 0
 -1 -8 -11 4.01 0.85 0
 -1 -8 -10 3.88 0.82 0
 -1 -8 -9 65.27 1.97 0
 -1 -7 -17 34.05 1.73 0
 -1 -7 -16 16.54 1.35 0
 -1 -7 -15 15.74 1.3 0
 -1 -7 -14 23.14 1.47 0
 -1 -7 -13 37.05 1.62 0
 -1 -7 -12 0.77 0.68 0
 -1 -7 -11 27.48 1.39 0
 -1 -7 -10 29.64 1.41 0
 -1 -7 -9 100.89 2.22 0
 -1 -6 -19 21.84 1.52 0
 -1 -6 -17 71.27 2.2 0
 -1 -6 -15 20.58 1.37 0
 -1 -6 -14 37.6 1.6 0
 -1 -6 -13 155.66 2.91 0
 -1 -6 -12 21.46 1.28 0
 -1 -6 -11 26.27 1.3 0
 -1 -6 -10 1.43 0.64 0
 -1 -6 -9 1.5 0.56 0
 -1 -5 -18 7.93 1.12 0
 -1 -5 -17 2.7 0.82 0
 -1 -5 -16 74.49 2.14 0
 -1 -5 -15 247.66 3.61 0
 -1 -5 -14 15.08 1.14 0
 -1 -5 -13 25.44 1.24 0
 -1 -5 -10 18.26 0.96 0
 -1 -5 -9 86.48 1.82 0
 -1 -4 -21 5.01 1.12 0
 -1 -4 -20 41.34 1.85 0
 -1 -4 -19 37.38 1.74 0
 -1 -4 -18 35.35 1.68 0
 -1 -4 -17 20.79 1.37 0
 -1 -4 -16 66.81 1.97 0
 -1 -4 -15 56.06 1.71 0
 -1 -4 -14 64.86 1.8 0
 -1 -4 -13 56.55 1.59 0
 -1 -4 -12 81.34 1.84 0
 -1 -4 -11 400.8 3.78 0
 -1 -4 -8 65.35 1.42 0
 -1 -3 -21 53.01 2.01 0
 -1 -3 -20 4.47 0.98 0
 -1 -3 -19 15.31 1.32 0
 -1 -3 -17 31.03 1.5 0
 -1 -3 -14 39.2 1.41 0
 -1 -3 -13 125.73 2.24 0
 -1 -3 -12 85.69 1.75 0
 -1 -3 -10 50.5 1.3 0
 -1 -3 -9 621.6 3.98 0
 -1 -3 -8 69.36 1.35 0
 -1 -3 -7 268.03 2.38 0
 -1 -3 -6 103.48 1.42 0
 -1 -2 -22 22.57 1.62 0
 -1 -2 -21 24.07 1.5 0
 -1 -2 -19 27.31 1.49 0
 -1 -2 -18 11.62 1.17 0
 -1 -2 -16 8.48 0.91 0
 -1 -2 -15 26.06 1.24 0
 -1 -2 -13 108.69 1.98 0
 -1 -2 -9 453 3.19 0
 -1 -2 -8 6.58 0.48 0
 -1 -2 -7 176.89 1.78 0
 -1 -2 -6 33.41 0.75 0
 -1 -2 -5 753.72 3.11 0
 -1 -1 -20 6.31 1.03 0
 -1 -1 -19 14.33 1.16 0
 -1 -1 -18 30.94 1.51 0
 -1 -1 -17 32.33 1.49 0
 -1 -1 -16 76.02 1.97 0
 -1 -1 -15 106.66 2.18 0
 -1 -1 -14 36.44 1.26 0
 -1 -1 -13 184.21 2.54 0
 -1 -1 -11 24.55 0.89 0
 -1 -1 -10 213.57 2.28 0
 -1 -1 -9 399.75 2.88 0
 -1 -1 -8 394.08 2.66 0
 -1 -1 -7 600.5 3.01 0
 -1 -1 -6 37.94 0.78 0
 -1 -1 -5 807.5 2.92 0
 -1 -1 -4 284.71 1.56 0
 -1 -1 -3 2019.07 3.52 0
 -1 0 -17 0.94 0.65 0
 -1 0 -16 0.92 0.59 0
 -1 0 -15 126.75 2.39 0
 -1 0 -13 26.64 1.04 0
 -1 0 -11 108.48 1.75 0
 -1 0 -10 216.72 2.32 0
 -1 0 -8 84.21 1.27 0
 -1 0 -7 58.36 1 0
 -1 0 -6 872.41 3.29 0
 -1 0 -5 0.61 0.27 0
 -1 0 -4 178.48 1.19 0
 -1 0 -3 1299.81 2.66 0
 -1 0 -2 214.5 0.87 0
 -1 1 -13 198.27 2.76 0
 -1 1 -11 22.33 1 0
 -1 1 -10 211.99 2.35 0
 -1 1 -9 383.67 2.93 0
 -1 1 -8 391.51 2.78 0
 -1 1 -7 603.49 3.23 0
 0 -10 -8 4.58 1.06 0
 0 -9 -13 5.26 1.16 0
 0 -9 -12 7.95 1.08 0
 0 -9 -11 19.85 1.54 0
 0 -9 -10 22.54 1.51 0
 0 -9 -9 8.92 1.15 0
 0 -8 -15 -0.13 0.8 0
 0 -8 -14 -0.48 0.92 0
 0 -8 -10 24.15 1.4 0
 0 -8 -9 59.58 1.97 0
 0 -7 -17 8.01 1.23 0
 0 -7 -16 2.53 0.91 0
 0 -7 -14 19.07 1.35 0
 0 -7 -13 0.04 0.79 0
 0 -7 -12 18.18 1.36 0
 0 -7 -11 44.85 1.74 0
 0 -7 -10 101.26 2.36 0
 0 -7 -9 47.11 1.63 0
 0 -6 -16 6.27 1.1 0
 0 -6 -15 23.08 1.43 0
 0 -6 -14 9.35 1.16 0
 0 -6 -12 61.02 1.85 0
 0 -6 -11 0.24 0.57 0
 0 -6 -9 1.79 0.61 0
 0 -5 -20 0.06 0.83 0
 0 -5 -19 0.03 0.76 0
 0 -5 -18 4.49 1.06 0
 0 -5 -16 5.89 0.95 0
 0 -5 -15 15.45 1.28 0
 0 -5 -13 15.22 1.15 0
 0 -5 -12 1.45 0.7 0
 0 -5 -11 36.99 1.41 0
 0 -5 -10 64.72 1.7 0
 0 -5 -9 33.65 1.2 0
 0 -4 -21 3.28 0.99 0
 0 -4 -20 0.3 0.81 0
 0 -4 -17 0.48 0.86 0
 0 -4 -16 104.41 2.48 0
 0 -4 -15 15.79 1.1 0
 0 -4 -13 74.43 1.86 0
 0 -4 -12 341.28 3.75 0
 0 -3 -21 30.98 1.76 0
 0 -3 -20 32.6 1.78 0
 0 -3 -19 0.3 0.91 0
 0 -3 -18 3.12 0.94 0
 0 -3 -16 55.78 1.82 0
 0 -3 -15 35.78 1.47 0
 0 -3 -14 5.51 0.86 0
 0 -3 -13 4.07 0.66 0
 0 -3 -12 17.09 0.99 0
 0 -3 -9 154.42 2.15 0
 0 -3 -8 124.13 1.81 0
 0 -3 -7 415.2 3.07 0
 0 -2 -22 16.44 1.45 0
 0 -2 -21 7.79 1.18 0
 0 -2 -20 2.26 0.99 0
 0 -2 -19 38.49 1.67 0
 0 -2 -18 46.97 1.85 0
 0 -2 -17 51.55 1.8 0
 0 -2 -16 38.71 1.47 0
 0 -2 -15 90.2 2.08 0
 0 -2 -14 12.3 0.94 0
 0 -2 -13 256.78 3.11 0
 0 -2 -10 400.41 3.29 0
 0 -2 -9 400.53 3.12 0
 0 -2 -7 464.9 3 0
 0 -2 -6 3729.85 7.8 0
 0 -2 -5 176.91 1.61 0
 0 -1 -21 3.34 0.94 0
 0 -1 -19 41.56 1.76 0
 0 -1 -18 0.23 0.69 0
 0 -1 -17 41.46 1.65 0
 0 -1 -16 35.15 1.45 0
 0 -1 -14 3.24 0.68 0
 0 -1 -13 88.75 1.81 0
 0 -1 -11 138.19 2.02 0
 0 -1 -10 66.97 1.36 0
 0 -1 -9 5.41 0.51 0
 0 -1 -8 680.71 3.6 0
 0 -1 -7 34.46 0.83 0
 0 -1 -6 105.03 1.25 0
 0 -1 -5 628.48 2.72 0
 0 -1 -4 3186.48 5.51 0
 0 -1 -3 133.8 1.03 0
 0 0 -18 255.45 3.82 0
 0 0 -16 35.8 1.4 0
 0 0 -15 0.85 0.55 0
 0 0 -14 86.9 1.91 0
 0 0 -13 0.84 0.5 0
 0 0 -11 0.49 0.39 0
 0 0 -10 3.03 0.46 0
 0 0 -8 70.1 1.18 0
 0 0 -7 0.68 0.28 0
 0 0 -6 166.53 1.52 0
 0 0 -4 9802.85 8.96 0
 0 0 -3 0.05 0.16 0
 0 0 -2 379.17 1.22 0
 0 1 -15 115.43 2.36 0
 0 1 -14 3.4 0.7 0
 0 1 -13 86.5 1.86 0
 0 1 -10 62.79 1.38 0
 0 1 -9 4.9 0.48 0
 0 1 -8 668.9 3.61 0
 0 1 -7 34.86 0.82 0
 0 1 -6 106.86 1.28 0
 0 1 -5 621.04 2.74 0
 0 1 -4 3172.79 5.6 0
 1 -9 -12 4.56 1.03 0
 1 -9 -11 30.31 1.77 0
 1 -9 -10 4.93 0.99 0
 1 -9 -9 25.84 1.64 0
 1 -8 -15 23.98 1.66 0
 1 -8 -14 3.04 1 0
 1 -8 -13 28.72 1.71 0
 1 -8 -10 3.98 0.89 0
 1 -8 -9 65.17 2.11 0
 1 -7 -17 38.42 1.91 0
 1 -7 -16 14.28 1.46 0
 1 -7 -15 14.61 1.43 0
 1 -7 -14 27 1.64 0
 1 -7 -13 32.42 1.67 0
 1 -7 -11 29.88 1.59 0
 1 -7 -10 27.41 1.41 0
 1 -7 -9 104.81 2.37 0
 1 -6 -18 53.62 2.1 0
 1 -6 -17 72.21 2.38 0
 1 -6 -15 20.68 1.48 0
 1 -6 -13 154.17 3.14 0
 1 -6 -10 2 0.64 0
 1 -6 -9 2.13 0.62 0
 1 -5 -19 51.4 2.11 0
 1 -5 -18 9.28 1.18 0
 1 -5 -17 3.76 0.99 0
 1 -5 -16 71.46 2.26 0
 1 -5 -15 246.23 3.81 0
 1 -5 -13 25.94 1.35 0
 1 -5 -12 28.66 1.31 0
 1 -5 -11 83.07 2.02 0
 1 -5 -10 18.14 1.01 0
 1 -5 -9 89.43 1.95 0
 1 -4 -19 38.66 1.8 0
 1 -4 -18 35.25 1.66 0
 1 -4 -17 18.1 1.31 0
 1 -4 -16 66.51 2.11 0
 1 -4 -15 55.27 1.87 0
 1 -4 -14 61.28 1.81 0
 1 -4 -13 54.1 1.73 0
 1 -4 -12 78.95 1.94 0
 1 -4 -11 396.44 4.01 0
 1 -3 -21 55.01 2.22 0
 1 -3 -20 5.62 1.15 0
 1 -3 -19 17.13 1.42 0
 1 -3 -18 69.11 2.18 0
 1 -3 -17 29.63 1.47 0
 1 -3 -16 46.56 1.67 0
 1 -3 -15 0.85 0.64 0
 1 -3 -14 38.84 1.47 0
 1 -3 -13 123.18 2.34 0
 1 -3 -12 83.15 1.88 0
 1 -3 -11 77.75 1.7 0
 1 -3 -8 67.11 1.4 0
 1 -3 -7 259.04 2.51 0
 1 -2 -22 24.04 1.65 0
 1 -2 -21 26.15 1.72 0
 1 -2 -20 73.44 2.36 0
 1 -2 -18 13.23 1.27 0
 1 -2 -17 13.8 1.14 0
 1 -2 -16 7.62 0.92 0
 1 -2 -15 26.89 1.29 0
 1 -2 -14 74.22 1.86 0
 1 -2 -13 114.62 2.2 0
 1 -2 -9 459.72 3.46 0
 1 -2 -8 6.8 0.53 0
 1 -2 -7 171.02 1.95 0
 1 -1 -21 1.05 0.85 0
 1 -1 -20 6.26 1.12 0
 1 -1 -19 15.64 1.35 0
 1 -1 -18 29.33 1.47 0
 1 -1 -16 80.34 2.05 0
 1 -1 -15 109.84 2.31 0
 1 -1 -14 35.51 1.32 0
 1 -1 -13 191.07 2.71 0
 1 -1 -10 217.06 2.45 0
 1 -1 -9 391.81 3.03 0
 1 -1 -8 388.87 2.84 0
 1 -1 -7 588.51 3.25 0
 1 -1 -6 37.65 0.86 0
 1 -1 -5 798.75 3.26 0
 1 -1 -4 283.95 1.78 0
 1 0 -20 34.92 1.73 0
 1 0 -19 17.31 1.29 0
 1 0 -18 63.19 1.99 0
 1 0 -16 1.63 0.64 0
 1 0 -15 123.24 2.4 0
 1 0 -14 51.64 1.52 0
 1 0 -10 210.95 2.34 0
 1 0 -9 47.21 1.08 0
 1 0 -8 81.43 1.31 0
 1 0 -7 56.82 1.02 0
 1 0 -6 865.62 3.49 0
 1 0 -5 0.56 0.26 0
 1 0 -4 176.23 1.3 0
 1 0 -3 1305.8 3 0
 1 0 -2 223.26 1.05 0
 1 1 -17 33.41 1.6 0
 1 1 -16 74.3 2.01 0
 1 1 -15 106.59 2.3 0
 1 1 -13 186.76 2.64 0
 1 1 -10 204.93 2.37 0
 1 1 -9 386.54 3.01 0
 1 1 -8 396.86 2.84 0
 1 1 -7 597.03 3.21 0
 1 1 -5 785.27 3.08 0
 1 1 -4 283.04 1.69 0
 1 1 -3 2061.87 3.95 0
 2 -9 -12 15.22 1.57 0
 2 -9 -11 15.39 1.52 0
 2 -9 -10 4.88 1.06 0
 2 -9 -9 54.55 2.2 0
 2 -8 -14 19.26 1.49 0
 2 -8 -12 26.03 1.6 0
 2 -8 -11 7.66 1.24 0
 2 -8 -10 22.07 1.44 0
 2 -7 -16 14.15 1.47 0
 2 -7 -15 14.59 1.44 0
 2 -7 -14 9.78 1.27 0
 2 -7 -13 5.43 1.02 0
 2 -7 -12 58.35 2.11 0
 2 -7 -11 13.84 1.3 0
 2 -7 -10 168.73 3.2 0
 2 -7 -9 24.35 1.39 0
 2 -6 -18 7.04 1.18 0
 2 -6 -17 14.55 1.38 0
 2 -6 -16 8.54 1.29 0
 2 -6 -14 106.54 2.71 0
 2 -6 -13 12.44 1.21 0
 2 -6 -11 5.08 0.85 0
 2 -6 -10 131.36 2.66 0
 2 -6 -9 10.02 0.92 0
 2 -5 -19 28.68 1.79 0
 2 -5 -18 8.53 1.19 0
 2 -5 -16 71.5 2.3 0
 2 -5 -15 4.5 1.03 0
 2 -5 -14 7.88 0.99 0
 2 -5 -13 0.88 0.76 0
 2 -5 -12 159.89 2.96 0
 2 -5 -11 14.3 0.99 0
 2 -5 -10 1.59 0.6 0
 2 -5 -9 42.89 1.43 0
 2 -4 -20 6.36 1.16 0
 2 -4 -19 11.31 1.31 0
 2 -4 -18 6.14 1.05 0
 2 -4 -17 23.67 1.48 0
 2 -4 -16 17.45 1.26 0
 2 -4 -15 17.31 1.3 0
 2 -4 -14 20.31 1.3 0
 2 -4 -13 0.62 0.6 0
 2 -4 -12 58.13 1.75 0
 2 -4 -11 26.48 1.24 0
 2 -4 -10 58.86 1.61 0
 2 -4 -9 9.34 0.79 0
 2 -3 -21 0.95 1 0
 2 -3 -20 13.05 1.39 0
 2 -3 -19 5.44 1.03 0
 2 -3 -17 26.22 1.41 0
 2 -3 -15 13.78 1.06 0
 2 -3 -13 29.38 1.32 0
 2 -3 -12 146.8 2.47 0
 2 -3 -11 57.57 1.59 0
 2 -3 -8 130.4 1.99 0
 2 -3 -7 12.79 0.69 0
 2 -2 -21 30.94 1.81 0
 2 -2 -19 1.63 0.86 0
 2 -2 -18 12.1 1.32 0
 2 -2 -17 0.68 0.7 0
 2 -2 -16 96.96 2.33 0
 2 -2 -14 44.59 1.55 0
 2 -2 -13 104.97 2.15 0
 2 -2 -12 90.98 1.96 0
 2 -2 -9 199.63 2.41 0
 2 -2 -8 238.92 2.49 0
 2 -2 -7 220.5 2.25 0
 2 -2 -6 480.55 3.1 0
 2 -1 -22 35.28 1.93 0
 2 -1 -20 8.58 1.16 0
 2 -1 -19 49.3 2.03 0
 2 -1 -18 121.27 2.74 0
 2 -1 -17 100.51 2.48 0
 2 -1 -16 34.58 1.49 0
 2 -1 -14 76.2 1.87 0
 2 -1 -12 155.6 2.35 0
 2 -1 -10 88.26 1.66 0
 2 -1 -8 14.59 0.65 0
 2 -1 -7 265.62 2.29 0
 2 -1 -6 382.8 2.57 0
 2 -1 -5 32.94 0.75 0
 2 -1 -4 1942.33 4.89 0
 2 0 -20 0.08 0.81 0
 2 0 -18 18.41 1.3 0
 2 0 -17 82.53 2.19 0
 2 0 -16 3.1 0.73 0
 2 0 -15 266.31 3.55 0
 2 0 -14 25.12 1.13 0
 2 0 -13 28.69 1.14 0
 2 0 -12 35.37 1.16 0
 2 0 -10 73.48 1.47 0
 2 0 -8 177.05 1.94 0
 2 0 -7 9.99 0.53 0
 2 0 -6 154.52 1.55 0
 2 0 -5 1034.94 3.6 0
 2 0 -4 323.28 1.85 0
 2 0 -3 100.02 0.93 0
 2 0 -2 328.55 1.39 0
 2 1 -17 99.48 2.46 0
 2 1 -16 33.91 1.49 0
 2 1 -15 41.19 1.55 0
 2 1 -14 74.3 1.83 0
 2 1 -13 171.39 2.61 0
 2 1 -12 160.46 2.39 0
 2 1 -10 87.52 1.61 0
 2 1 -8 15.51 0.72 0
 2 1 -7 265.13 2.21 0
 2 1 -6 367.98 2.38 0
 2 1 -5 30.07 0.72 0
 2 1 -4 1920.09 4.39 0
 2 1 -3 345.65 1.67 0
 3 -9 -10 44.1 2.06 0
 3 -9 -9 4.07 1.16 0
 3 -8 -13 30.28 1.79 0
 3 -8 -12 61.55 2.31 0
 3 -8 -11 5.36 1.13 0
 3 -8 -10 66.45 2.26 0
 3 -8 -9 48.94 2.06 0
 3 -7 -16 20.41 1.67 0
 3 -7 -15 16.37 1.54 0
 3 -7 -13 21.38 1.63 0
 3 -7 -12 16.66 1.3 0
 3 -7 -11 4.51 1.08 0
 3 -7 -10 5.52 0.95 0
 3 -7 -9 8.7 1.09 0
 3 -6 -17 13.42 1.44 0
 3 -6 -16 32.35 1.73 0
 3 -6 -14 47.19 1.98 0
 3 -6 -13 4.72 0.97 0
 3 -6 -12 25.15 1.5 0
 3 -6 -11 5.58 0.99 0
 3 -6 -10 1.32 0.67 0
 3 -5 -18 18.01 1.56 0
 3 -5 -15 5.1 0.98 0
 3 -5 -13 25.43 1.39 0
 3 -5 -12 34.11 1.58 0
 3 -5 -11 37.19 1.48 0
 3 -5 -9 14.12 0.96 0
 3 -5 -8 22.69 1.07 0
 3 -4 -19 26.45 1.72 0
 3 -4 -18 25.22 1.68 0
 3 -4 -17 0.46 0.84 0
 3 -4 -16 23.61 1.47 0
 3 -4 -14 30.8 1.51 0
 3 -4 -13 15.43 1.2 0
 3 -4 -12 51.22 1.66 0
 3 -4 -11 41.86 1.52 0
 3 -4 -9 36.25 1.32 0
 3 -4 -8 125.35 2.2 0
 3 -3 -20 5.95 1.11 0
 3 -3 -18 0.26 0.78 0
 3 -3 -17 9.41 1.15 0
 3 -3 -16 1.32 0.77 0
 3 -3 -15 11.83 1.17 0
 3 -3 -14 13.01 1.04 0
 3 -3 -13 16.97 1.03 0
 3 -3 -12 45.66 1.53 0
 3 -3 -11 114.97 2.21 0
 3 -3 -7 402.46 3.42 0
 3 -2 -21 39.18 1.96 0
 3 -2 -18 4.01 0.97 0
 3 -2 -17 13.79 1.16 0
 3 -2 -16 2.53 0.8 0
 3 -2 -15 21.04 1.3 0
 3 -2 -14 64.79 1.84 0
 3 -2 -12 115.86 2.19 0
 3 -2 -11 20.71 1.03 0
 3 -2 -8 188.87 2.29 0
 3 -2 -7 177.7 2.12 0
 3 -2 -5 421.69 2.88 0
 3 -1 -20 7.58 1.1 0
 3 -1 -19 31.99 1.76 0
 3 -1 -18 32.5 1.59 0
 3 -1 -16 9.84 1.09 0
 3 -1 -15 46.29 1.6 0
 3 -1 -14 158.8 2.74 0
 3 -1 -13 53.33 1.53 0
 3 -1 -12 46.89 1.4 0
 3 -1 -9 41.68 1.12 0
 3 -1 -8 430.91 3.21 0
 3 -1 -6 225.07 2.06 0
 3 -1 -5 43.17 0.9 0
 3 -1 -4 158.82 1.51 0
 3 -1 -3 146.94 1.35 0
 3 0 -19 1.31 0.79 0
 3 0 -18 26.32 1.43 0
 3 0 -17 63.45 1.97 0
 3 0 -16 198.87 3.21 0
 3 0 -15 112.46 2.39 0
 3 0 -13 210.19 2.89 0
 3 0 -9 224.81 2.36 0
 3 0 -8 86.07 1.4 0
 3 0 -6 472.93 2.76 0
 3 0 -5 134.84 1.39 0
 3 0 -4 1228.78 3.68 0
 3 0 -3 356.08 1.79 0
 3 0 -1 143.32 0.84 0
 3 0 0 0.47 0.09 0
 3 1 -17 30.67 1.54 0
 3 1 -16 11.26 1.09 0
 3 1 -14 152.3 2.61 0
 3 1 -12 46.9 1.41 0
 3 1 -9 44.2 1.13 0
 3 1 -8 418 3.01 0
 3 1 -7 7.8 0.52 0
 3 1 -6 220.41 1.89 0
 3 1 -5 41.89 0.8 0
 3 1 -4 161.24 1.33 0
 4 -9 -8 26.49 1.7 0
 4 -8 -12 18.32 1.6 0
 4 -8 -10 31.09 1.78 0
 4 -8 -8 70.83 2.28 0
 4 -7 -15 43.12 2.09 0
 4 -7 -14 4.86 1.13 0
 4 -7 -13 40.17 1.86 0
 4 -7 -12 27.84 1.69 0
 4 -7 -11 14.27 1.38 0
 4 -7 -10 15.04 1.3 0
 4 -7 -9 18.52 1.4 0
 4 -6 -16 25.83 1.66 0
 4 -6 -15 8.12 1.15 0
 4 -6 -14 44.22 2.01 0
 4 -6 -13 3.93 0.97 0
 4 -6 -11 3.19 0.96 0
 4 -6 -10 55.88 1.89 0
 4 -6 -9 48.35 1.79 0
 4 -6 -8 25.55 1.39 0
 4 -5 -17 10.51 1.39 0
 4 -5 -16 16.82 1.46 0
 4 -5 -15 21.31 1.47 0
 4 -5 -14 98.1 2.53 0
 4 -5 -13 4.77 1.01 0
 4 -5 -12 92.45 2.38 0
 4 -5 -11 38.05 1.64 0
 4 -5 -10 146.23 2.75 0
 4 -5 -9 4.23 0.78 0
 4 -5 -8 113.12 2.35 0
 4 -4 -19 8.57 1.31 0
 4 -4 -18 1.99 1.04 0
 4 -4 -16 74.54 2.34 0
 4 -4 -15 45.58 1.89 0
 4 -4 -14 5.99 0.92 0
 4 -4 -12 98.94 2.32 0
 4 -4 -11 27.65 1.31 0
 4 -4 -9 3.88 0.66 0
 4 -4 -8 8.21 0.81 0
 4 -4 -7 58.16 1.56 0
 4 -3 -19 14.79 1.36 0
 4 -3 -18 26.95 1.63 0
 4 -3 -17 30.78 1.69 0
 4 -3 -16 19.63 1.42 0
 4 -3 -15 47.42 1.81 0
 4 -3 -14 16.91 1.22 0
 4 -3 -13 126.65 2.58 0
 4 -3 -11 42.91 1.42 0
 4 -3 -10 23.12 1.13 0
 4 -2 -20 21.84 1.49 0
 4 -2 -19 9.62 1.24 0
 4 -2 -18 30.26 1.66 0
 4 -2 -17 41.99 1.77 0
 4 -2 -16 31.98 1.61 0
 4 -2 -14 17.47 1.11 0
 4 -2 -13 1.13 0.6 0
 4 -2 -12 14.73 0.99 0
 4 -2 -11 66.32 1.66 0
 4 -2 -10 209.27 2.7 0
 4 -2 -7 158.36 2.1 0
 4 -2 -6 174.87 2.06 0
 4 -2 -5 95.83 1.49 0
 4 -2 -4 17.28 0.67 0
 4 -1 -20 7.57 1.14 0
 4 -1 -17 31.31 1.59 0
 4 -1 -16 24.12 1.42 0
 4 -1 -15 2.6 0.71 0
 4 -1 -14 56.91 1.73 0
 4 -1 -13 34.35 1.34 0
 4 -1 -12 206.81 2.87 0
 4 -1 -11 86.65 1.81 0
 4 -1 -8 77.78 1.46 0
 4 -1 -7 125.47 1.73 0
 4 -1 -6 215.91 2.09 0
 4 -1 -5 135.02 1.57 0
 4 -1 -4 180.58 1.68 0
 4 -1 -3 35.58 0.74 0
 4 -1 -2 46.76 0.77 0
 4 0 -19 3.88 0.93 0
 4 0 -18 10.53 1.08 0
 4 0 -15 56.84 1.76 0
 4 0 -14 179.78 2.89 0
 4 0 -13 12.69 0.97 0
 4 0 -12 54.97 1.52 0
 4 0 -11 130.56 2.14 0
 4 0 -8 106.05 1.61 0
 4 0 -7 43.52 0.98 0
 4 0 -6 106.39 1.39 0
 4 0 -5 1.35 0.31 0
 4 0 -4 387.47 2.16 0
 4 0 -2 151.9 1.07 0
 4 1 -17 30.27 1.56 0
 4 1 -15 2.41 0.69 0
 4 1 -12 203.68 2.75 0
 4 1 -11 88.62 1.77 0
 4 1 -9 3.19 0.47 0
 4 1 -8 79.03 1.39 0
 4 1 -7 127.29 1.6 0
 4 1 -6 216.62 1.92 0
 4 1 -5 133.8 1.38 0
 4 1 -3 35.96 0.58 0
 5 -9 -7 34.44 1.77 0
 5 -8 -11 1.15 1.08 0
 5 -8 -10 42.19 2.01 0
 5 -8 -9 14.09 1.44 0
 5 -8 -8 37.33 1.8 0
 5 -7 -13 4.17 1.1 0
 5 -7 -12 33.98 1.78 0
 5 -7 -10 41.54 1.91 0
 5 -7 -9 5.35 1.01 0
 5 -7 -8 62.03 2.04 0
 5 -6 -15 0.76 0.86 0
 5 -6 -14 23.22 1.5 0
 5 -6 -12 24.63 1.61 0
 5 -6 -11 21.39 1.43 0
 5 -6 -10 1.06 0.77 0
 5 -6 -9 41.11 1.74 0
 5 -6 -7 11.86 1.09 0
 5 -5 -17 1.46 1.03 0
 5 -5 -16 16.11 1.47 0
 5 -5 -15 2.27 0.92 0
 5 -5 -14 40.55 1.84 0
 5 -5 -13 17.66 1.26 0
 5 -5 -12 0.75 0.75 0
 5 -5 -10 22.37 1.27 0
 5 -5 -9 15.16 1.2 0
 5 -4 -18 1.29 0.93 0
 5 -4 -17 6.71 1.19 0
 5 -4 -16 21.44 1.51 0
 5 -4 -15 2.69 1 0
 5 -4 -14 7.92 1.11 0
 5 -4 -13 6.48 1 0
 5 -4 -12 23.43 1.35 0
 5 -4 -11 9.69 0.96 0
 5 -4 -10 33.4 1.44 0
 5 -4 -9 59.24 1.68 0
 5 -4 -8 61.09 1.7 0
 5 -4 -7 46.88 1.45 0
 5 -4 -6 20.22 1.04 0
 5 -3 -18 6.63 1.07 0
 5 -3 -17 2.08 0.94 0
 5 -3 -15 46.22 1.8 0
 5 -3 -14 76.16 2.09 0
 5 -3 -13 8.65 0.93 0
 5 -3 -12 164.37 2.78 0
 5 -3 -11 12.37 0.99 0
 5 -3 -10 174.2 2.72 0
 5 -3 -9 1.62 0.55 0
 5 -3 -8 273.09 3.16 0
 5 -2 -18 50.35 2 0
 5 -2 -17 4.64 0.91 0
 5 -2 -16 1.44 0.86 0
 5 -2 -15 12.13 1.06 0
 5 -2 -14 124.26 2.57 0
 5 -2 -13 1.15 0.63 0
 5 -2 -12 20.51 1.07 0
 5 -2 -11 77.93 1.83 0
 5 -2 -10 197.65 2.69 0
 5 -2 -9 33.12 1.16 0
 5 -2 -6 18.4 0.79 0
 5 -2 -5 88.64 1.48 0
 5 -2 -4 237.06 2.24 0
 5 -2 -3 47.49 1.02 0
 5 -1 -19 16.86 1.44 0
 5 -1 -18 6.32 1 0
 5 -1 -16 87.22 2.3 0
 5 -1 -14 44.15 1.54 0
 5 -1 -13 58.21 1.69 0
 5 -1 -10 12.49 0.85 0
 5 -1 -7 119.53 1.71 0
 5 -1 -6 366.84 2.77 0
 5 -1 -5 12.61 0.58 0
 5 -1 -4 164.55 1.66 0
 5 -1 -3 293.75 2.05 0
 5 0 -19 16.43 1.38 0
 5 0 -18 1.88 0.78 0
 5 0 -17 79.61 2.2 0
 5 0 -16 15.64 1.21 0
 5 0 -15 18.03 1.22 0
 5 0 -12 0.79 0.52 0
 5 0 -11 31.02 1.15 0
 5 0 -8 225.5 2.33 0
 5 0 -7 11.91 0.63 0
 5 0 -6 1.6 0.33 0
 5 0 -5 291.03 2.09 0
 5 0 -3 74.69 0.87 0
 5 1 -15 37.62 1.53 0
 5 1 -14 40.28 1.5 0
 5 1 -13 59.68 1.67 0
 5 1 -12 34.92 1.28 0
 5 1 -8 99.33 1.55 0
 5 1 -7 113.96 1.52 0
 5 1 -6 350.32 2.39 0
 6 -8 -8 7.52 1.12 0
 6 -8 -7 26.15 1.61 0
 6 -8 -6 14.88 1.38 0
 6 -7 -11 23.33 1.61 0
 6 -7 -10 11.08 1.32 0
 6 -7 -9 7.89 1.06 0
 6 -7 -8 38.03 1.7 0
 6 -7 -7 31.11 1.62 0
 6 -7 -6 18.14 1.36 0
 6 -6 -13 34.59 1.71 0
 6 -6 -12 44.56 1.85 0
 6 -6 -11 34.43 1.69 0
 6 -6 -9 83.97 2.32 0
 6 -6 -8 17.93 1.23 0
 6 -6 -7 4.27 0.9 0
 6 -6 -6 82.08 2.15 0
 6 -5 -15 11.57 1.35 0
 6 -5 -12 0.03 0.79 0
 6 -5 -11 85.89 2.29 0
 6 -5 -10 76.02 2.09 0
 6 -5 -9 31.32 1.49 0
 6 -5 -8 30.45 1.45 0
 6 -5 -7 129.96 2.54 0
 6 -5 -6 15.79 1.09 0
 6 -4 -16 20.99 1.47 0
 6 -4 -15 58.79 2.05 0
 6 -4 -14 13.65 1.21 0
 6 -4 -12 74.01 2.06 0
 6 -4 -11 39.91 1.57 0
 6 -4 -9 182.5 2.92 0
 6 -4 -8 62 1.71 0
 6 -4 -6 57.03 1.53 0
 6 -4 -5 185.77 2.64 0
 6 -3 -17 28.82 1.63 0
 6 -3 -16 46.35 1.84 0
 6 -3 -15 6.66 0.95 0
 6 -3 -14 29.49 1.5 0
 6 -3 -13 70.15 2.01 0
 6 -3 -12 3.23 0.76 0
 6 -3 -11 88.79 2.06 0
 6 -3 -10 30.9 1.28 0
 6 -3 -7 54.73 1.45 0
 6 -3 -6 25.99 1.03 0
 6 -2 -18 53.41 2.01 0
 6 -2 -17 41.21 1.78 0
 6 -2 -15 64.23 1.98 0
 6 -2 -14 10.63 1.03 0
 6 -2 -13 66.57 1.87 0
 6 -2 -12 11.29 0.92 0
 6 -2 -11 134.62 2.38 0
 6 -2 -10 14.32 0.92 0
 6 -2 -9 4.5 0.61 0
 6 -2 -8 0.24 0.41 0
 6 -2 -5 136.6 1.82 0
 6 -2 -4 30.11 0.88 0
 6 -2 -3 3.25 0.39 0
 6 -2 -2 3.53 0.4 0
 6 -1 -18 13.93 1.26 0
 6 -1 -17 21.3 1.33 0
 6 -1 -16 3.11 0.81 0
 6 -1 -15 11.52 1.12 0
 6 -1 -14 35.09 1.46 0
 6 -1 -12 36.14 1.35 0
 6 -1 -11 13.48 0.92 0
 6 -1 -10 2.45 0.55 0
 6 -1 -9 14.7 0.82 0
 6 -1 -7 10.15 0.65 0
 6 -1 -6 31.94 0.89 0
 6 -1 -5 15.82 0.62 0
 6 -1 -2 10.92 0.42 0
 6 -1 -1 0.91 0.18 0
 6 -1 0 0.94 0.17 0
 6 0 -16 45.96 1.71 0
 6 0 -13 2.62 0.7 0
 6 0 -12 10.21 0.86 0
 6 0 -11 143.71 2.25 0
 6 0 -10 19.52 0.92 0
 6 0 -7 202.02 2.05 0
 6 0 -4 25.79 0.59 0
 6 0 -3 1.36 0.19 0
 6 1 -12 37.31 1.32 0
 6 1 -11 13.06 0.84 0
 6 1 -10 2.03 0.48 0
 6 1 -8 13.77 0.66 0
 7 -8 -4 49.41 1.86 0
 7 -7 -9 19.49 1.39 0
 7 -7 -8 29.77 1.56 0
 7 -7 -7 21.19 1.36 0
 7 -7 -6 2.28 0.8 0
 7 -6 -9 5.32 0.94 0
 7 -6 -8 18.94 1.31 0
 7 -6 -7 0.41 0.65 0
 7 -6 -5 21.3 1.25 0
 7 -6 -4 9.04 1 0
 7 -5 -13 12.83 1.2 0
 7 -5 -12 13.75 1.2 0
 7 -5 -11 4.77 0.84 0
 7 -5 -10 2.5 0.74 0
 7 -5 -9 13.04 1.09 0
 7 -5 -8 114.86 2.44 0
 7 -5 -7 10.09 1 0
 7 -5 -6 19.26 1.17 0
 7 -5 -5 10.38 0.95 0
 7 -5 -4 117.46 2.25 0
 7 -4 -15 1.35 0.75 0
 7 -4 -14 26.44 1.46 0
 7 -4 -12 47.1 1.7 0
 7 -4 -11 53.3 1.73 0
 7 -4 -10 49.19 1.64 0
 7 -4 -9 8.34 0.89 0
 7 -4 -8 59.11 1.67 0
 7 -4 -7 31.21 1.25 0
 7 -4 -6 23.36 1.12 0
 7 -4 -5 23.25 1.07 0
 7 -4 -3 12.64 0.81 0
 7 -3 -16 1.04 0.71 0
 7 -3 -15 38.72 1.65 0
 7 -3 -14 54.87 1.8 0
 7 -3 -13 44.65 1.64 0
 7 -3 -12 1.91 0.7 0
 7 -3 -11 9.26 0.91 0
 7 -3 -10 56.17 1.62 0
 7 -3 -7 42.92 1.3 0
 7 -3 -6 14.72 0.84 0
 7 -3 -5 44.97 1.22 0
 7 -3 -1 1.27 0.36 0
 7 -2 -16 3.48 0.83 0
 7 -2 -13 53.45 1.68 0
 7 -2 -12 0.55 0.56 0
 7 -2 -11 126.13 2.27 0
 7 -2 -10 9.8 0.83 0
 7 -2 -9 3.79 0.59 0
 7 -2 -8 99.17 1.78 0
 7 -2 -7 121.06 1.85 0
 7 -1 -16 22.08 1.31 0
 7 -1 -15 37.94 1.52 0
 7 -1 -13 51.27 1.58 0
 7 -1 -12 2.12 0.59 0
 7 -1 -11 24.68 1.07 0
 7 -1 -10 22.56 0.99 0
 7 -1 -9 91.82 1.68 0
 -5 -1 -6 355.88 1.6 0
 -5 -1 -5 12.99 0.39 0
 -4 -1 -7 129.82 0.76 0
 -4 -1 -6 222.02 1.1 0
 -4 -1 -5 134.08 0.93 0
 -4 -1 -4 186.25 1.19 0
 -4 -1 -2 45.35 0.69 0
 -4 -1 -1 436.91 2.17 0
 -4 0 -6 107.08 1.13 0
 -4 0 -5 1.51 0.26 0
 -4 0 -4 387.38 2.15 0
 -4 0 -3 12.94 0.46 0
 -4 0 -2 149.09 1.4 0
 -3 -1 -10 119.83 0.92 0
 -3 -1 -7 7.29 0.21 0
 -3 -1 -6 223.7 0.91 0
 -3 -1 -5 41.61 0.41 0
 -3 -1 -3 155.87 0.92 0
 -3 -1 -2 397.69 1.6 0
 -3 -1 -1 525.6 2 0
 -3 -1 0 56.18 0.73 0
 -3 -1 1 526.68 2.31 0
 -3 0 -14 31.75 0.81 0
 -3 0 -13 207.25 1.85 0
 -3 0 -3 365.1 1.83 0
 -3 0 -2 273.11 1.64 0
 -3 0 -1 150.08 1.25 0
 -3 1 -15 45.59 1.11 0
 -3 1 -1 522.79 2.62 0
 -2 -2 -10 4.7 0.22 0
 -2 -1 -14 74.94 1.17 0
 -2 -1 -13 172.54 1.67 0
 -2 -1 -10 89.02 0.99 0
 -2 -1 -8 12.94 0.33 0
 -2 -1 -7 256.17 1.15 0
 -2 -1 -2 1098.11 1.78 0
 -2 -1 -1 114.9 0.73 0
 -2 0 -15 256.82 2.43 0
 -2 0 -14 26.6 0.81 0
 -2 0 -13 29.5 0.8 0
 -2 0 -12 37.6 0.84 0
 -2 0 -1 978.19 2.55 0
 -2 0 0 5656.12 6.4 0
 -2 0 2 332.14 1.77 0
 -2 0 3 100.56 1.05 0
 -2 0 4 317.22 1.94 0
 -2 1 -16 32.72 1.06 0
 -2 1 0 6044.76 7.67 0
 -2 1 1 113.4 1.12 0
 -2 1 2 1083.09 3.49 0
 -2 1 3 338.67 2.07 0
 -2 2 -17 0.19 0.44 0
 -2 2 1 563.63 2.78 0
 -1 -2 -14 69.64 1.19 0
 -1 -2 -13 114.39 1.45 0
 -1 -2 -12 50.66 0.94 0
 -1 -2 -9 430.16 2.13 0
 -1 -2 -8 6.22 0.29 0
 -1 -2 -7 173.96 1.13 0
 -1 -1 -16 76.85 1.45 0
 -1 -1 -15 107.23 1.63 0
 -1 -1 -14 35.98 0.95 0
 -1 -1 -13 199.79 2.02 0
 -1 -1 -12 3.83 0.4 0
 -1 -1 -11 23.03 0.67 0
 -1 -1 -7 574.68 2.15 0
 -1 0 -17 1.74 0.45 0
 -1 0 -16 0.68 0.36 0
 -1 0 -15 123.63 1.84 0
 -1 0 -14 51.93 1.16 0
 -1 0 -12 115.68 1.53 0
 -1 0 -11 111.07 1.42 0
 -1 0 -10 210.07 1.83 0
 -1 0 0 0.58 0.11 0
 -1 0 3 1325.78 3.08 0
 -1 1 -18 28.2 1.13 0
 -1 1 -17 30.92 1.13 0
 -1 1 -16 78.96 1.68 0
 -1 1 -14 34.95 1.04 0
 -1 1 -13 202.23 2.31 0
 -1 1 1 244.17 1.3 0
 -1 1 2 203.46 1.25 0
 -1 1 3 2106.97 4.22 0
 -1 1 4 290.17 1.69 0
 -1 1 5 812.61 2.93 0
 -1 1 6 37.77 0.7 0
 -1 2 -18 12.24 0.91 0
 -1 2 -17 12.14 0.86 0
 -1 2 -16 7.03 0.76 0
 -1 2 2 517.77 2.33 0
 -1 2 3 989.9 3.3 0
 -1 2 4 296.23 1.88 0
 -1 2 5 766.33 3.08 0
 -1 3 -17 27.77 1.24 0
 0 -3 -14 5.57 0.5 0
 0 -3 -12 16.89 0.67 0
 0 -2 -16 40.08 1.14 0
 0 -2 -15 90.66 1.6 0
 0 -2 -14 12.85 0.68 0
 0 -2 -13 255.56 2.43 0
 0 -2 -10 393.29 2.6 0
 0 -2 -5 183.07 1.33 0
 0 -1 -17 42.12 1.25 0
 0 -1 -16 34.08 1.1 0
 0 -1 -14 3.61 0.5 0
 0 -1 -13 88.83 1.52 0
 0 -1 -12 45.19 1.04 0
 0 -1 -10 66.3 1.14 0
 0 -1 -7 34.69 0.68 0
 0 -1 -5 603.31 2.22 0
 0 -1 -4 3102.02 4.46 0
 0 -1 -2 9789.31 6.3 0
 0 0 -18 264.36 3.18 0
 0 0 -17 0.27 0.45 0
 0 0 -16 34.28 1.17 0
 0 0 -15 -0.12 0.36 0
 0 0 -14 90.39 1.65 0
 0 0 -13 0.55 0.41 0
 0 0 -12 353.93 2.86 0
 0 0 -11 0.17 0.3 0
 0 0 -10 2.66 0.38 0
 0 0 -9 0.02 0.24 0
 0 0 -6 161.86 1.32 0
 0 1 -18 -0.38 0.45 0
 0 1 -17 43.52 1.35 0
 0 1 -16 33.9 1.19 0
 0 1 -15 119.03 2.02 0
 0 1 -14 3.48 0.59 0
 0 1 -13 87.91 1.6 0
 0 1 -12 44.48 1.09 0
 0 1 -11 147.75 1.87 0
 0 1 3 135.79 0.83 0
 0 1 4 3231.01 4.33 0
 0 2 -18 44.46 1.54 0
 0 2 -17 49.26 1.53 0
 0 2 -15 89.12 1.85 0
 0 2 -14 13.35 0.87 0
 0 2 3 1397.94 3.19 0
 0 2 4 84.43 0.84 0
 0 2 5 182.49 1.27 0
 0 2 6 3734.75 5.81 0
 0 2 7 456.51 2.13 0
 0 3 -17 44.22 1.55 0
 0 3 -16 53.32 1.6 0
 0 3 4 799.99 2.92 0
 0 3 5 330.2 1.9 0
 0 3 6 74.38 0.95 0
 0 3 7 400.27 2.17 0
 1 -3 -16 44.23 1.29 0
 1 -3 -15 1.46 0.48 0
 1 -3 -14 39.65 1.15 0
 1 -3 -13 128.27 1.92 0
 1 -3 -12 82.29 1.51 0
 1 -2 -17 13.19 0.87 0
 1 -2 -16 7.98 0.74 0
 1 -2 -15 25.62 1.03 0
 1 -2 -14 72.84 1.56 0
 1 -2 -13 116.14 1.87 0
 1 -2 -12 53.63 1.25 0
 1 -2 -9 458.26 3.04 0
 1 -2 -8 7.03 0.44 0
 1 -1 -18 28.64 1.15 0
 1 -1 -17 31.2 1.17 0
 1 -1 -16 79.94 1.73 0
 1 -1 -15 106.32 1.94 0
 1 -1 -14 35.69 1.11 0
 1 -1 -13 197.76 2.43 0
 1 -1 -12 3.05 0.47 0
 1 -1 -11 23.8 0.83 0
 1 -1 -10 214.98 2.2 0
 1 -1 -9 389.8 2.77 0
 1 -1 -3 2067.69 4.36 0
 1 -1 -2 203.86 1.29 0
 1 0 -17 1.73 0.54 0
 1 0 -16 1.02 0.48 0
 1 0 -15 122.66 2.1 0
 1 0 -14 51.16 1.34 0
 1 0 -13 28.27 1.03 0
 1 0 -11 113.48 1.69 0
 1 0 -10 223.96 2.26 0
 1 0 -9 47.38 1.02 0
 1 0 -8 84.18 1.24 0
 1 0 -5 0.55 0.23 0
 1 0 -2 220.51 1.2 0
 1 0 -1 1348.54 2.58 0
 1 0 0 0.41 0.1 0
 1 1 -18 29.28 1.3 0
 1 1 -15 108.54 2.02 0
 1 1 -14 36.67 1.23 0
 1 1 -13 195.67 2.49 0
 1 1 -11 22.62 0.83 0
 1 1 -10 209.29 2.19 0
 1 1 -9 387.35 2.8 0
 1 1 -8 377.59 2.62 0
 1 2 -17 12.92 1.02 0
 1 2 -16 6.93 0.74 0
 1 2 -15 26.07 1.17 0
 1 2 -14 68.78 1.6 0
 1 2 -13 113.44 2 0
 1 2 3 963.47 1.87 0
 1 2 4 301.93 1.06 0
 1 2 5 743.54 1.72 0
 1 3 -16 46.22 1.56 0
 1 3 -15 0.48 0.57 0
 1 3 5 40.54 0.54 0
 1 3 6 102.01 0.83 0
 1 4 -15 51.82 1.6 0
 1 4 6 62.47 0.79 0
 1 4 7 420.99 1.96 0
 1 4 8 65.09 0.77 0
 2 -3 -17 25.63 1.16 0
 2 -3 -15 16.89 0.97 0
 2 -3 -14 11.14 0.8 0
 2 -3 -12 153.42 2.27 0
 2 -3 -11 56.01 1.37 0
 2 -3 -10 391.2 3.35 0
 2 -2 -17 -0.2 0.51 0
 2 -2 -16 97.21 2.03 0
 2 -2 -15 44.14 1.37 0
 2 -2 -14 39.95 1.31 0
 2 -2 -13 105.94 1.95 0
 2 -2 -12 91.51 1.77 0
 2 -2 -11 95.55 1.74 0
 2 -2 -9 201.81 2.27 0
 2 -2 -8 232 2.32 0
 2 -2 -7 212.79 2.14 0
 2 -2 -6 488.04 3.09 0
 2 -1 -18 119.19 2.39 0
 2 -1 -17 102.11 2.19 0
 2 -1 -16 32.97 1.25 0
 2 -1 -14 77.76 1.74 0
 2 -1 -13 173.36 2.47 0
 2 -1 -12 156.89 2.23 0
 2 -1 -10 92.41 1.6 0
 2 -1 -7 259.14 2.27 0
 2 -1 -6 368.91 2.58 0
 2 -1 -2 1058.4 3.56 0
 2 0 -18 19.45 1.19 0
 2 0 -17 82.84 2.01 0
 2 0 -16 3.89 0.66 0
 2 0 -15 258.5 3.23 0
 2 0 -13 29.82 1.13 0
 2 0 -11 133.69 1.99 0
 2 0 -10 74.5 1.45 0
 2 0 -8 178.18 2 0
 2 0 -6 149.89 1.65 0
 2 0 -2 321.91 1.82 0
 2 0 -1 941.69 2.89 0
 2 0 0 5443.79 6.43 0
 2 1 -16 33.94 1.38 0
 2 1 -14 78.42 1.77 0
 2 1 -13 175.73 2.54 0
 2 1 -11 167.06 2.22 0
 2 1 -10 89.4 1.6 0
 2 1 -9 97.73 1.6 0
 2 1 -2 1062.6 3.2 0
 2 1 -1 108.3 0.95 0
 2 1 0 5807.51 6.09 0
 2 1 1 108.59 0.74 0
 2 2 -16 91.81 2.08 0
 2 2 -15 42.38 1.44 0
 2 2 -14 40.14 1.38 0
 2 2 -13 101.86 2 0
 2 2 -11 95.26 1.74 0
 2 2 -10 3.77 0.5 0
 2 2 -9 205.46 2.32 0
 2 2 -8 236.52 2.35 0
 2 3 -16 41.09 1.58 0
 2 3 -15 16.16 1.02 0
 2 3 -14 10.66 0.82 0
 2 3 -13 27.66 1.18 0
 2 3 -12 148.44 2.37 0
 2 3 -11 57.21 1.47 0
 2 4 -15 14.72 1.14 0
 2 4 -13 0.97 0.54 0
 2 4 4 322.64 1.51 0
 2 4 5 228.4 1.06 0
 2 5 5 64.96 0.78 0
 2 5 6 8.98 0.29 0
 3 -3 -16 1.74 0.6 0
 3 -3 -15 12.09 0.99 0
 3 -3 -14 13.71 0.92 0
 3 -3 -12 49.4 1.43 0
 3 -3 -11 122.38 2.19 0
 3 -3 -10 17.1 0.93 0
 3 -2 -16 3.24 0.71 0
 3 -2 -15 21.2 1.17 0
 3 -2 -13 57.39 1.6 0
 3 -2 -12 120.86 2.17 0
 3 -2 -11 22.06 1.04 0
 3 -2 -10 377.59 3.5 0
 3 -2 -9 454.55 3.7 0
 3 -2 -8 190.25 2.33 0
 3 -2 -7 178.17 2.18 0
 3 -2 -6 145.9 1.92 0
 3 -1 -17 30.42 1.43 0
 3 -1 -16 10.98 0.97 0
 3 -1 -14 156.59 2.57 0
 3 -1 -13 51.19 1.5 0
 3 -1 -12 48.97 1.39 0
 3 -1 -10 124.06 2 0
 3 -1 -8 415.19 3.31 0
 3 -1 -7 7.13 0.53 0
 3 0 -16 196.45 3.08 0
 3 0 -15 112.81 2.33 0
 3 0 -14 32.33 1.3 0
 3 0 -13 215 2.98 0
 3 0 -12 184.94 2.65 0
 3 0 -11 100.67 1.88 0
 3 0 -10 65.84 1.5 0
 3 0 -9 229.55 2.6 0
 3 0 -8 87.26 1.6 0
 3 0 -4 1200.44 4.6 0
 3 0 0 0.5 0.2 0
 3 1 -16 10.63 1.05 0
 3 1 -15 46.98 1.55 0
 3 1 -14 159.49 2.68 0
 3 1 -13 53.56 1.53 0
 3 1 -12 47.37 1.39 0
 3 1 -11 22.66 0.98 0
 3 1 -8 415.15 3.3 0
 3 1 -6 223.33 2.21 0
 3 1 -1 499.46 2.45 0
 3 1 0 55.27 0.78 0
 3 1 1 511.59 2.11 0
 3 2 -16 3.07 0.72 0
 3 2 -14 60.35 1.74 0
 3 2 -13 58.41 1.61 0
 3 2 -12 120.92 2.21 0
 3 2 -11 22.3 1.03 0
 3 2 -10 374.61 3.48 0
 3 2 -9 455.88 3.64 0
 3 2 -8 194.64 2.33 0
 3 2 -7 188.12 2.17 0
 3 2 -6 144.97 1.8 0
 3 2 -5 423.29 2.89 0
 3 2 0 218.3 1.5 0
 3 2 2 632.76 1.92 0
 3 3 -15 9.73 0.91 0
 3 3 -14 10.18 0.85 0
 3 3 -13 16.46 1.06 0
 3 3 -12 45.76 1.47 0
 3 3 -10 16.86 0.94 0
 3 3 -9 44.39 1.25 0
 3 3 -8 62.18 1.36 0
 3 3 -7 420.19 3.28 0
 3 3 -6 5.7 0.5 0
 3 3 -5 337.21 2.68 0
 3 3 -4 20.48 0.68 0
 3 3 -3 285.94 2.2 0
 3 3 1 397.82 1.88 0
 3 3 2 25.2 0.44 0
 3 4 -14 30.42 1.44 0
 3 4 -13 14.75 1.07 0
 3 4 -12 51.65 1.55 0
 3 4 -11 39.99 1.33 0
 3 4 -10 22.12 1.07 0
 3 4 -9 36.28 1.17 0
 3 4 3 695.51 2.04 0
 3 5 -11 38.24 1.42 0
 3 5 -10 54.65 1.53 0
 3 6 -11 4.44 0.75 0
 4 -3 -14 18.34 1.16 0
 4 -3 -13 133.19 2.55 0
 4 -2 -15 13.47 1.09 0
 4 -2 -14 15.62 1.01 0
 4 -2 -13 1.43 0.62 0
 4 -2 -12 14.57 1.02 0
 4 -2 -11 66.52 1.68 0
 4 -2 -10 217.36 2.9 0
 4 -2 -6 177.52 2.33 0
 4 -1 -15 2.62 0.68 0
 4 -1 -12 205.89 3.02 0
 4 -1 -11 87.36 1.92 0
 4 -1 -9 4.92 0.62 0
 4 -1 -7 127.56 2.02 0
 4 -1 -6 217.75 2.48 0
 4 -1 -5 132.94 1.9 0
 4 -1 -4 181.66 2.12 0
 4 -1 -3 37.5 0.98 0
 4 0 -15 56.3 1.76 0
 4 0 -14 179.25 2.97 0
 4 0 -13 15.43 1.08 0
 4 0 -12 55.28 1.56 0
 4 0 -10 132.11 2.22 0
 4 0 -8 106.8 1.9 0
 4 0 -7 44.54 1.18 0
 4 0 -5 1.13 0.35 0
 4 0 -4 384.72 2.96 0
 4 0 -3 12.31 0.58 0
 4 1 -15 3.22 0.75 0
 4 1 -14 52.32 1.65 0
 4 1 -13 34.89 1.33 0
 4 1 -11 85.58 1.91 0
 4 1 -10 27.35 1.09 0
 4 1 -9 2.63 0.51 0
 4 1 -8 80.54 1.63 0
 4 1 -7 128.09 1.98 0
 4 1 -6 217.33 2.42 0
 4 1 -5 134.38 1.86 0
 4 1 -4 184.04 2.05 0
 4 1 -3 35.22 0.87 0
 4 2 -13 1.48 0.69 0
 4 2 -12 14.28 1.04 0
 4 2 -11 70.17 1.79 0
 4 2 -10 221.47 2.95 0
 4 2 -9 65.13 1.56 0
 4 2 -7 158.97 2.19 0
 4 2 -6 181.42 2.24 0
 4 2 -5 95.04 1.55 0
 4 2 -4 17.26 0.71 0
 4 2 -3 229.57 2.16 0
 4 2 -2 217.93 1.99 0
 4 2 2 208.66 1.38 0
 4 3 -13 121.18 2.44 0
 4 3 -12 38.98 1.48 0
 4 3 -9 103.99 1.99 0
 4 3 -8 81.54 1.72 0
 4 3 -6 124.57 1.92 0
 4 3 -5 428.64 3.28 0
 4 3 -4 37.54 1 0
 4 3 -2 41.02 0.92 0
 4 4 -12 95.07 2.14 0
 4 4 -11 29.17 1.24 0
 4 4 -10 42.43 1.44 0
 4 4 -9 3.39 0.61 0
 4 4 -8 9.1 0.71 0
 4 4 -7 56.03 1.39 0
 4 4 -4 55.89 1.22 0
 4 4 -3 146.27 1.82 0
 4 4 -2 69.55 1.21 0
 4 4 -1 187.36 1.81 0
 4 4 3 137.29 0.81 0
 4 5 -11 35.7 1.4 0
 4 5 -10 146.25 2.52 0
 4 5 -9 4.24 0.66 0
 4 5 -8 115.24 2.11 0
 4 5 -7 34.19 1.16 0
 4 5 -6 36.22 1.17 0
 4 5 -5 9.18 0.63 0
 4 5 -4 23.97 0.86 0
 4 5 -3 41.73 1.05 0
 4 5 -2 52.05 1.11 0
 4 5 0 0.31 0.24 0
 4 6 -10 58.1 1.75 0
 4 6 -9 45.63 1.49 0
 4 6 -8 23.01 1.08 0
 4 6 -7 7.73 0.77 0
 4 6 -5 48.32 1.28 0
 4 6 -4 2.46 0.47 0
 4 6 -3 70.91 1.42 0
 4 6 -2 22.54 0.83 0
 4 6 -1 127.8 1.68 0
 4 6 0 0.37 0.25 0
 4 6 1 121.8 1.41 0
 4 7 -8 6.54 0.86 0
 4 7 -7 4.71 0.74 0
 4 7 -6 51.44 1.45 0
 4 7 -5 57.47 1.5 0
 4 7 -4 55.01 1.38 0
 4 7 -3 31.47 1.04 0
 4 7 -2 12.24 0.71 0
 5 -2 -13 0.99 0.62 0
 5 -2 -12 22.62 1.25 0
 5 -2 -11 77.59 1.99 0
 5 -2 -10 203.37 3.01 0
 5 -2 -8 89.22 1.92 0
 5 -2 -7 23.95 1.14 0
 5 -1 -14 42.75 1.7 0
 5 -1 -13 60.35 1.84 0
 5 -1 -12 36.27 1.41 0
 5 -1 -11 53.93 1.65 0
 5 -1 -10 12.53 1 0
 5 -1 -9 128.99 2.34 0
 5 -1 -8 98.54 1.99 0
 5 -1 -7 117.9 2.13 0
 5 -1 -6 368.96 3.52 0
 5 -1 -5 12.12 0.79 0
 5 -1 -4 166.95 2.25 0
 5 0 -13 112.21 2.46 0
 5 0 -12 0.16 0.59 0
 5 0 -11 32.04 1.33 0
 5 0 -10 11.93 0.95 0
 5 0 -8 223.48 2.92 0
 5 0 -7 11.35 0.82 0
 5 0 -6 1.33 0.45 0
 5 0 -5 293.46 2.97 0
 5 0 -3 73.97 1.45 0
 5 0 -2 220.55 2.33 0
 5 1 -12 34.14 1.42 0
 5 1 -11 49.93 1.55 0
 5 1 -10 11.88 0.86 0
 5 1 -9 131.24 2.27 0
 5 1 -8 98.2 1.96 0
 5 1 -7 111.34 1.98 0
 5 1 -6 352.75 3.34 0
 5 1 -5 13.46 0.73 0
 5 1 -4 167.15 2.16 0
 5 1 -3 288.73 2.7 0
 5 1 -2 782.02 4.2 0
 5 1 -1 187.74 1.98 0
 5 1 0 478.55 3 0
 5 2 -13 1.17 0.66 0
 5 2 -12 22.14 1.17 0
 5 2 -10 198.96 2.95 0
 5 2 -9 34.39 1.25 0
 5 2 -8 88.47 1.87 0
 5 2 -5 91.69 1.69 0
 5 2 -4 242.64 2.55 0
 5 2 -3 44.46 1.07 0
 5 2 -2 262.58 2.4 0
 5 2 0 234.42 2.04 0
 5 3 -12 159.62 2.88 0
 5 3 -11 11.92 0.92 0
 5 3 -10 183.31 2.92 0
 5 3 -8 278.77 3.24 0
 5 3 -6 63.45 1.51 0
 5 3 -4 97.45 1.67 0
 5 3 -2 53.19 1.15 0
 5 3 0 83.35 1.22 0
 5 3 2 50.71 0.77 0
 5 4 -11 8.57 1.07 0
 5 4 -10 28.58 1.29 0
 5 4 -8 62.42 1.61 0
 5 4 -7 48.93 1.41 0
 5 4 -6 18.75 0.89 0
 5 4 -3 250.32 2.56 0
 5 4 -2 6.62 0.55 0
 5 4 -1 32.03 0.87 0
 5 4 0 44.46 0.92 0
 5 4 2 5.64 0.29 0
 5 5 -10 19.24 1.1 0
 5 5 -9 13.9 1.04 0
 5 5 -8 61.87 1.64 0
 5 5 -7 41.36 1.37 0
 5 5 -6 30.76 1.16 0
 5 5 -5 80.37 1.66 0
 5 5 -4 93.14 1.71 0
 5 5 -3 19.3 0.8 0
 5 5 -2 37.49 1.01 0
 5 5 -1 266.75 2.39 0
 5 5 0 5.69 0.43 0
 5 6 -8 0.3 0.51 0
 5 6 -7 10.06 0.86 0
 5 6 -6 50.78 1.46 0
 5 6 -5 4.89 0.6 0
 5 6 -4 17.84 0.9 0
 5 6 -3 133.69 1.99 0
 5 6 -2 26.23 0.9 0
 6 -1 -12 35.72 1.5 0
 6 -1 -8 14.75 1.01 0
 6 -1 -7 10.65 0.89 0
 6 -1 -6 32.47 1.27 0
 6 0 -11 151.32 2.78 0
 6 0 -10 19.42 1.18 0
 6 0 -9 19.55 1.08 0
 6 0 -8 44.02 1.48 0
 6 0 -7 202.91 2.86 0
 6 0 -6 18.67 1.01 0
 6 1 -12 35.4 1.58 0
 6 1 -10 3.16 0.78 0
 6 1 -9 14.7 0.95 0
 6 1 -8 13.6 0.98 0
 6 1 -7 9.53 0.86 0
 6 1 -6 32.88 1.18 0
 6 1 -5 16.73 0.9 0
 6 1 -4 26.29 0.99 0
 6 1 -3 18.81 0.81 0
 6 1 -2 10.66 0.69 0
 6 1 -1 1.13 0.41 0
 6 2 -11 128.59 2.62 0
 6 2 -8 -0.17 0.46 0
 6 2 -7 102.74 2.03 0
 6 2 -6 0.37 0.44 0
 6 2 -4 30.16 1.07 0
 6 2 -3 2.95 0.51 0
 6 2 -1 125.85 1.74 0
 6 3 -11 78.9 2.13 0
 6 3 -10 29.74 1.35 0
 6 3 -9 42.37 1.5 0
 6 3 -8 24.29 1.2 0
 6 3 -7 53.7 1.5 0
 6 3 -6 25.86 1.05 0
 6 3 -5 32.32 1.15 0
 6 3 -4 12.95 0.77 0
 6 3 -3 5.73 0.61 0
 6 3 0 0.46 0.28 0
 6 4 -9 187.2 3.02 0
 6 4 -8 62.96 1.74 0
 6 4 -7 49.88 1.51 0
 6 4 -6 61.34 1.57 0
 6 4 -4 12.61 0.8 0
 6 4 -3 37.73 1.1 0
 6 4 -2 25.33 0.87 0
 6 4 -1 114.11 1.61 0
 6 4 0 -0.16 0.21 0
 6 5 -8 27.96 1.23 0
 6 5 -7 128.03 2.37 0
 6 5 -6 14.39 0.91 0
 6 5 -5 103.7 1.97 0
 6 5 -4 69.96 1.55 0
 6 5 -3 70.65 1.49 0
 6 6 -6 77.52 1.8 0
 7 0 -9 4.99 0.77 0
 7 0 -8 4.36 0.73 0
 7 1 -9 95.37 2.27 0
 7 1 -8 73.72 1.98 0
 7 1 -7 12.97 1.01 0
 7 1 -6 87.03 1.95 0
 7 1 -5 44.53 1.38 0
 7 1 -4 208.1 2.79 0
 7 2 -9 4.51 0.75 0
 7 2 -8 92.77 2.15 0
 7 2 -7 123.84 2.39 0
 7 2 -6 40.43 1.39 0
 7 2 -5 93.88 1.94 0
 7 2 -4 185.12 2.61 0
 7 2 -2 15.85 0.84 0
 7 3 -8 15.95 1.09 0
 7 3 -7 42.8 1.5 0
 7 3 -6 14.32 0.93 0
 7 3 -3 44.88 1.28 0
 7 3 -2 204.75 2.43 0
 7 4 -7 29.77 1.28 0
 7 4 -6 23 1.13 0
 7 4 -4 79.2 1.71 0
 7 4 -3 14.36 0.82 0
 8 1 -6 20.67 1.21 0
 8 2 -5 74.65 1.82 0
 8 2 -4 24.7 1.15 0
 8 3 -6 33.01 1.4 0
 8 3 -5 46.14 1.47 0
 -5 -2 -3 44.29 0.76 0
 -5 -2 -2 265.14 1.65 0
 -5 -2 -1 52.8 0.67 0
 -5 -1 -1 182.62 1.62 0
 -5 -1 0 475.79 2.54 0
 -5 -1 1 185.81 1.56 0
 -4 -5 -9 5.14 0.55 0
 -4 -5 -8 111.58 1.7 0
 -4 -5 -7 34.07 0.91 0
 -4 -4 -4 54.75 0.76 0
 -4 -2 -2 218.55 1.33 0
 -4 -1 -1 436.61 2.18 0
 -4 0 0 345.67 2.26 0
 -4 0 1 61.27 0.98 0
 -3 -6 -10 0.82 0.44 0
 -3 -6 -9 32.69 1.13 0
 -3 -6 -8 26.8 0.97 0
 -3 -6 -6 26.03 0.82 0
 -3 -6 -5 11.23 0.52 0
 -3 -5 -13 26.73 1.29 0
 -3 -5 -12 33.94 1.3 0
 -3 -5 -11 39.64 1.35 0
 -3 -5 -10 55.72 1.47 0
 -3 -5 -9 13.3 0.79 0
 -3 -5 -8 21.33 0.86 0
 -3 -5 -7 90.5 1.55 0
 -3 -5 -3 13.05 0.4 0
 -3 -4 -6 8.01 0.5 0
 -3 -4 -4 156.99 1.48 0
 -3 -4 -3 693.08 2.58 0
 -3 -4 -2 44.16 0.5 0
 -3 -1 0 58.35 0.65 0
 -3 -1 1 520.45 1.83 0
 -3 0 -2 263.93 1.72 0
 -3 0 -1 149.12 1.31 0
 -3 0 0 0.52 0.2 0
 -3 0 1 150.83 1.33 0
 -3 0 2 266.21 1.77 0
 -3 1 -1 513.6 2.77 0
 -3 1 0 55.68 1 0
 -3 1 1 527.34 2.88 0
 -3 1 2 388.9 2.52 0
 -2 -7 -8 23.79 1.04 0
 -2 -7 -7 3.46 0.5 0
 -2 -7 -6 247.81 2.65 0
 -2 -7 -5 55.15 1.22 0
 -2 -7 -4 13.71 0.65 0
 -2 -6 -13 11.66 1.05 0
 -2 -6 -12 34.94 1.46 0
 -2 -6 -11 4.76 0.72 0
 -2 -6 -9 10.31 0.82 0
 -2 -6 -7 20.05 0.88 0
 -2 -6 -4 2.45 0.37 0
 -2 -6 -3 4.8 0.41 0
 -2 -5 -14 8.57 1.04 0
 -2 -5 -13 0.24 0.53 0
 -2 -5 -12 151.23 2.66 0
 -2 -5 -11 17.79 1.05 0
 -2 -5 -10 1.15 0.53 0
 -2 -5 -8 39.31 1.19 0
 -2 -5 -4 117.86 1.52 0
 -2 -4 -7 286.99 2.72 0
 -2 -4 -6 42.1 1.03 0
 -2 -4 -3 124.06 1.32 0
 -2 -4 -1 408.36 1.86 0
 -2 -3 -3 434.13 2.21 0
 -2 -3 -1 319.84 1.35 0
 -2 -1 0 5991.05 4.43 0
 -2 0 -1 941.73 2.56 0
 -2 0 0 5543.02 6.33 0
 -2 0 2 333.27 1.66 0
 -2 1 -1 115.69 1.18 0
 -2 1 0 5901.35 8.11 0
 -2 1 1 112.49 1.19 0
 -2 1 2 1089.29 3.67 0
 -2 2 0 5.03 0.41 0
 -2 2 1 556.27 2.99 0
 -1 -7 -12 0.46 0.57 0
 -1 -7 -10 29.57 1.34 0
 -1 -7 -9 109.4 2.27 0
 -1 -7 -8 0.16 0.42 0
 -1 -7 -7 27.07 1.12 0
 -1 -7 -6 59.38 1.46 0
 -1 -7 -5 76.78 1.6 0
 -1 -7 -4 87.81 1.65 0
 -1 -7 -3 47.41 1.17 0
 -1 -6 -13 151.72 3.02 0
 -1 -6 -12 20.71 1.26 0
 -1 -6 -11 27.58 1.34 0
 -1 -6 -10 1.93 0.56 0
 -1 -6 -9 1.22 0.49 0
 -1 -6 -8 78.59 1.78 0
 -1 -6 -6 14.57 0.78 0
 -1 -6 -5 159.61 2.19 0
 -1 -6 -4 109.64 1.73 0
 -1 -6 -3 100.09 1.58 0
 -1 -6 -2 137.23 1.75 0
 -1 -5 -14 14.73 1.17 0
 -1 -5 -13 26.66 1.31 0
 -1 -5 -11 83.92 1.96 0
 -1 -5 -10 18.51 1.04 0
 -1 -5 -8 1.46 0.45 0
 -1 -5 -6 105.32 1.8 0
 -1 -5 -5 56.98 1.24 0
 -1 -5 -4 7.41 0.54 0
 -1 -5 -3 582.87 3.47 0
 -1 -4 -8 65.17 1.47 0
 -1 -4 -7 423.72 3.41 0
 -1 -4 0 4.3 0.29 0
 -1 -3 -3 719.74 3.14 0
 -1 -3 -2 90.85 1.05 0
 -1 -3 -1 602.62 2.41 0
 -1 -3 0 345.43 1.67 0
 -1 -2 -1 124.85 0.89 0
 -1 -2 0 1.72 0.14 0
 -1 0 0 0.28 0.09 0
 -1 0 1 1406.33 2.44 0
 -1 1 -1 254.43 1.38 0
 -1 1 0 132.65 1.02 0
 -1 2 -2 519.21 2.43 0
 -1 2 -1 124.01 1.21 0
 -1 2 0 1.97 0.26 0
 -1 2 1 126.32 1.28 0
 -1 2 2 513.56 2.6 0
 0 -8 -9 60.35 1.84 0
 0 -8 -5 7.89 0.74 0
 0 -8 -4 2.13 0.49 0
 0 -7 -10 103.37 2.33 0
 0 -7 -9 47.5 1.58 0
 0 -7 -8 46.44 1.57 0
 0 -7 -7 4.94 0.68 0
 0 -7 -6 21.16 1.04 0
 0 -7 -5 65.27 1.58 0
 0 -7 -3 18.11 0.89 0
 0 -7 -2 88.91 1.64 0
 0 -6 -13 27.42 1.41 0
 0 -6 -11 0 0.5 0
 0 -6 -9 2.53 0.67 0
 0 -6 -8 56.04 1.61 0
 0 -6 -6 107.24 2.02 0
 0 -6 -5 97.68 1.88 0
 0 -6 -4 10.44 0.68 0
 0 -6 -3 34.99 1.05 0
 0 -6 -2 8.96 0.64 0
 0 -6 -1 103.1 1.61 0
 0 -5 -14 60.57 1.96 0
 0 -5 -13 14.43 1.05 0
 0 -5 -12 1.84 0.62 0
 0 -5 -11 37.83 1.49 0
 0 -5 -10 64.39 1.75 0
 0 -5 -9 35.57 1.35 0
 0 -5 -6 0.44 0.37 0
 0 -5 -5 109.96 1.84 0
 0 -5 -4 79.71 1.54 0
 0 -5 -3 363.27 3.03 0
 0 -5 -2 89.87 1.48 0
 0 -5 0 0.26 0.25 0
 0 -4 -15 16.02 1.29 0
 0 -4 -14 7.69 0.95 0
 0 -4 -11 17.02 0.99 0
 0 -4 -10 107.08 2.1 0
 0 -4 -9 174.61 2.55 0
 0 -4 -8 221.17 2.74 0
 0 -4 -7 140.92 2.14 0
 0 -4 -3 1.31 0.31 0
 0 -3 -7 401.18 3.17 0
 0 -3 -2 0.89 0.27 0
 0 -3 -1 49.81 0.86 0
 0 -3 0 0.05 0.19 0
 0 -2 -3 1352.41 4.11 0
 0 -2 -2 3191.65 5.87 0
 0 -1 -1 506.08 1.61 0
 0 -1 0 0.29 0.09 0
 0 1 0 0.12 0.09 0
 0 1 1 525.43 1.61 0
 0 2 -1 66.91 0.74 0
 0 2 0 73.42 0.8 0
 0 2 1 69.25 0.81 0
 0 3 -3 99.68 1.14 0
 0 3 -2 0.77 0.22 0
 0 3 -1 49.97 0.85 0
 0 3 0 -0.05 0.24 0
 0 3 1 50.03 0.85 0
 1 -8 -8 5.4 0.79 0
 1 -8 -6 2.57 0.61 0
 1 -8 -5 76.15 1.9 0
 1 -8 -4 38.04 1.38 0
 1 -7 -10 30.86 1.52 0
 1 -7 -8 0.03 0.57 0
 1 -7 -7 26.17 1.2 0
 1 -7 -6 58.8 1.67 0
 1 -7 -5 75.48 1.81 0
 1 -7 -3 45.69 1.42 0
 1 -7 -2 22.08 0.93 0
 1 -6 -10 1.9 0.61 0
 1 -6 -9 2.11 0.66 0
 1 -6 -8 75.28 1.9 0
 1 -6 -7 75.9 1.89 0
 1 -6 -6 16.45 1.02 0
 1 -6 -5 150.66 2.39 0
 1 -6 -4 109.97 2.02 0
 1 -6 -3 103.9 1.93 0
 1 -6 -1 171.68 2.22 0
 1 -5 -14 15.26 1.28 0
 1 -5 -13 24.8 1.36 0
 1 -5 -11 87.11 2.17 0
 1 -5 -10 18.06 1.07 0
 1 -5 -9 92.51 2.06 0
 1 -5 -8 1.11 0.48 0
 1 -5 -7 230.52 3 0
 1 -5 -5 57.59 1.46 0
 1 -5 -4 8.38 0.72 0
 1 -5 -3 582.57 4.09 0
 1 -5 -2 136.59 1.93 0
 1 -5 0 14.91 0.66 0
 1 -4 -14 60.57 1.92 0
 1 -4 -13 55.45 1.78 0
 1 -4 -11 393.97 4.26 0
 1 -4 -10 47.15 1.52 0
 1 -4 -9 5.62 0.67 0
 1 -4 -8 65.25 1.6 0
 1 -4 -7 428.49 3.83 0
 1 -4 -5 88.34 1.65 0
 1 -4 -4 24.15 0.86 0
 1 -4 -3 241.65 2.46 0
 1 -4 -2 52.62 1.14 0
 1 -4 -1 242.79 2.28 0
 1 -3 -16 44.07 1.75 0
 1 -3 -14 37.85 1.52 0
 1 -3 -13 125.66 2.51 0
 1 -3 -12 82.43 1.97 0
 1 -3 -11 79.88 1.92 0
 1 -3 -7 270.76 2.8 0
 1 -3 -6 105.55 1.72 0
 1 -2 -2 504.48 2.66 0
 1 -2 -1 119.42 1.26 0
 1 -2 0 1.64 0.24 0
 1 -1 -3 2021.09 4.85 0
 1 -1 -2 206.66 1.44 0
 1 -1 -1 245.66 1.45 0
 1 -1 0 131.5 1.01 0
 1 0 -1 1390.89 2.46 0
 1 3 -3 758.89 2.61 0
 1 4 -4 24.16 0.6 0
 1 4 -3 240.62 1.78 0
 1 4 -2 53.01 0.83 0
 1 4 -1 241.49 1.74 0
 1 4 0 4.4 0.32 0
 2 -8 -5 1.74 0.66 0
 2 -8 -4 149.42 2.66 0
 2 -7 -8 26.26 1.32 0
 2 -7 -7 4.58 0.85 0
 2 -7 -6 252.4 3.52 0
 2 -7 -4 14.76 1.04 0
 2 -7 -3 31.52 1.22 0
 2 -6 -12 32.38 1.54 0
 2 -6 -11 4.79 0.82 0
 2 -6 -10 136.55 2.83 0
 2 -6 -8 51.26 1.75 0
 2 -6 -7 19.65 1.08 0
 2 -6 -6 14.48 0.95 0
 2 -6 -5 55.38 1.57 0
 2 -6 -4 2.37 0.62 0
 2 -6 -3 4.74 0.68 0
 2 -6 -2 263.66 3.14 0
 2 -6 -1 162.37 2.31 0
 2 -5 -13 0.53 0.71 0
 2 -5 -11 14.91 1.16 0
 2 -5 -10 1.24 0.58 0
 2 -5 -9 42.7 1.54 0
 2 -5 -6 9.02 0.79 0
 2 -5 -5 66.36 1.65 0
 2 -5 -4 129.1 2.22 0
 2 -5 -3 378.36 3.53 0
 2 -5 -2 4.71 0.62 0
 2 -5 0 484.27 3.6 0
 2 -4 -14 17.57 1.2 0
 2 -4 -13 0.45 0.56 0
 2 -4 -12 58.84 1.84 0
 2 -4 -11 26.35 1.27 0
 2 -4 -10 60.45 1.73 0
 2 -4 -9 8.89 0.84 0
 2 -4 -8 243 3.13 0
 2 -4 -7 274.53 3.22 0
 2 -4 -6 43.16 1.32 0
 2 -4 -5 225.11 2.73 0
 2 -4 -2 11.02 0.66 0
 2 -4 0 24.8 0.83 0
 2 -3 -15 13.65 1.07 0
 2 -3 -14 11.47 1.01 0
 2 -3 -13 28.52 1.3 0
 2 -3 -12 149.01 2.7 0
 2 -3 -10 386.27 3.95 0
 2 -3 -9 86.76 1.89 0
 2 -3 -7 12.32 0.71 0
 2 -3 0 0.02 0.2 0
 2 -2 -16 97.52 2.5 0
 2 -2 -15 43.1 1.63 0
 2 -2 -14 39.57 1.51 0
 2 -2 -13 104.57 2.29 0
 2 -2 -12 92.31 2.04 0
 2 -2 -11 97.95 2.05 0
 2 -2 -9 205.07 2.67 0
 2 -2 -8 241.43 2.7 0
 2 -2 -7 216.89 2.46 0
 2 -2 -5 12.02 0.63 0
 2 -1 -3 336.72 2.24 0
 2 -1 -1 108.25 1.14 0
 2 -1 0 5850.32 8.01 0
 2 0 -4 313.22 2.02 0
 2 0 -3 98.68 1.05 0
 2 0 -2 332.68 1.73 0
 2 0 -1 939.68 2.65 0
 2 1 -2 1079.09 2.32 0
 2 3 -3 426.44 1.52 0
 2 3 -2 456.42 1.3 0
 2 4 -5 221.25 1.57 0
 2 4 -4 301.04 1.69 0
 2 4 -3 125.3 1.02 0
 2 4 -2 10.72 0.31 0
 2 5 -5 62.96 0.94 0
 2 5 -4 118.99 1.2 0
 2 5 -3 384.47 2.05 0
 3 -7 -7 16.4 1.2 0
 3 -6 -10 0.41 0.63 0
 3 -6 -9 31.43 1.52 0
 3 -6 -7 76.66 2.01 0
 3 -6 -6 25.87 1.3 0
 3 -6 -5 9.13 0.94 0
 3 -6 -4 65.97 1.78 0
 3 -6 -2 27.71 1.13 0
 3 -5 -12 35.19 1.66 0
 3 -5 -11 36.77 1.63 0
 3 -5 -10 57.38 1.82 0
 3 -5 -9 14.66 1.04 0
 3 -5 -7 87.5 2.08 0
 3 -5 -6 58.37 1.65 0
 3 -5 -5 96.56 2.05 0
 3 -5 -3 14.83 0.9 0
 3 -5 -1 314.93 3.28 0
 3 -4 -13 12.87 1.09 0
 3 -4 -12 50.38 1.82 0
 3 -4 -11 42.41 1.6 0
 3 -4 -10 20.31 1.14 0
 3 -4 -9 37.26 1.38 0
 3 -4 -8 127.38 2.37 0
 3 -4 -7 80.37 1.88 0
 3 -4 -6 7.47 0.8 0
 3 -4 -4 165.12 2.39 0
 3 -4 -3 710.73 4.75 0
 3 -4 -2 46.28 1.24 0
 3 -4 -1 375.37 3.35 0
 3 -4 0 12.5 0.74 0
 3 -3 -15 11.07 1.06 0
 3 -3 -14 11.54 1.04 0
 3 -3 -13 17.55 1.24 0
 3 -3 -12 46.2 1.62 0
 3 -3 -11 122.11 2.48 0
 3 -3 -10 17.13 1.08 0
 3 -3 -9 43.97 1.43 0
 3 -3 -8 65.34 1.64 0
 3 -3 -7 419.15 3.86 0
 3 -3 -5 341.09 3.27 0
 3 -3 -4 22.26 0.88 0
 3 -2 -16 3.47 0.79 0
 3 -2 -15 21.67 1.26 0
 3 -2 -13 56.54 1.73 0
 3 -2 -12 118.94 2.42 0
 3 -2 -11 21.55 1.09 0
 3 -2 -10 366.92 3.82 0
 3 -2 -9 463.29 4.11 0
 3 -2 -8 190.94 2.58 0
 3 -2 -7 179.49 2.4 0
 3 -2 -6 146.86 2.1 0
 3 -2 -5 420.78 3.32 0
 3 -2 -1 219.26 2.1 0
 3 -1 -16 10.38 1.15 0
 3 -1 -15 50.53 1.75 0
 3 -1 -14 159.75 2.85 0
 3 -1 -13 51.62 1.6 0
 3 -1 -11 23.91 1.11 0
 3 -1 -10 128.46 2.17 0
 3 -1 -9 42.56 1.22 0
 3 -1 -8 427.12 3.51 0
 3 -1 -7 7.11 0.53 0
 3 -1 -6 225.64 2.38 0
 3 0 -9 219.45 2.46 0
 3 0 -8 87.46 1.53 0
 3 0 -3 352.66 2.18 0
 3 0 -1 144.87 1.26 0
 3 1 -4 156.87 1.35 0
 3 1 -3 150.65 1.18 0
 3 1 -2 377.67 1.62 0
 3 2 -5 410.53 2.05 0
 3 2 -4 103.54 0.89 0
 3 2 -3 723.01 1.66 0
 3 3 -4 20.27 0.27 0
 3 4 -6 7.51 0.3 0
 3 4 -5 151.47 0.88 0
 4 -7 -5 59.35 1.9 0
 4 -7 -4 55.25 1.74 0
 4 -6 -9 47.86 1.83 0
 4 -6 -8 24.51 1.33 0
 4 -6 -7 9.23 1.03 0
 4 -6 -6 77.22 2.06 0
 4 -6 -5 50.31 1.74 0
 4 -6 -4 3.11 0.76 0
 4 -6 -3 70.88 1.86 0
 4 -6 -2 22.65 1.12 0
 4 -5 -10 147.96 3.02 0
 4 -5 -9 3.38 0.74 0
 4 -5 -6 37.89 1.43 0
 4 -5 -5 9.05 0.8 0
 4 -5 -4 25.75 1.22 0
 4 -5 -3 45.65 1.44 0
 4 -5 -2 51.82 1.49 0
 4 -4 -13 29.71 1.49 0
 4 -4 -10 41.78 1.63 0
 4 -4 -9 3.04 0.68 0
 4 -4 -7 58.67 1.67 0
 4 -4 -5 120.24 2.21 0
 4 -4 -4 51.7 1.48 0
 4 -4 -3 144.5 2.36 0
 4 -4 -1 179.63 2.46 0
 4 -3 -14 18.06 1.35 0
 4 -3 -13 116.41 2.65 0
 4 -3 -12 37.53 1.51 0
 4 -3 -11 46.06 1.63 0
 4 -3 -10 23.66 1.19 0
 4 -3 -9 100.23 2.2 0
 4 -3 -7 88.08 1.93 0
 4 -3 -5 428.53 3.87 0
 4 -3 -4 37.51 1.16 0
 4 -3 -3 124.79 2.06 0
 4 -3 -1 183.26 2.29 0
 4 -2 -15 13.11 1.1 0
 4 -2 -13 1.5 0.65 0
 4 -2 -11 67.85 1.88 0
 4 -2 -9 62.76 1.63 0
 4 -2 -8 172.5 2.57 0
 4 -2 -7 153.71 2.32 0
 4 -2 -6 178.58 2.43 0
 4 -2 -5 92.48 1.73 0
 4 -2 -4 17.93 0.78 0
 4 -2 -3 223.11 2.42 0
 4 -2 -1 173.73 2.02 0
 4 -1 -16 24.5 1.42 0
 4 -1 -15 2.67 0.69 0
 4 -1 -14 57 1.78 0
 4 -1 -13 34.15 1.44 0
 4 -1 -12 208.77 3.07 0
 4 -1 -11 87.61 1.95 0
 4 -1 -10 29.55 1.21 0
 4 -1 -8 79.47 1.65 0
 4 -1 -7 129.24 1.97 0
 4 -1 -6 214.59 2.43 0
 4 -1 -5 135.44 1.89 0
 4 -1 -4 177.69 2.03 0
 4 -1 -3 35.48 0.89 0
 4 0 -15 57.12 1.82 0
 4 0 -14 175.99 2.9 0
 4 0 -13 14.88 1 0
 4 0 -12 54.09 1.52 0
 4 0 -11 131.18 2.22 0
 4 0 -10 133.23 2.16 0
 4 0 -9 11.58 0.77 0
 4 0 -8 104.07 1.73 0
 4 0 -7 44.13 1.12 0
 4 0 -6 106.32 1.58 0
 4 1 -16 23.04 1.19 0
 4 1 -14 52.99 1.59 0
 4 1 -13 33.86 1.27 0
 4 1 -12 204.79 2.75 0
 4 1 -11 86.69 1.75 0
 4 1 -10 27.83 0.99 0
 4 1 -8 78.81 1.41 0
 4 1 -3 35.31 0.64 0
 4 2 -15 14.14 0.94 0
 4 2 -13 1.09 0.49 0
 4 2 -11 67.73 1.47 0
 4 2 -9 62.6 1.22 0
 4 3 -7 82.94 1 0
 5 -6 -6 48.01 1.82 0
 5 -6 -5 6.41 0.84 0
 5 -6 -4 19.14 1.2 0
 5 -5 -9 14.51 1.1 0
 5 -5 -8 59.64 1.88 0
 5 -5 -7 40.51 1.56 0
 5 -5 -6 31.88 1.47 0
 5 -5 -5 82.67 2.11 0
 5 -5 -3 20.05 1.12 0
 5 -4 -11 7.59 1.05 0
 5 -4 -10 31.1 1.44 0
 5 -4 -8 61.18 1.82 0
 5 -4 -7 47.03 1.64 0
 5 -4 -6 21.25 1.1 0
 5 -4 -5 113.94 2.26 0
 5 -4 -4 48.78 1.54 0
 5 -4 -3 237.4 3.11 0
 5 -3 -13 7.49 1.01 0
 5 -3 -10 180.99 3.12 0
 5 -3 -9 1.18 0.54 0
 5 -3 -8 281.37 3.61 0
 5 -3 -7 169.04 2.7 0
 5 -3 -6 64.04 1.65 0
 5 -3 -5 97.84 1.98 0
 5 -3 -4 96.66 1.93 0
 5 -2 -13 0.18 0.57 0
 5 -2 -12 22.14 1.26 0
 5 -2 -10 205.01 3.08 0
 5 -2 -8 87.69 1.9 0
 5 -2 -6 20.01 0.98 0
 5 -2 -5 90.15 1.77 0
 5 -2 -4 234.06 2.7 0
 5 -2 -2 270.13 2.72 0
 5 -1 -15 36.54 1.63 0
 5 -1 -13 57.61 1.8 0
 5 -1 -12 35.19 1.43 0
 5 -1 -10 11.42 0.89 0
 5 -1 -9 128.5 2.23 0
 5 -1 -8 96.98 1.89 0
 5 -1 -7 119.15 2 0
 5 -1 -6 365.88 3.33 0
 5 -1 -5 11.67 0.65 0
 5 -1 -4 163.78 2.06 0
 5 -1 -3 297.48 2.71 0
 5 -1 -2 758.19 4.02 0
 5 0 -15 16.08 1.12 0
 5 0 -14 3.29 0.68 0
 5 0 -13 106.67 2.26 0
 5 0 -12 0.52 0.47 0
 5 0 -11 31.02 1.18 0
 5 0 -10 12.6 0.78 0
 5 0 -9 112.92 1.96 0
 5 0 -8 225.14 2.58 0
 5 0 -6 1.44 0.34 0
 5 0 -5 282.82 2.49 0
 5 0 -4 626.9 3.53 0
 5 0 -3 76.75 1.21 0
 5 1 -14 40.1 1.42 0
 5 1 -13 58.42 1.6 0
 5 1 -12 34.2 1.22 0
 5 1 -11 50.94 1.38 0
 5 1 -10 10.4 0.72 0
 5 1 -9 133.65 1.93 0
 5 1 -7 115.2 1.6 0
 5 2 -11 72.35 1.48 0
 5 2 -10 196.47 2.23 0
 5 2 -9 32.57 0.88 0
 5 2 -6 17.71 0.49 0
 6 -5 -6 15.65 1.13 0
 6 -5 -4 69.02 1.93 0
 6 -4 -8 61.2 1.92 0
 6 -4 -6 56.28 1.8 0
 6 -4 -5 189.56 3.04 0
 6 -4 -4 12.54 0.96 0
 6 -3 -11 82.71 2.22 0
 6 -3 -10 29.29 1.36 0
 6 -3 -7 54.07 1.67 0
 6 -3 -6 25.83 1.22 0
 6 -3 -5 32.04 1.31 0
 6 -3 -3 7.71 0.77 0
 6 -2 -12 11.36 1.02 0
 6 -2 -9 4.85 0.77 0
 6 -2 -8 0.2 0.44 0
 6 -2 -6 0.6 0.42 0
 6 -2 -3 2.78 0.52 0
 6 -1 -13 7.65 0.93 0
 6 -1 -11 13.35 0.98 0
 6 -1 -10 2.01 0.62 0
 6 -1 -9 14.64 0.89 0
 6 -1 -8 13.68 0.87 0
 6 -1 -7 10.51 0.74 0
 6 -1 -6 32.6 1.11 0
 6 -1 -5 16.43 0.83 0
 6 -1 -4 26.24 0.92 0
 6 0 -13 3.62 0.68 0
 6 0 -12 9.8 0.83 0
 6 0 -10 19.96 0.98 0
 6 0 -9 18.83 0.91 0
 6 0 -7 201.38 2.39 0
 6 0 -6 18.46 0.78 0
 6 0 -5 123.71 1.74 0
 6 1 -9 14.35 0.72 0
 6 1 -8 12.88 0.63 0
 6 1 -7 9.3 0.54 0
 6 1 -6 32.67 0.82 0
 7 -4 -6 21.51 1.16 0
 7 -3 -7 43.49 1.52 0
 7 -3 -6 15.21 1.02 0
 7 -2 -10 9.35 0.9 0
 7 -2 -9 4.08 0.68 0
 7 -2 -7 122.31 2.33 0
 7 -2 -6 37.63 1.32 0
 7 -2 -5 94.95 1.9 0
 7 -1 -9 92.35 1.96 0
 7 -1 -8 73.69 1.71 0
 7 -1 -7 13.49 0.85 0
 7 -1 -6 87.58 1.73 0
 -5 3 -2 49.83 0.61 0
 -5 4 -3 235.99 1.83 0
 -5 4 -2 5.13 0.38 0
 -5 5 -4 86.31 1.37 0
 -5 5 -3 18.41 0.69 0
 -5 7 -2 19.68 0.99 0
 -4 2 -15 13.43 0.9 0
 -4 2 -14 17.05 0.92 0
 -4 2 -11 66.57 1.34 0
 -4 2 -10 207.89 2.12 0
 -4 2 -9 63.75 1.12 0
 -4 2 -8 158.33 1.55 0
 -4 2 -7 149.76 1.38 0
 -4 2 -5 90.9 0.87 0
 -4 2 -4 16.93 0.36 0
 -4 2 -3 220.88 1.05 0
 -4 2 -2 207.06 0.99 0
 -4 3 -15 47.11 1.48 0
 -4 3 -14 19.24 1.02 0
 -4 3 -9 96.84 1.5 0
 -4 3 -8 78.65 1.26 0
 -4 3 -7 85.77 1.25 0
 -4 3 -6 119.86 1.36 0
 -4 3 -5 402.55 2.28 0
 -4 3 -4 36.41 0.71 0
 -4 3 -3 120.93 1.18 0
 -4 4 -14 5.83 0.72 0
 -4 4 -13 30.95 1.18 0
 -4 4 -12 97.01 1.85 0
 -4 4 -9 2.46 0.47 0
 -4 4 -8 7.53 0.58 0
 -4 4 -6 80.48 1.32 0
 -4 4 -5 116.64 1.51 0
 -4 4 -3 139.49 1.58 0
 -4 5 -11 38.43 1.3 0
 -4 5 -10 148.69 2.31 0
 -4 5 -7 34.28 1.05 0
 -4 5 -5 8.71 0.63 0
 -4 5 -4 23.65 0.84 0
 -4 6 -12 28.08 1.28 0
 -4 6 -11 2.33 0.63 0
 -4 6 -10 56.72 1.58 0
 -4 6 -6 76.75 1.67 0
 -4 7 -10 14.42 1.05 0
 -4 7 -8 8.62 0.89 0
 -4 7 -7 4.43 0.68 0
 -4 7 -5 59.62 1.63 0
 -4 7 -4 55.26 1.55 0
 -4 7 -3 33.27 1.28 0
 -4 8 -7 35.63 1.47 0
 -4 8 -6 5.73 0.78 0
 -4 8 -5 7.9 0.96 0
 -4 8 -4 31.84 1.37 0
 -4 8 -3 46.62 1.58 0
 -4 9 -6 26.87 1.45 0
 -4 9 -5 12.28 1.16 0
 -4 9 -4 37.78 1.59 0
 -4 9 -3 15.33 1.19 0
 -4 9 -2 1.24 0.66 0
 -4 10 -2 16.37 1.29 0
 -4 10 -1 3.84 0.87 0
 -3 1 -14 155.67 2.44 0
 -3 1 -11 24.06 0.91 0
 -3 1 -10 128.46 1.77 0
 -3 1 -9 42.2 0.98 0
 -3 1 -8 436.09 2.7 0
 -3 1 -7 7.46 0.43 0
 -3 1 -6 222.31 1.57 0
 -3 1 -4 156.2 0.95 0
 -3 1 -3 145.78 0.7 0
 -3 2 -17 14.71 1.12 0
 -3 2 -16 3.49 0.69 0
 -3 2 -14 62.9 1.65 0
 -3 2 -11 21.67 0.88 0
 -3 2 -10 358.88 2.96 0
 -3 2 -9 450.71 3.09 0
 -3 2 -8 193.1 1.94 0
 -3 2 -7 181.95 1.75 0
 -3 2 -6 142.56 1.41 0
 -3 2 -5 414.78 2.16 0
 -3 2 -4 103.89 0.99 0
 -3 2 -3 746.9 2.44 0
 -3 3 -19 11.95 1.18 0
 -3 3 -18 0.9 0.74 0
 -3 3 -17 9.98 1.06 0
 -3 3 -15 12.41 1.01 0
 -3 3 -14 12.01 0.93 0
 -3 3 -13 16.52 0.92 0
 -3 3 -11 108.77 1.87 0
 -3 3 -8 65.97 1.3 0
 -3 3 -7 408.64 2.83 0
 -3 3 -6 5.68 0.46 0
 -3 3 -5 329.76 2.29 0
 -3 3 -4 21.19 0.61 0
 -3 4 -19 27.23 1.51 0
 -3 4 -18 24.62 1.41 0
 -3 4 -17 -0.23 0.71 0
 -3 4 -16 24.12 1.32 0
 -3 4 -15 77.93 1.98 0
 -3 4 -14 31.62 1.34 0
 -3 4 -13 14.05 1 0
 -3 4 -12 51.67 1.5 0
 -3 4 -8 126.01 1.87 0
 -3 4 -7 80.97 1.48 0
 -3 4 -5 152.73 1.84 0
 -3 4 -4 162.83 1.83 0
 -3 5 -18 19.08 1.34 0
 -3 5 -16 54.04 1.81 0
 -3 5 -15 3.83 0.84 0
 -3 5 -14 47.33 1.67 0
 -3 5 -13 27.31 1.32 0
 -3 5 -11 36.08 1.35 0
 -3 5 -10 57.4 1.51 0
 -3 5 -5 97.8 1.7 0
 -3 5 -4 1.33 0.4 0
 -3 6 -15 31.56 1.53 0
 -3 6 -14 45.27 1.73 0
 -3 6 -13 2.88 0.8 0
 -3 6 -12 24.85 1.33 0
 -3 6 -11 4.71 0.75 0
 -3 6 -10 0.94 0.63 0
 -3 6 -9 30.06 1.23 0
 -3 6 -8 26.89 1.2 0
 -3 6 -7 75.16 1.76 0
 -3 6 -6 25.4 1.1 0
 -3 7 -15 15.68 1.3 0
 -3 7 -14 43.35 1.78 0
 -3 7 -13 21.47 1.39 0
 -3 7 -12 15.85 1.24 0
 -3 7 -10 5.69 0.82 0
 -3 7 -9 9.38 1.09 0
 -3 7 -8 42.43 1.56 0
 -3 7 -7 16.66 1.11 0
 -3 7 -6 43.77 1.48 0
 -3 7 -5 133.19 2.43 0
 -3 7 -4 38.33 1.39 0
 -3 8 -13 31.11 1.64 0
 -3 8 -12 60.58 2.06 0
 -3 8 -11 4.89 0.98 0
 -3 8 -10 69.11 2.1 0
 -3 8 -8 23.3 1.39 0
 -3 8 -7 29.82 1.47 0
 -3 8 -6 40.13 1.57 0
 -3 8 -5 16.17 1.12 0
 -3 8 -4 42.24 1.62 0
 -3 9 -11 12.22 1.23 0
 -3 9 -9 2.86 0.91 0
 -3 9 -8 77.42 2.29 0
 -3 9 -7 13.1 1.27 0
 -3 9 -6 28.15 1.5 0
 -3 9 -5 20.74 1.32 0
 -3 9 -3 2.4 0.89 0
 -3 10 -7 2.87 0.85 0
 -3 10 -5 4.68 0.94 0
 -3 10 -3 1.58 0.79 0
 -3 10 -2 14.5 1.32 0
 -2 0 -12 36.17 1.19 0
 -2 0 -11 131.03 1.95 0
 -2 0 -10 73.94 1.43 0
 -2 0 -9 37.53 0.98 0
 -2 0 -8 175.23 1.82 0
 -2 0 -7 10.33 0.5 0
 -2 0 -6 157.98 1.44 0
 -2 0 -5 1009.24 3.13 0
 -2 0 -4 313.51 1.5 0
 -2 1 -17 98.1 2.36 0
 -2 1 -16 35.87 1.47 0
 -2 1 -15 40.42 1.47 0
 -2 1 -14 79.75 1.9 0
 -2 1 -12 159.37 2.31 0
 -2 1 -11 174.44 2.28 0
 -2 1 -9 100.54 1.52 0
 -2 1 -8 13.94 0.61 0
 -2 1 -7 265.38 2.04 0
 -2 1 -6 381.76 2.22 0
 -2 1 -5 31.3 0.63 0
 -2 1 -4 1920.84 3.86 0
 -2 1 -3 342.65 1.4 0
 -2 2 -19 0.72 0.73 0
 -2 2 -18 10.75 1.17 0
 -2 2 -17 0.69 0.66 0
 -2 2 -16 99.57 2.32 0
 -2 2 -15 45.18 1.59 0
 -2 2 -14 42.22 1.47 0
 -2 2 -11 96.27 1.76 0
 -2 2 -10 4.94 0.59 0
 -2 2 -9 194.66 2.16 0
 -2 2 -8 244.1 2.3 0
 -2 2 -7 214.01 1.98 0
 -2 2 -6 481.5 2.69 0
 -2 2 -5 10.82 0.46 0
 -2 2 -4 158.33 1.35 0
 -2 3 -19 5.59 0.99 0
 -2 3 -18 6.68 0.99 0
 -2 3 -17 26.59 1.45 0
 -2 3 -15 14.36 1 0
 -2 3 -14 11.7 0.98 0
 -2 3 -13 28.39 1.22 0
 -2 3 -10 385.86 3.44 0
 -2 3 -8 131.06 1.82 0
 -2 3 -7 13.11 0.67 0
 -2 3 -6 1014.85 4.38 0
 -2 3 -5 488.59 2.9 0
 -2 3 -4 108.02 1.32 0
 -2 4 -19 13.83 1.29 0
 -2 4 -18 6.6 1.06 0
 -2 4 -17 23.05 1.44 0
 -2 4 -16 17 1.16 0
 -2 4 -14 18.31 1.11 0
 -2 4 -13 0.63 0.58 0
 -2 4 -12 56.7 1.65 0
 -2 4 -9 10.16 0.71 0
 -2 4 -8 237.26 2.64 0
 -2 4 -7 277.25 2.74 0
 -2 4 -6 40.46 1.08 0
 -2 4 -5 222.27 2.26 0
 -2 4 -4 313.83 2.61 0
 -2 5 -18 7.27 1.03 0
 -2 5 -17 19.2 1.43 0
 -2 5 -16 68.06 2.1 0
 -2 5 -15 3.92 0.92 0
 -2 5 -13 -0.45 0.55 0
 -2 5 -12 164.63 2.83 0
 -2 5 -11 15.85 1.08 0
 -2 5 -10 0.76 0.51 0
 -2 5 -6 9.07 0.66 0
 -2 5 -5 63.8 1.43 0
 -2 6 -18 5.59 1.01 0
 -2 6 -17 15.82 1.38 0
 -2 6 -16 6.33 0.99 0
 -2 6 -15 2.38 0.91 0
 -2 6 -14 108.89 2.63 0
 -2 6 -13 12.32 1.16 0
 -2 6 -12 34.9 1.5 0
 -2 6 -10 139.21 2.65 0
 -2 6 -9 10.37 0.86 0
 -2 6 -8 51.92 1.59 0
 -2 6 -7 20.06 1.09 0
 -2 7 -12 55.23 1.93 0
 -2 7 -11 14.91 1.2 0
 -2 7 -9 23.63 1.33 0
 -2 7 -8 25.33 1.34 0
 -2 7 -7 3.62 0.72 0
 -2 7 -5 59.22 1.73 0
 -2 8 -15 4.35 0.98 0
 -2 8 -13 2.39 0.91 0
 -2 8 -12 25.04 1.59 0
 -2 8 -11 6.31 1.05 0
 -2 8 -10 23.77 1.5 0
 -2 8 -9 2.65 0.8 0
 -2 8 -8 192.8 3.37 0
 -2 8 -7 23.51 1.37 0
 -2 8 -6 45.71 1.72 0
 -2 8 -5 2.41 0.74 0
 -2 8 -4 160.57 3 0
 -2 9 -12 16.47 1.42 0
 -2 9 -11 14.24 1.38 0
 -2 9 -8 6.37 1.01 0
 -2 9 -7 11.64 1.31 0
 -2 9 -6 10.53 1.23 0
 -2 9 -5 33.23 1.57 0
 -2 9 -4 92.49 2.48 0
 -2 9 -3 2.4 0.83 0
 -2 10 -8 4.8 1.04 0
 -2 10 -7 31.83 1.78 0
 -2 10 -6 2.52 0.95 0
 -2 10 -5 4.02 0.95 0
 -2 10 -4 14.64 1.43 0
 -2 10 -3 12.76 1.31 0
 -2 10 -2 43.34 1.87 0
 -1 0 -15 125.54 2.48 0
 -1 0 -14 52.93 1.62 0
 -1 0 -11 110.3 1.9 0
 -1 0 -10 217.21 2.45 0
 -1 0 -9 47.62 1.1 0
 -1 0 -8 83.73 1.35 0
 -1 0 -7 58.02 1.05 0
 -1 0 -6 861.86 3.44 0
 -1 0 -5 1.02 0.24 0
 -1 0 -4 179.14 1.25 0
 -1 0 -3 1312 2.75 0
 -1 0 -2 218.67 0.88 0
 -1 1 -18 28.53 1.57 0
 -1 1 -17 31.92 1.48 0
 -1 1 -16 80.82 2.17 0
 -1 1 -10 213.14 2.43 0
 -1 1 -9 390.41 3.02 0
 -1 1 -8 399.16 2.85 0
 -1 1 -7 600.16 3.22 0
 -1 1 -6 38.63 0.84 0
 -1 1 -5 800.33 3.07 0
 -1 1 -4 282.31 1.63 0
 -1 1 -3 2020.37 3.71 0
 -1 1 -2 201.66 1.03 0
 -1 2 -20 72.21 2.37 0
 -1 2 -19 29.26 1.63 0
 -1 2 -18 11.7 1.25 0
 -1 2 -17 13.06 1.22 0
 -1 2 -16 7.58 0.89 0
 -1 2 -11 11.15 0.8 0
 -1 2 -10 13.38 0.73 0
 -1 2 -9 452.17 3.42 0
 -1 2 -8 6.71 0.57 0
 -1 2 -7 168.26 1.84 0
 -1 2 -6 32.45 0.8 0
 -1 2 -5 743.16 3.26 0
 -1 2 -4 297.26 1.94 0
 -1 2 -3 959.22 3.21 0
 -1 3 -21 54.58 2.18 0
 -1 3 -19 18.24 1.45 0
 -1 3 -18 70.4 2.27 0
 -1 3 -17 29.24 1.56 0
 -1 3 -16 47.82 1.73 0
 -1 3 -15 1.27 0.63 0
 -1 3 -10 49.35 1.37 0
 -1 3 -9 601.07 4.14 0
 -1 3 -8 66.41 1.35 0
 -1 3 -7 265.71 2.5 0
 -1 3 -6 104.7 1.55 0
 -1 3 -5 42.93 0.95 0
 -1 3 -4 140.09 1.55 0
 -1 4 -21 5.04 1.19 0
 -1 4 -20 41.69 2.01 0
 -1 4 -18 35.3 1.74 0
 -1 4 -17 18.85 1.42 0
 -1 4 -15 54.87 1.86 0
 -1 4 -14 62.19 1.95 0
 -1 4 -12 79.99 1.95 0
 -1 4 -11 390.28 3.96 0
 -1 4 -8 61.59 1.44 0
 -1 4 -5 87.87 1.52 0
 -1 5 -20 52.7 2.15 0
 -1 5 -18 5.18 1.03 0
 -1 5 -16 71.86 2.3 0
 -1 5 -15 250.55 3.89 0
 -1 5 -14 15.47 1.28 0
 -1 5 -13 25.86 1.45 0
 -1 5 -12 28.6 1.39 0
 -1 5 -11 85.94 2.05 0
 -1 5 -10 17.2 1.01 0
 -1 5 -9 91.55 1.99 0
 -1 5 -5 57.67 1.37 0
 -1 6 -17 73.1 2.45 0
 -1 6 -16 12.79 1.34 0
 -1 6 -15 18.95 1.45 0
 -1 6 -14 39.27 1.82 0
 -1 6 -13 150.08 3.06 0
 -1 6 -12 21.76 1.33 0
 -1 6 -10 1.21 0.69 0
 -1 6 -7 76.08 1.85 0
 -1 6 -6 15.82 0.97 0
 -1 7 -17 36.66 1.93 0
 -1 7 -16 13.4 1.39 0
 -1 7 -14 24.9 1.61 0
 -1 7 -13 35.17 1.69 0
 -1 7 -12 0.09 0.75 0
 -1 7 -11 27.49 1.58 0
 -1 7 -10 29.73 1.53 0
 -1 7 -9 108.15 2.51 0
 -1 7 -7 25.76 1.29 0
 -1 7 -6 57.14 1.77 0
 -1 7 -5 82.82 2.04 0
 -1 8 -14 3.19 0.97 0
 -1 8 -13 29.31 1.76 0
 -1 8 -12 17.3 1.47 0
 -1 8 -11 4.38 0.96 0
 -1 8 -10 3.84 0.92 0
 -1 8 -8 6.39 1.07 0
 -1 8 -7 27.17 1.52 0
 -1 8 -6 2.65 0.75 0
 -1 8 -5 73.06 2.07 0
 -1 8 -4 39.5 1.59 0
 -1 9 -12 3.44 1 0
 -1 9 -11 30.98 1.82 0
 -1 9 -10 4.03 0.98 0
 -1 9 -9 27.68 1.72 0
 -1 9 -8 17.58 1.43 0
 -1 9 -7 35.55 1.79 0
 -1 9 -6 14.14 1.36 0
 -1 9 -5 6.9 1.01 0
 -1 9 -4 7.35 1.14 0
 -1 9 -3 13.86 1.2 0
 -1 10 -9 6.54 1.13 0
 -1 10 -8 0.75 0.86 0
 -1 10 -7 6.28 1.2 0
 -1 10 -6 34.52 1.84 0
 -1 10 -4 12.76 1.4 0
 -1 10 -2 9.1 1.3 0
 0 -1 -9 4.91 0.52 0
 0 -1 -8 687.41 3.9 0
 0 -1 -7 35.63 0.9 0
 0 0 -16 34.63 1.54 0
 0 0 -15 0.39 0.54 0
 0 0 -14 94.12 2.1 0
 0 0 -11 0.48 0.43 0
 0 0 -9 0.35 0.31 0
 0 0 -8 70.54 1.26 0
 0 0 -7 0.58 0.31 0
 0 0 -6 164.87 1.63 0
 0 0 -5 5.6 0.36 0
 0 0 -4 9839.29 9.53 0
 0 0 -2 379.36 1.31 0
 0 1 -18 0.06 0.73 0
 0 1 -17 42.38 1.71 0
 0 1 -15 119.66 2.52 0
 0 1 -14 2.82 0.67 0
 0 1 -11 143.03 2.18 0
 0 1 -9 4.68 0.48 0
 0 1 -8 683.05 3.85 0
 0 1 -7 34.24 0.85 0
 0 1 -6 105.67 1.35 0
 0 1 -5 611.01 2.83 0
 0 1 -4 3209.01 5.73 0
 0 1 -3 135.02 1.07 0
 0 1 -2 9959.96 7.82 0
 0 2 -21 8.1 1.32 0
 0 2 -19 41.25 1.93 0
 0 2 -18 45.05 1.95 0
 0 2 -17 54.75 1.98 0
 0 2 -16 40.36 1.62 0
 0 2 -15 88.92 2.17 0
 0 2 -14 14.24 1.01 0
 0 2 -13 261.39 3.34 0
 0 2 -11 4.88 0.64 0
 0 2 -10 394.43 3.5 0
 0 2 -9 394.09 3.29 0
 0 2 -8 2.51 0.41 0
 0 2 -6 3629.13 7.99 0
 0 2 -5 181.85 1.74 0
 0 2 -4 81.27 1.09 0
 0 2 -3 1378.75 4.02 0
 0 3 -21 32.86 1.91 0
 0 3 -20 33.17 1.89 0
 0 3 -19 1.45 0.96 0
 0 3 -18 2.22 0.97 0
 0 3 -17 42.54 1.85 0
 0 3 -16 55.34 1.96 0
 0 3 -15 34.49 1.52 0
 0 3 -14 4.69 0.75 0
 0 3 -12 16.75 0.99 0
 0 3 -9 155.27 2.23 0
 0 3 -7 390.91 3.1 0
 0 3 -6 72.18 1.32 0
 0 3 -5 329.73 2.58 0
 0 3 -4 785.03 3.75 0
 0 4 -21 3.16 1.19 0
 0 4 -20 0.53 1.01 0
 0 4 -19 12.54 1.55 0
 0 4 -18 1.3 0.85 0
 0 4 -17 0.58 0.77 0
 0 4 -16 107.51 2.66 0
 0 4 -15 16.95 1.33 0
 0 4 -12 347.67 4.04 0
 0 4 -8 211.52 2.64 0
 0 4 -7 139.22 2.07 0
 0 4 -5 24.32 0.88 0
 0 5 -19 0.41 0.85 0
 0 5 -18 5.29 1.03 0
 0 5 -17 13.39 1.4 0
 0 5 -16 5.1 0.99 0
 0 5 -14 63.07 2.03 0
 0 5 -13 15.47 1.26 0
 0 5 -12 2.61 0.77 0
 0 5 -10 64.38 1.78 0
 0 5 -9 35.39 1.28 0
 0 5 -5 108.91 1.96 0
 0 6 -18 16.69 1.59 0
 0 6 -17 7.84 1.18 0
 0 6 -16 7.62 1.25 0
 0 6 -15 25.44 1.54 0
 0 6 -13 29.09 1.6 0
 0 6 -12 60.05 1.95 0
 0 6 -10 110.13 2.4 0
 0 6 -9 1.85 0.61 0
 0 6 -8 55.01 1.7 0
 0 6 -7 105.32 2.19 0
 0 6 -5 95.34 1.98 0
 0 7 -17 6.36 1.25 0
 0 7 -16 3.05 0.99 0
 0 7 -15 20.73 1.68 0
 0 7 -14 17.49 1.48 0
 0 7 -13 0.2 0.79 0
 0 7 -12 18.74 1.49 0
 0 7 -11 46.39 1.85 0
 0 7 -9 45.39 1.7 0
 0 7 -8 46.82 1.68 0
 0 7 -7 4.89 0.78 0
 0 7 -5 65.11 1.89 0
 0 8 -15 -0.01 0.9 0
 0 8 -14 -0.47 0.84 0
 0 8 -13 51.47 2.2 0
 0 8 -11 18.21 1.53 0
 0 8 -10 23.1 1.53 0
 0 8 -9 61.41 2.1 0
 0 8 -8 3.5 0.97 0
 0 8 -7 30.29 1.63 0
 0 8 -6 126.73 2.77 0
 0 8 -4 0.81 0.68 0
 0 9 -12 8.55 1.37 0
 0 9 -11 17.51 1.48 0
 0 9 -10 22.94 1.69 0
 0 9 -8 125.3 3.08 0
 0 9 -6 7.89 1.22 0
 0 9 -3 0.12 0.8 0
 0 10 -9 14.34 1.52 0
 0 10 -8 3.48 1.2 0
 0 10 -6 18.27 1.48 0
 0 10 -4 102.16 2.85 0
 0 10 -3 -0.05 0.88 0
 0 10 -2 8.63 1.27 0
 1 -1 -11 22.82 0.98 0
 1 -1 -7 579.7 3.45 0
 1 -1 -6 36.46 0.85 0
 1 -1 -5 793.91 3.42 0
 1 0 -17 1.52 0.83 0
 1 0 -16 0.73 0.72 0
 1 0 -14 53.44 1.66 0
 1 0 -13 26.55 1.17 0
 1 0 -11 113.78 2.05 0
 1 0 -10 217.04 2.59 0
 1 0 -7 55.79 1.08 0
 1 0 -6 838.96 3.67 0
 1 0 -4 170.7 1.38 0
 1 0 -3 1350.59 3.3 0
 1 0 -2 226.8 1.14 0
 1 0 -1 1347.72 2.07 0
 1 1 -19 14.85 1.43 0
 1 1 -18 30.41 1.68 0
 1 1 -17 33.7 1.6 0
 1 1 -15 107.53 2.45 0
 1 1 -14 36.45 1.4 0
 1 1 -13 202.53 2.99 0
 1 1 -11 23.9 0.98 0
 1 1 -10 209.27 2.55 0
 1 1 -6 37.03 0.87 0
 1 1 -5 813.61 3.42 0
 1 1 -4 275.48 1.82 0
 1 1 -3 2080.71 4.41 0
 1 1 -2 203.04 1.25 0
 1 2 -21 23.91 1.77 0
 1 2 -20 72.48 2.47 0
 1 2 -19 26.44 1.72 0
 1 2 -17 13.58 1.19 0
 1 2 -15 24.95 1.38 0
 1 2 -14 71.95 1.96 0
 1 2 -10 14.54 0.8 0
 1 2 -9 446.86 3.62 0
 1 2 -5 757.41 3.59 0
 1 2 -4 290.21 2.13 0
 1 2 -3 925.02 3.45 0
 1 3 -21 52.21 2.34 0
 1 3 -19 17.83 1.59 0
 1 3 -18 69.92 2.38 0
 1 3 -17 29.2 1.57 0
 1 3 -15 1.47 0.69 0
 1 3 -14 39.56 1.61 0
 1 3 -13 127.23 2.54 0
 1 3 -12 82.81 1.96 0
 1 3 -9 601.71 4.4 0
 1 4 -20 38.77 2.03 0
 1 4 -19 35.48 1.93 0
 1 4 -18 34.8 1.87 0
 1 4 -17 19.84 1.56 0
 1 4 -16 68.38 2.27 0
 1 4 -15 54.84 1.9 0
 1 4 -14 66.01 2.07 0
 1 4 -13 57.69 1.85 0
 1 4 -12 80.52 2.07 0
 1 4 -10 45.18 1.41 0
 1 4 -7 409.5 3.6 0
 1 5 -20 47.98 2.23 0
 1 5 -19 48.71 2.25 0
 1 5 -18 6.28 1.22 0
 1 5 -17 2.63 0.92 0
 1 5 -16 73.35 2.35 0
 1 5 -15 249.49 4.14 0
 1 5 -12 31.63 1.45 0
 1 5 -11 83.43 2.08 0
 1 5 -10 18.66 1.05 0
 1 5 -9 88.57 2 0
 1 5 -8 1.76 0.55 0
 1 5 -4 8.37 0.65 0
 1 6 -18 52.89 2.2 0
 1 6 -17 69.72 2.52 0
 1 6 -16 13.62 1.52 0
 1 6 -15 19.82 1.45 0
 1 6 -14 38.45 1.89 0
 1 6 -13 156.57 3.28 0
 1 6 -12 23.03 1.41 0
 1 6 -10 2.02 0.78 0
 1 6 -8 77.66 2.02 0
 1 6 -7 76.79 1.93 0
 1 6 -6 16.02 0.97 0
 1 6 -5 159.94 2.64 0
 1 7 -17 37.71 2.05 0
 1 7 -16 14.29 1.57 0
 1 7 -15 13.54 1.52 0
 1 7 -14 24.02 1.6 0
 1 7 -13 34.82 1.84 0
 1 7 -12 1.39 0.81 0
 1 7 -11 25.79 1.48 0
 1 7 -10 30.48 1.62 0
 1 7 -9 105.51 2.58 0
 1 7 -8 0.42 0.63 0
 1 7 -7 27.12 1.32 0
 1 7 -6 57.57 1.78 0
 1 7 -5 80.99 2.04 0
 1 7 -4 87.14 2.1 0
 1 8 -15 22.08 1.77 0
 1 8 -14 3.72 1.13 0
 1 8 -13 27.5 1.74 0
 1 8 -12 17.75 1.56 0
 1 8 -11 3.45 0.94 0
 1 8 -10 3.75 0.99 0
 1 8 -9 71.65 2.34 0
 1 8 -8 5.54 0.98 0
 1 8 -7 26.83 1.57 0
 1 8 -6 3.42 0.81 0
 1 8 -5 74.32 2.17 0
 1 8 -4 37.55 1.69 0
 1 9 -12 2.67 1.02 0
 1 9 -11 30.56 1.89 0
 1 9 -10 4.39 1.04 0
 1 9 -8 16.73 1.56 0
 1 9 -7 34.97 1.75 0
 1 9 -6 12.66 1.37 0
 1 9 -5 4.69 0.96 0
 1 9 -4 5.36 0.97 0
 1 9 -3 13.21 1.32 0
 1 10 -8 0.14 0.89 0
 1 10 -7 6.84 1.16 0
 1 10 -6 34.53 1.86 0
 1 10 -5 7.08 1.16 0
 1 10 -3 18.05 1.54 0
 1 10 -2 7.63 1.15 0
 2 -1 -10 89.64 1.75 0
 2 -1 -9 99.23 1.79 0
 2 -1 -8 13.35 0.69 0
 2 -1 -5 31.14 0.76 0
 2 0 -16 4.71 0.93 0
 2 0 -14 27.67 1.29 0
 2 0 -13 32.26 1.3 0
 2 0 -10 72.3 1.58 0
 2 0 -9 36.24 1.06 0
 2 0 -8 179.15 2.12 0
 2 0 -6 151.15 1.66 0
 2 0 -5 1020.9 3.87 0
 2 0 -3 101.13 1.01 0
 2 0 -2 333.39 1.51 0
 2 0 -1 937.15 2 0
 2 1 -20 8.22 1.21 0
 2 1 -19 49.17 2.13 0
 2 1 -18 122.35 3.03 0
 2 1 -17 98.63 2.6 0
 2 1 -16 34.97 1.65 0
 2 1 -15 41.11 1.67 0
 2 1 -14 77.73 2 0
 2 1 -10 89.41 1.75 0
 2 1 -9 96.04 1.71 0
 2 1 -8 15.56 0.76 0
 2 1 -5 30.53 0.77 0
 2 1 -4 1934.32 5.03 0
 2 1 -3 341.52 1.93 0
 2 1 -2 1102.41 3.09 0
 2 1 -1 109.97 0.88 0
 2 2 -21 29.74 1.92 0
 2 2 -20 29.2 1.71 0
 2 2 -19 2.47 1.05 0
 2 2 -18 11.09 1.38 0
 2 2 -17 -0.27 0.67 0
 2 2 -16 95.51 2.53 0
 2 2 -15 43.3 1.64 0
 2 2 -14 40.27 1.53 0
 2 2 -12 90.26 2.02 0
 2 2 -10 4.26 0.58 0
 2 2 -9 201.53 2.56 0
 2 2 -8 240.07 2.61 0
 2 2 -7 210.96 2.29 0
 2 2 -4 152.53 1.62 0
 2 2 -3 197 1.71 0
 2 2 -2 1935.29 4.91 0
 2 3 -21 0.76 1.06 0
 2 3 -20 14.12 1.68 0
 2 3 -19 5.47 1.07 0
 2 3 -16 42.52 1.82 0
 2 3 -15 15.49 1.24 0
 2 3 -14 11.49 1.09 0
 2 3 -13 27.89 1.3 0
 2 3 -12 147.52 2.66 0
 2 3 -11 56.46 1.64 0
 2 3 -8 133.97 2.12 0
 2 3 -7 12.71 0.7 0
 2 3 -6 1022.81 5.06 0
 2 3 -5 500.38 3.4 0
 2 4 -20 6.25 1.22 0
 2 4 -19 9.66 1.28 0
 2 4 -18 6.4 1.1 0
 2 4 -17 19.43 1.43 0
 2 4 -16 20.05 1.38 0
 2 4 -15 15.45 1.31 0
 2 4 -14 18.79 1.39 0
 2 4 -13 0.11 0.61 0
 2 4 -12 55.98 1.8 0
 2 4 -10 57.86 1.65 0
 2 4 -6 43.34 1.23 0
 2 4 -4 307.96 2.86 0
 2 5 -19 25.7 1.7 0
 2 5 -18 10.16 1.27 0
 2 5 -15 4.33 0.99 0
 2 5 -14 5.04 0.91 0
 2 5 -13 -0.03 0.76 0
 2 5 -12 155.31 2.98 0
 2 5 -11 16.91 1.18 0
 2 5 -9 42.78 1.52 0
 2 5 -8 37.68 1.39 0
 2 5 -7 19.3 0.98 0
 2 6 -18 6.39 1.32 0
 2 6 -17 15.63 1.61 0
 2 6 -16 7.85 1.19 0
 2 6 -15 2.23 0.96 0
 2 6 -14 105.09 2.88 0
 2 6 -13 12.95 1.22 0
 2 6 -12 34.13 1.74 0
 2 6 -11 4.88 0.85 0
 2 6 -10 133.44 2.76 0
 2 6 -8 52.85 1.74 0
 2 6 -4 2.62 0.6 0
 2 7 -16 15.41 1.62 0
 2 7 -15 13.88 1.46 0
 2 7 -14 9.15 1.23 0
 2 7 -13 5.96 1.21 0
 2 7 -12 56 2.09 0
 2 7 -11 14.36 1.37 0
 2 7 -9 24.3 1.48 0
 2 7 -8 23.5 1.46 0
 2 7 -7 3.46 0.77 0
 2 7 -6 263.02 3.76 0
 2 7 -5 58.02 1.82 0
 2 7 -4 14.66 1.09 0
 2 8 -14 20.03 1.69 0
 2 8 -13 2.55 0.99 0
 2 8 -12 26.1 1.83 0
 2 8 -10 21.67 1.56 0
 2 8 -9 2.91 0.94 0
 2 8 -7 23.5 1.52 0
 2 8 -6 51.3 1.94 0
 2 8 -5 2.52 0.83 0
 2 8 -4 149.39 3.03 0
 2 8 -3 22.91 1.41 0
 2 9 -12 14.2 1.51 0
 2 9 -11 15.84 1.6 0
 2 9 -10 3.42 1.1 0
 2 9 -9 53.04 2.17 0
 2 9 -8 5.69 1.08 0
 2 9 -7 14.64 1.53 0
 2 9 -6 8.54 1.23 0
 2 9 -5 34.96 1.73 0
 2 9 -4 86.87 2.47 0
 2 9 -3 2.2 0.83 0
 2 9 -2 2.57 0.96 0
 2 10 -8 4.02 1.28 0
 2 10 -6 2.04 1.13 0
 2 10 -5 5.59 1.27 0
 2 10 -4 12.47 1.48 0
 2 10 -3 16.25 1.54 0
 2 10 -2 44.61 2.01 0
 2 10 -1 3.33 0.98 0
 3 -1 -10 129.81 2.2 0
 3 -1 -9 42.41 1.19 0
 3 -1 -8 424.96 3.37 0
 3 -1 -7 7.26 0.52 0
 3 -1 -6 219 2.12 0
 3 0 -15 112.53 2.57 0
 3 0 -14 34.27 1.45 0
 3 0 -12 182.96 2.87 0
 3 0 -10 65.69 1.59 0
 3 0 -9 228.42 2.64 0
 3 0 -4 1228.37 4.01 0
 3 0 -3 354.73 1.94 0
 3 0 -2 258.33 1.43 0
 3 0 -1 148.78 0.9 0
 3 1 -19 31.23 1.84 0
 3 1 -17 31.04 1.62 0
 3 1 -16 11.38 1.13 0
 3 1 -12 46.99 1.47 0
 3 1 -10 120.24 2.08 0
 3 1 -9 43.58 1.2 0
 3 1 -8 431.18 3.42 0
 3 1 -7 7.25 0.57 0
 3 1 -4 156.98 1.55 0
 3 1 -3 148.66 1.36 0
 3 1 -2 390.25 1.97 0
 3 1 -1 521.62 2.04 0
 3 1 0 57.04 0.63 0
 3 2 -21 36.48 2.09 0
 3 2 -20 6.62 1.2 0
 3 2 -19 40.96 2.1 0
 3 2 -18 3.58 0.97 0
 3 2 -16 2.92 0.82 0
 3 2 -15 20.95 1.38 0
 3 2 -14 59.3 1.9 0
 3 2 -13 59.28 1.75 0
 3 2 -12 126.1 2.47 0
 3 2 -9 454.68 3.9 0
 3 2 -8 189.04 2.39 0
 3 2 -6 143.79 1.86 0
 3 2 -5 421.43 2.92 0
 3 2 -2 649.23 2.99 0
 3 2 -1 226.77 1.68 0
 3 3 -19 10.29 1.31 0
 3 3 -18 0.29 0.83 0
 3 3 -17 8 1.19 0
 3 3 -16 1.95 0.89 0
 3 3 -15 10.94 1.08 0
 3 3 -14 9.51 1 0
 3 3 -13 17.77 1.13 0
 3 3 -11 116.71 2.36 0
 3 3 -8 61.51 1.49 0
 3 3 -7 405.98 3.47 0
 3 3 -6 5.25 0.6 0
 3 3 -5 340.25 2.93 0
 3 3 -4 20.96 0.78 0
 3 3 -3 280.85 2.4 0
 3 4 -19 30.11 1.89 0
 3 4 -18 23.39 1.72 0
 3 4 -17 -0.23 0.78 0
 3 4 -16 25.57 1.65 0
 3 4 -15 84.18 2.48 0
 3 4 -14 30.89 1.62 0
 3 4 -13 14.88 1.16 0
 3 4 -12 50.44 1.77 0
 3 4 -10 21.78 1.14 0
 3 4 -9 38.11 1.34 0
 3 4 -6 7.43 0.7 0
 3 4 -5 156.27 2.2 0
 3 4 -4 156.51 2.1 0
 3 4 -3 699.43 4.25 0
 3 5 -19 5.12 1.16 0
 3 5 -18 18.18 1.59 0
 3 5 -17 19.62 1.56 0
 3 5 -15 6.34 1.08 0
 3 5 -14 51.44 2.09 0
 3 5 -13 23.47 1.51 0
 3 5 -12 34.96 1.59 0
 3 5 -9 13.76 1.04 0
 3 6 -16 30.12 1.93 0
 3 6 -15 31.15 1.88 0
 3 6 -14 45.07 2.05 0
 3 6 -13 4.79 0.98 0
 3 6 -12 27.59 1.64 0
 3 6 -11 4.41 0.86 0
 3 6 -10 1.13 0.83 0
 3 6 -9 34.15 1.5 0
 3 6 -8 27.79 1.39 0
 3 6 -7 77.49 2.05 0
 3 6 -5 11.98 1.02 0
 3 6 -4 68.86 1.81 0
 3 7 -16 18.79 1.61 0
 3 7 -12 14.05 1.3 0
 3 7 -11 5.85 1.09 0
 3 7 -10 4.31 0.96 0
 3 7 -4 33.87 1.48 0
 3 7 -3 19.01 1.13 0
 3 8 -14 13.72 1.48 0
 3 8 -13 32.05 1.94 0
 3 8 -12 61.7 2.45 0
 3 8 -11 5.38 1.14 0
 3 8 -9 50.7 2.12 0
 3 8 -8 23.31 1.62 0
 3 8 -7 28.33 1.55 0
 3 8 -6 39.57 1.84 0
 3 8 -4 46.24 1.77 0
 3 8 -2 11.91 1.18 0
 3 9 -11 11.19 1.47 0
 3 9 -10 42.07 2.13 0
 3 9 -9 2.63 1.06 0
 3 9 -6 28.5 1.64 0
 3 9 -5 21.62 1.51 0
 3 9 -3 0.41 0.76 0
 3 9 -2 73.93 2.37 0
 3 9 -1 25.9 1.58 0
 3 10 -5 2.59 0.99 0
 3 10 -4 11.24 1.37 0
 3 10 -3 3.05 1.05 0
 3 10 -2 14.01 1.46 0
 4 0 -15 55.23 1.86 0
 4 0 -13 14.16 1.08 0
 4 0 -9 11.71 0.84 0
 4 0 -8 105.08 1.79 0
 4 0 -7 43.66 1.12 0
 4 0 -6 102.62 1.49 0
 4 0 -5 1.35 0.3 0
 4 0 -3 12.75 0.45 0
 4 0 -2 151.33 1.15 0
 4 1 -18 61.08 2.26 0
 4 1 -17 29.85 1.62 0
 4 1 -16 26.03 1.5 0
 4 1 -15 2.49 0.77 0
 4 1 -13 34.38 1.47 0
 4 1 -11 84.27 1.91 0
 4 1 -9 2.84 0.55 0
 4 1 -7 129.57 1.86 0
 4 1 -5 135.05 1.65 0
 4 1 -2 43.71 0.73 0
 4 1 -1 423.61 1.91 0
 4 1 0 535.19 1.84 0
 4 1 1 413.94 1.41 0
 4 1 2 43.2 0.43 0
 4 2 -20 22.76 1.73 0
 4 2 -18 29.32 1.73 0
 4 2 -17 40.11 1.96 0
 4 2 -16 31 1.6 0
 4 2 -13 0.86 0.58 0
 4 2 -11 65.99 1.77 0
 4 2 -8 167.83 2.35 0
 4 2 -7 155.11 2.14 0
 4 2 -6 172.16 2.11 0
 4 2 -5 91.22 1.46 0
 4 2 -4 17 0.65 0
 4 2 -3 225.76 1.98 0
 4 3 -19 19.31 1.63 0
 4 3 -18 26.55 1.79 0
 4 3 -17 29.65 1.8 0
 4 3 -16 17.7 1.35 0
 4 3 -15 48 1.91 0
 4 3 -14 17.47 1.32 0
 4 3 -13 121.62 2.63 0
 4 3 -12 37.6 1.48 0
 4 3 -11 44.17 1.53 0
 4 3 -7 84.26 1.73 0
 4 3 -5 421.53 3.33 0
 4 3 -4 38.18 1.03 0
 4 3 -3 120.41 1.66 0
 4 3 -2 42.09 0.98 0
 4 3 -1 176.19 1.82 0
 4 4 -19 7.92 1.25 0
 4 4 -18 0.6 0.96 0
 4 4 -17 58.63 2.31 0
 4 4 -16 74.25 2.46 0
 4 4 -15 41.34 1.85 0
 4 4 -12 99.37 2.41 0
 4 4 -11 29.86 1.46 0
 4 4 -10 44.98 1.62 0
 4 4 -8 9.74 0.89 0
 4 4 -5 116.75 2 0
 4 4 -4 55.17 1.35 0
 4 4 -2 68.62 1.41 0
 4 5 -18 27.73 1.85 0
 4 5 -17 9.27 1.31 0
 4 5 -16 19.25 1.6 0
 4 5 -14 95.55 2.72 0
 4 5 -12 92.3 2.46 0
 4 5 -11 37.96 1.63 0
 4 5 -10 146.99 2.9 0
 4 5 -9 5.13 0.8 0
 4 5 -7 34.13 1.33 0
 4 5 -5 9.08 0.78 0
 4 6 -16 24.47 1.65 0
 4 6 -15 5.15 1.11 0
 4 6 -14 43.85 2.01 0
 4 6 -13 5.06 1.09 0
 4 6 -12 31.52 1.77 0
 4 6 -11 4.9 0.99 0
 4 6 -9 46.48 1.82 0
 4 6 -8 26.18 1.32 0
 4 6 -7 8.59 1.01 0
 4 6 -4 3.96 0.72 0
 4 6 -3 72.76 1.84 0
 4 6 -2 24.2 1.19 0
 4 7 -15 40.86 2.14 0
 4 7 -13 41.81 2.03 0
 4 7 -12 29.19 1.69 0
 4 7 -9 20.26 1.47 0
 4 7 -8 9.04 1.07 0
 4 7 -7 5.89 1.01 0
 4 7 -6 53.09 1.84 0
 4 7 -4 56.35 1.81 0
 4 7 -3 32.19 1.48 0
 4 7 -2 12.37 1.03 0
 4 7 -1 76.3 2.05 0
 4 8 -13 20.87 1.78 0
 4 8 -12 19.27 1.68 0
 4 8 -11 57.69 2.31 0
 4 8 -10 30.25 1.72 0
 4 8 -9 17.73 1.4 0
 4 8 -7 34.18 1.8 0
 4 8 -6 5.97 1.06 0
 4 8 -5 8.86 1.08 0
 4 8 -4 32.85 1.56 0
 4 8 -3 42.63 1.77 0
 4 8 -2 16.55 1.31 0
 4 8 -1 11.76 1.21 0
 4 9 -9 17.74 1.62 0
 4 9 -8 26.19 1.78 0
 4 9 -7 16.43 1.56 0
 4 9 -6 29.87 1.82 0
 4 9 -5 14.61 1.49 0
 4 9 -3 16.19 1.44 0
 4 9 -2 1.57 0.87 0
 4 9 -1 0.6 0.77 0
 4 9 0 65.34 2.2 0
 4 10 -3 8.96 1.21 0
 4 10 -2 16.25 1.51 0
 4 10 0 2.11 0.93 0
 4 10 1 4.6 0.97 0
 5 0 -12 1.47 0.57 0
 5 0 -8 231.85 2.65 0
 5 0 -7 12.35 0.72 0
 5 0 -6 1.44 0.39 0
 5 0 -5 293.01 2.34 0
 5 0 -4 619.86 3.02 0
 5 1 -17 14.82 1.3 0
 5 1 -16 86.27 2.43 0
 5 1 -15 38.9 1.72 0
 5 1 -13 59.44 1.9 0
 5 1 -12 34.84 1.46 0
 5 1 -11 51.82 1.56 0
 5 1 -8 99.4 1.78 0
 5 1 -7 111.14 1.77 0
 5 1 -6 349.94 2.85 0
 5 1 -5 11.68 0.59 0
 5 1 -4 158.19 1.64 0
 5 1 -3 279.59 1.96 0
 5 1 -1 185.31 1.22 0
 5 2 -19 8.62 1.18 0
 5 2 -18 51.73 2.17 0
 5 2 -17 4.32 1.1 0
 5 2 -16 1.76 0.86 0
 5 2 -14 124.2 2.75 0
 5 2 -13 0.65 0.76 0
 5 2 -11 71.84 1.83 0
 5 2 -7 21.3 0.94 0
 5 2 -6 17.78 0.79 0
 5 2 -5 91.53 1.51 0
 5 2 -4 241.43 2.28 0
 5 2 -3 44.93 0.96 0
 5 2 -2 261.81 2.02 0
 5 2 -1 51.32 0.86 0
 5 3 -19 9.98 1.39 0
 5 3 -18 6.14 1.12 0
 5 3 -17 2.5 1.04 0
 5 3 -16 13.03 1.36 0
 5 3 -15 45.68 1.95 0
 5 3 -14 74.86 2.25 0
 5 3 -12 162.54 2.93 0
 5 3 -10 179.67 2.87 0
 5 3 -9 1.24 0.55 0
 5 3 -6 62.65 1.47 0
 5 3 -5 97.15 1.68 0
 5 3 -4 95.04 1.59 0
 5 3 -3 99.98 1.55 0
 5 3 -2 52.7 1.1 0
 5 3 -1 63.49 1.16 0
 5 3 0 83.85 1.24 0
 5 4 -18 0.69 0.95 0
 5 4 -17 6.53 1.21 0
 5 4 -16 20.59 1.45 0
 5 4 -15 2.62 0.94 0
 5 4 -13 6.44 0.99 0
 5 4 -12 24.09 1.35 0
 5 4 -11 8.87 0.96 0
 5 4 -10 32.49 1.42 0
 5 4 -8 65.79 1.75 0
 5 4 -7 50.88 1.52 0
 5 4 -4 43.77 1.26 0
 5 4 -3 242.57 2.68 0
 5 4 -2 6.31 0.57 0
 5 4 0 42.9 1.08 0
 5 5 -17 2.91 1.1 0
 5 5 -16 18.46 1.57 0
 5 5 -15 2.73 0.9 0
 5 5 -14 40.52 1.84 0
 5 5 -12 0.48 0.72 0
 5 5 -11 21 1.35 0
 5 5 -9 15.4 1.13 0
 5 5 -7 43.07 1.51 0
 5 5 -5 79.42 1.82 0
 5 6 -15 0.85 0.94 0
 5 6 -14 24.41 1.73 0
 5 6 -13 7.57 1.2 0
 5 6 -12 21.87 1.6 0
 5 6 -10 1.24 0.81 0
 5 6 -9 37.86 1.63 0
 5 6 -8 0.4 0.63 0
 5 6 -6 52.63 1.73 0
 5 6 -5 5.22 0.8 0
 5 6 -4 20.08 1.18 0
 5 6 -3 136.38 2.5 0
 5 6 -2 28.08 1.19 0
 5 6 -1 85.29 1.91 0
 5 7 -13 5.36 1.15 0
 5 7 -12 30.86 1.83 0
 5 7 -11 8.54 1.21 0
 5 7 -10 41.28 1.93 0
 5 7 -9 5.42 1.1 0
 5 7 -7 52.13 1.94 0
 5 7 -6 24.28 1.35 0
 5 7 -5 34.79 1.57 0
 5 7 -4 37.22 1.63 0
 5 7 -3 10.06 1.04 0
 5 7 -2 18.44 1.12 0
 5 7 0 6.11 0.92 0
 5 7 1 27.15 1.34 0
 5 8 -9 13.61 1.35 0
 5 8 -6 44.31 1.83 0
 5 8 -4 12.46 1.19 0
 5 8 -3 16.32 1.27 0
 5 8 -2 18.09 1.26 0
 5 8 -1 19.81 1.25 0
 5 8 0 0.14 0.64 0
 5 8 1 22.33 1.38 0
 5 9 -7 28.84 1.75 0
 5 9 -6 13.77 1.36 0
 5 9 -5 2.36 0.88 0
 5 9 -4 12.4 1.35 0
 5 9 -3 38.72 1.87 0
 5 9 -2 31.51 1.71 0
 5 9 -1 17.78 1.32 0
 5 9 0 61.88 2.13 0
 5 9 1 18.01 1.36 0
 5 9 3 42.87 1.8 0
 6 1 -15 10.6 1.18 0
 6 1 -14 35.99 1.57 0
 6 1 -13 8.64 1.03 0
 6 1 -12 37 1.48 0
 6 1 -11 12.4 0.99 0
 6 1 -10 2.73 0.59 0
 6 1 -8 13.09 0.79 0
 6 1 -7 9.77 0.67 0
 6 1 -6 31.84 0.93 0
 6 1 -5 15.7 0.65 0
 6 1 -4 24.84 0.68 0
 6 1 -3 19.87 0.55 0
 6 1 -2 10.81 0.35 0
 6 2 -18 53.14 2.16 0
 6 2 -17 40.76 1.92 0
 6 2 -15 65.64 2.21 0
 6 2 -13 70.45 2.09 0
 6 2 -12 13.85 1.13 0
 6 2 -10 14.91 1 0
 6 2 -9 4.98 0.65 0
 6 2 -6 0.22 0.41 0
 6 2 -5 133.33 1.77 0
 6 2 -4 30.48 0.84 0
 6 2 -3 3.23 0.39 0
 6 2 -2 3.54 0.33 0
 6 2 -1 131.07 1.25 0
 6 3 -17 27.54 1.72 0
 6 3 -16 44.74 2.02 0
 6 3 -15 6.52 1.03 0
 6 3 -13 70.69 2.14 0
 6 3 -12 3.16 0.77 0
 6 3 -10 32.21 1.38 0
 6 3 -9 43.29 1.44 0
 6 3 -5 30.64 1.01 0
 6 3 -3 5.58 0.5 0
 6 3 -2 61.41 1.17 0
 6 3 -1 3.92 0.39 0
 6 3 0 0.52 0.26 0
 6 3 1 3.65 0.35 0
 6 4 -17 35.61 1.91 0
 6 4 -16 20.77 1.56 0
 6 4 -14 14.82 1.3 0
 6 4 -12 76.79 2.17 0
 6 4 -11 41.31 1.67 0
 6 4 -10 31.43 1.45 0
 6 4 -9 184.25 2.96 0
 6 4 -8 61.96 1.74 0
 6 4 -7 53.77 1.58 0
 6 4 -6 58.56 1.57 0
 6 4 -2 25.98 0.92 0
 6 4 -1 115.22 1.73 0
 6 4 0 0.5 0.36 0
 6 4 1 113.06 1.6 0
 6 4 2 24.56 0.78 0
 6 5 -15 12.23 1.34 0
 6 5 -14 56.74 2.15 0
 6 5 -13 69.26 2.25 0
 6 5 -12 0.06 0.7 0
 6 5 -11 92.07 2.44 0
 6 5 -10 78.52 2.22 0
 6 5 -9 27.97 1.47 0
 6 5 -8 31.78 1.44 0
 6 5 -6 16.27 1.05 0
 6 5 -4 72.38 1.71 0
 6 5 -3 71.77 1.66 0
 6 5 -2 21.6 1.01 0
 6 6 -14 12.61 1.34 0
 6 6 -13 34.3 1.76 0
 6 6 -12 40.75 1.89 0
 6 6 -11 32.12 1.72 0
 6 6 -10 21.96 1.5 0
 6 6 -9 87.24 2.37 0
 6 6 -8 16.2 1.26 0
 6 6 -7 5.88 0.91 0
 6 6 -5 87.61 2.11 0
 6 6 -4 28.11 1.31 0
 6 6 -3 73.67 1.85 0
 6 6 -1 121.94 2.26 0
 6 6 0 71.76 1.73 0
 6 6 1 118.36 2.14 0
 6 6 2 77.93 1.74 0
 6 6 3 72.66 1.69 0
 6 7 -12 7.62 1.24 0
 6 7 -10 7.91 1.12 0
 6 7 -8 37.58 1.67 0
 6 7 -6 19.09 1.27 0
 6 7 -5 7.3 0.95 0
 6 7 -3 64.94 1.91 0
 6 7 -2 82.24 2.08 0
 6 7 -1 74.09 1.94 0
 6 7 0 13.07 1 0
 6 7 1 73.91 1.88 0
 6 7 2 83.62 1.98 0
 6 7 3 65.07 1.79 0
 6 8 -9 4.16 1.01 0
 6 8 -8 7.73 1.14 0
 6 8 -7 24.93 1.58 0
 6 8 -6 14.9 1.32 0
 6 8 -5 17.98 1.33 0
 6 8 -4 32.57 1.56 0
 6 8 -3 10.87 1.15 0
 6 8 -1 0.87 0.76 0
 6 8 0 80.69 2.15 0
 6 8 1 0.78 0.67 0
 6 8 2 6.47 0.87 0
 6 8 3 11 1.06 0
 6 9 -4 4.73 0.93 0
 6 9 -3 22.76 1.51 0
 6 9 -1 1.56 0.79 0
 6 9 0 -0.4 0.68 0
 7 1 -10 22 1.06 0
 7 1 -9 95.85 1.85 0
 7 2 -15 37.07 1.63 0
 7 2 -14 40.59 1.67 0
 7 2 -13 53.95 1.81 0
 7 2 -12 1.55 0.64 0
 7 2 -11 129.6 2.48 0
 7 2 -10 8.91 0.87 0
 7 2 -9 4.03 0.63 0
 7 3 -16 1.38 0.82 0
 7 3 -14 55.8 1.98 0
 7 3 -12 2.04 0.8 0
 7 3 -11 8.29 0.98 0
 7 3 -10 56.78 1.69 0
 7 3 -9 130.86 2.34 0
 7 3 -7 42.64 1.28 0
 7 4 -15 2 0.83 0
 7 4 -14 28.15 1.54 0
 7 4 -13 13.99 1.23 0
 7 4 -12 44.75 1.73 0
 7 4 -11 50.44 1.72 0
 7 4 -10 49.67 1.65 0
 7 4 -9 8.34 0.91 0
 7 4 -8 61.25 1.68 0
 7 4 -7 29.89 1.21 0
 7 4 -6 22.96 1.06 0
 7 5 -14 2.95 0.88 0
 7 5 -12 13.24 1.22 0
 7 5 -11 4.85 0.86 0
 7 5 -10 2.34 0.76 0
 7 5 -9 11.02 1.05 0
 7 5 -8 115.87 2.42 0
 7 5 -7 12.48 1.03 0
 7 5 -6 19.53 1.09 0
 7 6 -12 11.22 1.34 0
 7 6 -11 7.29 1.06 0
 7 6 -10 52.36 1.88 0
 7 6 -9 6.47 1.01 0
 7 6 -8 18.19 1.24 0
 -3 1 8 414.67 1.45 0
 -3 1 9 43.05 0.6 0
 -3 1 10 123.46 1.12 0
 -3 1 11 22.92 0.57 0
 -3 1 12 46.29 0.86 0
 -3 2 9 431.75 1.47 0
 -3 2 10 358.2 1.65 0
 -3 3 8 61.08 0.53 0
 -2 1 5 32.41 0.37 0
 -2 1 14 76.98 1.46 0
 -2 2 4 153.04 0.85 0
 -2 2 5 11.61 0.3 0
 -2 2 6 476.28 1.84 0
 -2 2 7 210.94 1.39 0
 -2 2 8 230.43 1.6 0
 -2 2 9 201.32 1.65 0
 -2 2 10 4.69 0.38 0
 -2 2 11 92.29 1.3 0
 -2 2 12 87.88 1.37 0
 -2 2 13 100.28 1.53 0
 -2 2 14 41.12 1.07 0
 -2 2 15 41.76 1.15 0
 -2 3 4 108.08 1.02 0
 -2 3 5 492.16 2.21 0
 -2 3 6 1026.47 3.31 0
 -2 3 7 12.85 0.47 0
 -2 3 8 130.03 1.34 0
 -2 3 9 86.44 1.17 0
 -2 3 10 371.79 2.5 0
 -2 3 12 143.81 1.77 0
 -2 3 13 28.27 0.88 0
 -2 4 4 305.55 2.11 0
 -2 4 5 224.59 1.85 0
 -2 4 6 40.6 0.85 0
 -2 4 7 277.23 2.13 0
 -2 4 8 237.46 2.05 0
 -2 4 9 8.74 0.52 0
 -2 4 10 58.89 1.13 0
 -2 4 11 23.87 0.78 0
 -2 4 12 54.45 1.17 0
 -2 5 5 63.82 1.19 0
 -2 5 6 8.92 0.57 0
 -2 5 7 20.56 0.75 0
 -2 5 8 37.67 0.96 0
 -2 5 9 42.81 1.04 0
 -2 5 10 0.9 0.35 0
 -2 6 7 19.35 0.82 0
 -2 6 8 51.08 1.21 0
 -2 6 9 10.46 0.68 0
 -1 1 4 275.34 1.23 0
 -1 1 16 78.45 1.76 0
 -1 1 17 32.96 1.28 0
 -1 1 18 30.15 1.28 0
 -1 2 1 121.1 0.97 0
 -1 2 2 503.85 1.93 0
 -1 2 3 955.82 2.73 0
 -1 2 4 288.17 1.6 0
 -1 2 6 33.1 0.68 0
 -1 2 7 166.56 1.51 0
 -1 2 8 6.99 0.43 0
 -1 2 9 440.74 2.81 0
 -1 2 10 14.35 0.66 0
 -1 2 12 52.64 1.22 0
 -1 2 13 108.25 1.8 0
 -1 2 16 8.1 0.8 0
 -1 2 17 14.88 0.98 0
 -1 2 18 12.13 0.97 0
 -1 3 1 607.35 2.76 0
 -1 3 2 90 1.1 0
 -1 3 3 741.03 3.07 0
 -1 3 4 143.18 1.41 0
 -1 3 5 41.54 0.83 0
 -1 3 6 100.96 1.28 0
 -1 3 7 262.88 2.13 0
 -1 3 8 67.75 1.18 0
 -1 3 9 593.86 3.49 0
 -1 3 10 51.45 1.15 0
 -1 3 11 76.9 1.45 0
 -1 3 13 122.25 1.95 0
 -1 3 16 48.01 1.43 0
 -1 3 17 29.68 1.23 0
 -1 4 2 53.49 1.04 0
 -1 4 3 238.7 2.12 0
 -1 4 4 23.65 0.73 0
 -1 4 5 89.25 1.38 0
 -1 4 6 64.3 1.21 0
 -1 4 7 411.55 2.98 0
 -1 4 9 5.85 0.59 0
 -1 4 10 45.36 1.16 0
 -1 4 11 387.72 3.32 0
 -1 4 12 77.13 1.61 0
 -1 4 15 56.07 1.52 0
 -1 5 2 136.86 1.88 0
 -1 5 3 576.9 3.72 0
 -1 5 4 7.94 0.61 0
 -1 5 5 57.39 1.26 0
 -1 5 6 103.5 1.7 0
 -1 5 7 223.89 2.51 0
 -1 5 8 1.54 0.42 0
 -1 5 10 17.93 0.88 0
 -1 6 3 103.02 1.88 0
 -1 6 4 109.94 1.89 0
 -1 6 5 153.9 2.21 0
 -1 6 11 26.84 1.15 0
 -1 6 12 20.94 1.06 0
 -1 6 13 153.4 2.5 0
 -1 7 5 80.3 1.8 0
 -1 7 7 27.89 1.18 0
 -1 7 8 0.14 0.59 0
 -1 7 9 110.12 2.14 0
 -1 7 10 30.55 1.27 0
 -1 7 11 26.37 1.19 0
 -1 8 9 70.58 1.85 0
 -1 8 10 3.81 0.73 0
 0 0 20 0.63 0.68 0
 0 0 21 -0.15 0.71 0
 0 0 22 113.61 2.69 0
 0 1 1 518.34 1.58 0
 0 1 2 9999.99 7.43 0
 0 1 3 136.11 1 0
 0 1 17 42.29 1.55 0
 0 1 18 0.34 0.66 0
 0 1 19 41.55 1.64 0
 0 1 20 40.96 1.67 0
 0 1 21 2.97 0.83 0
 0 2 -1 67.86 0.88 0
 0 2 0 74.28 0.87 0
 0 2 1 66.61 0.86 0
 0 2 2 3238.94 5.68 0
 0 2 3 1384.7 3.88 0
 0 2 4 82.52 1.05 0
 0 2 5 183.04 1.64 0
 0 2 6 3629.34 7.42 0
 0 2 7 456.36 2.84 0
 0 2 8 2.23 0.36 0
 0 2 9 400.7 2.99 0
 0 2 10 387.27 3.1 0
 0 2 11 4.08 0.57 0
 0 2 12 56.15 1.38 0
 0 2 15 93.05 2.02 0
 0 2 16 41.94 1.46 0
 0 2 17 53.36 1.7 0
 0 2 18 48.77 1.69 0
 0 2 19 40.24 1.62 0
 0 2 20 1.96 0.8 0
 0 3 -1 48.4 0.97 0
 0 3 0 0.09 0.36 0
 0 3 1 51.01 0.98 0
 0 3 2 0.76 0.31 0
 0 3 3 102.19 1.33 0
 0 3 4 791.42 3.64 0
 0 3 5 317.83 2.41 0
 0 3 6 70.42 1.23 0
 0 3 7 406.87 2.96 0
 0 3 8 123.49 1.74 0
 0 3 10 48.09 1.24 0
 0 3 11 367.27 3.33 0
 0 3 12 16.24 0.86 0
 0 3 14 4.62 0.66 0
 0 3 15 32.78 1.34 0
 0 3 17 45.21 1.58 0
 0 3 18 3.85 0.8 0
 0 3 19 1.17 0.75 0
 0 4 0 699.31 3.79 0
 0 4 1 603.08 3.56 0
 0 4 2 48.89 1.09 0
 0 4 3 1.27 0.35 0
 0 4 4 59.83 1.21 0
 0 4 5 24.89 0.88 0
 0 4 6 186.12 2.18 0
 0 4 8 212.05 2.46 0
 0 4 9 171.38 2.32 0
 0 4 10 106.25 1.9 0
 0 4 13 73.03 1.73 0
 0 4 14 8.11 0.87 0
 0 4 15 17.42 1.1 0
 0 4 16 108.27 2.34 0
 0 4 17 0.69 0.61 0
 0 4 18 0.53 0.66 0
 0 5 0 0.02 0.35 0
 0 5 1 56.24 1.33 0
 0 5 2 94.25 1.67 0
 0 5 3 353.69 3.18 0
 0 5 4 81.61 1.62 0
 0 5 5 111.85 1.87 0
 0 5 6 0.49 0.44 0
 0 5 7 15.9 0.88 0
 0 5 8 20.93 0.98 0
 0 5 12 1.87 0.57 0
 0 5 13 15.99 1.06 0
 0 5 14 63.68 1.78 0
 0 5 15 14.45 1.08 0
 0 5 16 5.21 0.82 0
 0 5 17 13.56 1.15 0
 0 6 9 1.72 0.61 0
 0 6 11 -0.07 0.56 0
 0 6 13 29.65 1.35 0
 0 6 14 8.92 1 0
 0 6 15 20.93 1.26 0
 0 7 3 18.56 1.1 0
 0 7 4 11.26 0.93 0
 0 7 5 69.8 1.82 0
 0 7 7 4.54 0.78 0
 0 7 8 49.15 1.64 0
 0 7 10 103.22 2.31 0
 0 7 12 18.61 1.24 0
 0 7 13 -0.6 0.59 0
 0 7 14 19.85 1.28 0
 0 8 5 6.88 0.98 0
 0 8 7 30.4 1.46 0
 0 8 10 23.85 1.38 0
 0 8 11 21.66 1.34 0
 0 9 9 7.95 0.98 0
 0 9 10 21.83 1.36 0
 1 0 21 0.56 0.78 0
 1 0 22 0.64 0.85 0
 1 1 -2 203.99 1.2 0
 1 1 -1 247.33 1.3 0
 1 1 0 134.06 0.99 0
 1 1 1 246.78 1.39 0
 1 1 2 204.93 1.37 0
 1 1 3 2087.7 4.64 0
 1 1 4 284.42 1.9 0
 1 1 16 81.53 2.1 0
 1 1 17 31.1 1.43 0
 1 1 19 15.68 1.33 0
 1 1 20 5.57 1.07 0
 1 1 21 0.32 0.81 0
 1 1 22 31.2 1.68 0
 1 2 -2 504.86 2.45 0
 1 2 -1 123.25 1.26 0
 1 2 0 1.83 0.34 0
 1 2 2 514.28 2.62 0
 1 2 3 968.62 3.73 0
 1 2 4 294.32 2.2 0
 1 2 5 760.38 3.65 0
 1 2 6 33.78 0.87 0
 1 2 7 177.32 2 0
 1 2 8 6.08 0.52 0
 1 2 9 450.35 3.47 0
 1 2 10 14.05 0.81 0
 1 2 11 10.77 0.73 0
 1 2 15 25.75 1.28 0
 1 2 17 13.71 1.18 0
 1 2 19 28.31 1.57 0
 1 2 21 26.42 1.57 0
 1 2 22 22.75 1.52 0
 1 3 -2 92.23 1.3 0
 1 3 -1 600.94 3.26 0
 1 3 0 356.35 2.55 0
 1 3 1 622.29 3.35 0
 1 3 2 94.09 1.4 0
 1 3 3 750.27 3.82 0
 1 3 4 141.57 1.73 0
 1 3 5 40.27 1.02 0
 1 3 6 101.72 1.6 0
 1 3 7 262.35 2.62 0
 1 3 8 68.91 1.47 0
 1 3 9 588.33 4.2 0
 1 3 10 49.8 1.38 0
 1 3 13 127.94 2.37 0
 1 3 14 39.56 1.49 0
 1 3 17 29.95 1.51 0
 1 3 18 74.23 2.21 0
 1 3 19 15.1 1.3 0
 1 3 20 5.45 0.98 0
 1 3 21 53.27 2 0
 1 4 1 236.89 2.41 0
 1 4 2 55.16 1.25 0
 1 4 3 233.65 2.46 0
 1 4 4 25.21 0.87 0
 1 4 5 88.76 1.63 0
 1 4 6 60.01 1.41 0
 1 4 7 408.36 3.56 0
 1 4 8 63.4 1.5 0
 1 4 9 5.55 0.67 0
 1 4 13 53.97 1.71 0
 1 4 14 62.89 1.83 0
 1 4 15 52.78 1.8 0
 1 4 16 66.98 2.05 0
 1 4 18 37.48 1.69 0
 1 4 19 38.98 1.75 0
 1 4 20 39.6 1.78 0
 1 5 -1 201.37 2.5 0
 1 5 0 16.04 0.86 0
 1 5 2 136.22 2.13 0
 1 5 3 590.41 4.35 0
 1 5 4 7.92 0.74 0
 1 5 5 60.57 1.51 0
 1 5 6 99.74 1.94 0
 1 5 10 19.28 1.1 0
 1 5 13 27.06 1.33 0
 1 5 14 15.81 1.23 0
 1 5 15 245.29 3.71 0
 1 5 16 69.09 2.13 0
 1 5 17 3.31 0.87 0
 1 5 18 7.22 1.02 0
 1 6 6 14.74 1.04 0
 1 6 8 78.93 1.94 0
 1 6 9 2.29 0.67 0
 1 6 10 1.9 0.7 0
 1 6 11 26.02 1.39 0
 1 6 12 20.67 1.32 0
 1 6 13 151.8 2.94 0
 1 6 14 39.51 1.72 0
 1 6 16 12.93 1.28 0
 1 6 17 71.64 2.2 0
 1 7 1 74.49 1.95 0
 1 7 2 24.05 1.26 0
 1 7 3 45.67 1.62 0
 1 7 4 87.11 2.1 0
 1 7 7 26.65 1.33 0
 1 7 10 28.65 1.44 0
 1 7 12 0.36 0.68 0
 1 7 13 34.87 1.68 0
 1 7 14 27.1 1.5 0
 1 7 15 12.17 1.23 0
 1 7 16 14.48 1.27 0
 1 8 3 0.75 0.72 0
 1 8 4 38.85 1.58 0
 1 8 7 25.64 1.39 0
 1 8 8 5.44 1 0
 1 8 9 67.76 2.1 0
 1 8 10 4.42 0.94 0
 1 8 11 4.81 0.95 0
 1 8 12 18.47 1.36 0
 1 8 13 32.03 1.68 0
 1 8 14 3.9 0.93 0
 1 9 7 38.6 1.79 0
 1 9 8 16.13 1.4 0
 1 9 9 28.18 1.61 0
 1 9 10 3.51 0.92 0
 1 9 11 31.62 1.69 0
 1 9 12 4.34 0.93 0
 2 -1 22 35.7 1.94 0
 2 0 -2 324.05 1.06 0
 2 0 -1 916.53 2.01 0
 2 0 0 5525.98 5.66 0
 2 0 20 0.1 0.87 0
 2 0 21 59.5 2.23 0
 2 0 22 29.89 1.78 0
 2 1 -2 1078.17 3.03 0
 2 1 -1 111.5 1.03 0
 2 1 0 5931.16 7.55 0
 2 1 1 112.79 1.16 0
 2 1 2 1094.45 3.67 0
 2 1 3 340.14 2.2 0
 2 1 4 1919.19 5.46 0
 2 1 5 32.03 0.85 0
 2 1 15 40.83 1.62 0
 2 1 17 107.22 2.55 0
 2 1 18 123.05 2.85 0
 2 1 20 8.79 1.18 0
 2 1 21 23.17 1.62 0
 2 1 22 36.21 1.92 0
 2 2 -2 1947.77 5.21 0
 2 2 -1 544.36 2.79 0
 2 2 0 5.63 0.48 0
 2 2 1 555.39 2.96 0
 2 2 2 1959.1 5.7 0
 2 2 3 199.46 1.95 0
 2 2 4 157.97 1.82 0
 2 2 7 216.42 2.41 0
 2 2 8 237.87 2.61 0
 2 2 9 196.91 2.49 0
 2 2 13 102.91 2.22 0
 2 2 14 41.96 1.51 0
 2 2 15 43.98 1.65 0
 2 2 16 100.49 2.44 0
 2 2 17 0.2 0.71 0
 2 2 18 11.1 1.24 0
 2 2 19 0.56 0.89 0
 2 2 20 34.53 1.82 0
 2 2 21 29.86 1.71 0
 2 3 -1 317.57 2.54 0
 2 3 0 -0.19 0.27 0
 2 3 1 324.46 2.63 0
 2 3 6 1019.86 5.32 0
 2 3 7 13.48 0.8 0
 2 3 8 132.11 2.12 0
 2 3 9 86.55 1.84 0
 2 3 12 150.13 2.61 0
 2 3 14 12.37 1.09 0
 2 3 15 14.99 1.24 0
 2 3 16 41.98 1.77 0
 2 3 17 27.4 1.52 0
 2 3 18 7.52 1.05 0
 2 3 19 6.67 1.1 0
 2 3 20 14.18 1.42 0
 2 4 -3 129.76 1.91 0
 2 4 -2 11.16 0.7 0
 2 4 -1 416.19 3.32 0
 2 4 4 308.58 3.1 0
 2 4 5 222.11 2.67 0
 2 4 6 41.65 1.25 0
 2 4 10 57.05 1.66 0
 2 4 12 56.35 1.79 0
 2 4 13 0.17 0.61 0
 2 4 15 16.53 1.31 0
 2 4 17 23.07 1.55 0
 2 4 18 6.45 1.03 0
 2 4 19 11.97 1.32 0
 2 4 20 6.01 1.11 0
 2 5 -2 4.3 0.58 0
 2 5 -1 258.37 2.97 0
 2 5 0 474.19 3.98 0
 2 5 1 257.11 3.03 0
 2 5 8 37.06 1.42 0
 2 5 9 43.92 1.51 0
 2 5 10 1.41 0.73 0
 2 5 11 17.25 1.2 0
 2 5 12 162.75 3.07 0
 2 5 13 0.91 0.7 0
 2 5 14 7.73 1.01 0
 2 5 15 4.63 0.94 0
 2 5 16 69.16 2.24 0
 2 5 18 8.86 1.17 0
 2 5 19 27.52 1.64 0
 2 6 -1 159.72 2.55 0
 2 6 1 156.75 2.63 0
 2 6 2 262.01 3.39 0
 2 6 4 2.28 0.64 0
 2 6 6 15.03 1.11 0
 2 6 7 21.58 1.21 0
 2 6 9 11.1 1.11 0
 2 6 10 134.96 2.79 0
 2 6 14 107.95 2.75 0
 2 6 15 3.53 0.95 0
 2 6 16 10.11 1.26 0
 2 6 17 13.91 1.42 0
 2 6 18 7.16 1.15 0
 2 7 1 2.89 0.69 0
 2 7 2 45.35 1.61 0
 2 7 3 32.5 1.43 0
 2 7 4 13.44 1.16 0
 2 7 5 57 1.83 0
 2 7 6 264.95 3.9 0
 2 7 8 25.82 1.4 0
 2 7 9 26.91 1.58 0
 2 7 11 13.68 1.31 0
 2 7 13 6.08 1.07 0
 2 7 15 15.54 1.43 0
 2 7 16 14.52 1.45 0
 2 7 17 5.07 1.04 0
 2 8 2 34.23 1.65 0
 2 8 3 19.42 1.27 0
 2 8 4 158.02 3.17 0
 2 8 6 48.84 1.97 0
 2 8 7 23.6 1.53 0
 2 8 8 198.41 3.66 0
 2 8 9 2.73 0.9 0
 2 8 10 24.16 1.61 0
 2 8 11 6.96 1.09 0
 2 8 12 26.23 1.63 0
 2 8 14 18.85 1.53 0
 2 9 4 93.59 2.65 0
 2 9 5 34.52 1.75 0
 2 9 6 9.38 1.2 0
 2 9 8 7.23 1.16 0
 2 9 9 54.17 2.11 0
 2 9 10 4.5 1.03 0
 3 -1 -1 505.18 1.6 0
 3 0 -3 356.91 1.28 0
 3 0 -2 257.17 1.24 0
 3 0 -1 143.63 1.05 0
 3 0 0 0.37 0.22 0
 3 0 1 144.83 1.31 0
 3 0 18 29.19 1.63 0
 3 0 19 1.42 0.88 0
 3 0 20 50.73 2.19 0
 3 0 21 0.29 1.02 0
 3 1 -3 148.14 1.25 0
 3 1 -2 382.83 2.07 0
 3 1 -1 509.03 2.46 0
 3 1 0 58.04 0.94 0
 3 1 1 510.09 2.72 0
 3 1 2 384.59 2.51 0
 3 1 3 152.79 1.7 0
 3 1 6 223.59 2.39 0
 3 1 7 6.54 0.56 0
 3 1 8 425.64 3.61 0
 3 1 12 49.21 1.57 0
 3 1 13 54.43 1.71 0
 3 1 14 163.54 2.99 0
 3 1 15 49.7 1.81 0
 3 1 16 10.63 1.18 0
 3 1 18 32.63 1.82 0
 3 1 19 32.63 1.73 0
 3 1 21 25.66 1.84 0
 3 2 -1 222.65 1.99 0
 3 2 0 220.03 2.01 0
 3 2 5 411.3 3.27 0
 3 2 7 176.54 2.36 0
 3 2 8 190.03 2.56 0
 3 2 11 20.58 1.1 0
 3 2 12 123.07 2.45 0
 3 2 13 58.86 1.84 0
 3 2 14 64.24 2 0
 3 2 15 21.74 1.43 0
 3 2 16 3.5 0.9 0
 3 2 18 2.91 1.06 0
 3 2 19 43.37 2.03 0
 3 2 20 4.99 1.12 0
 3 2 21 42.5 2.05 0
 3 3 -3 286.44 2.55 0
 3 3 -2 25.36 0.85 0
 3 3 -1 407.71 3.09 0
 3 3 0 329.06 2.8 0
 3 3 1 395.94 3.11 0
 3 3 3 287.25 2.82 0
 3 3 5 325.98 3.18 0
 3 3 6 6.14 0.68 0
 3 3 7 405.27 3.78 0
 3 3 10 16.28 1.01 0
 3 3 11 116.22 2.44 0
 3 3 12 48.04 1.65 0
 3 3 13 16.85 1.12 0
 3 3 14 12.85 1.08 0
 3 3 15 11.61 1.26 0
 3 3 16 1.54 0.8 0
 3 3 17 9.71 1.19 0
 3 3 18 -0.2 0.86 0
 3 3 19 12.24 1.53 0
 3 3 20 4.8 1.06 0
 3 4 -3 711.78 4.48 0
 3 4 -1 360.02 3.29 0
 3 4 0 11.68 0.8 0
 3 4 1 356.55 3.36 0
 3 4 2 47.94 1.32 0
 3 4 3 708.42 4.84 0
 3 4 4 161.03 2.43 0
 3 4 9 39 1.45 0
 3 4 10 20.81 1.23 0
 3 4 11 40.84 1.61 0
 3 4 12 53.16 1.85 0
 3 4 13 12.83 1.23 0
 3 4 14 29.03 1.63 0
 3 4 15 79.76 2.44 0
 3 4 16 23.55 1.58 0
 3 4 17 1.09 0.95 0
 3 4 18 26.17 1.7 0
 3 4 20 8.63 1.29 0
 3 5 5 89.87 2.05 0
 3 5 6 56.61 1.67 0
 3 5 8 22.63 1.27 0
 3 5 9 15.58 1.13 0
 3 5 10 57.73 1.87 0
 3 5 11 39.44 1.64 0
 3 5 12 36.04 1.66 0
 3 5 14 50.86 2.07 0
 3 5 15 4.54 1.09 0
 3 5 16 59.74 2.29 0
 3 5 17 22.88 1.59 0
 3 5 19 4.97 1.22 0
 3 6 -2 28.19 1.26 0
 3 6 0 10.47 1.01 0
 3 6 3 272.56 3.67 0
 3 6 4 67.61 1.93 0
 3 6 6 27.72 1.41 0
 3 6 7 76.36 2.15 0
 3 6 8 26.88 1.44 0
 3 6 10 1.07 0.74 0
 3 6 11 5.22 0.95 0
 3 6 13 3.56 1.05 0
 3 6 15 31.79 1.82 0
 3 6 16 31.61 1.88 0
 3 6 17 13.65 1.52 0
 3 7 -1 155.97 2.98 0
 3 7 2 35.1 1.61 0
 3 7 3 16.67 1.25 0
 3 7 4 37.04 1.65 0
 3 7 5 137.15 2.9 0
 3 7 6 43.98 1.79 0
 3 7 7 14.78 1.21 0
 3 7 8 43.72 1.91 0
 3 7 10 6.64 1.17 0
 3 7 11 6.31 1.19 0
 3 7 12 16.82 1.45 0
 3 7 15 17.05 1.52 0
 3 7 16 18.95 1.57 0
 3 8 1 5.41 0.96 0
 3 8 7 30.55 1.73 0
 3 8 9 50.69 2.09 0
 3 8 11 5.16 1.09 0
 3 8 14 15.25 1.6 0
 3 9 3 2.15 1.05 0
 3 9 4 11.64 1.42 0
 3 9 5 19.77 1.62 0
 3 9 6 30.38 1.74 0
 3 9 7 13.38 1.64 0
 3 9 9 2.81 1.01 0
 3 9 10 43.91 2.09 0
 3 9 11 12.9 1.54 0
 3 10 6 51.67 2.29 0
 4 -2 -2 210.64 0.85 0
 4 -1 -2 44.92 0.45 0
 4 -1 -1 418.92 1.79 0
 4 -1 0 548.64 2.37 0
 4 0 -2 150.28 1.15 0
 4 0 -1 58.94 0.82 0
 4 0 0 340.78 2.09 0
 4 0 3 13.32 0.6 0
 4 0 4 389.67 2.92 0
 4 0 18 11.74 1.25 0
 4 0 19 4.65 1.21 0
 4 1 3 36.37 0.95 0
 4 1 4 182.05 2.16 0
 4 1 6 216.17 2.56 0
 4 1 7 129.7 2.15 0
 4 1 10 29.15 1.28 0
 4 1 11 85.58 2.06 0
 4 1 12 215.71 3.33 0
 4 1 13 32.01 1.5 0
 4 1 14 59.12 1.93 0
 4 1 15 3.19 0.9 0
 4 1 16 24.59 1.61 0
 4 1 17 32.54 1.8 0
 4 1 19 36.03 2.04 0
 4 1 20 8.46 1.24 0
 4 2 -4 16.56 0.62 0
 4 2 -3 226.21 2.08 0
 4 2 -2 217.48 2.1 0
 4 2 -1 165.54 1.86 0
 4 2 0 86.72 1.42 0
 4 2 1 175.15 2.05 0
 4 2 2 211.51 2.31 0
 4 2 3 219.7 2.44 0
 4 2 5 93.18 1.76 0
 4 2 6 176.85 2.49 0
 4 2 12 14.32 1.12 0
 4 2 13 0.71 0.65 0
 4 2 14 16.53 1.34 0
 4 2 15 13.66 1.26 0
 4 2 16 33.58 1.82 0
 4 2 17 42.42 2.02 0
 4 2 18 31.9 1.91 0
 4 2 20 21.45 1.62 0
 4 3 -4 35.57 1 0
 4 3 -3 121.7 1.79 0
 4 3 -2 42.62 1.13 0
 4 3 -1 181.06 2.24 0
 4 3 0 19.86 0.85 0
 4 3 1 184.63 2.36 0
 4 3 2 43.22 1.2 0
 4 3 3 119.03 2 0
 4 3 4 36.88 1.2 0
 4 3 5 420.48 3.9 0
 4 3 8 75.64 1.89 0
 4 3 9 99.91 2.18 0
 4 3 10 25.09 1.23 0
 4 3 11 45.9 1.71 0
 4 3 12 36.39 1.54 0
 4 3 13 126.6 2.83 0
 4 3 14 18.1 1.36 0
 4 3 15 49.15 2.01 0
 4 3 16 19.6 1.6 0
 4 3 17 31.23 1.85 0
 4 3 18 26.55 1.76 0
 4 3 20 21.45 1.82 0
 4 4 -4 55.06 1.4 0
 4 4 -3 141.51 2.15 0
 4 4 -2 69.09 1.57 0
 4 4 0 108.39 2 0
 4 4 1 178.37 2.54 0
 4 4 2 59.96 1.59 0
 4 4 6 80.28 1.93 0
 4 4 7 58.36 1.74 0
 4 4 8 8.59 0.85 0
 4 4 10 44.81 1.76 0
 4 4 11 27.5 1.48 0
 4 4 12 99.67 2.54 0
 4 4 13 32.87 1.74 0
 4 4 15 42.21 2.01 0
 4 4 16 73.39 2.49 0
 4 4 17 57.67 2.38 0
 4 4 18 2.09 0.96 0
 4 4 19 10.37 1.37 0
 4 5 1 93.2 2.05 0
 4 5 2 50.21 1.62 0
 4 5 3 45.78 1.52 0
 4 5 5 8.83 0.92 0
 4 5 8 113.79 2.55 0
 4 5 9 4.12 0.94 0
 4 5 11 38.27 1.8 0
 4 5 13 5.96 1.11 0
 4 5 15 22.76 1.6 0
 4 5 16 17.2 1.57 0
 4 5 17 11.48 1.53 0
 4 5 18 29.02 1.9 0
 4 6 -2 23.3 1.22 0
 4 6 -1 132.34 2.56 0
 4 6 0 0.28 0.62 0
 4 6 2 22.47 1.3 0
 4 6 4 2.33 0.72 0
 4 6 5 50.18 1.87 0
 4 6 7 8.5 1.09 0
 4 6 9 49.74 1.98 0
 4 6 10 58.07 2.1 0
 4 6 12 31.32 1.8 0
 4 6 13 4.39 1.1 0
 4 6 14 46.56 2.18 0
 4 6 15 7.02 1.29 0
 4 6 16 25.53 1.87 0
 4 6 17 81.42 2.77 0
 4 7 -1 78.97 2.25 0
 4 7 0 0.43 0.74 0
 4 7 1 83.63 2.36 0
 4 7 3 34.55 1.65 0
 4 7 4 55.25 2.07 0
 4 7 5 61.03 2.16 0
 4 7 6 53.02 2.02 0
 4 7 7 5.03 1.06 0
 4 7 8 7.3 1.15 0
 4 7 10 14.58 1.47 0
 4 7 11 13.54 1.48 0
 4 7 12 30.34 1.9 0
 4 7 13 40.77 2.02 0
 4 7 14 5.51 1.23 0
 4 8 0 5.64 1.06 0
 4 8 1 12.66 1.35 0
 4 8 3 47.85 2.08 0
 4 8 4 33.79 1.84 0
 4 8 6 6.45 1.2 0
 4 8 7 35.25 1.83 0
 4 8 8 76.36 2.63 0
 4 8 9 18.76 1.69 0
 4 8 10 30.74 1.91 0
 4 8 11 59.19 2.46 0
 4 8 12 19.92 1.74 0
 4 9 2 1.9 1.1 0
 4 9 6 27.78 1.71 0
 4 9 7 16.07 1.67 0
 4 9 9 18.76 1.68 0
 5 -2 0 236.08 1.69 0
 5 -1 -2 732.93 2.05 0
 5 -1 1 183.57 1.74 0
 5 -1 2 755.74 3.74 0
 5 -1 18 6.5 1.23 0
 5 0 0 0.42 0.28 0
 5 0 1 385.43 2.68 0
 5 0 2 215.54 2.16 0
 5 0 3 73.4 1.38 0
 5 0 4 625.05 4.03 0
 5 0 5 295.42 2.96 0
 5 0 6 1.87 0.48 0
 5 0 9 115.08 2.28 0
 5 0 10 13.01 1.04 0
 5 0 12 1.25 0.67 0
 5 0 13 112.74 2.65 0
 5 0 14 3.25 0.85 0
 5 0 15 16.88 1.3 0
 5 0 16 17.23 1.38 0
 5 0 17 77.79 2.57 0
 5 0 19 17.24 1.59 0
 5 1 -3 283.12 2.05 0
 5 1 -2 748.36 3.48 0
 5 1 -1 182.34 1.86 0
 5 1 0 466.34 3.09 0
 5 1 1 186.61 2.09 0
 5 1 2 754.57 4.28 0
 5 1 3 290.7 2.82 0
 5 1 4 164.67 2.24 0
 5 1 5 12.06 0.83 0
 5 1 6 339.83 3.45 0
 5 1 9 137.53 2.55 0
 5 1 10 10.87 0.94 0
 5 1 11 55.3 1.78 0
 5 1 12 37.18 1.57 0
 5 1 13 58.84 1.99 0
 5 1 15 38.51 1.88 0
 5 1 16 90.44 2.66 0
 5 1 17 13.44 1.34 0
 5 1 18 7.14 1.22 0
 5 2 -4 232.25 2.14 0
 5 2 -2 262.84 2.43 0
 5 2 0 238.24 2.5 0
 5 2 1 50.6 1.24 0
 5 2 2 260.46 2.78 0
 5 2 3 47.3 1.3 0
 5 2 4 233.65 2.85 0
 5 2 8 91.18 2.06 0
 5 2 10 198.68 3.22 0
 5 2 12 21.02 1.37 0
 5 2 13 2.13 0.79 0
 5 2 15 13.83 1.42 0
 5 2 16 1.22 0.96 0
 5 2 17 5.25 1.1 0
 5 2 19 8.41 1.31 0
 5 3 -4 97.4 1.65 0
 5 3 -1 63.73 1.46 0
 5 3 0 85.24 1.72 0
 5 3 1 63.08 1.51 0
 5 3 2 51.61 1.45 0
 5 3 6 62.69 1.73 0
 5 3 8 279.12 3.73 0
 5 3 9 2 0.69 0
 5 3 10 174.34 3.19 0
 5 3 16 12.72 1.35 0
 5 3 17 3.14 1.2 0
 5 3 18 6.01 1.28 0
 5 4 3 239.75 3.26 0
 5 4 6 21.28 1.25 0
 5 4 7 49.57 1.77 0
 5 4 8 63.22 1.94 0
 5 4 11 8.59 1.18 0
 5 4 12 22.81 1.45 0
 5 4 14 7.26 1.24 0
 5 4 18 1.55 1.06 0
 5 5 -3 20.75 1.06 0
 5 5 -1 270.53 3.52 0
 5 5 0 5.61 0.81 0
 5 5 2 41.37 1.51 0
 5 5 3 20.47 1.25 0
 5 5 6 31.11 1.48 0
 5 5 7 41.6 1.68 0
 5 5 8 59.49 2.1 0
 5 5 9 15.35 1.3 0
 5 5 10 21.22 1.54 0
 5 5 11 20.04 1.55 0
 5 5 12 0.44 0.84 0
 5 5 13 17.73 1.61 0
 5 5 14 42.32 2.13 0
 5 5 16 16.51 1.7 0
 5 5 17 1.04 1.02 0
 5 6 -2 28.64 1.44 0
 5 6 -1 84.9 2.17 0
 5 6 0 20.62 1.32 0
 5 6 1 82.99 2.2 0
 5 6 2 27.72 1.45 0
 5 6 3 129.76 2.79 0
 5 6 4 17.3 1.37 0
 5 6 5 6.2 0.98 0
 5 6 6 56 2.01 0
 5 6 7 10.72 1.16 0
 5 6 8 -0.02 0.83 0
 5 6 9 41.47 1.88 0
 5 6 10 0.34 0.83 0
 5 6 11 24.42 1.66 0
 5 6 12 23.6 1.71 0
 5 6 13 8.3 1.37 0
 5 6 14 27.72 1.9 0
 5 6 15 1.64 1.07 0
 5 7 -1 25.73 1.56 0
 5 7 2 18.49 1.47 0
 5 7 4 37.88 1.86 0
 5 7 7 55.15 2.27 0
 5 7 8 62.19 2.34 0
 5 7 9 6.41 1.16 0
 5 7 10 42.84 2.14 0
 5 7 11 9.77 1.34 0
 5 7 12 33.52 1.99 0
 5 7 13 4.77 1.32 0
 5 8 0 1.06 0.85 0
 5 8 1 22.59 1.64 0
 5 8 2 14.25 1.31 0
 5 8 3 17.51 1.58 0
 5 8 4 13.72 1.53 0
 5 8 5 40.75 2.09 0
 5 8 9 13.57 1.63 0
 5 8 11 0.55 1.19 0
 5 9 2 32.36 1.97 0
 5 9 3 41.28 2.08 0
 5 9 4 12.14 1.45 0
 5 9 5 1.47 1.15 0
 5 9 6 15.09 1.54 0
 5 9 7 33.17 2.08 0
 6 -2 0 110.02 1.21 0
 6 -2 1 130.1 1.52 0
 6 -2 17 41.49 2.04 0
 6 -1 -1 0.92 0.2 0
 6 -1 0 0.78 0.26 0
 6 -1 2 11.44 0.62 0
 6 -1 3 20.15 0.82 0
 6 -1 5 17.07 0.89 0
 6 -1 7 9 0.81 0
 6 -1 8 12.8 0.91 0
 6 -1 12 34.97 1.61 0
 6 -1 14 35.95 1.85 0
 6 -1 16 4.3 1.12 0
 6 -1 17 24.58 1.77 0
 6 0 -3 1.39 0.19 0
 6 0 -2 24.05 0.59 0
 6 0 -1 139.91 1.5 0
 6 0 0 0.75 0.29 0
 6 0 1 136.58 1.75 0
 6 0 4 26.86 1.03 0
 6 0 7 208.82 2.99 0
 6 0 9 18.02 1.2 0
 6 0 13 3.36 0.97 0
 6 0 14 9.74 1.2 0
 6 0 15 -0.72 0.97 0
 6 0 16 49.51 2.21 0
 6 0 17 30.37 1.95 0
 6 0 18 7.67 1.41 0
 6 1 -3 18.52 0.6 0
 6 1 -1 1.23 0.38 0
 6 1 0 1.25 0.36 0
 6 1 1 0.91 0.44 0
 6 1 2 10.88 0.72 0
 6 1 7 10.68 0.91 0
 6 1 8 13.27 1.04 0
 6 1 9 15.12 1.16 0
 6 1 10 2.43 0.73 0
 6 1 11 12.64 1.21 0
 6 1 13 9.61 1.27 0
 6 1 14 35.79 1.82 0
 6 1 15 12.44 1.45 0
 6 1 17 21.58 1.74 0
 6 2 -4 29.59 0.85 0
 6 2 -3 3.7 0.45 0
 6 2 -2 4.35 0.51 0
 6 2 -1 126.77 1.89 0
 6 2 0 113.45 1.86 0
 6 2 1 129.75 2.06 0
 6 2 2 3.31 0.58 0
 6 2 5 125.55 2.35 0
 6 2 6 0.32 0.54 0
 6 2 7 108.79 2.34 0
 6 2 8 0.59 0.6 0
 6 2 9 3.87 0.76 0
 6 2 10 14.91 1.15 0
 6 2 12 11.89 1.18 0
 6 2 13 70.3 2.32 0
 6 2 15 67.37 2.49 0
 6 2 16 15.07 1.53 0
 6 2 17 41.35 2.17 0
 6 2 18 55.54 2.48 0
 6 3 -4 13.5 0.76 0
 6 3 -3 6.24 0.65 0
 6 3 -2 61.02 1.48 0
 6 3 4 14.49 1.07 0
 6 3 5 32.06 1.42 0
 6 3 7 55.93 1.86 0
 6 3 8 25.47 1.44 0
 6 3 9 47.06 1.83 0
 6 3 10 35.5 1.68 0
 6 3 12 2.38 0.87 0
 6 3 15 6.62 1.33 0
 6 3 16 47.32 2.15 0
 6 3 17 29.5 2.01 0
 6 4 -2 25.36 1.11 0
 6 4 0 -0.2 0.56 0
 6 4 2 25.9 1.27 0
 6 4 3 39.74 1.54 0
 6 4 4 12.85 1.1 0
 6 4 5 189.08 3.23 0
 6 4 6 57.44 1.95 0
 6 4 7 55.47 1.98 0
 6 4 10 30.16 1.62 0
 6 4 11 41.52 1.95 0
 6 4 12 77.65 2.61 0
 6 4 13 54.48 2.29 0
 6 4 14 14.13 1.43 0
 6 4 15 59.94 2.38 0
 6 4 16 22.96 1.86 0
 6 5 -3 72.22 1.85 0
 6 5 -2 22.76 1.24 0
 6 5 -1 60.06 1.84 0
 6 5 0 66.45 1.94 0
 6 5 4 70.4 2.16 0
 6 5 7 139.79 3.06 0
 6 5 9 33.11 1.72 0
 6 5 10 75.66 2.5 0
 6 5 11 87.84 2.68 0
 6 5 12 -0.51 0.89 0
 6 5 13 75.2 2.67 0
 6 5 14 59.37 2.52 0
 6 5 15 11.19 1.58 0
 6 6 -2 79.4 2.19 0
 6 6 -1 122.51 2.69 0
 6 6 2 82.47 2.34 0
 6 6 3 73.3 2.32 0
 6 6 4 31.79 1.74 0
 6 6 6 92.16 2.7 0
 6 6 7 3.82 1.15 0
 6 6 8 18.99 1.46 0
 6 6 9 84.91 2.74 0
 6 6 10 23.13 1.78 0
 6 6 11 37.08 2.09 0
 6 6 12 43.86 2.15 0
 6 6 13 36.72 2.14 0
 6 7 -1 73.21 2.29 0
 6 7 0 13.79 1.24 0
 6 7 1 77.29 2.39 0
 6 7 3 64.76 2.28 0
 6 7 4 61.45 2.36 0
 6 7 5 8.23 1.35 0
 6 7 7 32.48 1.87 0
 6 7 9 9.22 1.33 0
 6 8 0 83.18 2.59 0
 6 8 1 1.39 0.93 0
 6 8 2 7.1 1.19 0
 6 8 3 10.47 1.4 0
 6 8 4 34.53 1.99 0
 6 8 5 17.97 1.72 0
 6 8 6 17.21 1.7 0
 6 8 8 8.01 1.36 0
 7 -3 16 1.84 1.04 0
 7 -2 2 16.54 0.71 0
 7 -2 3 23.12 0.88 0
 7 -2 7 125.24 2.36 0
 7 -2 8 95.58 2.18 0
 7 -2 9 4.16 0.82 0
 7 -2 10 9.45 1 0
 7 -2 11 126.85 2.77 0
 7 -2 12 1.26 0.87 0
 7 -2 13 52.1 2.03 0
 7 -2 14 37.79 1.93 0
 7 -2 15 39.24 2 0
 7 -1 1 37.92 0.94 0
 7 -1 2 86.19 1.49 0
 7 -1 3 114.87 1.85 0
 7 -1 6 90.4 1.96 0
 7 -1 7 14.36 1.02 0
 7 -1 8 76.98 2.03 0
 7 -1 9 97.14 2.32 0
 7 -1 12 1.94 0.86 0
 7 -1 13 50.46 2.07 0
 7 -1 15 38.59 1.97 0
 7 -1 16 23.84 1.79 0
 7 -1 17 21.85 1.79 0
 7 0 0 0.47 0.29 0
 7 0 1 94.78 1.56 0
 7 0 2 804.78 4.72 0
 7 0 5 38.12 1.34 0
 7 0 6 60.46 1.68 0
 7 0 7 67.98 1.87 0
 7 0 8 4.45 0.77 0
 7 0 9 4.47 0.8 0
 7 0 10 11.28 1.16 0
 7 0 11 40.65 1.75 0
 7 0 12 7.97 1.12 0
 7 0 13 17.01 1.45 0
 7 0 14 0.66 0.87 0
 7 0 15 0.54 1.06 0
 7 0 16 93.47 2.91 0
 7 0 17 1.95 1.08 0
 7 1 -2 83.34 1.31 0
 7 1 -1 38.07 1 0
 7 1 0 376.16 3.14 0
 7 1 5 45.99 1.52 0
 7 1 6 91.39 2.08 0
 7 1 7 15.47 1.05 0
 7 1 9 95.49 2.41 0
 7 1 10 24.62 1.51 0
 7 1 12 3.31 1.05 0
 7 1 13 53.96 2.2 0
 7 1 14 33.61 1.94 0
 7 1 15 38.95 1.99 0
 7 2 -1 63.09 1.42 0
 7 2 4 190.38 2.91 0
 7 2 6 40.48 1.59 0
 7 2 8 101.73 2.45 0
 7 2 10 9.13 1.14 0
 7 2 13 54.87 2.27 0
 7 2 14 40.06 2.07 0
 7 2 15 35.52 2.07 0
 7 3 0 7.31 0.76 0
 7 3 1 1.01 0.63 0
 7 3 2 211.12 3.06 0
 7 3 3 46.32 1.6 0
 7 3 4 15.44 1.16 0
 7 3 5 46.01 1.71 0
 7 3 8 18.77 1.43 0
 7 3 9 134.29 3.03 0
 7 3 11 7.55 1.18 0
 7 3 12 3.03 1.07 0
 7 3 13 45.72 2.18 0
 7 4 -3 13.62 0.94 0
 7 4 -2 14.64 1.02 0
 7 4 0 200.4 3.08 0
 7 4 1 14.11 1.12 0
 7 4 5 22.82 1.35 0
 7 4 6 22.56 1.46 0
 7 4 8 62.72 2.16 0
 7 4 9 8.43 1.26 0
 7 4 11 53.46 2.29 0
 7 4 12 46.81 2.13 0
 7 4 13 15.83 1.68 0
 7 4 14 30.56 1.98 0
 7 5 -2 20.76 1.24 0
 7 5 -1 37.16 1.56 0
 7 5 0 1.91 0.72 0
 7 5 2 21.04 1.35 0
 7 5 3 9.64 1.19 0
 7 5 5 12.13 1.19 0
 7 5 6 19.51 1.52 0
 7 5 7 10.27 1.23 0
 7 5 9 13.61 1.41 0
 7 5 10 2.46 1.03 0
 7 5 11 5.07 1.13 0
 7 5 12 15.11 1.6 0
 7 5 13 11.72 1.54 0
 7 6 -2 53.2 1.91 0
 7 6 0 16.44 1.36 0
 7 6 1 3.18 0.88 0
 7 6 2 54.61 2.07 0
 7 6 3 14.59 1.44 0
 7 6 4 8.86 1.19 0
 7 6 7 0.09 0.88 0
 7 6 8 18.17 1.67 0
 7 6 9 6.22 1.21 0
 7 6 10 54.62 2.27 0
 7 6 11 7.76 1.3 0
 7 7 -1 0.57 0.81 0
 7 7 0 27.85 1.65 0
 7 7 1 0.4 0.82 0
 7 7 5 5.33 1.25 0
 7 7 6 3.32 1.22 0
 7 7 7 20.16 1.62 0
 7 7 8 30.51 2 0
 7 7 9 21.67 1.85 0
 7 8 1 3.77 1.04 0
 7 8 2 1.25 1.01 0
 7 8 3 7.79 1.25 0
 8 -4 10 19.01 1.3 0
 8 -4 12 0.34 0.84 0
 8 -4 13 53.09 2.04 0
 8 -3 8 41.84 1.56 0
 8 -3 11 105.81 2.6 0
 8 -3 12 14.12 1.34 0
 8 -3 13 4.49 0.95 0
 8 -3 14 3.41 1.08 0
 8 -2 6 68.18 1.74 0
 8 -2 7 55.37 1.69 0
 8 -2 8 0.34 0.63 0
 8 -2 10 1.57 0.74 0
 8 -2 11 10.53 1.23 0
 8 -2 12 -0.69 0.88 0
 8 -2 13 42.19 1.92 0
 8 -2 14 7.15 1.17 0
 8 -1 5 131.73 2.3 0
 8 -1 6 20.04 1.11 0
 8 -1 8 4.18 0.87 0
 8 -1 10 49.69 1.9 0
 8 -1 11 106.13 2.68 0
 8 -1 12 12.82 1.26 0
 8 -1 13 27.22 1.65 0
 8 -1 14 1.32 0.95 0
 8 -1 15 43.31 2.08 0
 8 0 5 0.13 0.52 0
 8 0 6 14.75 1.08 0
 8 0 7 80.21 2.09 0
 8 0 9 15.22 1.29 0
 8 0 10 6.73 1.02 0
 8 0 11 49.8 2.01 0
 8 0 12 46.75 1.98 0
 8 0 13 39.14 1.95 0
 8 0 15 -0.57 0.85 0
 8 1 2 25.45 1.08 0
 8 1 3 42.03 1.37 0
 8 1 4 47.56 1.53 0
 8 1 5 137.43 2.58 0
 8 1 6 21.14 1.28 0
 8 1 7 119.23 2.6 0
 8 1 8 4.48 0.93 0
 8 1 9 67.45 2.17 0
 8 1 10 46.12 1.94 0
 8 1 11 110.73 2.87 0
 8 1 12 13.24 1.38 0
 8 1 14 0.91 0.93 0
 8 2 0 82.97 1.76 0
 8 2 1 79.1 1.77 0
 8 2 2 34.97 1.33 0
 8 2 3 36.63 1.41 0
 8 2 4 24.51 1.28 0
 8 2 6 68.37 2.06 0
 8 2 7 53.49 1.93 0
 8 2 9 16.51 1.35 0
 8 2 10 2.65 0.9 0
 8 2 11 9.36 1.23 0
 8 2 12 -0.51 0.98 0
 8 2 13 41.02 2.07 0
 8 3 -1 136.81 2.3 0
 8 3 0 5.07 0.75 0
 8 3 1 140.17 2.52 0
 8 3 2 84.66 2.06 0
 8 3 3 57.36 1.82 0
 8 3 5 46.74 1.81 0
 8 3 6 33.35 1.59 0
 8 3 7 34.37 1.66 0
 8 3 8 42.76 1.93 0
 8 3 9 25.15 1.6 0
 8 3 11 110.23 2.98 0
 8 4 -2 17.64 1.07 0
 8 4 -1 20.01 1.16 0
 8 4 0 56.55 1.77 0
 8 4 1 22.84 1.33 0
 8 4 2 18.98 1.26 0
 8 4 3 14.47 1.23 0
 8 4 4 36.41 1.69 0
 8 4 5 7.28 1.02 0
 8 4 6 11.52 1.29 0
 8 4 8 4.14 1.02 0
 8 4 9 114.71 3.02 0
 8 4 10 18.83 1.67 0
 8 4 11 10.36 1.46 0
 8 4 12 0.82 0.94 0
 8 5 -2 1.5 0.68 0
 8 5 0 42.75 1.71 0
 8 5 1 54.23 1.92 0
 8 5 2 2.41 0.94 0
 8 5 4 19.6 1.43 0
 8 5 5 163.73 3.45 0
 8 5 7 7.48 1.26 0
 8 5 8 3.45 1.03 0
 8 5 10 1.68 1.06 0
 8 5 11 11.58 1.49 0
 8 6 -1 0.19 0.73 0
 8 6 0 31.74 1.64 0
 8 6 1 1.78 0.89 0
 8 6 2 13.51 1.36 0
 8 6 3 54.99 2.16 0
 8 6 4 9.87 1.24 0
 8 6 5 3.2 0.95 0
 8 6 8 -0.74 1.03 0
 8 7 2 61.78 2.24 0
 8 7 3 20.77 1.61 0
 8 7 4 5.73 1.19 0
 9 -1 10 35.75 1.68 0
 9 -1 12 9.49 1.2 0
 9 0 8 92.46 2.34 0
 9 0 9 25.16 1.44 0
 9 0 10 12.19 1.21 0
 9 0 11 2.07 0.85 0
 9 0 12 32.64 1.78 0
 9 1 6 11.34 1.07 0
 9 1 7 17.11 1.27 0
 9 1 8 10.59 1.28 0
 9 1 9 22.05 1.44 0
 9 1 10 37.22 1.8 0
 9 1 11 50.01 2.03 0
 9 2 5 10.29 1.07 0
 9 2 6 64.5 2.02 0
 9 2 7 13.87 1.27 0
 9 2 9 39.71 1.82 0
 9 2 10 14.15 1.38 0
 9 2 11 14.87 1.42 0
 9 3 5 0.33 0.69 0
 9 3 6 7.56 1.06 0
 9 3 7 8.45 1.18 0
 9 3 8 49.52 2.02 0
 9 3 9 6.7 1.16 0
 9 3 10 31.47 1.76 0
 9 4 4 59.21 2.04 0
 9 4 5 16.16 1.32 0
 9 4 6 38.36 1.81 0
 9 4 7 6.87 1.13 0
 9 4 8 87.7 2.6 0
 9 4 9 12.57 1.48 0
 9 5 2 39.08 1.7 0
 9 5 3 6.22 0.96 0
 9 5 4 4.88 1.06 0
 9 5 6 31.99 1.75 0
 9 5 7 8.07 1.19 0
 9 6 2 7.71 1.11 0
 9 6 3 12.34 1.34 0
 -3 4 2 44.09 0.38 0
 -3 4 3 699.4 1.99 0
 -3 5 1 277.97 1.07 0
 -3 5 2 40.3 0.5 0
 -3 5 3 13.51 0.36 0
 -3 5 4 1.54 0.21 0
 -3 5 5 91.3 1.06 0
 -2 3 -2 430.9 1.55 0
 -2 3 0 0.1 0.08 0
 -2 3 1 325.67 1.22 0
 -2 4 -4 306.61 1.9 0
 -2 4 -3 129.89 1.15 0
 -2 4 -2 10.49 0.35 0
 -2 4 -1 409.07 1.75 0
 -2 4 0 25.14 0.46 0
 -2 4 1 414.8 1.8 0
 -2 4 2 11 0.36 0
 -2 5 -5 63.21 1.06 0
 -2 5 -4 122.5 1.36 0
 -2 5 -3 371.73 2.17 0
 -2 5 -2 4.34 0.33 0
 -2 5 -1 249.43 1.66 0
 -2 5 0 476.27 2.27 0
 -2 5 1 255.29 1.71 0
 -2 5 2 3.67 0.32 0
 -2 5 3 381.91 2.27 0
 -2 5 4 118.12 1.33 0
 -2 6 -5 53.37 1.05 0
 -2 6 -4 1.69 0.33 0
 -2 6 -3 4.52 0.41 0
 -2 6 -1 156.7 1.51 0
 -2 6 0 11.93 0.49 0
 -2 6 1 158.63 1.54 0
 -2 6 2 250.48 1.98 0
 -2 6 3 6.02 0.43 0
 -2 6 4 2.02 0.32 0
 -2 6 5 56.5 1.09 0
 -2 6 6 13.44 0.64 0
 -2 7 -4 12.88 0.62 0
 -2 7 -1 2.31 0.35 0
 -2 7 0 18.88 0.64 0
 -2 7 1 3.56 0.41 0
 -2 7 2 41.72 0.92 0
 -2 7 3 27.99 0.8 0
 -2 7 4 12.66 0.62 0
 -2 7 5 56.82 1.2 0
 -2 7 9 23.18 0.95 0
 -2 7 10 175.99 2.47 0
 -1 2 -3 937.55 2.6 0
 -1 2 -1 117.96 0.73 0
 -1 2 0 1.84 0.14 0
 -1 3 -5 41.93 0.8 0
 -1 3 -4 141.17 1.28 0
 -1 3 -3 727.49 2.63 0
 -1 3 -2 91.31 0.89 0
 -1 3 -1 594.97 2.14 0
 -1 3 0 347.31 1.64 0
 -1 3 1 604.14 2.18 0
 -1 4 -6 60.84 1.12 0
 -1 4 -5 86.03 1.22 0
 -1 4 -4 23.82 0.64 0
 -1 4 -3 230.7 1.73 0
 -1 4 -2 52.49 0.83 0
 -1 4 0 4.84 0.33 0
 -1 4 1 243.96 1.72 0
 -1 4 2 54.19 0.85 0
 -1 5 -7 227.09 2.35 0
 -1 5 -6 101.68 1.52 0
 -1 5 -5 58.46 1.11 0
 -1 5 -4 7.9 0.5 0
 -1 5 -3 573.03 3.06 0
 -1 5 -2 138.16 1.51 0
 -1 5 -1 205.43 1.81 0
 -1 5 0 15.43 0.58 0
 -1 5 1 205.32 1.83 0
 -1 5 2 140.57 1.57 0
 -1 5 3 568.71 3.12 0
 -1 5 4 8.41 0.51 0
 -1 6 -6 16.18 0.77 0
 -1 6 -5 152.92 1.93 0
 -1 6 -2 132.88 1.67 0
 -1 6 -1 174.05 1.89 0
 -1 6 0 47.25 1.01 0
 -1 6 1 173.24 1.9 0
 -1 6 2 132.75 1.69 0
 -1 6 3 103.17 1.54 0
 -1 6 4 108.08 1.61 0
 -1 6 6 16.85 0.75 0
 -1 7 -7 27.74 0.99 0
 -1 7 -1 73.02 1.38 0
 -1 7 0 249.56 2.46 0
 -1 7 2 23.14 0.82 0
 -1 7 7 27.44 1.03 0
 -1 7 8 0.47 0.49 0
 -1 8 -7 26.99 1.1 0
 -1 8 -6 1.87 0.53 0
 -1 8 -5 75.22 1.58 0
 -1 8 -3 0.74 0.44 0
 -1 8 -2 104.34 1.75 0
 -1 8 0 35.94 1.08 0
 -1 8 1 39.66 1.14 0
 -1 8 2 105.1 1.77 0
 -1 8 3 0.8 0.42 0
 -1 8 4 40.63 1.19 0
 -1 8 7 26.44 1.09 0
 -1 8 8 6.26 0.73 0
 -1 8 9 70.56 1.72 0
 -1 8 10 4.17 0.65 0
 -1 8 11 4.21 0.66 0
 -1 8 13 26.79 1.28 0
 0 1 -4 3168.08 5.31 0
 0 1 -3 137.62 1 0
 0 1 -2 9978.95 6.96 0
 0 1 -1 511.42 1.37 0
 0 1 0 0.2 0.09 0
 0 2 -6 3719.45 7.42 0
 0 2 -5 181.58 1.56 0
 0 2 -4 83.62 1.01 0
 0 2 -3 1351.85 3.47 0
 0 2 -2 3241.65 5.02 0
 0 2 -1 66.48 0.7 0
 0 2 0 71.11 0.71 0
 0 3 -7 409.79 2.86 0
 0 3 -6 72.02 1.15 0
 0 3 -5 318.93 2.21 0
 0 3 -4 758.4 3.18 0
 0 3 -2 0.59 0.23 0
 0 3 -1 48.19 0.76 0
 0 3 0 0.22 0.25 0
 0 3 1 49.5 0.79 0
 0 4 -8 215.92 2.37 0
 0 4 -7 138.02 1.82 0
 0 4 -6 186.05 2 0
 0 4 -5 23.42 0.74 0
 0 4 -4 58.22 1.03 0
 0 4 -3 1.49 0.29 0
 0 4 -2 49.47 0.92 0
 0 4 -1 602.15 3 0
 0 4 0 708.25 3.26 0
 0 4 1 610.78 3.06 0
 0 4 2 47.81 0.91 0
 0 5 -7 16.75 0.81 0
 0 5 -6 0.51 0.35 0
 0 5 -5 108.31 1.62 0
 0 5 -4 79.34 1.33 0
 0 5 -3 354.35 2.7 0
 0 5 -2 90.77 1.39 0
 0 5 -1 54.48 1.09 0
 0 5 0 0.31 0.3 0
 0 5 1 56.63 1.14 0
 0 5 2 94.24 1.41 0
 0 5 3 352.69 2.74 0
 0 5 4 81.58 1.43 0
 0 6 -9 1.91 0.53 0
 0 6 -8 56.11 1.41 0
 0 6 -4 11.29 0.71 0
 0 6 -3 35.37 1.01 0
 0 6 -2 9.57 0.64 0
 0 6 -1 98.27 1.58 0
 0 6 0 148.52 1.94 0
 0 6 1 98.25 1.6 0
 0 6 2 8.94 0.65 0
 0 6 3 36.64 1.07 0
 0 6 4 10.69 0.66 0
 0 7 -9 46.11 1.46 0
 0 7 -7 3.98 0.6 0
 0 7 -6 20.12 0.97 0
 0 7 -5 66.36 1.51 0
 0 7 -4 11.12 0.76 0
 0 7 4 10.79 0.79 0
 0 7 6 21.15 0.95 0
 0 7 7 4.37 0.6 0
 0 7 8 47.94 1.42 0
 0 7 9 44.61 1.49 0
 0 8 -9 64.72 1.78 0
 0 8 -8 2.71 0.71 0
 0 8 -7 30.18 1.26 0
 0 8 -6 131.47 2.29 0
 0 8 -5 7.03 0.87 0
 0 8 -4 1.47 0.53 0
 0 8 -3 2.6 0.54 0
 0 8 -1 1.7 0.51 0
 0 8 1 2.07 0.58 0
 0 8 2 43.46 1.33 0
 0 8 3 2.87 0.62 0
 0 8 4 1.65 0.55 0
 0 8 5 7.57 0.81 0
 0 8 7 30.78 1.24 0
 0 8 9 61.92 1.72 0
 0 8 11 21.1 1.22 0
 0 8 12 8.84 1.06 0
 0 8 13 50.51 1.77 0
 0 8 14 0.4 0.69 0
 0 8 15 0.5 0.63 0
 0 9 -8 134.09 2.48 0
 0 9 -7 2.14 0.64 0
 0 9 -6 7.76 0.88 0
 0 9 -5 1.29 0.56 0
 0 9 -4 184.83 2.75 0
 0 9 -3 0.58 0.5 0
 0 9 -2 18.59 1 0
 0 9 -1 0.67 0.52 0
 0 9 0 -0.02 0.48 0
 0 9 2 19.99 1.04 0
 0 9 3 1.27 0.59 0
 0 9 4 186.78 2.82 0
 0 9 5 1.7 0.6 0
 0 9 6 7.11 0.82 0
 0 9 9 8.79 0.97 0
 0 9 10 24.07 1.31 0
 0 9 11 17.19 1.19 0
 1 0 -3 1309.6 2.9 0
 1 0 -2 220.91 1.01 0
 1 0 -1 1383.96 2.05 0
 1 1 -6 36.39 0.78 0
 1 1 -5 810.14 3.15 0
 1 1 -4 285.85 1.72 0
 1 1 -3 2062.88 4.1 0
 1 1 -2 205.08 1.22 0
 1 1 -1 243.15 1.23 0
 1 1 0 129.78 0.89 0
 1 2 -6 32.2 0.78 0
 1 2 -5 763.49 3.31 0
 1 2 -4 292.1 1.96 0
 1 2 -3 945.26 3.29 0
 1 2 -2 514.08 2.33 0
 1 2 -1 123.94 1.14 0
 1 2 0 1.92 0.27 0
 1 3 -8 67.78 1.35 0
 1 3 -6 98.57 1.4 0
 1 3 -4 145.94 1.58 0
 1 3 -3 745.62 3.36 0
 1 3 -2 90.95 1.19 0
 1 3 -1 612.49 2.94 0
 1 3 0 354.53 2.25 0
 1 3 1 618.13 2.94 0
 1 4 -8 63.69 1.41 0
 1 4 -7 415.56 3.25 0
 1 4 -5 85.51 1.41 0
 1 4 -4 24.23 0.79 0
 1 4 -3 236.44 2.17 0
 1 4 -2 54.12 1.07 0
 1 4 -1 240.19 2.13 0
 1 4 0 4.47 0.38 0
 1 4 1 238.66 2.12 0
 1 4 2 53.76 1.06 0
 1 5 -10 17.8 0.98 0
 1 5 -9 87.6 1.79 0
 1 5 -3 576.58 3.74 0
 1 5 -2 140.07 1.89 0
 1 5 -1 204.2 2.22 0
 1 5 0 15.61 0.72 0
 1 5 1 209.37 2.29 0
 1 5 2 142.68 1.93 0
 1 5 3 562.34 3.72 0
 1 5 4 7.89 0.59 0
 1 6 -10 1.17 0.55 0
 1 6 -9 1.63 0.54 0
 1 6 -8 76.43 1.71 0
 1 6 -6 16.44 0.84 0
 1 6 6 15.22 0.9 0
 1 7 -10 31.25 1.39 0
 1 7 -8 0.32 0.61 0
 1 7 -7 28.19 1.23 0
 1 7 -6 57.96 1.54 0
 1 7 -5 79.84 1.75 0
 1 7 -4 87.01 1.83 0
 1 7 -3 47.07 1.36 0
 1 7 -1 74.71 1.65 0
 1 7 1 72.73 1.63 0
 1 7 3 48.5 1.43 0
 1 7 4 89.62 1.91 0
 1 7 5 83.38 1.85 0
 1 7 6 59.11 1.59 0
 1 7 8 -0.25 0.52 0
 1 8 -10 3.17 0.78 0
 1 8 -9 67.23 1.93 0
 1 8 -8 5.95 0.81 0
 1 8 -7 25.47 1.22 0
 1 8 -6 2.4 0.64 0
 1 8 -5 71.91 1.8 0
 1 8 -4 38.52 1.37 0
 1 8 -1 40.73 1.34 0
 1 8 1 43.43 1.41 0
 1 8 2 104.67 2.14 0
 1 8 3 0.27 0.53 0
 1 8 5 75.92 1.91 0
 1 8 6 2.27 0.66 0
 1 8 8 6.25 0.86 0
 1 8 9 68.9 1.94 0
 1 8 10 5.13 0.84 0
 1 8 11 4.15 0.84 0
 1 8 12 17.43 1.28 0
 1 8 13 32.38 1.57 0
 1 8 14 4.35 0.93 0
 1 8 15 22.32 1.44 0
 1 9 -10 5.35 0.92 0
 1 9 -9 26.25 1.36 0
 1 9 -8 20.35 1.29 0
 1 9 -7 33.61 1.48 0
 1 9 -6 13.11 1.06 0
 1 9 -5 5.27 0.81 0
 1 9 -4 4.86 0.76 0
 1 9 -3 12.69 0.98 0
 1 9 -2 24.23 1.25 0
 1 9 0 10.32 0.93 0
 1 9 1 11.22 1.01 0
 1 9 2 25.98 1.28 0
 1 9 3 14.21 1.01 0
 1 9 4 5.39 0.77 0
 1 9 6 14.17 1.14 0
 1 9 8 18.3 1.25 0
 1 9 9 30.02 1.49 0
 1 9 10 4.11 0.82 0
 1 9 11 33.51 1.59 0
 1 9 12 3.76 0.84 0
 1 9 13 52.08 1.87 0
 1 10 -9 5.91 0.87 0
 1 10 -8 0.02 0.69 0
 1 10 -7 5.86 0.86 0
 1 10 -6 35.88 1.5 0
 1 10 -4 10.83 0.98 0
 1 10 -3 16.68 1.14 0
 1 10 -2 9.91 1 0
 1 10 -1 37.29 1.45 0
 1 10 0 1.13 0.67 0
 1 10 1 40.89 1.56 0
 1 10 2 7.7 0.93 0
 1 10 3 18.01 1.2 0
 1 10 4 12.62 1.08 0
 1 10 5 6.34 0.85 0
 1 10 6 35.54 1.52 0
 1 10 8 0.82 0.65 0
 1 10 9 5.59 0.9 0
 2 0 -4 312.53 1.76 0
 2 0 -3 103.23 0.93 0
 2 0 -1 943.36 2.23 0
 2 0 0 5478.88 5.22 0
 2 1 -5 31.88 0.7 0
 2 1 -4 1887.31 4.71 0
 2 1 -3 342.81 1.93 0
 2 1 -2 1087.5 3.23 0
 2 1 -1 112.97 1.04 0
 2 1 0 5942.55 7.21 0
 2 2 -8 240.82 2.43 0
 2 2 -4 155.04 1.58 0
 2 2 -3 194.53 1.68 0
 2 2 -2 1960.29 5.09 0
 2 2 -1 551.2 2.69 0
 2 2 0 5.08 0.37 0
 2 2 1 548.65 2.67 0
 2 3 -8 132.07 1.95 0
 2 3 -7 13.28 0.66 0
 2 4 -11 24.09 1.08 0
 2 4 -10 58.31 1.52 0
 2 4 -5 230.12 2.43 0
 2 4 -4 312.36 2.75 0
 2 4 -3 127.72 1.75 0
 2 4 -2 10.87 0.57 0
 2 4 -1 419.75 3.04 0
 2 4 0 25.49 0.83 0
 2 4 1 427.35 3.1 0
 2 4 2 10.94 0.62 0
 2 4 3 127.75 1.75 0
 2 5 -11 15.26 1.03 0
 2 5 -10 1.31 0.57 0
 2 5 -8 36.28 1.2 0
 2 5 -3 381.67 3.29 0
 2 5 -2 4.15 0.5 0
 2 5 -1 258.14 2.67 0
 2 5 0 488.86 3.67 0
 2 5 1 257.48 2.69 0
 2 5 2 4.96 0.54 0
 2 5 3 380.99 3.33 0
 2 6 -11 4.78 0.81 0
 2 6 -10 133.37 2.51 0
 2 6 -9 10.86 0.86 0
 2 6 -8 53.45 1.57 0
 2 6 -7 19.69 1.07 0
 2 6 -6 14.93 0.84 0
 2 6 -5 55.6 1.5 0
 2 6 -4 2.27 0.5 0
 2 6 5 57.5 1.53 0
 2 6 6 14.63 0.94 0
 2 7 -11 14.03 1.16 0
 2 7 -9 22.96 1.26 0
 2 7 -6 256.89 3.3 0
 2 7 -5 56.86 1.61 0
 2 7 -4 14.3 0.91 0
 2 7 -1 3.35 0.65 0
 2 7 0 18.45 1 0
 2 7 3 31.59 1.26 0
 2 7 6 261.55 3.44 0
 2 7 7 3.67 0.73 0
 2 7 9 25.29 1.35 0
 2 7 10 176.74 3.13 0
 2 8 -10 22.08 1.37 0
 2 8 -9 2.23 0.87 0
 2 8 -8 191.25 3.14 0
 2 8 -7 23.09 1.29 0
 2 8 -6 47.73 1.67 0
 2 8 -5 2.12 0.72 0
 2 8 -4 154.49 2.71 0
 2 8 -2 31.61 1.36 0
 2 8 -1 3.11 0.72 0
 2 8 0 -0.05 0.52 0
 2 8 2 32.64 1.41 0
 2 8 5 1.06 0.71 0
 2 8 7 24.16 1.38 0
 2 8 9 2.37 0.75 0
 2 8 10 23.62 1.44 0
 2 8 11 6.98 0.95 0
 2 8 13 2.94 0.86 0
 2 8 14 20.2 1.38 0
 2 9 -11 15.68 1.37 0
 2 9 -10 4.81 0.92 0
 2 9 -9 57.53 1.97 0
 2 9 -8 5.95 0.94 0
 2 9 -7 12.86 1.17 0
 2 9 -6 9.77 1.11 0
 2 9 -5 34.37 1.52 0
 2 9 -4 85.36 2.18 0
 2 9 -3 0.76 0.65 0
 2 9 -2 2.66 0.74 0
 2 9 -1 2.42 0.7 0
 2 9 2 2.28 0.7 0
 2 9 3 1.94 0.7 0
 2 9 4 91.88 2.29 0
 2 9 5 31.51 1.5 0
 2 9 7 10.96 1.06 0
 2 9 10 4.57 1.03 0
 2 9 11 14.06 1.26 0
 2 9 12 15.97 1.29 0
 2 10 -8 4.34 0.93 0
 2 10 -7 31.75 1.56 0
 2 10 -6 3.07 0.78 0
 2 10 -5 6.59 1 0
 2 10 -4 13.07 1.16 0
 2 10 -2 46.31 1.71 0
 2 10 -1 4.09 0.82 0
 2 10 0 42.43 1.69 0
 2 10 1 3.44 0.78 0
 2 10 4 13.64 1.24 0
 2 10 5 4.98 0.87 0
 2 10 6 1.79 0.73 0
 2 10 7 31.24 1.53 0
 2 10 8 5.28 0.9 0
 3 -1 -2 380.22 1.41 0
 3 -1 -1 498.1 1.38 0
 3 0 -4 1243.1 3.75 0
 3 0 -3 349.71 1.84 0
 3 0 -2 255.91 1.48 0
 3 0 -1 147.85 1.1 0
 3 0 0 0.37 0.16 0
 3 0 1 144.06 1.09 0
 3 1 -7 7.48 0.5 0
 3 1 -6 226.86 2.08 0
 3 1 -3 148.07 1.42 0
 3 1 -2 395.73 2.23 0
 3 1 -1 515.99 2.48 0
 3 1 1 512.7 2.48 0
 3 2 -8 191.63 2.28 0
 3 2 -7 186.87 2.15 0
 3 2 -6 144.03 1.77 0
 3 2 -5 419.29 2.85 0
 3 3 -10 17.74 0.98 0
 3 3 -7 401.7 3.31 0
 3 3 -6 5.45 0.57 0
 3 3 -5 322.97 2.76 0
 3 3 -4 20.7 0.75 0
 3 3 -3 280.24 2.48 0
 3 3 -2 26.03 0.79 0
 3 3 -1 394.98 2.88 0
 3 3 1 406.03 2.94 0
 3 3 2 25.79 0.82 0
 3 3 3 280.39 2.54 0
 3 4 -11 40.18 1.44 0
 3 4 -10 20 1.07 0
 3 4 -9 37.75 1.24 0
 3 4 -8 123.44 2.08 0
 3 4 -5 151.27 2.13 0
 3 4 -4 155.28 2.11 0
 3 4 -3 722.82 4.39 0
 3 4 -1 364.33 3.07 0
 3 4 1 363.02 3.1 0
 3 4 2 45.98 1.18 0
 3 4 3 698.01 4.34 0
 3 5 -12 37.25 1.53 0
 3 5 -11 38.06 1.48 0
 3 5 -10 55.6 1.69 0
 3 5 -9 14.48 0.99 0
 3 5 -8 20.38 1.05 0
 3 5 -7 88.64 1.84 0
 3 6 -12 26.88 1.47 0
 3 6 -11 3.32 0.81 0
 3 6 -10 0.87 0.61 0
 3 6 -7 73.75 1.8 0
 3 6 -6 27.35 1.2 0
 3 6 -5 11.65 0.9 0
 3 6 -4 67.94 1.68 0
 3 6 -3 277.89 3.31 0
 3 6 -2 26.59 1.15 0
 3 6 -1 121.07 2.17 0
 3 6 3 271.7 3.29 0
 3 6 4 68.48 1.77 0
 3 6 6 27.17 1.24 0
 3 6 8 26.2 1.29 0
 3 7 -12 13.74 1.27 0
 3 7 -11 5.71 0.94 0
 3 7 -10 5.32 0.87 0
 3 7 -9 9.16 1.08 0
 3 7 -8 41.3 1.63 0
 3 7 -7 13.39 1.04 0
 3 7 -6 43.49 1.52 0
 3 7 -5 131.68 2.49 0
 3 7 -4 35.09 1.36 0
 3 7 -3 19.21 1.07 0
 3 7 -2 36.57 1.4 0
 3 7 2 37.93 1.46 0
 3 7 5 136.37 2.62 0
 3 7 6 44.16 1.63 0
 3 7 7 14.84 1.08 0
 3 7 9 8.66 1.02 0
 3 7 10 6.36 0.89 0
 3 7 11 6.08 1 0
 3 7 12 15.93 1.33 0
 3 7 13 22.61 1.57 0
 3 8 -12 60.03 2.13 0
 3 8 -11 4.86 0.95 0
 3 8 -10 67.71 2.18 0
 3 8 -9 50.96 1.88 0
 3 8 -7 28.24 1.48 0
 3 8 -6 41.9 1.59 0
 3 8 -5 16.04 1.22 0
 3 8 -3 42.77 1.62 0
 3 8 -2 11.9 1.13 0
 3 8 -1 3.72 0.74 0
 3 8 2 12.55 1.1 0
 3 8 3 43.55 1.65 0
 3 8 7 28.95 1.45 0
 3 8 9 52.89 1.9 0
 3 8 11 6.14 0.98 0
 3 8 12 61.45 2.12 0
 3 8 13 32.48 1.68 0
 3 8 14 12.08 1.44 0
 3 9 -11 12.68 1.38 0
 3 9 -10 46.15 1.93 0
 3 9 -9 2.69 0.86 0
 3 9 -8 77.08 2.32 0
 3 9 -7 10.85 1.18 0
 3 9 -5 20.97 1.38 0
 3 9 -4 8.19 0.99 0
 3 9 -3 1.26 0.72 0
 3 9 -2 73.14 2.16 0
 3 9 0 15.63 1.24 0
 3 9 1 25.26 1.42 0
 3 9 2 73.86 2.16 0
 3 9 3 2 0.88 0
 3 9 4 9.21 1.05 0
 3 9 6 28.81 1.56 0
 3 9 7 12.63 1.21 0
 3 9 9 3.03 0.99 0
 3 9 11 12.19 1.45 0
 3 10 -7 2.64 0.89 0
 3 10 -6 43.3 1.82 0
 3 10 -5 3.22 0.86 0
 3 10 -4 13.47 1.19 0
 3 10 -3 3.16 0.81 0
 3 10 -2 13.04 1.22 0
 3 10 -1 0.09 0.68 0
 3 10 0 11.45 1.17 0
 3 10 1 0.7 0.77 0
 3 10 3 1.66 0.78 0
 3 10 4 13.91 1.3 0
 3 10 5 3.34 0.95 0
 3 10 6 51.88 1.99 0
 4 -1 -2 44.98 0.58 0
 4 -1 -1 412.7 1.52 0
 4 -1 0 541.38 1.7 0
 4 -1 2 44.8 0.58 0
 4 0 -5 1.63 0.29 0
 4 0 -1 59.6 0.82 0
 4 0 0 338.41 1.87 0
 4 0 1 61.04 0.84 0
 4 1 -8 80.51 1.47 0
 4 1 -7 130.22 1.76 0
 4 1 -6 218.38 2.16 0
 4 1 -5 131.09 1.6 0
 4 1 -4 181.32 1.79 0
 4 1 -3 35.81 0.81 0
 4 2 -10 219.88 2.82 0
 4 2 -7 161.11 2.13 0
 4 2 -6 174.01 2.09 0
 4 2 -5 93.45 1.52 0
 4 2 -4 17.68 0.74 0
 4 2 -3 228.7 2.2 0
 4 2 -2 215.63 2.1 0
 4 2 -1 165.27 1.81 0
 4 2 0 88.08 1.35 0
 4 2 1 175.75 1.9 0
 4 2 2 210.17 2.09 0
 4 2 3 225.48 2.22 0
 4 3 -11 44.35 1.47 0
 4 3 -10 25.11 1.14 0
 4 3 -9 102.94 1.96 0
 4 3 -5 422.6 3.41 0
 4 3 -4 36.67 1.08 0
 4 3 -3 122.16 1.81 0
 4 3 -2 41.74 1.06 0
 4 3 -1 181.22 2.15 0
 4 3 1 188.16 2.21 0
 4 3 2 43.9 1.14 0
 4 3 3 124.43 1.85 0
 4 3 4 36.41 1.07 0
 4 4 -12 97.93 2.26 0
 4 4 -11 28.83 1.33 0
 4 4 -10 45.58 1.53 0
 4 4 -9 3.15 0.6 0
 4 4 -8 10.02 0.78 0
 4 4 -7 58.4 1.53 0
 4 4 -6 78.48 1.66 0
 4 5 -12 90.86 2.27 0
 4 5 -11 37.64 1.56 0
 4 5 -10 152.66 2.8 0
 4 5 -9 4 0.75 0
 4 5 -8 116.79 2.33 0
 4 5 -7 33.48 1.31 0
 4 5 -6 35.33 1.24 0
 4 5 -5 8.98 0.8 0
 4 5 -3 44.59 1.35 0
 4 5 -2 54.08 1.47 0
 4 5 -1 98.83 1.92 0
 4 5 0 0.02 0.44 0
 4 5 2 53.16 1.48 0
 4 5 3 45.77 1.41 0
 4 5 4 26.1 1.1 0
 4 5 5 9.61 0.84 0
 4 5 6 36.81 1.34 0
 4 5 7 35.43 1.32 0
 4 6 -12 30.16 1.6 0
 4 6 -9 47.82 1.72 0
 4 6 -8 25.53 1.33 0
 4 6 -5 49.68 1.61 0
 4 6 -4 4.03 0.76 0
 4 6 -2 22.4 1.15 0
 4 6 0 0.49 0.57 0
 4 6 3 74.05 1.91 0
 4 6 4 2.93 0.68 0
 4 6 5 49.77 1.65 0
 4 6 7 9.79 0.98 0
 4 6 8 23.16 1.22 0
 4 6 9 47.25 1.69 0
 4 6 11 4.23 0.84 0
 4 7 -12 25.78 1.6 0
 4 7 -11 14.96 1.3 0
 4 7 -10 14.55 1.3 0
 4 7 -9 20.7 1.38 0
 4 7 -7 5.95 0.94 0
 4 7 -5 54.38 1.73 0
 4 7 -3 34.73 1.52 0
 4 7 -2 14.08 1.04 0
 4 7 0 0.7 0.57 0
 4 7 1 78.67 2.07 0
 4 7 2 13.09 1.06 0
 4 7 3 33.8 1.46 0
 4 7 5 59.93 1.95 0
 4 7 7 5.96 0.9 0
 4 7 9 18.46 1.28 0
 4 7 10 13.21 1.24 0
 4 7 11 15.7 1.27 0
 4 7 12 31.58 1.67 0
 4 7 13 42.35 1.89 0
 4 7 14 3.33 0.92 0
 4 7 15 44.4 2.02 0
 4 8 -12 20.19 1.52 0
 4 8 -11 55.46 2.06 0
 4 8 -10 31.38 1.72 0
 4 8 -9 18.39 1.32 0
 4 8 -7 35.47 1.63 0
 4 8 -6 7.76 1.03 0
 4 8 -5 7.67 1 0
 4 8 -4 33.02 1.55 0
 4 8 -2 17.08 1.2 0
 4 8 -1 13.7 1.15 0
 4 8 0 6.4 0.98 0
 4 8 2 15.59 1.28 0
 4 8 4 31.98 1.55 0
 4 8 6 7.09 1.07 0
 4 8 8 77.14 2.37 0
 4 8 9 19.07 1.47 0
 4 8 11 58.9 2.17 0
 4 8 12 19.29 1.54 0
 4 9 -8 25.9 1.58 0
 4 9 -7 16.68 1.41 0
 4 9 -5 15.16 1.28 0
 4 9 -4 37.51 1.66 0
 4 9 -3 15.88 1.32 0
 4 9 -2 1.63 0.84 0
 4 9 0 65.81 2.14 0
 4 9 1 -0.22 0.69 0
 4 9 2 2.08 0.82 0
 4 9 3 16.87 1.37 0
 4 9 4 39.74 1.81 0
 4 9 5 13.54 1.19 0
 4 9 6 28.67 1.61 0
 4 9 7 16.49 1.36 0
 4 9 8 25.8 1.58 0
 4 10 -4 8.95 1.21 0
 4 10 -3 10.94 1.28 0
 4 10 -2 16.41 1.36 0
 4 10 -1 5.46 0.98 0
 4 10 0 1.25 0.84 0
 4 10 1 4.86 0.97 0
 4 10 3 10.81 1.34 0
 4 10 4 12.74 1.39 0
 5 -2 3 44.74 0.36 0
 5 -1 4 161.91 1.39 0
 5 0 -6 2.02 0.37 0
 5 0 -5 287.72 2.25 0
 5 0 -4 618.67 3.09 0
 5 0 -3 73 1.05 0
 5 0 -1 385.99 2.24 0
 5 0 0 0.22 0.21 0
 5 0 1 390.47 2.28 0
 5 0 2 217.94 1.78 0
 5 0 3 74.82 1.09 0
 5 0 4 620.09 3.2 0
 5 1 -7 113.49 1.76 0
 5 1 -6 363.36 2.92 0
 5 1 -5 12.49 0.6 0
 5 1 -4 161.31 1.82 0
 5 1 -3 281.12 2.33 0
 5 1 -2 758.43 3.71 0
 5 1 -1 184.23 1.84 0
 5 1 0 456.86 2.86 0
 5 1 1 183.26 1.85 0
 5 1 2 757.6 3.79 0
 5 1 3 285.2 2.4 0
 5 1 4 161.5 1.86 0
 5 2 -9 35.34 1.22 0
 5 2 -5 86.91 1.56 0
 5 2 -4 237.25 2.46 0
 5 2 -3 45.66 1.13 0
 5 2 -2 262.19 2.5 0
 5 2 0 232.79 2.34 0
 5 2 1 50.95 1.14 0
 5 2 2 264.64 2.57 0
 5 2 4 233.72 2.49 0
 5 2 5 88.53 1.63 0
 5 3 -11 12.15 0.96 0
 5 3 -10 182.88 2.86 0
 5 3 -9 1.64 0.57 0
 5 3 -8 284.01 3.26 0
 5 3 -7 177.45 2.51 0
 5 3 -1 61.3 1.39 0
 5 3 0 82.89 1.61 0
 5 3 1 60.14 1.41 0
 5 3 2 49.27 1.28 0
 5 4 -12 23.96 1.3 0
 5 4 -11 8.9 1 0
 5 4 -10 30.23 1.38 0
 5 4 -9 57.11 1.69 0
 5 4 -8 62.93 1.72 0
 5 4 -7 51.38 1.48 0
 5 4 -6 20.62 1.03 0
 5 4 -2 6.52 0.7 0
 5 4 1 31.44 1.15 0
 5 4 4 48.3 1.45 0
 5 4 5 116.54 2.14 0
 5 4 6 20.33 1.01 0
 5 5 -12 -0.05 0.66 0
 5 5 -11 20.31 1.35 0
 5 5 -8 63.75 1.79 0
 5 5 -6 30.78 1.26 0
 5 5 -4 92.53 2.02 0
 5 5 -3 20.71 1.1 0
 5 5 0 5.13 0.74 0
 5 5 1 277.34 3.42 0
 5 5 2 40.86 1.38 0
 5 5 3 19.56 1.1 0
 5 5 4 89.64 2.03 0
 5 5 5 83.38 1.99 0
 5 5 6 32.56 1.37 0
 5 5 7 39.33 1.49 0
 5 5 8 61.3 1.88 0
 5 5 9 15.3 1.16 0
 5 5 10 20.66 1.29 0
 5 6 -12 19.71 1.44 0
 5 6 -11 21.97 1.48 0
 5 6 -10 1.61 0.75 0
 5 6 -9 40.9 1.7 0
 5 6 -8 0.6 0.66 0
 5 6 -7 11.18 0.98 0
 5 6 -6 53.5 1.77 0
 5 6 -3 137.54 2.63 0
 5 6 -2 28.2 1.3 0
 5 6 -1 87.66 2.13 0
 5 6 1 84.33 2.11 0
 5 6 2 29.26 1.3 0
 5 6 4 18.53 1.12 0
 5 6 6 54.99 1.85 0
 5 6 7 11.78 1.13 0
 5 6 8 0.44 0.62 0
 5 6 9 39.55 1.74 0
 5 6 10 0.8 0.7 0
 5 6 11 22.86 1.52 0
 5 6 12 22.8 1.49 0
 5 6 13 7.51 1.12 0
 5 6 14 25.32 1.63 0
 5 6 15 1 0.83 0
 5 7 -11 8.49 1.12 0
 5 7 -10 42.1 1.84 0
 5 7 -9 5.02 0.94 0
 5 7 -8 61.96 2.08 0
 5 7 -6 25.5 1.44 0
 5 7 -5 35.71 1.54 0
 5 7 -4 35.32 1.61 0
 5 7 -3 9.43 0.97 0
 5 7 -2 17.9 1.26 0
 5 7 -1 27.07 1.43 0
 5 7 0 5.31 0.82 0
 5 7 1 27.37 1.41 0
 5 7 4 36.84 1.62 0
 5 7 6 24.05 1.51 0
 5 7 7 53.62 1.98 0
 5 7 8 62.53 2.13 0
 5 7 9 4.92 1.03 0
 5 7 13 3.5 1.07 0
 5 8 -11 0.89 0.87 0
 5 8 -9 13.7 1.33 0
 5 8 -8 36.05 1.71 0
 5 8 -7 6.03 1.09 0
 5 8 -6 43.8 1.83 0
 5 8 -5 41.9 1.71 0
 5 8 -4 12.91 1.21 0
 5 8 -2 17.16 1.42 0
 5 8 -1 21.75 1.48 0
 5 8 0 0.03 0.74 0
 5 8 1 22.95 1.51 0
 5 8 2 15.83 1.3 0
 5 8 3 15.99 1.29 0
 5 8 4 14.44 1.35 0
 5 8 5 42.07 1.89 0
 5 8 6 45.18 1.89 0
 5 8 7 6.71 1.02 0
 5 8 8 36.81 1.83 0
 5 8 9 15.1 1.4 0
 5 8 10 42.39 1.98 0
 5 8 11 0.74 0.86 0
 5 9 -7 33.54 1.75 0
 5 9 -5 1.14 0.86 0
 5 9 -4 13.43 1.37 0
 5 9 -2 33.22 1.71 0
 5 9 -1 18.74 1.36 0
 5 9 0 62.4 2.2 0
 5 9 2 33.89 1.67 0
 5 9 4 11.92 1.42 0
 5 9 5 1.79 0.86 0
 5 9 6 15.29 1.37 0
 5 9 7 34.02 1.85 0
 6 -1 -2 10.55 0.36 0
 6 -1 -1 0.93 0.17 0
 6 -1 0 1.08 0.17 0
 6 -1 1 1.26 0.18 0
 6 -1 2 10.5 0.36 0
 6 -1 3 19.33 0.49 0
 6 -1 5 16.78 0.54 0
 6 0 -5 126.3 1.59 0
 6 0 -4 25.9 0.74 0
 6 0 -1 133.9 1.43 0
 6 0 0 0.81 0.27 0
 6 0 1 139.12 1.47 0
 6 0 2 22.94 0.65 0
 6 0 3 1.33 0.27 0
 6 0 4 25.75 0.75 0
 6 0 5 121.23 1.57 0
 6 1 -6 31.02 0.99 0
 6 1 -5 16.67 0.76 0
 6 1 -4 25.03 0.82 0
 6 1 -3 19.08 0.75 0
 6 1 -2 11.44 0.62 0
 6 1 -1 1.16 0.34 0
 6 1 1 1.23 0.34 0
 6 1 2 11.66 0.63 0
 6 1 3 19.51 0.78 0
 6 1 4 25.62 0.85 0
 6 1 5 16.86 0.76 0
 6 1 6 31.17 0.97 0
 6 2 -9 5.16 0.68 0
 6 2 -8 -0.22 0.46 0
 6 2 -7 101.36 1.89 0
 6 2 -2 3.98 0.5 0
 6 2 -1 128.19 1.9 0
 6 2 0 113.25 1.78 0
 6 2 1 126.74 1.88 0
 6 2 2 3.82 0.51 0
 6 2 7 106.55 1.97 0
 6 3 -10 32.43 1.38 0
 6 3 -8 24.72 1.19 0
 6 3 -7 54.32 1.52 0
 6 3 -4 13.35 0.81 0
 6 3 6 27.51 1.16 0
 6 3 8 25.3 1.19 0
 6 3 9 49.04 1.6 0
 6 4 -11 40.97 1.6 0
 6 4 -10 32.29 1.52 0
 6 4 -8 62.77 1.79 0
 6 4 -7 52.61 1.62 0
 6 4 -6 59.17 1.69 0
 6 4 -3 39.43 1.38 0
 6 4 0 0.09 0.45 0
 6 4 1 120.59 2.23 0
 6 4 2 24.86 1.1 0
 6 4 3 40.21 1.41 0
 6 4 4 13.3 0.88 0
 6 4 7 54.4 1.67 0
 6 4 10 31.22 1.41 0
 6 4 11 42.09 1.74 0
 6 5 -12 0.04 0.71 0
 6 5 -10 79.19 2.23 0
 6 5 -9 30.74 1.45 0
 6 5 -8 29.51 1.47 0
 6 5 -5 100.61 2.21 0
 6 5 -1 58.1 1.7 0
 6 5 0 64.89 1.79 0
 6 5 1 61.82 1.8 0
 6 5 2 23.67 1.21 0
 6 5 3 72.15 1.91 0
 6 5 4 73.42 1.98 0
 6 5 5 109.82 2.38 0
 6 5 6 16.84 1.18 0
 6 5 7 140.79 2.81 0
 6 5 8 30.9 1.47 0
 6 5 9 28.83 1.42 0
 6 5 10 74.2 2.18 0
 6 5 12 0.67 0.85 0
 6 5 13 76.8 2.37 0
 6 5 14 60.08 2.15 0
 6 5 15 13.86 1.33 0
 6 6 -12 42.18 1.8 0
 6 6 -10 23.25 1.44 0
 6 6 -7 5.14 0.98 0
 6 6 -5 84.95 2.26 0
 6 6 -4 28.22 1.35 0
 6 6 -3 72.08 2.09 0
 6 6 -2 79.12 2.11 0
 6 6 -1 120.6 2.63 0
 6 6 0 73.23 2.05 0
 6 6 1 117.99 2.52 0
 6 6 3 74.24 2.06 0
 6 6 5 89.59 2.39 0
 6 6 6 88.58 2.35 0
 6 6 8 17.95 1.26 0
 6 6 9 85.9 2.4 0
 6 6 10 23.07 1.54 0
 6 6 11 34.07 1.75 0
 6 6 13 32.73 1.74 0
 6 6 14 13.4 1.4 0
 6 7 -11 20.71 1.53 0
 6 7 -10 9.24 1.22 0
 6 7 -9 8.37 1.1 0
 6 7 -7 30.15 1.66 0
 6 7 -6 19.2 1.27 0
 6 7 -5 7.99 1.09 0
 6 7 -4 58.18 2.05 0
 6 7 -3 66.86 2.1 0
 6 7 -1 74.06 2.22 0
 6 7 0 13.17 1.21 0
 6 7 1 77.25 2.25 0
 6 7 2 79.81 2.26 0
 6 7 4 61.26 2.07 0
 6 7 5 7.57 1.08 0
 6 7 6 19.2 1.4 0
 6 7 8 37.47 1.83 0
 6 7 9 7.53 1.14 0
 6 7 11 25.03 1.54 0
 6 8 -8 6.8 1.09 0
 6 8 -7 27.39 1.59 0
 6 8 -5 19.73 1.5 0
 6 8 -4 35.05 1.8 0
 6 8 -3 10.88 1.35 0
 6 8 -2 6.57 1.14 0
 6 8 -1 0.97 0.93 0
 6 8 1 0.88 0.8 0
 6 8 2 8.22 1.21 0
 6 8 3 11.26 1.17 0
 6 8 4 31.07 1.67 0
 6 8 6 15.59 1.45 0
 6 8 7 27.78 1.71 0
 6 8 8 7.85 1.11 0
 6 9 -1 1.79 0.86 0
 6 9 0 0.11 0.85 0
 6 9 1 2.16 0.9 0
 6 9 2 13.93 1.45 0
 7 0 -5 37.43 0.93 0
 7 0 -3 0.04 0.27 0
 7 0 -2 786.54 3.59 0
 7 0 -1 91.55 1.24 0
 7 0 0 0.21 0.26 0
 7 0 1 93.33 1.27 0
 7 0 2 796.37 3.67 0
 7 0 3 0.25 0.25 0
 7 0 5 37.02 0.94 0
 7 0 6 61.82 1.25 0
 7 0 9 5.4 0.66 0
 7 1 -7 13.6 0.81 0
 7 1 -2 85.96 1.46 0
 7 1 -1 38.99 1.01 0
 7 1 0 369.34 2.93 0
 7 1 1 38.24 1.01 0
 7 1 2 87.86 1.49 0
 7 1 3 118.31 1.76 0
 7 1 7 13.79 0.79 0
 7 1 8 75.95 1.65 0
 7 1 9 94.12 1.87 0
 7 1 10 23.2 1.1 0
 7 2 -9 3.06 0.64 0
 7 2 -7 127.66 2.19 0
 7 2 -6 40.06 1.25 0
 7 2 -3 22.22 0.95 0
 7 2 3 21.96 0.97 0
 7 2 4 194.05 2.56 0
 7 2 6 43.08 1.35 0
 7 2 7 124.79 2.2 0
 7 2 8 100.97 2.05 0
 7 2 9 4.02 0.63 0
 7 2 10 9.12 0.9 0
 7 3 -10 56.27 1.77 0
 7 3 -8 17.07 1.04 0
 7 3 -7 45.54 1.45 0
 7 3 -6 13.82 0.9 0
 7 3 -5 45.65 1.4 0
 7 3 -4 14.19 0.93 0
 7 3 -3 45.76 1.41 0
 7 3 -1 1.25 0.52 0
 7 3 0 7.25 0.74 0
 7 3 1 0.81 0.53 0
 7 3 2 208.3 2.81 0
 7 3 4 15.67 0.99 0
 7 3 5 44.18 1.41 0
 7 3 6 15.16 0.98 0
 7 3 7 45.4 1.5 0
 7 3 8 18.11 1.14 0
 7 3 9 136.43 2.6 0
 7 3 10 57.16 1.79 0
 7 3 11 8.73 1.07 0
 7 3 12 2.94 0.78 0
 7 3 14 52.67 1.94 0
 7 4 -11 49.17 1.76 0
 7 4 -10 49.16 1.8 0
 7 4 -9 6.95 0.91 0
 7 4 -7 31.34 1.44 0
 7 4 -6 23.25 1.26 0
 7 4 -3 13.83 0.95 0
 7 4 1 14.3 0.96 0
 7 4 2 15.76 1.06 0
 7 4 4 82.34 2.02 0
 7 4 6 25.14 1.28 0
 7 4 7 32.42 1.49 0
 7 4 10 50.48 1.83 0
 7 4 11 54.42 1.85 0
 7 4 12 46.34 1.8 0
 7 4 13 15.41 1.28 0
 7 4 14 30.22 1.54 0
 7 4 15 0.99 0.76 0
 7 5 -11 5.39 0.96 0
 7 5 -10 2.67 0.85 0
 7 5 -9 12.92 1.22 0
 7 5 -7 12.26 1.12 0
 7 5 -6 19.25 1.29 0
 7 5 -5 11.96 1.01 0
 7 5 -3 8.59 1.06 0
 7 5 0 2.26 0.73 0
 7 5 1 37.38 1.47 0
 7 5 3 9.14 0.97 0
 7 5 4 130.95 2.66 0
 7 5 5 12.09 1.17 0
 7 5 6 20.23 1.29 0
 7 5 9 14.26 1.26 0
 7 5 10 2.02 0.77 0
 7 5 11 4.82 1.01 0
 7 5 12 14.9 1.36 0
 7 5 13 11.37 1.39 0
 7 6 -11 7.03 1.07 0
 7 6 -9 5.13 1.07 0
 7 6 -8 19.47 1.43 0
 7 6 -7 0.36 0.68 0
 7 6 -6 109.26 2.61 0
 7 6 -5 21.19 1.36 0
 7 6 -4 7.85 1 0
 7 6 -3 13.95 1.27 0
 7 6 -2 55.42 1.93 0
 7 6 -1 2.78 0.78 0
 7 6 0 17.76 1.2 0
 7 6 1 3.02 0.8 0
 7 6 3 14.67 1.28 0
 7 6 4 9.89 1.23 0
 7 6 5 19.95 1.4 0
 7 6 6 114.18 2.68 0
 7 6 7 0.43 0.74 0
 7 6 9 5.75 1.05 0
 7 6 10 58.67 2.12 0
 7 6 11 8.13 1.22 0
 7 7 -9 20.56 1.44 0
 7 7 -8 29.45 1.67 0
 7 7 -7 19.19 1.48 0
 7 7 -6 2.26 0.89 0
 7 7 -5 5.27 0.97 0
 7 7 -4 5.48 0.96 0
 7 7 -2 65.93 2.11 0
 7 7 -1 0.53 0.74 0
 7 7 2 67.02 2.2 0
 7 7 3 10.75 1.28 0
 7 7 4 5.28 0.94 0
 7 7 5 5.97 1.07 0
 7 7 6 3.02 1.03 0
 7 7 7 20.58 1.54 0
 7 7 8 31.58 1.66 0
 7 8 -4 46.24 1.89 0
 7 8 -3 8.49 1.15 0
 7 8 -2 1.6 0.95 0
 7 8 0 57.73 2.07 0
 7 8 1 3.06 1 0
 7 8 2 1.51 0.85 0
 7 8 3 8.78 1.24 0
 7 8 4 51.79 2.13 0
 8 2 -8 0.59 0.51 0
 8 2 -7 55.19 1.53 0
 8 2 -6 65.52 1.62 0
 8 2 -5 75.43 1.68 0
 8 2 -4 25.2 1.06 0
 8 2 -2 36.49 1.17 0
 8 2 -1 78.75 1.65 0
 8 2 1 80.05 1.68 0
 8 2 2 33.9 1.16 0
 8 2 3 38.07 1.23 0
 8 2 4 24.61 1.04 0
 8 2 5 75.42 1.71 0
 8 2 6 67.46 1.64 0
 8 2 7 55.02 1.54 0
 8 2 8 0.39 0.51 0
 8 2 9 14.95 1.01 0
 8 2 11 9.33 0.92 0
 8 2 12 0.81 0.6 0
 8 3 -8 41.87 1.55 0
 8 3 -7 34.74 1.39 0
 8 3 -6 33.15 1.29 0
 8 3 -5 44.61 1.47 0
 8 3 -4 50.29 1.51 0
 8 3 -3 53.28 1.55 0
 8 3 -1 143.27 2.41 0
 8 3 0 4.16 0.67 0
 8 3 1 140.11 2.39 0
 8 3 2 82.53 1.89 0
 8 3 3 56.73 1.61 0
 8 3 4 51.8 1.58 0
 8 3 5 46.11 1.53 0
 8 3 8 43.58 1.59 0
 8 3 9 24.73 1.31 0
 8 3 10 4.75 0.82 0
 8 3 11 109.62 2.44 0
 8 3 12 18.22 1.25 0
 8 3 13 5.05 0.84 0
 8 3 14 3.07 0.79 0
 8 4 -10 19.23 1.34 0
 8 4 -9 103.85 2.38 0
 8 4 -7 39.69 1.54 0
 8 4 -6 11.81 1.1 0
 8 4 -4 32.8 1.4 0
 8 4 -3 14.25 1.1 0
 8 4 -2 19.07 1.1 0
 8 4 -1 20.3 1.21 0
 8 4 0 54.74 1.67 0
 8 4 1 22.39 1.24 0
 8 4 2 18.42 1.18 0
 8 4 3 14.96 1.09 0
 8 4 4 37.4 1.5 0
 8 4 5 6.54 0.9 0
 8 4 7 39.05 1.62 0
 8 4 8 2.93 0.79 0
 8 4 9 113.77 2.58 0
 8 4 10 19.62 1.36 0
 8 4 13 54.96 1.95 0
 8 5 -10 2.65 0.94 0
 8 5 -9 26.85 1.51 0
 8 5 -8 1.83 0.76 0
 8 5 -7 7.7 1.07 0
 8 5 -6 -0.4 0.62 0
 8 5 -5 161.48 3 0
 8 5 -4 19.78 1.32 0
 8 5 -3 1.37 0.68 0
 8 5 -1 51.45 1.82 0
 8 5 0 45.25 1.71 0
 8 5 1 53.36 1.82 0
 8 5 2 3.05 0.78 0
 8 5 3 2.17 0.78 0
 8 5 4 19.61 1.29 0
 8 5 5 162.17 3.07 0
 8 5 6 0.22 0.67 0
 8 5 7 7.06 1.01 0
 8 5 8 2.66 0.85 0
 8 5 9 25.67 1.42 0
 8 5 10 1.1 0.79 0
 8 5 11 14.4 1.28 0
 8 6 -8 0.34 0.79 0
 8 6 -6 10.76 1.19 0
 8 6 -5 5.22 1.03 0
 8 6 -4 10.08 1.19 0
 8 6 -3 53.09 1.94 0
 8 6 -2 14.72 1.29 0
 8 6 -1 1.21 0.81 0
 8 6 0 30.67 1.62 0
 8 6 1 1.58 0.89 0
 8 6 2 15.29 1.23 0
 8 6 5 4.52 1.03 0
 8 6 6 10.59 1.24 0
 8 6 7 52.49 2.03 0
 8 6 8 -0.12 0.8 0
 8 7 -4 6.52 1.11 0
 8 7 -3 18.63 1.45 0
 8 7 -2 55.15 2.06 0
 8 7 -1 30.79 1.58 0
 8 7 0 0.96 0.82 0
 8 7 1 30.01 1.68 0
 8 7 2 62.73 2.17 0
 8 7 3 20.44 1.46 0
 8 7 4 5.69 1.14 0
 9 3 -5 -0.2 0.58 0
 9 3 -4 117.2 2.25 0
 9 3 -3 14.75 1 0
 9 3 -2 24.69 1.15 0
 9 3 -1 12.94 0.94 0
 9 3 0 89.61 1.97 0
 9 3 1 13.79 0.95 0
 9 3 2 23.28 1.16 0
 9 3 3 15.1 1.02 0
 9 3 4 116.34 2.26 0
 9 4 -9 12.97 1.15 0
 9 4 -8 85.42 2.15 0
 9 4 -7 6.22 0.94 0
 9 4 -6 39.58 1.55 0
 9 4 -5 15.84 1.15 0
 9 4 -4 57.23 1.76 0
 9 4 -1 14.24 1.08 0
 9 4 0 25.15 1.25 0
 9 4 1 15.92 1.1 0
 9 4 2 13.27 1.05 0
 9 4 3 27.83 1.33 0
 9 4 4 59.35 1.81 0
 9 4 8 87.66 2.2 0
 9 4 9 15.16 1.17 0
 9 5 -7 7.16 1.05 0
 9 5 -6 27.4 1.48 0
 9 5 -5 15.31 1.23 0
 9 5 -4 5.35 0.87 0
 9 5 -3 6.59 0.9 0
 9 5 -2 39.51 1.61 0
 9 5 -1 33.86 1.52 0
 9 5 0 0.56 0.66 0
 9 5 1 35.67 1.54 0
 9 5 2 38.74 1.62 0
 9 5 3 6.92 1 0
 9 5 4 5.32 0.83 0
 9 5 5 18.8 1.31 0
 9 5 6 31.33 1.55 0
 9 5 7 6.52 0.99 0
 9 6 -2 7.78 0.99 0
 9 6 -1 1.17 0.81 0
 9 6 0 35.75 1.69 0
 9 6 1 3.05 0.84 0
 9 6 2 7.83 1.07 0
 -4 0 -12 54.14 1.09 0
 -4 0 -11 129.71 1.51 0
 -4 0 -10 133.44 1.42 0
 -4 0 -9 11.35 0.45 0
 -4 1 -13 33.89 1.05 0
 -4 1 -12 211.71 2.3 0
 -4 2 -16 32.36 1.3 0
 -4 2 -14 17.74 0.96 0
 -4 3 -17 29.79 1.41 0
 -4 3 -16 17.07 1.16 0
 -4 4 -17 58.13 1.93 0
 -4 5 -18 25.68 1.55 0
 -3 -2 -12 115.62 1.4 0
 -3 -2 -10 366.15 2 0
 -3 -2 -9 439.46 1.88 0
 -3 -2 -8 183.59 0.99 0
 -3 -1 -14 150.05 1.98 0
 -3 -1 -12 48.1 1.04 0
 -3 -1 -11 23.47 0.71 0
 -3 -1 -10 123.46 1.35 0
 -3 -1 -9 43.36 0.77 0
 -3 -1 -8 418.79 1.97 0
 -3 -1 -7 7.35 0.27 0
 -3 0 -16 197.63 2.69 0
 -3 0 -14 30.69 1.06 0
 -3 0 -10 64.35 1.12 0
 -3 0 -9 226.31 1.86 0
 -3 1 -17 29.89 1.32 0
 -3 1 -13 51.71 1.32 0
 -3 1 -12 47.66 1.22 0
 -3 2 -18 2.81 0.74 0
 -3 2 -17 13.01 1.1 0
 -3 2 -16 3.18 0.78 0
 -3 2 -15 20.9 1.13 0
 -3 2 -14 65.01 1.66 0
 -3 3 -19 10.86 1.17 0
 -3 3 -18 0.43 0.69 0
 -3 3 -17 9.66 1.16 0
 -3 3 -16 1.88 0.74 0
 -3 4 -20 8.21 1.12 0
 -3 4 -19 25.66 1.58 0
 -3 4 -18 24.33 1.54 0
 -3 4 -17 0.83 0.8 0
 -3 5 -18 20.12 1.54 0
 -3 6 -18 62.43 2.39 0
 -2 -3 -14 10.46 0.67 0
 -2 -3 -13 27.39 0.9 0
 -2 -3 -12 144.26 1.81 0
 -2 -3 -10 379.89 2.55 0
 -2 -3 -9 88.42 1.18 0
 -2 -3 -8 131.16 1.29 0
 -2 -2 -16 94.32 1.88 0
 -2 -2 -14 39.33 1.15 0
 -2 -2 -13 98.82 1.65 0
 -2 -2 -12 86.63 1.48 0
 -2 -2 -11 95.78 1.45 0
 -2 -2 -10 4.34 0.44 0
 -2 -2 -9 195.38 1.74 0
 -2 -2 -8 234.67 1.71 0
 -2 -2 -7 212.23 1.45 0
 -2 -2 -6 484.86 1.88 0
 -2 -1 -18 120.14 2.37 0
 -2 -1 -17 103.31 2.14 0
 -2 -1 -16 35.52 1.27 0
 -2 -1 -14 74.78 1.62 0
 -2 -1 -12 153.84 1.99 0
 -2 -1 -11 168.24 1.96 0
 -2 -1 -10 89.69 1.35 0
 -2 -1 -9 94.92 1.27 0
 -2 -1 -8 12.83 0.48 0
 -2 -1 -7 270.64 1.71 0
 -2 -1 -6 366.31 1.71 0
 -2 -1 -5 30.86 0.43 0
 -2 0 -19 138.2 2.7 0
 -2 0 -18 20.03 1.22 0
 -2 0 -17 84.35 2.02 0
 -2 0 -13 30.77 1.1 0
 -2 0 -12 36.85 1.08 0
 -2 0 -11 128.31 1.76 0
 -2 0 -10 71.09 1.27 0
 -2 0 -9 36.61 0.85 0
 -2 0 -8 180.48 1.65 0
 -2 1 -19 47.47 1.76 0
 -2 1 -18 125.04 2.65 0
 -2 1 -16 34.28 1.42 0
 -2 1 -15 39.26 1.4 0
 -2 1 -12 162.78 2.21 0
 -2 1 -11 169.86 2.12 0
 -2 2 -20 32.3 1.67 0
 -2 2 -19 2.2 0.84 0
 -2 2 -18 9.6 1.09 0
 -2 2 -17 0.92 0.81 0
 -2 2 -15 45.59 1.57 0
 -2 2 -14 42.28 1.41 0
 -2 3 -21 1.04 0.85 0
 -2 3 -20 13.26 1.38 0
 -2 3 -19 7.14 1.06 0
 -2 3 -18 6.76 1.05 0
 -2 3 -17 26.73 1.45 0
 -2 3 -16 43.11 1.7 0
 -2 3 -15 15.36 1.16 0
 -2 4 -19 12.67 1.39 0
 -2 4 -18 7.15 1.06 0
 -2 4 -17 23.1 1.57 0
 -2 4 -16 18.28 1.24 0
 -2 5 -19 25.93 1.72 0
 -2 5 -18 8.95 1.22 0
 -1 -4 -16 66.52 1.68 0
 -1 -4 -15 57.81 1.53 0
 -1 -4 -14 57.13 1.47 0
 -1 -4 -12 79.28 1.59 0
 -1 -4 -11 392.93 3.26 0
 -1 -4 -10 46.65 1.13 0
 -1 -4 -9 5.46 0.52 0
 -1 -3 -18 71.71 1.87 0
 -1 -3 -17 28.26 1.26 0
 -1 -3 -15 1.16 0.51 0
 -1 -3 -12 84.74 1.61 0
 -1 -3 -11 75.24 1.46 0
 -1 -3 -9 603.54 3.53 0
 -1 -3 -8 66.41 1.16 0
 -1 -3 -7 269.71 2.1 0
 -1 -3 -6 101.91 1.22 0
 -1 -2 -19 28.25 1.4 0
 -1 -2 -18 11.28 1.05 0
 -1 -2 -17 14.53 1.02 0
 -1 -2 -16 7.48 0.86 0
 -1 -2 -15 25.23 1.15 0
 -1 -2 -13 110.47 1.97 0
 -1 -2 -12 51.39 1.28 0
 -1 -2 -11 11.21 0.67 0
 -1 -2 -10 14.57 0.71 0
 -1 -2 -9 441.18 2.96 0
 -1 -2 -8 7.07 0.48 0
 -1 -2 -7 172.52 1.6 0
 -1 -2 -5 753.97 2.74 0
 -1 -2 -4 286.36 1.53 0
 -1 -1 -19 15.34 1.2 0
 -1 -1 -18 30.45 1.43 0
 -1 -1 -16 78.97 1.94 0
 -1 -1 -15 103.92 2.12 0
 -1 -1 -13 194.27 2.55 0
 -1 -1 -12 3.87 0.55 0
 -1 -1 -11 23.57 0.9 0
 -1 -1 -10 211.76 2.23 0
 -1 -1 -9 381.54 2.75 0
 -1 -1 -8 388 2.57 0
 -1 -1 -7 587.47 2.86 0
 -1 -1 -6 37.32 0.71 0
 -1 -1 -5 794.05 2.63 0
 -1 -1 -4 277.76 1.34 0
 -1 -1 -3 2013.33 2.87 0
 -1 0 -21 1.45 0.77 0
 -1 0 -20 34.06 1.64 0
 -1 0 -18 62.75 1.93 0
 -1 0 -17 1.44 0.78 0
 -1 0 -16 1.15 0.61 0
 -1 0 -15 127.38 2.4 0
 -1 0 -13 25.85 1.09 0
 -1 0 -12 116.83 1.95 0
 -1 0 -11 111.31 1.77 0
 -1 0 -8 82.06 1.22 0
 -1 0 -7 59.01 0.97 0
 -1 0 -6 851.33 3.08 0
 -1 1 -22 30 1.67 0
 -1 1 -21 0.97 0.77 0
 -1 1 -20 6.81 1.02 0
 -1 1 -19 14.42 1.3 0
 -1 1 -18 28.49 1.53 0
 -1 1 -16 82.32 2.12 0
 -1 1 -15 111.02 2.32 0
 -1 1 -12 2.72 0.58 0
 -1 1 -11 24.62 0.97 0
 -1 2 -22 23.59 1.64 0
 -1 2 -21 28.06 1.71 0
 -1 2 -19 27.54 1.56 0
 -1 2 -18 13.31 1.23 0
 -1 2 -17 12.28 1.17 0
 -1 2 -16 7.33 0.96 0
 -1 2 -15 25.54 1.32 0
 -1 2 -14 73.72 1.86 0
 -1 3 -21 55.17 2.28 0
 -1 3 -20 4.79 1.05 0
 -1 3 -19 18.33 1.44 0
 -1 3 -18 72.96 2.34 0
 -1 3 -17 30.53 1.63 0
 -1 3 -16 47.04 1.78 0
 -1 3 -15 1.18 0.67 0
 -1 4 -21 3.15 1.17 0
 -1 4 -20 38.71 2.01 0
 -1 4 -19 36.72 1.82 0
 -1 4 -18 36.52 1.86 0
 -1 4 -17 19.13 1.51 0
 -1 4 -16 66.94 2.11 0
 -1 5 -20 52.97 2.32 0
 -1 5 -19 52.26 2.21 0
 -1 5 -18 6.93 1.17 0
 -1 6 -18 52.5 2.19 0
 -1 6 -17 69.62 2.5 0
 0 -5 -17 13.88 1.07 0
 0 -5 -16 5.34 0.77 0
 0 -5 -14 64.54 1.71 0
 0 -5 -13 15.8 0.99 0
 0 -5 -12 2.08 0.63 0
 0 -4 -19 10.06 1.07 0
 0 -4 -18 0.55 0.65 0
 0 -4 -16 111.65 2.38 0
 0 -4 -14 8.16 0.88 0
 0 -4 -13 73.12 1.73 0
 0 -4 -10 109.21 1.89 0
 0 -4 -9 170.2 2.22 0
 0 -4 -8 216.17 2.38 0
 0 -3 -20 34.01 1.6 0
 0 -3 -19 1 0.66 0
 0 -3 -18 3.08 0.81 0
 0 -3 -14 3.86 0.67 0
 0 -3 -11 365.2 3.41 0
 0 -3 -10 47.03 1.24 0
 0 -3 -9 148.87 2 0
 0 -3 -8 121.2 1.72 0
 0 -3 -7 394.27 2.88 0
 0 -3 -6 72.15 1.22 0
 0 -3 -5 329.02 2.37 0
 0 -2 -20 1.62 0.75 0
 0 -2 -19 40.28 1.71 0
 0 -2 -17 53.58 1.79 0
 0 -2 -16 39.8 1.56 0
 0 -2 -15 92.93 2.12 0
 0 -2 -12 56.23 1.47 0
 0 -2 -10 397.62 3.32 0
 0 -2 -9 395.87 3.11 0
 0 -2 -7 456.31 2.93 0
 0 -2 -6 3642.39 7.61 0
 0 -2 -5 177.19 1.6 0
 0 -2 -4 84.86 1.06 0
 0 -2 -3 1407.33 3.8 0
 0 -1 -22 4.91 1.02 0
 0 -1 -21 4.03 0.95 0
 0 -1 -20 38.23 1.77 0
 0 -1 -19 43.23 1.81 0
 0 -1 -18 0.11 0.67 0
 0 -1 -17 42.34 1.61 0
 0 -1 -16 35.72 1.5 0
 0 -1 -12 45.5 1.36 0
 0 -1 -11 145.81 2.14 0
 0 -1 -10 66.68 1.43 0
 0 -1 -8 668.91 3.66 0
 0 -1 -7 35.09 0.85 0
 0 -1 -6 101.38 1.29 0
 0 -1 -5 622.99 2.74 0
 0 -1 -4 3181.2 5.52 0
 0 -1 -3 133.8 1.02 0
 0 -1 -2 9898.74 7.48 0
 0 -1 -1 511.12 1.49 0
 0 0 -22 114.28 2.94 0
 0 0 -21 0.79 0.78 0
 0 0 -20 0.05 0.86 0
 0 0 -19 0.51 0.75 0
 0 0 -18 266.13 4.01 0
 0 0 -15 0.59 0.6 0
 0 0 -12 333.74 3.4 0
 0 0 -11 0.64 0.44 0
 0 0 -10 3 0.49 0
 0 0 -9 0.08 0.33 0
 0 0 -8 71.23 1.25 0
 0 0 -7 0.75 0.36 0
 0 0 -6 164.88 1.58 0
 0 0 -5 4.6 0.41 0
 0 0 -4 9819.43 9.15 0
 0 0 -3 0.14 0.16 0
 0 0 -2 375.9 1.24 0
 0 1 -22 3.78 1.06 0
 0 1 -21 2.89 1.08 0
 0 1 -20 41.36 1.89 0
 0 1 -19 40.65 1.89 0
 0 1 -18 0.74 0.77 0
 0 1 -17 42.24 1.77 0
 0 1 -15 117.54 2.47 0
 0 1 -11 140.96 2.16 0
 0 1 -10 64.77 1.44 0
 0 1 -9 5.05 0.55 0
 0 2 -22 15.41 1.51 0
 0 2 -21 8.76 1.29 0
 0 2 -20 1.49 0.99 0
 0 2 -19 40.59 1.97 0
 0 2 -17 49.58 1.85 0
 0 2 -16 39.32 1.62 0
 0 2 -15 90.51 2.22 0
 0 2 -14 13.27 1.05 0
 0 2 -13 262.45 3.34 0
 0 3 -21 31.41 1.93 0
 0 3 -20 30.83 1.89 0
 0 3 -19 1.91 0.93 0
 0 3 -18 3.21 0.92 0
 0 3 -15 34.43 1.54 0
 0 3 -14 4.96 0.81 0
 0 4 -21 2.95 1.14 0
 0 4 -20 0.11 0.91 0
 0 4 -17 0.24 0.79 0
 0 4 -16 110.85 2.72 0
 0 4 -15 16.84 1.29 0
 0 5 -20 -0.38 0.98 0
 0 5 -19 0.71 0.99 0
 0 5 -18 3.28 1.04 0
 0 5 -16 4.76 1.03 0
 0 6 -17 7.85 1.27 0
 0 6 -16 8.94 1.21 0
 0 7 -17 6.46 1.3 0
 1 -5 -18 9.8 1.2 0
 1 -5 -17 3.46 0.79 0
 1 -5 -16 72 2.09 0
 1 -5 -15 249.14 3.61 0
 1 -5 -14 14.39 1.13 0
 1 -5 -13 26.25 1.26 0
 1 -5 -11 86.25 1.93 0
 1 -4 -19 36.73 1.71 0
 1 -4 -18 37.94 1.69 0
 1 -4 -17 20.16 1.29 0
 1 -4 -16 65.5 2.03 0
 1 -4 -15 55.73 1.82 0
 1 -4 -14 63.92 1.85 0
 1 -4 -13 55.82 1.72 0
 1 -4 -12 81.01 1.9 0
 1 -4 -9 5.8 0.65 0
 1 -4 -8 63.57 1.46 0
 1 -4 -7 406.08 3.42 0
 1 -4 -6 60.77 1.33 0
 1 -3 -21 55.76 2.09 0
 1 -3 -20 5.01 1.01 0
 1 -3 -19 15.79 1.35 0
 1 -3 -18 70.19 2.18 0
 1 -3 -17 31.18 1.54 0
 1 -3 -15 1.31 0.66 0
 1 -3 -14 40.54 1.54 0
 1 -3 -13 126.21 2.42 0
 1 -3 -10 49.79 1.36 0
 1 -3 -9 591.64 4.25 0
 1 -3 -8 67.26 1.47 0
 1 -3 -7 259.66 2.58 0
 1 -3 -6 100.32 1.56 0
 1 -3 -5 41.14 0.98 0
 1 -3 -4 143.54 1.69 0
 1 -2 -22 23.63 1.61 0
 1 -2 -21 26.06 1.68 0
 1 -2 -20 73.99 2.36 0
 1 -2 -19 27.54 1.63 0
 1 -2 -17 14.96 1.27 0
 1 -2 -16 7.08 0.97 0
 1 -2 -15 24.81 1.34 0
 1 -2 -14 73.32 1.95 0
 1 -2 -11 10.8 0.85 0
 1 -2 -10 12.83 0.79 0
 1 -2 -9 442.09 3.59 0
 1 -2 -7 174.97 2.03 0
 1 -2 -6 32.93 0.9 0
 1 -2 -5 754.2 3.67 0
 1 -2 -4 290.87 2.16 0
 1 -2 -3 975.54 3.7 0
 1 -2 -2 517.22 2.54 0
 1 -1 -22 32.55 1.85 0
 1 -1 -21 0.89 0.97 0
 1 -1 -20 6.87 1.2 0
 1 -1 -18 30.97 1.63 0
 1 -1 -17 31.45 1.57 0
 1 -1 -16 78.95 2.2 0
 1 -1 -15 110.27 2.43 0
 1 -1 -14 35.79 1.38 0
 1 -1 -10 207.5 2.56 0
 1 -1 -9 395.25 3.31 0
 1 -1 -7 596.69 3.54 0
 1 -1 -6 39 0.94 0
 1 -1 -5 779.52 3.49 0
 1 -1 -4 284.45 1.97 0
 1 -1 -3 2087.09 4.82 0
 1 -1 -2 205.88 1.38 0
 1 -1 -1 245.25 1.39 0
 1 0 -22 -0.08 0.89 0
 1 0 -20 34.57 1.87 0
 1 0 -19 17.15 1.49 0
 1 0 -18 64.26 2.21 0
 1 0 -17 1.69 0.87 0
 1 0 -16 1.66 0.79 0
 1 0 -15 127.88 2.64 0
 1 0 -14 53.77 1.67 0
 1 0 -11 112.13 2.06 0
 1 0 -10 214.95 2.6 0
 1 0 -9 46.89 1.23 0
 1 0 -8 86.71 1.52 0
 1 0 -7 58.9 1.2 0
 1 0 -6 866.68 3.87 0
 1 0 -5 0.85 0.34 0
 1 0 -4 175.31 1.46 0
 1 0 -3 1344.13 3.54 0
 1 0 -2 221.82 1.28 0
 1 0 -1 1388.8 2.61 0
 1 1 -22 32.33 1.94 0
 1 1 -20 6.99 1.23 0
 1 1 -18 28.83 1.58 0
 1 1 -16 75.54 2.23 0
 1 1 -15 105.64 2.44 0
 1 1 -14 37.72 1.46 0
 1 1 -10 207.06 2.54 0
 1 1 -9 393.09 3.24 0
 1 1 -6 36.41 0.85 0
 1 2 -21 25.41 1.79 0
 1 2 -19 28.51 1.69 0
 1 2 -17 13.79 1.32 0
 1 2 -16 7.7 1.07 0
 1 2 -14 73.41 1.99 0
 1 2 -10 14.95 0.88 0
 1 3 -21 54.9 2.35 0
 1 3 -20 4.27 1.13 0
 1 3 -19 15.99 1.6 0
 1 3 -16 45.78 1.88 0
 1 3 -15 1.63 0.81 0
 1 3 -14 38.23 1.55 0
 1 4 -20 40.65 2.21 0
 1 4 -18 35.11 1.84 0
 1 4 -17 20.81 1.59 0
 1 4 -16 65.35 2.3 0
 1 4 -14 66.29 2.08 0
 1 5 -19 50.08 2.31 0
 1 5 -18 7.79 1.3 0
 1 5 -17 2.82 1.14 0
 1 5 -16 74.59 2.49 0
 1 6 -18 54.29 2.41 0
 1 6 -17 69.09 2.6 0
 1 6 -15 19.54 1.52 0
 1 7 -17 30.19 2.01 0
 1 7 -16 16.05 1.63 0
 2 -5 -18 7.96 1.16 0
 2 -5 -17 19.82 1.4 0
 2 -5 -16 70.15 2.21 0
 2 -5 -14 7.18 0.94 0
 2 -5 -13 -0.06 0.61 0
 2 -5 -12 156.15 2.85 0
 2 -5 -11 16.09 1.07 0
 2 -5 -10 1.14 0.57 0
 2 -4 -20 6.48 1.15 0
 2 -4 -18 7.67 1.19 0
 2 -4 -17 24.87 1.5 0
 2 -4 -16 19.12 1.4 0
 2 -4 -15 16.37 1.25 0
 2 -4 -13 0.2 0.63 0
 2 -4 -12 57.2 1.76 0
 2 -4 -10 57.87 1.64 0
 2 -4 -7 276.68 3.07 0
 2 -3 -21 0.82 0.93 0
 2 -3 -20 12.87 1.3 0
 2 -3 -19 6.03 1.06 0
 2 -3 -18 8 1.2 0
 2 -3 -17 26.5 1.58 0
 2 -3 -16 44.09 1.76 0
 2 -3 -14 12.07 1.12 0
 2 -3 -12 153.73 2.77 0
 2 -3 -9 86.06 1.81 0
 2 -3 -8 132.35 2.13 0
 2 -3 -7 13.61 0.74 0
 2 -3 -6 1028.75 5.32 0
 2 -2 -21 31 1.87 0
 2 -2 -19 1.08 0.89 0
 2 -2 -18 11.15 1.18 0
 2 -2 -17 -0.16 0.73 0
 2 -2 -16 98.97 2.55 0
 2 -2 -14 44.13 1.67 0
 2 -2 -13 107.25 2.31 0
 2 -2 -10 5.01 0.66 0
 2 -2 -9 206.07 2.67 0
 2 -2 -8 238.63 2.75 0
 2 -2 -7 206.27 2.39 0
 2 -2 -4 162.52 1.82 0
 2 -2 -3 193.61 1.89 0
 2 -2 -2 1958.23 5.56 0
 2 -1 -21 21.16 1.68 0
 2 -1 -20 9.13 1.24 0
 2 -1 -18 124.59 3.04 0
 2 -1 -17 101.66 2.67 0
 2 -1 -16 33.54 1.56 0
 2 -1 -15 41.75 1.7 0
 2 -1 -14 78.81 2.12 0
 2 -1 -13 174.59 2.92 0
 2 -1 -10 90.4 1.85 0
 2 -1 -9 102.7 1.88 0
 2 -1 -5 32.49 0.85 0
 2 -1 -4 1953.36 5.76 0
 2 -1 -3 342.33 2.29 0
 2 -1 -2 1090.43 3.72 0
 2 -1 -1 112.05 1.15 0
 2 -1 0 5910.7 7.4 0
 2 0 -22 27.35 1.82 0
 2 0 -21 58.25 2.39 0
 2 0 -20 0.42 0.92 0
 2 0 -19 140.41 3.3 0
 2 0 -17 84.59 2.47 0
 2 0 -15 257.47 3.81 0
 2 0 -14 26.83 1.41 0
 2 0 -13 30.59 1.35 0
 2 0 -9 38.43 1.16 0
 2 0 -6 152.29 1.82 0
 2 0 -5 1010.11 4.28 0
 2 0 -4 320.32 2.28 0
 2 0 -3 101.48 1.24 0
 2 0 -2 334.01 1.88 0
 2 0 -1 958.51 2.81 0
 2 0 0 5577.53 5.84 0
 2 1 -22 34.73 2.08 0
 2 1 -21 25.72 1.85 0
 2 1 -20 7.83 1.22 0
 2 1 -19 46.74 2.04 0
 2 1 -18 119.1 2.98 0
 2 1 -17 102.28 2.69 0
 2 1 -16 35.38 1.64 0
 2 1 -15 40.96 1.73 0
 2 1 -14 76.65 2.11 0
 2 1 -13 174.66 2.94 0
 2 1 -10 88.53 1.86 0
 2 1 -4 1927.27 5.26 0
 2 1 -3 345.73 2.06 0
 2 1 -2 1103.52 3.23 0
 2 1 -1 114.4 0.93 0
 2 1 0 5853.34 5.29 0
 2 2 -21 30.84 1.98 0
 2 2 -20 30.39 1.95 0
 2 2 -19 1.21 0.93 0
 2 2 -17 0.54 0.86 0
 2 2 -15 41.66 1.72 0
 2 2 -14 40.96 1.63 0
 2 2 -13 102.2 2.32 0
 2 2 -10 4.14 0.61 0
 2 2 -9 194.82 2.52 0
 2 2 -8 238.76 2.62 0
 2 3 -21 0.02 1.09 0
 2 3 -19 5.22 1.26 0
 2 3 -18 7.44 1.22 0
 2 3 -17 24.59 1.63 0
 2 3 -15 14.55 1.17 0
 2 3 -13 28.12 1.32 0
 2 3 -12 146.54 2.66 0
 2 3 -11 55.75 1.63 0
 2 4 -20 7.46 1.34 0
 2 4 -19 10.41 1.47 0
 2 4 -18 6.89 1.28 0
 2 4 -17 20.1 1.57 0
 2 4 -16 19.37 1.53 0
 2 4 -15 16.22 1.28 0
 2 4 -14 18.15 1.34 0
 2 4 -13 -0.08 0.63 0
 2 5 -19 26.71 1.94 0
 2 5 -17 17.7 1.67 0
 2 5 -15 4.11 0.99 0
 2 5 -14 6.44 1.14 0
 2 5 -13 0.19 0.66 0
 2 6 -18 5.62 1.32 0
 2 6 -17 14.42 1.64 0
 2 6 -16 8.91 1.26 0
 2 6 -15 1.86 0.98 0
 2 6 -14 102.39 2.8 0
 2 6 -13 13.46 1.21 0
 2 7 -16 14.16 1.42 0
 2 7 -15 17.31 1.64 0
 2 7 -14 8.4 1.28 0
 2 8 -14 18.41 1.7 0
 3 -5 -18 19.78 1.52 0
 3 -5 -17 20.78 1.59 0
 3 -5 -16 58.14 2.13 0
 3 -5 -15 4.12 0.92 0
 3 -5 -13 25.26 1.5 0
 3 -5 -12 34.91 1.58 0
 3 -5 -11 37.6 1.53 0
 3 -5 -10 57.67 1.8 0
 3 -4 -20 8.1 1.28 0
 3 -4 -19 25.1 1.73 0
 3 -4 -18 23.86 1.71 0
 3 -4 -17 -0.66 0.77 0
 3 -4 -16 25.3 1.65 0
 3 -4 -14 32.52 1.57 0
 3 -4 -13 14.28 1.21 0
 3 -4 -12 50.87 1.79 0
 3 -4 -10 19.84 1.21 0
 3 -4 -9 39.48 1.43 0
 3 -3 -20 5.71 1.15 0
 3 -3 -18 0.8 0.81 0
 3 -3 -17 10.12 1.28 0
 3 -3 -16 1.14 0.88 0
 3 -3 -15 11.41 1.24 0
 3 -3 -14 12.54 1.11 0
 3 -3 -13 16.76 1.15 0
 3 -3 -12 49.69 1.73 0
 3 -3 -11 117.13 2.45 0
 3 -3 -7 406.86 3.78 0
 3 -3 -6 5.41 0.59 0
 3 -3 -5 330.92 3.15 0
 3 -3 -4 21.46 0.85 0
 3 -3 -3 288.78 2.75 0
 3 -2 -21 42.31 2.05 0
 3 -2 -19 36.85 1.99 0
 3 -2 -18 3.06 0.97 0
 3 -2 -17 14.12 1.26 0
 3 -2 -15 20.9 1.45 0
 3 -2 -14 64.93 2.02 0
 3 -2 -8 187.12 2.62 0
 3 -2 -7 180.04 2.44 0
 3 -2 -5 420.26 3.34 0
 3 -1 -21 25.32 1.78 0
 3 -1 -20 7.68 1.29 0
 3 -1 -19 33.25 1.93 0
 3 -1 -18 33.24 1.93 0
 3 -1 -16 10.58 1.17 0
 3 -1 -15 48.6 1.86 0
 3 -1 -14 158.39 3.03 0
 3 -1 -13 53.97 1.82 0
 3 -1 -12 50.1 1.64 0
 3 -1 -9 41.86 1.31 0
 3 -1 -8 419.9 3.72 0
 3 -1 -7 7.34 0.65 0
 3 -1 -6 223.47 2.45 0
 3 -1 -3 153.93 1.76 0
 3 -1 -2 388.39 2.55 0
 3 -1 -1 513.4 2.74 0
 3 -1 0 57.63 0.92 0
 3 0 -21 1.09 1.02 0
 3 0 -20 51.11 2.37 0
 3 0 -19 0.75 0.98 0
 3 0 -17 63.98 2.34 0
 3 0 -16 196.79 3.65 0
 3 0 -15 112.56 2.68 0
 3 0 -14 33.8 1.58 0
 3 0 -13 211.31 3.4 0
 3 0 -12 187.94 3.06 0
 3 0 -9 225.62 2.88 0
 3 0 -8 85.33 1.73 0
 3 0 -7 35.66 1.09 0
 3 0 -4 1259.19 4.89 0
 3 0 -3 352.74 2.43 0
 3 0 -2 268.55 1.98 0
 3 0 -1 146.15 1.34 0
 3 0 0 0.54 0.22 0
 3 1 -21 25.76 1.9 0
 3 1 -19 31.13 1.94 0
 3 1 -18 34.17 1.96 0
 3 1 -17 29.06 1.73 0
 3 1 -16 10.85 1.16 0
 3 1 -14 161.01 3.09 0
 3 1 -13 51.24 1.81 0
 3 1 -9 44.15 1.34 0
 3 1 -8 426.54 3.68 0
 3 1 -7 6.76 0.65 0
 3 1 -6 226.64 2.41 0
 3 1 -3 151.32 1.58 0
 3 1 -2 383.92 2.23 0
 3 1 -1 511.21 2.28 0
 3 1 0 57 0.69 0
 3 1 1 504.34 1.51 0
 3 2 -21 38.34 2.15 0
 3 2 -20 6.7 1.39 0
 3 2 -19 39.58 2.11 0
 3 2 -18 4.43 1.2 0
 3 2 -17 13.01 1.5 0
 3 2 -15 21.43 1.49 0
 3 2 -14 61.19 2 0
 3 2 -12 125.56 2.6 0
 3 2 -11 22.78 1.15 0
 3 2 -9 438.26 3.97 0
 3 2 -8 189.58 2.51 0
 3 2 -7 183.43 2.33 0
 3 2 -6 143.14 1.93 0
 3 2 -5 409.57 2.96 0
 3 2 -2 653.54 2.89 0
 3 2 -1 222.4 1.52 0
 3 2 0 222.7 1.33 0
 3 3 -20 4.83 1.22 0
 3 3 -19 10.47 1.51 0
 3 3 -18 0.77 0.98 0
 3 3 -17 9.02 1.24 0
 3 3 -16 2.21 0.91 0
 3 3 -15 11.11 1.18 0
 3 3 -14 9.96 1.04 0
 3 3 -13 15.82 1.18 0
 3 3 -12 47.89 1.66 0
 3 3 -8 62.77 1.55 0
 3 3 -7 428.42 3.6 0
 3 3 -6 5.67 0.64 0
 3 4 -20 7.08 1.49 0
 3 4 -17 -0.6 1.03 0
 3 4 -15 83.45 2.52 0
 3 4 -14 30.68 1.58 0
 3 4 -13 14.53 1.27 0
 3 4 -10 22.03 1.18 0
 3 4 -9 36.69 1.31 0
 3 5 -19 5.64 1.33 0
 3 5 -18 18.17 1.77 0
 3 5 -13 25.12 1.56 0
 3 5 -12 36.83 1.7 0
 3 6 -13 4.41 1.06 0
 3 6 -12 27.55 1.64 0
 3 6 -11 3.72 0.88 0
 3 7 -15 15.96 1.61 0
 3 7 -14 40.31 1.9 0
 3 7 -13 19.57 1.62 0
 3 7 -11 6.96 1.02 0
 3 8 -14 13.28 1.46 0
 3 8 -12 62.68 2.31 0
 3 9 -11 12.71 1.39 0
 4 -5 -18 27.59 1.7 0
 4 -5 -17 11.88 1.45 0
 4 -5 -15 22.7 1.58 0
 4 -5 -14 102.36 2.77 0
 4 -5 -13 5.17 1.02 0
 4 -5 -12 93.72 2.55 0
 4 -5 -11 37.38 1.65 0
 4 -4 -19 10.31 1.36 0
 4 -4 -18 1.65 0.92 0
 4 -4 -15 44.29 1.96 0
 4 -4 -13 32.03 1.66 0
 4 -4 -12 98.79 2.56 0
 4 -4 -10 44.73 1.7 0
 4 -4 -7 59.99 1.71 0
 4 -4 -6 84.4 1.93 0
 4 -3 -20 20.61 1.73 0
 4 -3 -19 15.81 1.51 0
 4 -3 -18 28.33 1.84 0
 4 -3 -14 18.23 1.48 0
 4 -3 -13 125.79 2.84 0
 4 -3 -12 37.73 1.57 0
 4 -3 -11 48.32 1.74 0
 4 -3 -8 78.26 1.9 0
 4 -3 -5 415.47 3.8 0
 4 -3 -4 36.47 1.17 0
 4 -2 -20 23.27 1.71 0
 4 -2 -19 9.47 1.38 0
 4 -2 -18 29.31 1.89 0
 4 -2 -17 45.78 2.09 0
 4 -2 -16 34.48 1.76 0
 4 -2 -14 17.04 1.31 0
 4 -2 -13 1.75 0.72 0
 4 -2 -12 14.77 1.1 0
 4 -2 -10 213.34 3.18 0
 4 -2 -7 143.22 2.33 0
 4 -2 -6 177.06 2.5 0
 4 -2 -5 94.1 1.77 0
 4 -2 -4 18.19 0.89 0
 4 -2 -3 225.29 2.45 0
 4 -2 -2 210.35 2.26 0
 4 -1 -19 38.31 2.1 0
 4 -1 -18 60.89 2.46 0
 4 -1 -17 31.57 1.84 0
 4 -1 -16 25.03 1.64 0
 4 -1 -15 1.95 0.91 0
 4 -1 -12 209.45 3.39 0
 4 -1 -11 85.81 2.17 0
 4 -1 -10 29.66 1.33 0
 4 -1 -6 216.43 2.65 0
 4 -1 -5 134.96 2 0
 4 -1 -4 181.51 2.18 0
 4 -1 -3 36.06 0.97 0
 4 -1 -2 45.35 1 0
 4 0 -20 0.82 1.06 0
 4 0 -19 5.06 1.19 0
 4 0 -17 4.29 1.11 0
 4 0 -16 115.15 2.94 0
 4 0 -15 54.63 2.02 0
 4 0 -11 136.71 2.67 0
 4 0 -8 104.25 1.99 0
 4 0 -4 387.88 3.02 0
 4 0 0 343.15 2.07 0
 4 1 -20 7.72 1.35 0
 4 1 -19 37.69 2.04 0
 4 1 -18 59.01 2.45 0
 4 1 -17 30.04 1.71 0
 4 1 -16 25.45 1.66 0
 4 1 -14 53.02 1.93 0
 4 1 -13 33.36 1.52 0
 4 1 -12 207.64 3.31 0
 4 1 -11 87.43 2.12 0
 4 1 -8 77.48 1.72 0
 4 1 -7 125.97 2.08 0
 4 1 -6 211.68 2.47 0
 4 1 -5 130.02 1.84 0
 4 1 -4 183.12 2.05 0
 4 1 -1 427.57 2.36 0
 4 1 0 544.76 2.31 0
 4 1 1 413.42 1.65 0
 4 2 -19 8.97 1.48 0
 4 2 -18 29.82 1.88 0
 4 2 -17 40.51 1.94 0
 4 2 -15 14.15 1.27 0
 4 2 -14 17.54 1.4 0
 4 2 -13 1.33 0.73 0
 4 2 -12 15.07 1.18 0
 4 2 -11 66.16 1.94 0
 4 2 -10 214.12 3.14 0
 4 2 -8 161.92 2.47 0
 4 2 -7 155.02 2.31 0
 4 2 -5 95.23 1.63 0
 4 2 -4 17.62 0.76 0
 4 2 -3 234.09 2.15 0
 4 2 0 86.22 0.92 0
 4 3 -20 18.5 1.69 0
 4 3 -17 29.78 1.76 0
 4 3 -15 46.5 2.08 0
 4 3 -12 38.98 1.7 0
 4 3 -11 45.59 1.63 0
 4 3 -10 25.12 1.29 0
 4 3 -7 87.19 1.8 0
 4 3 -6 120.58 1.96 0
 4 3 -5 429.47 3.36 0
 4 3 -4 35.5 1.01 0
 4 3 -3 124.92 1.62 0
 4 3 -2 41.88 0.91 0
 4 3 1 177.66 1.12 0
 4 4 -19 8.48 1.44 0
 4 4 -17 56.54 2.44 0
 4 4 -15 42.83 2.03 0
 4 4 -14 7.97 1.11 0
 4 4 -13 32.09 1.62 0
 4 4 -12 97.75 2.48 0
 4 4 -10 46.09 1.59 0
 4 4 -9 3.63 0.76 0
 4 4 -6 82.51 1.72 0
 4 4 -5 120.51 1.93 0
 4 4 -4 54.89 1.23 0
 4 4 -3 143.73 1.81 0
 4 4 -2 68.98 1.2 0
 4 4 -1 191.62 1.78 0
 4 4 0 110.33 1.23 0
 4 5 -18 28.05 1.99 0
 4 5 -15 20.35 1.53 0
 4 5 -11 37.63 1.67 0
 4 5 -9 3.63 0.77 0
 4 5 -7 36.11 1.34 0
 4 6 -17 77.01 2.83 0
 4 6 -16 25.82 1.87 0
 4 6 -15 5.15 1.13 0
 4 6 -13 4.98 1.02 0
 4 6 -11 3.89 0.88 0
 4 6 -10 59.85 1.98 0
 4 7 -15 40.11 2.07 0
 4 7 -14 5.75 1.11 0
 4 7 -13 40.72 1.89 0
 4 7 -12 25.09 1.55 0
 4 7 -11 15.44 1.26 0
 4 7 -8 7.98 1 0
 4 8 -13 18.93 1.59 0
 4 8 -12 19.73 1.54 0
 4 8 -11 57.82 2.15 0
 4 8 -10 32.58 1.66 0
 4 8 -8 69.93 2.1 0
 4 9 -10 38.26 1.82 0
 4 9 -8 23.77 1.47 0
 4 9 -7 14.02 1.23 0
 5 -5 -15 2.56 0.97 0
 5 -5 -14 40.7 2 0
 5 -5 -12 -0.19 0.76 0
 5 -5 -11 20.95 1.39 0
 5 -4 -15 2.03 0.98 0
 5 -4 -13 8.01 1.14 0
 5 -4 -12 22.95 1.53 0
 5 -4 -11 9.82 1.04 0
 5 -4 -10 31.78 1.51 0
 5 -4 -9 62.3 1.98 0
 5 -4 -7 48.57 1.66 0
 5 -3 -19 10.51 1.43 0
 5 -3 -17 2.92 1.11 0
 5 -3 -16 13.5 1.34 0
 5 -3 -15 45.99 2.11 0
 5 -3 -14 78.14 2.51 0
 5 -3 -13 9.62 1.17 0
 5 -3 -12 168.16 3.32 0
 5 -3 -11 11.21 1.12 0
 5 -3 -10 176 3.19 0
 5 -3 -8 282.49 3.78 0
 5 -3 -6 64.37 1.73 0
 5 -2 -19 6.93 1.25 0
 5 -2 -18 52.71 2.25 0
 5 -2 -17 6.01 1.18 0
 5 -2 -16 2.04 1.1 0
 5 -2 -15 13.13 1.31 0
 5 -2 -13 2.05 0.8 0
 5 -2 -12 22.87 1.35 0
 5 -2 -11 80 2.28 0
 5 -2 -10 207.17 3.39 0
 5 -2 -9 35.68 1.49 0
 5 -2 -4 230.51 2.76 0
 5 -2 -3 47.53 1.27 0
 5 -1 -19 18.78 1.73 0
 5 -1 -17 14.09 1.53 0
 5 -1 -16 88.19 2.79 0
 5 -1 -15 37.01 1.88 0
 5 -1 -14 43.54 1.96 0
 5 -1 -13 58.62 2.05 0
 5 -1 -11 54.89 1.87 0
 5 -1 -10 11.68 1.02 0
 5 -1 -6 350.65 3.56 0
 5 -1 -4 167.3 2.28 0
 5 -1 -3 293.5 2.82 0
 5 -1 -2 752.1 4.22 0
 5 -1 -1 180.64 1.98 0
 5 0 -19 18.21 1.67 0
 5 0 -18 1.59 0.99 0
 5 0 -16 16.58 1.54 0
 5 0 -14 3.07 0.9 0
 5 0 -13 107.79 2.71 0
 5 0 -12 1.13 0.76 0
 5 0 -11 32.4 1.5 0
 5 0 -10 13.45 1.13 0
 5 0 -9 110.99 2.28 0
 5 0 -6 1.88 0.53 0
 5 0 -5 288.85 2.99 0
 5 0 -4 632.52 4.12 0
 5 0 -3 74.75 1.4 0
 5 0 -1 386.69 2.65 0
 5 0 0 0.26 0.25 0
 5 1 -19 17.14 1.76 0
 5 1 -18 6.25 1.2 0
 5 1 -16 86.36 2.73 0
 5 1 -15 37 1.94 0
 5 1 -13 58.05 2.09 0
 5 1 -12 35.39 1.57 0
 5 1 -10 11.12 1.06 0
 5 1 -9 133 2.51 0
 5 1 -6 344.97 3.37 0
 5 1 -4 164.75 2.08 0
 5 1 -3 286.45 2.55 0
 5 1 -2 751.77 3.74 0
 5 1 -1 186.8 1.72 0
 5 2 -19 8.88 1.42 0
 5 2 -18 52.84 2.41 0
 5 2 -17 4.23 1.13 0
 5 2 -16 2.26 0.99 0
 5 2 -15 14.17 1.46 0
 5 2 -13 0.99 0.82 0
 5 2 -12 20.13 1.39 0
 5 2 -11 73.47 2.09 0
 5 2 -10 204.62 3.22 0
 5 2 -6 18.65 0.94 0
 5 2 -5 88.42 1.68 0
 5 2 -4 231.53 2.45 0
 5 2 -3 46.18 1.06 0
 5 2 -2 254.97 2.16 0
 5 2 -1 52.25 0.9 0
 5 2 1 49.66 0.5 0
 5 3 -19 9.18 1.45 0
 5 3 -18 6.02 1.2 0
 5 3 -17 2.05 1.08 0
 5 3 -16 13.62 1.48 0
 5 3 -14 77.39 2.42 0
 5 3 -13 8.88 1.17 0
 5 3 -9 0.98 0.63 0
 5 3 -6 62.67 1.55 0
 5 3 -5 97.74 1.76 0
 5 3 -4 96.26 1.63 0
 5 3 -3 101.8 1.55 0
 5 3 -2 50.89 1.03 0
 5 3 -1 62.03 0.99 0
 5 4 -18 1.22 1.04 0
 5 4 -17 7.17 1.3 0
 5 4 -16 20.63 1.77 0
 5 4 -15 1.04 0.89 0
 5 4 -14 8.08 1.23 0
 5 4 -13 6.55 1.07 0
 5 4 -12 25.3 1.57 0
 5 4 -11 8.16 1.07 0
 5 4 -9 61.96 1.85 0
 5 4 -5 116.01 1.95 0
 5 4 -4 44.85 1.19 0
 5 4 -3 248.14 2.45 0
 5 4 -2 5.79 0.48 0
 5 4 -1 31.18 0.75 0
 5 4 0 42.64 0.74 0
 5 5 -17 3.13 1.12 0
 5 5 -16 16.84 1.54 0
 5 5 -15 2.59 1.04 0
 5 5 -14 41.27 2.04 0
 5 5 -13 17.84 1.38 0
 5 5 -12 -0.14 0.89 0
 5 5 -11 21.76 1.4 0
 5 5 -8 64.01 1.84 0
 5 5 -7 41.3 1.46 0
 5 5 -6 31.11 1.21 0
 5 5 -4 91.62 1.71 0
 5 5 -3 19.57 0.82 0
 5 5 -2 39.21 0.99 0
 5 5 -1 260.14 2.19 0
 5 6 -15 1.16 1.08 0
 5 6 -14 23.17 1.7 0
 5 6 -13 8.01 1.16 0
 5 6 -12 22.33 1.58 0
 5 6 -11 23.21 1.44 0
 5 6 -10 1.41 0.9 0
 5 6 -9 39.53 1.62 0
 5 6 -8 -0.01 0.59 0
 5 6 -7 11.29 0.97 0
 5 6 -6 50.23 1.53 0
 5 6 -5 4.96 0.67 0
 5 7 -14 41.04 2.04 0
 5 7 -13 5.02 1.05 0
 5 7 -12 32.86 1.81 0
 5 7 -11 7.24 1.08 0
 5 7 -10 41.38 1.79 0
 5 7 -8 62.21 1.94 0
 5 7 -7 51.84 1.71 0
 5 7 -6 24.44 1.22 0
 5 7 -5 35.86 1.33 0
 5 8 -11 0.76 0.93 0
 5 8 -10 41.78 1.8 0
 5 8 -9 12 1.2 0
 6 -4 -16 22.87 1.8 0
 6 -4 -13 50.63 2.11 0
 6 -4 -11 41.05 1.86 0
 6 -4 -10 31.65 1.65 0
 6 -4 -9 186.4 3.46 0
 6 -4 -8 65.42 2.05 0
 6 -3 -17 30.36 1.92 0
 6 -3 -15 5.61 1.15 0
 6 -3 -14 32.05 1.83 0
 6 -3 -13 68.95 2.43 0
 6 -3 -12 2.04 0.88 0
 6 -3 -11 86.71 2.5 0
 6 -3 -10 34.24 1.68 0
 6 -3 -9 47 1.75 0
 6 -3 -8 25.43 1.41 0
 6 -3 -6 26.43 1.3 0
 6 -2 -18 53.8 2.4 0
 6 -2 -17 40.9 2.05 0
 6 -2 -16 15.8 1.62 0
 6 -2 -12 12.36 1.31 0
 6 -2 -11 133.77 2.94 0
 6 -2 -10 15.16 1.14 0
 6 -2 -7 108.02 2.35 0
 6 -2 -6 0.55 0.56 0
 6 -2 -5 130.91 2.39 0
 6 -1 -18 14.37 1.76 0
 6 -1 -17 20.78 1.75 0
 6 -1 -16 4.81 1.11 0
 6 -1 -14 35.54 1.86 0
 6 -1 -13 8.27 1.12 0
 6 -1 -10 2.51 0.76 0
 6 -1 -9 15.68 1.15 0
 6 -1 -8 14.71 1.09 0
 6 -1 -4 24.49 1.05 0
 6 -1 -3 19.12 0.89 0
 6 -1 -2 11.64 0.71 0
 6 0 -18 8.33 1.42 0
 6 0 -17 30.53 1.98 0
 6 0 -16 49.33 2.26 0
 6 0 -15 -0.71 0.78 0
 6 0 -13 3.21 0.96 0
 6 0 -12 10.31 1.23 0
 6 0 -11 151.44 3.08 0
 6 0 -10 19.88 1.25 0
 6 0 -9 18.21 1.19 0
 6 0 -8 44.49 1.56 0
 6 0 -5 116.51 2.04 0
 6 0 -4 26.1 1 0
 6 0 -3 1.26 0.44 0
 6 0 -2 23.9 0.85 0
 6 0 -1 138.58 1.7 0
 6 1 -18 12.11 1.43 0
 6 1 -16 4.12 1.08 0
 6 1 -14 34.97 1.86 0
 6 1 -12 36.2 1.74 0
 6 1 -11 14.08 1.24 0
 6 1 -10 2.27 0.75 0
 6 1 -9 14.91 1.08 0
 6 1 -8 13.74 0.95 0
 6 1 -5 16.5 0.89 0
 6 1 -4 25.72 0.97 0
 6 1 -2 11.04 0.6 0
 6 1 -1 0.84 0.28 0
 6 2 -18 50.18 2.27 0
 6 2 -17 43.03 2.17 0
 6 2 -12 14.16 1.34 0
 6 2 -9 4.62 0.79 0
 6 2 -8 -0.24 0.53 0
 6 2 -5 133.37 2.08 0
 6 2 -4 30.43 1.01 0
 6 2 -3 3.41 0.46 0
 6 2 -2 4.49 0.44 0
 6 2 -1 127.68 1.39 0
 6 3 -17 27.37 1.88 0
 6 3 -15 6.46 1.22 0
 6 3 -14 32.35 1.81 0
 6 3 -13 71 2.34 0
 6 3 -12 3.62 0.93 0
 6 3 -11 85.12 2.36 0
 6 3 -9 42.8 1.56 0
 6 3 -8 25.2 1.21 0
 6 3 -7 54.3 1.58 0
 6 3 -5 31.28 1.09 0
 6 3 -4 12.35 0.73 0
 6 3 -3 6.77 0.53 0
 6 3 -2 61.96 1.11 0
 6 4 -16 19.97 1.62 0
 6 4 -15 61.24 2.39 0
 6 4 -13 47.24 2.03 0
 6 4 -11 41.98 1.82 0
 6 4 -10 30.35 1.49 0
 6 4 -9 189.9 3.17 0
 6 4 -8 63.96 1.83 0
 6 4 -7 51.95 1.58 0
 6 4 -3 37.09 0.98 0
 6 5 -15 9.77 1.28 0
 6 5 -14 57.03 2.24 0
 6 5 -13 69.9 2.39 0
 6 5 -12 -0.39 0.87 0
 6 5 -11 93.02 2.51 0
 6 5 -10 75.6 2.2 0
 6 5 -9 30.4 1.46 0
 6 5 -8 30.2 1.41 0
 6 5 -6 15.82 0.99 0
 6 6 -14 12.72 1.42 0
 6 6 -13 33.13 1.79 0
 6 6 -12 40.75 1.9 0
 6 6 -11 33.22 1.7 0
 6 6 -10 22.23 1.42 0
 6 6 -9 83.39 2.2 0
 6 6 -8 17.81 1.2 0
 7 -4 -14 28.65 1.85 0
 7 -4 -13 14.12 1.5 0
 7 -3 -15 39.83 2.11 0
 7 -3 -14 50.32 2.27 0
 7 -3 -13 44.74 2.06 0
 7 -3 -12 2.67 0.99 0
 7 -3 -11 8.09 1.11 0
 7 -3 -10 58.08 2.07 0
 7 -3 -9 132.98 2.94 0
 7 -3 -8 18.31 1.24 0
 7 -3 -7 44.58 1.73 0
 7 -2 -16 2.25 1.04 0
 7 -2 -15 36.08 1.93 0
 7 -2 -14 39.06 1.97 0
 7 -2 -13 55.67 2.2 0
 7 -2 -12 1.46 0.98 0
 7 -2 -11 124.96 2.97 0
 7 -2 -10 8.92 1.09 0
 7 -2 -9 4.43 0.93 0
 7 -2 -7 128.44 2.62 0
 7 -2 -6 41.72 1.51 0
 7 -2 -5 95.47 2.11 0
 7 -1 -17 20.63 1.83 0
 7 -1 -16 23.56 1.66 0
 7 -1 -15 36.99 2.03 0
 7 -1 -14 33.05 1.91 0
 7 -1 -13 54.46 2.19 0
 7 -1 -12 3.07 0.89 0
 7 -1 -11 24.65 1.58 0
 7 -1 -10 23.78 1.47 0
 7 -1 -8 73.29 2.01 0
 7 -1 -7 15.3 1.11 0
 7 -1 -6 92.94 2.06 0
 7 -1 -5 46.27 1.45 0
 7 0 -17 0.82 1.02 0
 7 0 -16 94.67 2.9 0
 7 0 -15 0.17 0.96 0
 7 0 -14 1.17 0.94 0
 7 0 -13 18.54 1.52 0
 7 0 -10 11.46 1.17 0
 7 0 -9 5.22 0.92 0
 7 0 -8 4.6 0.77 0
 7 0 -7 67.09 1.83 0
 7 0 -3 0.24 0.45 0
 7 1 -17 22.44 1.83 0
 7 1 -16 25.05 1.77 0
 7 1 -15 38.66 1.99 0
 7 1 -14 31.91 1.85 0
 7 1 -13 51.49 2.13 0
 7 1 -12 2.59 0.97 0
 7 1 -11 26.87 1.56 0
 7 1 -10 23.52 1.41 0
 7 1 -9 93.99 2.26 0
 7 1 -8 76.46 2 0
 7 1 -7 12.7 0.98 0
 7 1 -3 113.4 1.76 0
 7 1 -2 85.98 1.4 0
 7 2 -16 3.15 1.05 0
 7 2 -15 38.87 1.98 0
 7 2 -14 41.96 2.03 0
 7 2 -12 0.84 0.79 0
 7 2 -11 129.18 2.84 0
 7 2 -8 96.28 2.18 0
 7 2 -6 39.91 1.34 0
 7 2 -4 182.82 2.29 0
 7 2 -3 21.64 0.8 0
 7 3 -16 1.31 1.07 0
 7 3 -14 55.28 2.18 0
 7 3 -13 40.32 1.91 0
 7 3 -12 2.39 0.84 0
 7 3 -11 8.91 1.11 0
 7 3 -9 132.57 2.68 0
 7 3 -8 17.42 1.12 0
 7 3 -7 44.2 1.47 0
 7 3 -6 14.89 0.94 0
 7 4 -15 2.34 0.97 0
 7 4 -14 29.15 1.73 0
 7 4 -13 13.25 1.35 0
 7 4 -12 43.83 1.88 0
 7 4 -11 50.07 1.9 0
 7 4 -10 47.61 1.77 0
 7 4 -9 7.45 0.95 0
 7 4 -8 60.78 1.77 0
 7 4 -7 30.94 1.27 0
 7 5 -14 2.85 0.99 0
 7 5 -13 13.06 1.29 0
 7 5 -12 15.9 1.31 0
 7 5 -11 4.24 0.94 0
 8 -3 -13 5.08 1.13 0
 8 -2 -14 5.84 1.13 0
 8 -2 -13 41.58 2.01 0
 8 -2 -12 0.15 0.8 0
 8 -2 -10 2.38 0.84 0
 8 -2 -9 16.25 1.27 0
 8 -2 -8 -0.84 0.63 0
 8 -1 -15 48.95 2.22 0
 8 -1 -14 0.85 0.91 0
 8 -1 -13 27.33 1.75 0
 8 -1 -12 13.92 1.26 0
 8 -1 -11 105.05 2.73 0
 8 -1 -8 4.23 0.91 0
 8 -1 -7 122.14 2.55 0
 8 -1 -6 19.65 1.13 0
 8 0 -15 -1.11 0.81 0
 8 0 -12 47.26 1.97 0
 8 0 -11 51.36 1.97 0
 8 0 -10 6.35 1.02 0
 8 0 -9 16.4 1.17 0
 8 0 -8 117.11 2.54 0
 8 0 -6 14.01 0.98 0
 8 0 -5 -0.02 0.45 0
 8 0 -4 2.56 0.53 0
 8 1 -15 43.2 2.05 0
 8 1 -14 1.93 1.01 0
 8 1 -13 28.5 1.7 0
 8 1 -11 108.71 2.67 0
 8 1 -8 5.42 0.83 0
 8 1 -7 118.87 2.36 0
 8 1 -5 131.84 2.19 0
 8 2 -14 6.18 1.12 0
 8 2 -13 39.85 1.87 0
 8 2 -12 0.27 0.75 0
 8 2 -11 10.68 1.17 0
 8 2 -8 0.51 0.62 0
 8 3 -14 4.33 1.06 0
 8 3 -12 15.51 1.35 0
 8 3 -11 102.22 2.52 0
 9 -1 -12 10.66 1.26 0
 9 -1 -11 50.32 1.96 0
 9 -1 -9 21.56 1.34 0
 9 0 -11 1.24 0.78 0
 9 0 -9 23.5 1.35 0
 -5 2 -14 122.93 2.76 0
 -5 2 -10 197.94 2.78 0
 -5 2 -9 32.79 1.13 0
 -5 2 -8 86.13 1.6 0
 -5 3 -16 12.84 1.51 0
 -5 3 -15 46.48 1.96 0
 -5 3 -14 75.7 2.31 0
 -5 3 -12 164.98 2.94 0
 -5 3 -9 1.65 0.55 0
 -5 3 -7 166.9 2.19 0
 -5 3 -6 62.23 1.31 0
 -5 3 -5 97.18 1.51 0
 -5 3 -4 97.01 1.39 0
 -5 3 -3 95.13 1.29 0
 -5 3 -2 49.96 0.93 0
 -5 3 -1 60.99 1 0
 -5 4 -15 1.33 0.86 0
 -5 4 -14 10.63 1.22 0
 -5 4 -12 22.5 1.34 0
 -5 4 -11 8.76 0.96 0
 -5 4 -6 19.3 0.9 0
 -5 4 -5 111.17 1.82 0
 -5 4 -4 43.82 1.15 0
 -5 4 -3 238.03 2.49 0
 -5 4 -2 5.31 0.53 0
 -5 4 -1 30.79 0.92 0
 -5 5 -14 41.27 1.88 0
 -5 5 -13 16.48 1.35 0
 -5 5 -11 21.26 1.35 0
 -5 5 -9 14.33 1.09 0
 -5 5 -3 19.81 0.97 0
 -5 6 -10 1.59 0.76 0
 -5 6 -8 0.28 0.63 0
 -5 6 -5 4.97 0.8 0
 -5 6 -4 19.7 1.16 0
 -5 6 -3 128.66 2.45 0
 -5 7 -8 62.86 2.12 0
 -5 7 -7 52.54 1.94 0
 -5 7 -5 34.31 1.6 0
 -5 7 -3 8.66 1.05 0
 -5 7 -2 20.53 1.3 0
 -5 8 -7 6.35 1.05 0
 -5 8 -6 44.29 1.93 0
 -5 8 -5 41.13 1.88 0
 -5 8 -3 16.48 1.32 0
 -5 8 -2 14.52 1.28 0
 -5 8 -1 16.81 1.36 0
 -5 9 -1 18.93 1.5 0
 -5 9 0 59.56 2.21 0
 -4 1 -15 3.09 0.92 0
 -4 1 -14 57.05 2.04 0
 -4 1 -10 30.31 1.22 0
 -4 1 -9 4.03 0.59 0
 -4 1 -8 78.74 1.57 0
 -4 1 -7 122.88 1.75 0
 -4 1 -6 211.05 2.02 0
 -4 1 -5 132.7 1.44 0
 -4 1 -4 178.53 1.42 0
 -4 1 -3 35.88 0.52 0
 -4 2 -18 29.76 1.89 0
 -4 2 -17 43.8 2.14 0
 -4 2 -15 14.5 1.3 0
 -4 2 -14 16.81 1.36 0
 -4 2 -13 1.49 0.71 0
 -4 2 -10 207.26 2.89 0
 -4 2 -9 62.93 1.52 0
 -4 2 -8 158.76 2.22 0
 -4 2 -7 150.01 2.01 0
 -4 2 -6 171.76 2 0
 -4 2 -5 93.2 1.37 0
 -4 2 -4 16.25 0.58 0
 -4 2 -3 225.34 1.7 0
 -4 2 -2 210.78 1.53 0
 -4 3 -20 23.11 1.95 0
 -4 3 -18 26.6 1.89 0
 -4 3 -17 30.41 1.9 0
 -4 3 -16 18.25 1.62 0
 -4 3 -15 48.01 2.07 0
 -4 3 -14 19.9 1.38 0
 -4 3 -13 116.84 2.64 0
 -4 3 -12 36.35 1.49 0
 -4 3 -8 75.64 1.67 0
 -4 3 -7 86.53 1.71 0
 -4 3 -6 114.27 1.81 0
 -4 3 -5 413.85 3.17 0
 -4 3 -3 122.59 1.62 0
 -4 3 -2 42.76 0.95 0
 -4 4 -19 9.23 1.45 0
 -4 4 -18 0.88 1.03 0
 -4 4 -17 56.84 2.48 0
 -4 4 -16 72.44 2.61 0
 -4 4 -15 43.81 2.04 0
 -4 4 -14 5.55 1.04 0
 -4 4 -13 30.85 1.58 0
 -4 4 -11 29.14 1.45 0
 -4 4 -10 44.48 1.64 0
 -4 4 -6 79.59 1.71 0
 -4 4 -5 116.34 1.99 0
 -4 4 -4 51.34 1.31 0
 -4 4 -3 140.85 2.02 0
 -4 5 -18 26.33 1.93 0
 -4 5 -17 10.07 1.39 0
 -4 5 -12 89.69 2.51 0
 -4 5 -11 37.18 1.76 0
 -4 5 -9 3.39 0.83 0
 -4 5 -8 111.68 2.41 0
 -4 6 -17 70.94 2.7 0
 -4 6 -13 3 1.04 0
 -4 6 -12 29.87 1.77 0
 -4 6 -11 3.43 0.93 0
 -4 6 -10 58.86 2.12 0
 -4 6 -9 47.36 1.86 0
 -4 6 -8 24.38 1.4 0
 -4 6 -7 8.74 0.99 0
 -4 6 -6 79.63 2.15 0
 -4 6 -4 2.35 0.65 0
 -4 6 -3 72.28 1.93 0
 -4 7 -15 42.61 2.24 0
 -4 7 -14 3.42 1.03 0
 -4 7 -13 41.72 2.17 0
 -4 7 -12 29.56 1.85 0
 -4 7 -11 14.43 1.49 0
 -4 7 -10 15.46 1.51 0
 -4 7 -9 18.72 1.53 0
 -4 7 -7 4.32 0.94 0
 -4 7 -6 49.39 1.94 0
 -4 8 -13 19.8 1.81 0
 -4 8 -12 17.91 1.65 0
 -4 8 -10 28.98 1.8 0
 -4 8 -8 70.88 2.5 0
 -4 8 -7 34.91 1.85 0
 -4 8 -5 6.73 1.12 0
 -4 8 -4 31.01 1.76 0
 -4 8 -3 48.34 2.03 0
 -4 9 -10 36.16 2.12 0
 -4 9 -9 18.64 1.63 0
 -4 9 -8 25.34 1.85 0
 -4 9 -6 27.96 1.9 0
 -4 9 -5 12.49 1.39 0
 -4 9 -4 38.82 2.07 0
 -4 9 -3 15.98 1.46 0
 -4 9 -2 1.89 1.02 0
 -4 10 -3 10.09 1.35 0
 -4 10 -2 15.33 1.54 0
 -4 10 -1 5.02 1.09 0
 -4 10 0 2.15 0.96 0
 -3 0 -13 211.24 3.59 0
 -3 0 -11 104.04 2.24 0
 -3 0 -9 224.68 2.85 0
 -3 0 -7 35.38 1.03 0
 -3 0 -6 467.83 3.11 0
 -3 0 -5 129.15 1.48 0
 -3 0 -4 1242.16 3.87 0
 -3 1 -17 31.03 2 0
 -3 1 -15 50.11 2.1 0
 -3 1 -11 23.83 1.16 0
 -3 1 -9 43.53 1.33 0
 -3 1 -8 420.84 3.48 0
 -3 1 -7 7.2 0.53 0
 -3 1 -6 216.45 2.1 0
 -3 1 -4 159.03 1.45 0
 -3 1 -3 147.58 1.2 0
 -3 1 -2 383.54 1.59 0
 -3 1 -1 496.25 1.5 0
 -3 2 -20 5.22 1.32 0
 -3 2 -19 39.84 2.32 0
 -3 2 -18 2.66 1.07 0
 -3 2 -17 14.9 1.66 0
 -3 2 -16 3.91 1.03 0
 -3 2 -15 20.27 1.54 0
 -3 2 -13 57.01 1.89 0
 -3 2 -10 369.07 3.88 0
 -3 2 -9 444.24 4.01 0
 -3 2 -8 186.81 2.5 0
 -3 2 -7 178.68 2.25 0
 -3 2 -6 149.15 1.93 0
 -3 2 -5 413.29 2.86 0
 -3 2 -4 103.75 1.35 0
 -3 2 -3 751.18 3.31 0
 -3 2 -2 645.86 2.83 0
 -3 3 -20 4.62 1.33 0
 -3 3 -18 1.31 1.12 0
 -3 3 -17 9.19 1.3 0
 -3 3 -15 11.08 1.32 0
 -3 3 -14 11.89 1.25 0
 -3 3 -13 15.5 1.21 0
 -3 3 -12 47.31 1.73 0
 -3 3 -9 43.29 1.42 0
 -3 3 -8 66.92 1.65 0
 -3 3 -7 417.28 3.67 0
 -3 3 -5 338.77 2.98 0
 -3 3 -4 20.5 0.81 0
 -3 3 -3 290.65 2.5 0
 -3 4 -20 8.24 1.55 0
 -3 4 -18 23.88 1.96 0
 -3 4 -17 0 1 0
 -3 4 -15 78.2 2.56 0
 -3 4 -14 31 1.72 0
 -3 4 -13 14.28 1.34 0
 -3 4 -12 49.83 1.84 0
 -3 4 -6 7.4 0.81 0
 -3 4 -5 154.37 2.3 0
 -3 4 -4 160.67 2.26 0
 -3 5 -19 3.97 1.28 0
 -3 5 -17 22.29 1.87 0
 -3 5 -16 56.45 2.49 0
 -3 5 -15 4.67 1.12 0
 -3 5 -14 48.23 2.16 0
 -3 5 -13 23.48 1.65 0
 -3 5 -12 33.72 1.78 0
 -3 5 -10 58.75 1.95 0
 -3 5 -9 14.76 1.19 0
 -3 5 -4 1.1 0.54 0
 -3 6 -18 59.74 2.72 0
 -3 6 -16 31.85 2.1 0
 -3 6 -15 30.74 2.05 0
 -3 6 -13 3.78 1.11 0
 -3 6 -12 27.24 1.8 0
 -3 6 -11 3.98 0.94 0
 -3 6 -10 0.72 0.78 0
 -3 6 -9 31.92 1.57 0
 -3 6 -8 26.9 1.45 0
 -3 6 -7 73.89 2.19 0
 -3 6 -5 10.72 1.07 0
 -3 7 -16 19.01 1.76 0
 -3 7 -14 44.86 2.29 0
 -3 7 -13 23.23 1.9 0
 -3 7 -12 15.25 1.47 0
 -3 7 -10 5.49 1.23 0
 -3 7 -8 41.3 1.92 0
 -3 7 -6 41.96 1.88 0
 -3 7 -5 130.16 2.94 0
 -3 7 -4 37.03 1.66 0
 -3 8 -14 8.58 1.45 0
 -3 8 -13 33.22 2.13 0
 -3 8 -12 62.55 2.66 0
 -3 8 -9 50.98 2.34 0
 -3 8 -8 22.39 1.68 0
 -3 8 -7 29.93 1.78 0
 -3 8 -6 41.88 2.06 0
 -3 8 -5 16.18 1.5 0
 -3 8 -4 45.95 2.05 0
 -3 8 -3 41.77 1.86 0
 -3 9 -10 45.71 2.34 0
 -3 9 -9 2.1 1.13 0
 -3 9 -8 74.85 2.74 0
 -3 9 -7 14.37 1.69 0
 -3 9 -6 30.2 1.89 0
 -3 9 -4 10.08 1.32 0
 -3 9 -3 2.2 1.16 0
 -3 9 -2 76.71 2.66 0
 -3 10 -7 3.31 1.27 0
 -3 10 -6 49.11 2.42 0
 -3 10 -4 11.98 1.5 0
 -3 10 -3 2.4 1.16 0
 -3 10 -1 -0.16 1.07 0
 -2 0 -14 26.63 1.49 0
 -2 0 -11 133.15 2.59 0
 -2 0 -10 71.26 1.77 0
 -2 0 -9 36.44 1.27 0
 -2 0 -8 178.62 2.39 0
 -2 0 -7 9.82 0.67 0
 -2 0 -6 157.37 1.86 0
 -2 0 -5 1014.56 4.12 0
 -2 0 -4 313.56 2.04 0
 -2 0 -3 101.53 1.01 0
 -2 0 -2 334.88 1.37 0
 -2 1 -19 48.19 2.43 0
 -2 1 -18 118.78 3.45 0
 -2 1 -17 104.11 3.16 0
 -2 1 -16 34.06 1.92 0
 -2 1 -15 40.93 1.89 0
 -2 1 -14 80.21 2.42 0
 -2 1 -13 172.18 3.25 0
 -2 1 -11 167.44 2.79 0
 -2 1 -7 265.48 2.59 0
 -2 1 -6 375.28 2.81 0
 -2 1 -5 31.92 0.8 0
 -2 1 -4 1923.78 5.05 0
 -2 1 -3 342.09 1.89 0
 -2 2 -21 31.82 2.4 0
 -2 2 -20 33.07 2.16 0
 -2 2 -18 10.09 1.39 0
 -2 2 -17 0.55 0.98 0
 -2 2 -14 40.09 1.8 0
 -2 2 -13 104.03 2.55 0
 -2 2 -10 4.8 0.68 0
 -2 2 -9 199.59 2.79 0
 -2 2 -8 234.1 2.78 0
 -2 2 -7 205.7 2.4 0
 -2 2 -6 488.62 3.41 0
 -2 2 -5 11.15 0.6 0
 -2 2 -4 166.29 1.74 0
 -2 2 -3 191.53 1.75 0
 -2 3 -21 1.07 1.22 0
 -2 3 -19 5.93 1.49 0
 -2 3 -17 27.5 1.83 0
 -2 3 -16 43.4 2.02 0
 -2 3 -13 28.88 1.54 0
 -2 3 -12 154.63 3.07 0
 -2 3 -9 86.65 1.94 0
 -2 3 -8 133.96 2.28 0
 -2 3 -7 13.67 0.86 0
 -2 3 -6 1017.56 5.42 0
 -2 3 -5 493.16 3.62 0
 -2 3 -4 111.56 1.69 0
 -2 4 -20 6.95 1.66 0
 -2 4 -18 7.36 1.52 0
 -2 4 -17 24.91 1.95 0
 -2 4 -15 16.01 1.47 0
 -2 4 -14 19.6 1.46 0
 -2 4 -13 0.94 0.79 0
 -2 4 -11 27.39 1.4 0
 -2 4 -7 272.36 3.28 0
 -2 4 -6 43.39 1.39 0
 -2 4 -5 218.59 2.75 0
 -2 4 -4 317.08 3.2 0
 -2 5 -19 28.34 2.18 0
 -2 5 -18 9.42 1.54 0
 -2 5 -17 19.17 1.7 0
 -2 5 -16 72.15 2.76 0
 -2 5 -15 4.19 1.21 0
 -2 5 -14 8.45 1.23 0
 -2 5 -11 17.26 1.31 0
 -2 5 -10 1.19 0.68 0
 -2 5 -9 45.17 1.74 0
 -2 5 -4 123.82 2.27 0
 -2 6 -18 6.79 1.46 0
 -2 6 -16 6.79 1.29 0
 -2 6 -15 2.73 1.18 0
 -2 6 -12 34.07 1.81 0
 -2 6 -11 4.76 0.97 0
 -2 6 -10 134.83 3.09 0
 -2 6 -8 50.79 1.86 0
 -2 6 -7 20.13 1.36 0
 -2 6 -6 14.8 1.12 0
 -2 6 -5 58.77 1.88 0
 -2 6 -4 1.78 0.69 0
 -2 7 -14 10.59 1.65 0
 -2 7 -13 4.94 1.2 0
 -2 7 -11 14.53 1.57 0
 -2 7 -10 177.55 3.77 0
 -2 7 -9 20.74 1.5 0
 -2 7 -8 24.29 1.55 0
 -2 7 -7 2.79 0.86 0
 -2 7 -6 257.7 4.19 0
 -2 7 -5 57.76 2.05 0
 -2 7 -4 13.16 1.26 0
 -2 8 -14 20.25 1.93 0
 -2 8 -13 2.28 1.21 0
 -2 8 -12 25.9 1.94 0
 -2 8 -11 5.9 1.32 0
 -2 8 -10 22.13 1.84 0
 -2 8 -9 2.72 1.04 0
 -2 8 -8 194.24 4.13 0
 -2 8 -7 23.08 1.75 0
 -2 8 -6 46.7 2.09 0
 -2 8 -5 2.51 0.88 0
 -2 8 -4 153.19 3.44 0
 -2 9 -12 17.07 1.89 0
 -2 9 -10 3.41 1.26 0
 -2 9 -9 52.78 2.41 0
 -2 9 -8 6.43 1.41 0
 -2 9 -7 13.15 1.64 0
 -2 9 -6 10.41 1.54 0
 -2 9 -3 2.49 1.03 0
 -2 10 -6 2.07 1.12 0
 -2 10 -5 3.92 1.29 0
 -2 10 -4 16.15 1.94 0
 -2 10 -3 13.61 1.75 0
 -1 -1 -10 212.27 3.08 0
 -1 0 -16 1.51 0.93 0
 -1 0 -14 54.12 2.07 0
 -1 0 -11 115.28 2.45 0
 -1 0 -10 216.61 3.01 0
 -1 0 -9 48.43 1.4 0
 -1 0 -8 84.61 1.64 0
 -1 0 -7 56.99 1.26 0
 -1 0 -6 855.44 4.2 0
 -1 0 -4 177.98 1.54 0
 -1 0 -3 1312.39 3.45 0
 -1 0 -2 213.2 1.12 0
 -1 1 -18 30.39 2.06 0
 -1 1 -17 33.11 2.09 0
 -1 1 -16 80.68 2.72 0
 -1 1 -15 108.94 2.9 0
 -1 1 -11 23.07 1.13 0
 -1 1 -10 213.95 2.94 0
 -1 1 -9 381 3.63 0
 -1 1 -8 392.73 3.44 0
 -1 1 -7 592.16 3.88 0
 -1 1 -5 784.02 3.69 0
 -1 1 -4 290.57 2.03 0
 -1 1 -3 2055.3 4.64 0
 -1 1 -2 205.48 1.32 0
 -1 2 -21 25.81 2.22 0
 -1 2 -20 73.53 3.08 0
 -1 2 -18 12.67 1.58 0
 -1 2 -14 73 2.28 0
 -1 2 -13 113.17 2.64 0
 -1 2 -10 13.83 0.98 0
 -1 2 -9 450.72 4.1 0
 -1 2 -8 7.4 0.74 0
 -1 2 -6 33.17 0.99 0
 -1 2 -5 737.34 3.91 0
 -1 2 -4 296.76 2.36 0
 -1 2 -3 944.7 3.81 0
 -1 3 -21 57.4 2.96 0
 -1 3 -20 4.09 1.45 0
 -1 3 -19 16.27 1.81 0
 -1 3 -17 29.19 1.89 0
 -1 3 -16 44.91 2.11 0
 -1 3 -15 1.77 0.84 0
 -1 3 -13 123.28 2.85 0
 -1 3 -12 84.1 2.29 0
 -1 3 -9 598.52 4.94 0
 -1 3 -8 66.03 1.62 0
 -1 3 -7 256.71 2.95 0
 -1 3 -6 102.83 1.8 0
 -1 3 -5 41.43 1.15 0
 -1 3 -4 141.85 1.9 0
 -1 4 -20 40.61 2.48 0
 -1 4 -18 34.9 2.18 0
 -1 4 -17 18.23 1.75 0
 -1 4 -16 64.51 2.6 0
 -1 4 -15 52.87 2.27 0
 -1 4 -14 62.08 2.26 0
 -1 4 -13 54.9 2.11 0
 -1 4 -12 81.98 2.36 0
 -1 4 -7 411.27 4.09 0
 -1 5 -20 49.9 2.72 0
 -1 5 -19 52.8 2.74 0
 -1 5 -18 4.85 1.45 0
 -1 5 -17 3.55 1.25 0
 -1 5 -14 15.46 1.52 0
 -1 5 -13 27.68 1.79 0
 -1 5 -12 28.79 1.6 0
 -1 5 -10 16.68 1.17 0
 -1 5 -9 88.37 2.3 0
 -1 6 -18 53.68 2.71 0
 -1 6 -15 17.45 1.63 0
 -1 6 -11 25.7 1.73 0
 -1 6 -10 1.66 0.95 0
 -1 6 -9 1.84 0.86 0
 -1 6 -7 73.74 2.15 0
 -1 7 -17 38.9 2.49 0
 -1 7 -14 26.12 1.92 0
 -1 7 -13 32.31 2.15 0
 -1 7 -12 -0.37 0.89 0
 -1 7 -10 28.99 1.9 0
 -1 7 -9 103.29 2.9 0
 -1 7 -8 -0.88 0.84 0
 -1 7 -7 27.91 1.72 0
 -1 7 -6 60.96 2.21 0
 -1 7 -5 79.06 2.38 0
 -1 7 -4 91.04 2.43 0
 -1 8 -15 20.32 2.04 0
 -1 8 -13 25.48 2.01 0
 -1 8 -12 16.25 1.78 0
 -1 8 -11 4.71 1.22 0
 -1 8 -10 4.63 1.21 0
 -1 8 -9 69.86 2.7 0
 -1 8 -8 6.76 1.18 0
 -1 8 -7 26.91 1.84 0
 -1 8 -5 71.59 2.51 0
 -1 8 -4 39.6 1.88 0
 -1 9 -12 2.96 1.23 0
 -1 9 -8 17.73 1.77 0
 -1 9 -7 37.75 2.19 0
 -1 9 -6 13.66 1.62 0
 -1 9 -5 6.34 1.23 0
 -1 9 -4 7.08 1.33 0
 -1 9 -3 14.69 1.4 0
 -1 10 -8 1.49 1.13 0
 -1 10 -7 8.01 1.43 0
 -1 10 -5 6.25 1.53 0
 -1 10 -3 15.76 1.78 0
 -1 10 -2 8.96 1.47 0
 0 -1 -11 141.53 2.71 0
 0 -1 -10 65.18 1.78 0
 0 -1 -6 104.54 1.69 0
 0 0 -17 0.32 0.84 0
 0 0 -15 0.77 0.86 0
 0 0 -7 0.47 0.41 0
 0 0 -6 169.01 1.94 0
 0 0 -5 5.62 0.44 0
 0 0 -4 9996.77 11.28 0
 0 0 -3 0.42 0.23 0
 0 0 -2 365.26 1.49 0
 0 1 -20 39.22 2.55 0
 0 1 -19 40.28 2.34 0
 0 1 -18 0.31 0.93 0
 0 1 -15 121.19 3.03 0
 0 1 -14 3.72 0.92 0
 0 1 -11 138.22 2.52 0
 0 1 -10 63.44 1.66 0
 0 1 -5 625.33 3.35 0
 0 1 -4 3183.38 6.67 0
 0 1 -3 137.2 1.26 0
 0 1 -2 9951.27 9.14 0
 0 2 -21 8.46 1.58 0
 0 2 -19 39.87 2.39 0
 0 2 -18 48.32 2.45 0
 0 2 -17 54.69 2.52 0
 0 2 -14 13.55 1.27 0
 0 2 -13 255.08 3.9 0
 0 2 -10 384 4.06 0
 0 2 -9 397.5 3.88 0
 0 2 -6 3651.59 9.39 0
 0 2 -5 177.57 1.98 0
 0 2 -4 85.23 1.36 0
 0 2 -3 1385.35 4.66 0
 0 3 -20 33.6 2.33 0
 0 3 -19 1.62 1.13 0
 0 3 -18 2.06 1.1 0
 0 3 -17 41.43 2.27 0
 0 3 -15 32.89 1.87 0
 0 3 -14 4.09 0.89 0
 0 3 -13 2.91 0.78 0
 0 3 -12 17.68 1.29 0
 0 3 -9 149.08 2.55 0
 0 3 -8 125.94 2.2 0
 0 4 -21 3.04 1.42 0
 0 4 -20 0.2 1.14 0
 0 4 -19 10.82 1.54 0
 0 4 -18 0.5 0.97 0
 0 4 -17 1.36 1 0
 0 4 -15 16.54 1.55 0
 0 4 -13 73.13 2.39 0
 0 4 -12 335.45 4.6 0
 0 4 -11 17.39 1.26 0
 0 4 -7 135.84 2.4 0
 0 4 -6 185.38 2.71 0
 0 5 -19 -0.36 1.05 0
 0 5 -18 3.77 1.23 0
 0 5 -15 15.71 1.54 0
 0 5 -14 59.43 2.44 0
 0 5 -13 15.36 1.34 0
 0 5 -12 1.34 0.82 0
 0 5 -11 36.31 1.73 0
 0 5 -10 65.84 2.11 0
 0 5 -9 35.48 1.51 0
 0 6 -18 18.4 2.04 0
 0 6 -17 8.89 1.49 0
 0 6 -16 6.95 1.33 0
 0 6 -14 8.07 1.31 0
 0 6 -13 27.33 1.88 0
 0 6 -12 60.18 2.4 0
 0 6 -10 107.32 2.79 0
 0 6 -9 2.25 0.78 0
 0 6 -7 102.43 2.55 0
 0 6 -6 101.06 2.4 0
 0 6 -5 92.64 2.27 0
 0 7 -17 7.39 1.68 0
 0 7 -15 19.18 1.9 0
 0 7 -14 19.27 1.87 0
 0 7 -13 0.8 1.02 0
 0 7 -11 44.95 2.22 0
 0 7 -9 47.51 2.06 0
 0 7 -8 47.93 2.06 0
 0 7 -7 4.63 0.94 0
 0 7 -6 19.83 1.32 0
 0 7 -5 69.73 2.18 0
 0 8 -15 -0.48 1.13 0
 0 8 -14 -0.71 1.05 0
 0 8 -13 52.55 2.65 0
 0 8 -12 8.78 1.43 0
 0 8 -11 18.28 1.82 0
 0 8 -10 25.64 1.9 0
 0 8 -8 3.62 1.24 0
 0 8 -7 30.31 1.86 0
 0 8 -6 127.29 3.24 0
 0 8 -4 1.3 0.89 0
 0 9 -11 19.27 1.77 0
 0 9 -9 8.54 1.44 0
 0 9 -8 126.38 3.61 0
 0 9 -7 1.93 1.09 0
 0 9 -6 7.12 1.24 0
 0 9 -5 1.22 1.14 0
 0 9 -4 179.53 3.98 0
 0 9 -3 0.73 0.88 0
 0 10 -8 5.18 1.52 0
 0 10 -7 1.62 1.29 0
 0 10 -6 19.84 2 0
 0 10 -4 103.35 3.28 0
 0 10 -3 -0.89 0.95 0
 0 10 -2 8.95 1.44 0
 1 -1 -11 23.57 1.29 0
 1 -1 -10 207.94 3.07 0
 1 -1 -9 390.14 3.94 0
 1 -1 -7 583.04 4.16 0
 1 -1 -6 36.18 1.08 0
 1 0 -17 0.99 0.96 0
 1 0 -16 1.3 0.98 0
 1 0 -15 122.96 3.13 0
 1 0 -13 27.13 1.44 0
 1 0 -11 112.17 2.41 0
 1 0 -9 47.49 1.37 0
 1 0 -7 55.94 1.25 0
 1 0 -6 869.48 4.31 0
 1 0 -5 0.97 0.34 0
 1 0 -4 172.8 1.55 0
 1 0 -3 1307.4 3.59 0
 1 0 -2 226.18 1.25 0
 1 1 -20 7.06 1.67 0
 1 1 -18 30.12 1.95 0
 1 1 -16 77.35 2.71 0
 1 1 -15 109.96 2.93 0
 1 1 -14 36.48 1.77 0
 1 1 -13 196.79 3.5 0
 1 1 -11 24.43 1.24 0
 1 1 -9 392.04 3.75 0
 1 1 -7 588.88 3.95 0
 1 1 -6 35.68 0.96 0
 1 1 -5 812.53 3.87 0
 1 1 -4 286.63 2.1 0
 1 1 -3 2078.34 4.87 0
 1 1 -2 204.74 1.38 0
 1 2 -20 73.42 3.13 0
 1 2 -16 6.92 1.15 0
 1 2 -15 25.05 1.63 0
 1 2 -14 73 2.33 0
 1 2 -13 109.04 2.63 0
 1 2 -10 14.87 0.97 0
 1 2 -9 440.1 4.12 0
 1 2 -8 6.68 0.64 0
 1 2 -6 32.75 1.02 0
 1 2 -5 759.17 4.09 0
 1 2 -4 291.52 2.37 0
 1 2 -3 954.12 3.94 0
 1 3 -20 3.27 1.29 0
 1 3 -19 14.03 1.75 0
 1 3 -18 70.85 2.9 0
 1 3 -16 47.6 2.23 0
 1 3 -15 1.13 0.92 0
 1 3 -14 38.49 1.87 0
 1 3 -13 124.14 2.88 0
 1 3 -12 81.21 2.25 0
 1 3 -9 609.88 5.08 0
 1 3 -8 67.94 1.69 0
 1 3 -7 266.11 3.03 0
 1 4 -19 33.93 2.37 0
 1 4 -18 35.42 2.25 0
 1 4 -17 21.04 1.8 0
 1 4 -16 66.52 2.56 0
 1 4 -15 52.08 2.19 0
 1 4 -14 61.66 2.36 0
 1 4 -13 54.76 2.07 0
 1 4 -12 79.38 2.39 0
 1 4 -7 401.83 4.06 0
 1 4 -6 63.29 1.62 0
 1 4 -5 87.61 1.78 0
 1 5 -17 2.72 1.12 0
 1 5 -16 66.27 2.77 0
 1 5 -15 249.29 4.79 0
 1 5 -14 14.16 1.4 0
 1 5 -13 25.55 1.76 0
 1 5 -12 28.89 1.71 0
 1 5 -11 86.01 2.45 0
 1 5 -9 90.63 2.36 0
 1 5 -8 2.02 0.68 0
 1 6 -17 69.46 2.98 0
 1 6 -16 13.45 1.68 0
 1 6 -15 18.34 1.87 0
 1 6 -14 38.04 2.19 0
 1 6 -13 145.18 3.62 0
 1 6 -12 20.73 1.52 0
 1 6 -9 1.18 0.88 0
 1 6 -7 73.64 2.17 0
 1 7 -17 29.7 2.29 0
 1 7 -16 16.21 2.01 0
 1 7 -12 1.35 1.03 0
 1 7 -11 27.17 1.77 0
 1 7 -9 105.19 3.01 0
 1 7 -8 -0.14 0.73 0
 1 7 -7 28.47 1.64 0
 1 7 -6 60.09 2.16 0
 1 7 -5 79.11 2.39 0
 1 8 -15 21.32 2.15 0
 1 8 -14 3.88 1.3 0
 1 8 -13 29.31 2.18 0
 1 8 -11 3.94 1.15 0
 1 8 -10 3.38 1.15 0
 1 8 -9 70.01 2.69 0
 1 8 -8 5.9 1.17 0
 1 8 -7 26.16 1.84 0
 1 8 -6 2.69 0.98 0
 1 8 -5 72.99 2.48 0
 1 9 -11 32.47 2.27 0
 1 9 -10 5.8 1.33 0
 1 9 -9 26.31 2.04 0
 1 9 -7 33.63 2.04 0
 1 9 -6 11.99 1.61 0
 1 9 -5 6 1.21 0
 1 10 -6 34.52 2.21 0
 1 10 -5 6.1 1.4 0
 1 10 -4 9.37 1.6 0
 1 10 -3 17.6 1.84 0
 1 10 -2 7.92 1.48 0
 2 -1 -9 103.28 2.11 0
 2 0 -16 4.59 1.18 0
 2 0 -14 25.47 1.48 0
 2 0 -11 130.21 2.59 0
 2 0 -10 74.17 1.9 0
 2 0 -9 36.78 1.25 0
 2 0 -8 178 2.44 0
 2 0 -6 150.07 1.87 0
 2 0 -5 987.02 4.23 0
 2 0 -4 316.81 2.16 0
 2 0 -3 97.95 1.06 0
 2 1 -17 102.61 3.21 0
 2 1 -16 33.53 1.99 0
 2 1 -15 42.02 2 0
 2 1 -9 92.54 1.9 0
 2 1 -8 13.2 0.77 0
 2 1 -6 362.46 2.9 0
 2 1 -5 29.91 0.83 0
 2 1 -4 1915.25 5.39 0
 2 1 -3 344.24 2.06 0
 2 1 -2 1107.42 3.22 0
 2 2 -21 31.07 2.25 0
 2 2 -19 2.53 1.16 0
 2 2 -16 94.36 2.95 0
 2 2 -14 40.84 1.79 0
 2 2 -13 100.53 2.51 0
 2 2 -10 4.41 0.69 0
 2 2 -9 200.95 2.86 0
 2 2 -8 237.43 2.91 0
 2 2 -7 214.21 2.57 0
 2 2 -4 152.68 1.75 0
 2 2 -3 196.2 1.85 0
 2 2 -2 1939.69 5.32 0
 2 3 -21 0.6 1.28 0
 2 3 -20 13.24 1.81 0
 2 3 -19 5.38 1.43 0
 2 3 -17 23.85 1.91 0
 2 3 -16 43.2 2.14 0
 2 3 -15 15.89 1.39 0
 2 3 -14 10.27 1.15 0
 2 3 -9 86.77 2.01 0
 2 3 -8 133.67 2.31 0
 2 3 -7 12.38 0.79 0
 2 3 -6 1017.86 5.63 0
 2 3 -5 503.22 3.8 0
 2 4 -20 6.53 1.62 0
 2 4 -14 19.65 1.47 0
 2 4 -13 0.46 0.89 0
 2 4 -12 54.79 1.98 0
 2 4 -10 59.69 1.95 0
 2 4 -7 270.63 3.4 0
 2 4 -5 217.71 2.83 0
 2 4 -4 297.58 3.15 0
 2 5 -19 24.52 2.17 0
 2 5 -18 10.3 1.55 0
 2 5 -17 17.86 1.71 0
 2 5 -16 67.64 2.73 0
 2 5 -15 3.91 1.31 0
 2 5 -14 7.49 1.24 0
 2 5 -13 0.64 0.85 0
 2 5 -11 16.79 1.43 0
 2 5 -9 41.46 1.69 0
 2 5 -8 38.41 1.61 0
 2 5 -4 120.12 2.3 0
 2 6 -18 4.66 1.36 0
 2 6 -11 4.59 1.02 0
 2 6 -10 124.44 3.01 0
 2 6 -8 51.3 1.9 0
 2 6 -6 13.24 1.15 0
 2 6 -5 56.17 1.88 0
 2 6 -4 2.36 0.71 0
 2 7 -14 8.58 1.42 0
 2 7 -7 4.1 1.06 0
 2 7 -6 253.1 4.28 0
 2 7 -5 57.73 2.15 0
 2 7 -4 14.54 1.31 0
 2 8 -14 20.64 2.05 0
 2 8 -13 3.98 1.26 0
 2 8 -12 27.92 2.14 0
 2 8 -10 20.96 1.86 0
 2 8 -9 3.49 1.11 0
 2 8 -8 188.54 4.11 0
 2 8 -7 23.33 1.65 0
 2 8 -6 51.52 2.31 0
 2 8 -4 155.9 3.47 0
 2 8 -3 22.52 1.65 0
 2 9 -12 16.33 1.99 0
 2 9 -10 4.06 1.32 0
 2 9 -9 56.27 2.49 0
 2 9 -6 9.44 1.41 0
 2 9 -5 32.39 2.12 0
 2 9 -4 90.33 3.01 0
 2 9 -3 1.39 0.97 0
 2 10 -8 5.34 1.53 0
 2 10 -7 31.06 2.25 0
 2 10 -6 3.34 1.26 0
 2 10 -5 4.06 1.21 0
 2 10 -3 14.91 1.7 0
 2 10 -2 44.88 2.38 0
 2 10 -1 3.61 1.23 0
 3 0 -15 110.65 2.97 0
 3 0 -14 34.38 1.81 0
 3 0 -13 214.61 3.68 0
 3 0 -10 62.49 1.75 0
 3 0 -9 224.08 3 0
 3 0 -8 85.59 1.79 0
 3 0 -7 35.4 1.07 0
 3 0 -5 132.31 1.65 0
 3 0 -4 1253.01 4.38 0
 3 0 -3 363.82 2.05 0
 3 1 -18 33.51 2.06 0
 3 1 -17 30.18 1.9 0
 3 1 -13 53.97 2.01 0
 3 1 -10 123.78 2.36 0
 3 1 -9 45.41 1.41 0
 3 1 -8 415.64 3.67 0
 3 1 -7 7.12 0.68 0
 3 1 -4 156.42 1.6 0
 3 1 -3 151.97 1.4 0
 3 1 -2 382.77 1.91 0
 3 1 -1 505.46 1.9 0
 3 1 0 55.2 0.57 0
 3 2 -21 40.31 2.52 0
 3 2 -20 5.23 1.4 0
 3 2 -19 37.62 2.28 0
 3 2 -17 14.57 1.51 0
 3 2 -16 3.89 1.19 0
 3 2 -15 20.03 1.45 0
 3 2 -14 60.78 2.24 0
 3 2 -13 58.19 2.05 0
 3 2 -12 116.2 2.57 0
 3 2 -9 448.72 4.25 0
 3 2 -8 194.96 2.7 0
 3 2 -6 140.41 1.98 0
 3 2 -3 748.75 3.59 0
 3 2 -2 645.6 3.12 0
 3 3 -20 5.59 1.38 0
 3 3 -19 9.86 1.59 0
 3 3 -18 -0.2 1.23 0
 3 3 -17 8.45 1.37 0
 3 3 -16 1.39 0.93 0
 3 3 -15 10.39 1.27 0
 3 3 -14 9.72 1.23 0
 3 3 -12 46.13 1.81 0
 3 3 -9 40.99 1.5 0
 3 3 -8 63.41 1.69 0
 3 3 -7 421.92 3.9 0
 3 3 -6 4.92 0.65 0
 3 3 -5 325.55 3.09 0
 3 3 -4 21.29 0.84 0
 3 3 -3 278.01 2.6 0
 3 4 -20 7.91 1.57 0
 3 4 -18 21.97 2.03 0
 3 4 -15 82.77 2.83 0
 3 4 -14 30.92 1.87 0
 3 4 -10 21.53 1.32 0
 3 4 -7 76.46 1.85 0
 3 4 -6 7.65 0.74 0
 3 4 -5 149.94 2.36 0
 3 4 -3 716.91 4.74 0
 3 5 -18 17.66 1.86 0
 3 5 -17 21.3 1.81 0
 3 5 -16 58.38 2.49 0
 3 5 -15 5.83 1.21 0
 3 5 -14 49.21 2.33 0
 3 5 -13 23.59 1.67 0
 3 5 -11 40.22 1.82 0
 3 5 -10 55.22 2.04 0
 3 5 -9 13.15 1.22 0
 3 5 -8 21.1 1.28 0
 3 5 -4 0.92 0.51 0
 3 5 -3 12.37 0.92 0
 3 6 -17 11.88 1.74 0
 3 6 -12 24.15 1.66 0
 3 6 -11 4.91 1.17 0
 3 6 -10 1.08 0.83 0
 3 6 -9 30.38 1.6 0
 3 6 -8 27.76 1.48 0
 3 6 -7 75.97 2.23 0
 3 6 -6 28.91 1.5 0
 3 6 -5 11.87 1.17 0
 3 6 -3 267.48 3.74 0
 3 7 -16 17.39 1.94 0
 3 7 -15 16.88 2.05 0
 3 7 -14 42.39 2.39 0
 3 7 -13 19.99 1.84 0
 3 7 -12 15.45 1.71 0
 3 7 -11 5.61 1.16 0
 3 7 -10 4.61 1.14 0
 3 7 -7 13.95 1.44 0
 3 7 -5 129.66 3.02 0
 3 7 -3 19.39 1.42 0
 3 8 -14 12.35 1.79 0
 3 8 -13 31.48 2.17 0
 3 8 -12 60.43 2.67 0
 3 8 -11 5.94 1.42 0
 3 8 -10 70.86 2.67 0
 3 8 -9 52.6 2.44 0
 3 8 -8 25.41 1.81 0
 3 8 -7 26.83 1.91 0
 3 8 -6 40.35 1.97 0
 3 8 -5 16.52 1.58 0
 3 8 -4 47.09 2.08 0
 3 8 -3 42.41 2.04 0
 3 9 -11 11.31 1.59 0
 3 9 -8 79.84 2.88 0
 3 9 -6 27.77 2.04 0
 3 9 -5 21.57 1.79 0
 3 9 -4 8.98 1.31 0
 3 9 -3 1.01 1 0
 3 10 -7 2.02 1.27 0
 3 10 -6 43.75 2.45 0
 3 10 -5 3.07 1.36 0
 3 10 -4 12.5 1.69 0
 3 10 -1 0 0.94 0
 3 10 0 9.92 1.41 0
 4 0 -13 15.53 1.26 0
 4 0 -9 12.3 0.88 0
 4 0 -8 103.41 1.92 0
 4 0 -7 43.56 1.2 0
 4 0 -6 105.57 1.63 0
 4 1 -17 32.04 2 0
 4 1 -16 24.65 1.74 0
 4 1 -13 34.76 1.71 0
 4 1 -12 210.37 3.56 0
 4 1 -8 78.46 1.69 0
 4 1 -3 35.22 0.69 0
 4 2 -19 8.59 1.42 0
 4 2 -18 30.88 2.15 0
 4 2 -16 30.57 1.96 0
 4 2 -15 14.49 1.55 0
 4 2 -14 17.88 1.38 0
 4 2 -13 1.72 0.85 0
 4 2 -12 14.19 1.15 0
 4 2 -8 163.24 2.45 0
 4 2 -7 154.57 2.27 0
 4 2 -6 174.58 2.23 0
 4 2 -5 93.39 1.54 0
 4 2 0 86.51 1.02 0
 4 3 -20 19.01 1.96 0
 4 3 -19 17.17 1.93 0
 4 3 -18 27.69 2.16 0
 4 3 -16 17.97 1.73 0
 4 3 -15 45.51 2.17 0
 4 3 -14 17.5 1.42 0
 4 3 -11 43.52 1.67 0
 4 3 -7 85.28 1.82 0
 4 3 -6 121.74 2.06 0
 4 3 -5 417.36 3.47 0
 4 3 -4 36.46 1.07 0
 4 3 -3 118.66 1.73 0
 4 3 -2 40.63 1.01 0
 4 3 -1 183.82 1.97 0
 4 4 -18 1.91 1.21 0
 4 4 -17 59.89 2.67 0
 4 4 -15 40.61 2.08 0
 4 4 -14 8.12 1.21 0
 4 4 -13 29.63 1.76 0
 4 4 -12 97.73 2.67 0
 4 4 -11 28.56 1.55 0
 4 4 -10 44.27 1.73 0
 4 4 -9 3.19 0.71 0
 4 4 -6 80.51 1.85 0
 4 4 -5 117.76 2.13 0
 4 4 -3 140.19 2.18 0
 4 4 -2 70.58 1.53 0
 4 5 -18 26.31 2.08 0
 4 5 -17 9.78 1.47 0
 4 5 -16 20.14 1.76 0
 4 5 -15 18.08 1.6 0
 4 5 -14 93.41 2.88 0
 4 5 -13 5.37 1.19 0
 4 5 -12 95.39 2.8 0
 4 5 -11 38.25 1.78 0
 4 5 -10 146.8 3.15 0
 4 5 -9 5.21 0.94 0
 4 5 -8 113.29 2.55 0
 4 5 -7 35.97 1.52 0
 4 5 -2 50.49 1.5 0
 4 6 -17 74.73 2.96 0
 4 6 -15 4.87 1.24 0
 4 6 -14 41.07 2.2 0
 4 6 -11 3.3 0.96 0
 4 6 -10 57.72 2.25 0
 4 6 -7 7.25 0.99 0
 4 6 -6 82.91 2.27 0
 4 6 -5 50.03 1.75 0
 4 6 -4 3.2 0.75 0
 4 6 -3 72.79 2.03 0
 4 6 -2 24.17 1.22 0
 4 7 -14 5.86 1.38 0
 4 7 -13 40.22 2.22 0
 4 7 -12 28.83 1.97 0
 4 7 -10 13.33 1.37 0
 4 7 -9 18.77 1.59 0
 4 7 -7 4.75 0.98 0
 4 7 -5 55.97 2.11 0
 4 7 -4 55.69 2.05 0
 4 8 -13 18.1 1.93 0
 4 8 -12 20.62 1.82 0
 4 8 -8 71.23 2.63 0
 4 8 -6 6.6 1.18 0
 4 8 -3 42.49 2 0
 4 8 -1 13.11 1.38 0
 4 9 -10 36.46 2.19 0
 4 9 -9 16.56 1.75 0
 4 9 -8 26.53 2 0
 4 9 -7 14.61 1.66 0
 4 9 -6 29.24 1.86 0
 4 9 -5 15.18 1.65 0
 4 9 -4 37.55 2.12 0
 4 9 -3 13.76 1.69 0
 4 9 -1 0.14 0.87 0
 4 9 0 62.35 2.4 0
 4 10 -4 9.75 1.41 0
 4 10 -3 10.12 1.44 0
 4 10 -1 4.05 1.15 0
 4 10 0 1.67 1.1 0
 4 10 1 4.51 1.16 0
 5 1 -14 41.12 1.91 0
 5 1 -13 59.38 2.07 0
 5 1 -12 36.34 1.6 0
 5 1 -10 10.93 0.99 0
 5 1 -9 132.62 2.34 0
 5 1 -8 100.52 1.91 0
 5 1 -6 355.52 2.92 0
 5 1 -5 12.06 0.57 0
 5 1 -3 280.07 1.64 0
 5 2 -17 3.7 1.23 0
 5 2 -16 1.36 0.95 0
 5 2 -15 14.32 1.49 0
 5 2 -14 123.94 3.04 0
 5 2 -13 0.21 0.68 0
 5 2 -12 21.97 1.37 0
 5 2 -8 83.33 1.78 0
 5 2 -6 17.37 0.78 0
 5 2 -5 85.69 1.41 0
 5 2 -4 232.6 2.13 0
 5 2 -3 45.85 0.89 0
 5 2 0 231.3 1.41 0
 5 3 -19 10.19 1.5 0
 5 3 -18 5.14 1.24 0
 5 3 -17 3.8 1.24 0
 5 3 -15 46.42 2.17 0
 5 3 -14 75.07 2.5 0
 5 3 -13 11.15 1.26 0
 5 3 -11 10.38 1.01 0
 5 3 -8 270.19 3.32 0
 5 3 -7 171.55 2.53 0
 5 3 -6 63.02 1.48 0
 5 3 -5 97.83 1.72 0
 5 3 -4 96.85 1.62 0
 5 3 -3 98.42 1.52 0
 5 3 -2 49.94 1.07 0
 5 3 -1 63.65 1.15 0
 5 3 0 86.49 1.27 0
 5 4 -18 1.21 1.22 0
 5 4 -17 7.73 1.33 0
 5 4 -15 1.37 0.91 0
 5 4 -14 8.48 1.3 0
 5 4 -12 23.68 1.52 0
 5 4 -10 30.07 1.52 0
 5 4 -6 19.27 0.99 0
 5 4 -5 112.91 2.05 0
 5 4 -4 44.71 1.28 0
 5 4 -3 241.82 2.77 0
 5 4 -2 5.88 0.62 0
 5 4 0 44.48 1.15 0
 5 5 -17 3.06 1.19 0
 5 5 -15 2.87 1.13 0
 5 5 -14 40.06 2.07 0
 5 5 -13 17.95 1.59 0
 5 5 -12 0.14 0.81 0
 5 5 -11 20.77 1.45 0
 5 5 -10 21.5 1.46 0
 5 5 -9 15.47 1.28 0
 5 5 -8 61.29 1.96 0
 5 5 -7 41.53 1.56 0
 5 5 -6 29.47 1.32 0
 5 5 -1 260.19 3.09 0
 5 6 -16 11.34 1.52 0
 5 6 -15 1.97 1.17 0
 5 6 -14 24.28 1.85 0
 5 6 -13 7 1.26 0
 5 6 -11 21.25 1.55 0
 5 6 -10 1.25 0.97 0
 5 6 -9 38.83 1.78 0
 5 6 -8 0.42 0.81 0
 5 6 -7 10.84 1.14 0
 5 6 -6 53.2 1.82 0
 5 6 -5 5.73 0.83 0
 5 6 -4 17.92 1.12 0
 5 6 -3 134.95 2.67 0
 5 6 -2 28.48 1.36 0
 5 6 -1 82.94 2.05 0
 5 7 -14 43.13 2.28 0
 5 7 -13 4.61 1.28 0
 5 7 -12 30.48 1.97 0
 5 7 -11 8.65 1.28 0
 5 7 -10 39.25 2.06 0
 5 7 -9 4.83 1.03 0
 5 7 -8 62.2 2.25 0
 5 7 -7 53.91 2.11 0
 5 7 -6 25.91 1.59 0
 5 7 -5 35.88 1.71 0
 5 7 -3 11.16 1.23 0
 5 7 -2 18.86 1.32 0
 5 7 -1 26.83 1.4 0
 5 7 0 4.76 0.87 0
 5 8 -11 0.49 0.98 0
 5 8 -10 39.05 2.07 0
 5 8 -9 15.11 1.61 0
 5 8 -7 6.16 1.06 0
 5 8 -6 45.5 2.09 0
 5 8 -5 39.94 1.96 0
 5 8 -3 14.48 1.45 0
 5 8 -2 16.5 1.37 0
 5 8 -1 22.38 1.54 0
 5 8 0 0.91 0.84 0
 5 9 -8 15.45 1.58 0
 5 9 -7 33.84 1.96 0
 5 9 -6 15.12 1.6 0
 5 9 -5 1.67 1.02 0
 5 9 -3 38.89 2.03 0
 5 9 -2 30.36 1.84 0
 6 2 -15 66.97 2.39 0
 6 2 -13 66.61 2.13 0
 6 2 -12 12.48 1.14 0
 6 2 -9 5.1 0.69 0
 6 2 -8 -0.25 0.39 0
 6 2 -7 98.32 1.72 0
 6 2 -6 0.4 0.32 0
 6 3 -15 6.89 1.21 0
 6 3 -14 29.19 1.7 0
 6 3 -13 72.04 2.28 0
 6 3 -12 2.71 0.87 0
 6 3 -11 83.06 2.18 0
 6 3 -10 31.75 1.37 0
 6 3 -8 23.24 1.05 0
 6 3 -6 24.31 0.92 0
 6 4 -14 14.58 1.41 0
 6 4 -13 47.91 1.98 0
 6 4 -12 75.58 2.28 0
 6 4 -10 28.4 1.38 0
 6 4 -5 181.15 2.48 0
 6 4 -4 12.71 0.75 0
 6 5 -12 -0.3 0.76 0
 6 5 -10 77.66 2.24 0
 6 5 -9 28.55 1.48 0
 6 5 -8 32.83 1.5 0
 6 5 -7 137.83 2.63 0
 6 5 -6 15.09 1.05 0
 6 5 -2 21.04 1.01 0
 6 5 0 64.04 1.5 0
 6 6 -10 20.26 1.46 0
 6 6 -9 80.36 2.36 0
 6 6 -8 17.21 1.35 0
 6 6 -7 5.52 0.9 0
 6 6 -6 81.07 2.16 0
 6 6 -5 87.03 2.16 0
 6 6 -4 28.11 1.33 0
 6 6 -3 71.59 1.9 0
 6 6 -2 76.28 1.94 0
 6 6 -1 118.58 2.36 0

_iucr_refine_fcf_details
;
data_fk_03480_intdb_v128
_computing_structure_refinement   'olex2.refine 1.5-alpha (Bourhis et al., 2015)'
_shelx_refln_list_code            4
loop_
  _space_group_symop_id
  _space_group_symop_operation_xyz
  1  x,y,z
  2  x+1/2,-y+1/2,-z
  3  -x,y+1/2,-z+1/2
  4  -x+1/2,-y,z+1/2

_space_group_crystal_system       orthorhombic
_space_group_IT_number            19
_space_group_name_H-M_alt         'P 21 21 21'
_space_group_name_Hall            ' P 2ac 2ab'
_symmetry_space_group_name_H-M    'P 21 21 21'
_symmetry_space_group_name_Hall   ' P 2ac 2ab'
_symmetry_Int_Tables_number       19
_cell_length_a                    5.776(10)
_cell_length_b                    5.955(17)
_cell_length_c                    12.26(2)
_cell_angle_alpha                 90
_cell_angle_beta                  90
_cell_angle_gamma                 90
_cell_volume                      421.5(16)
loop_
  _refln_index_h
  _refln_index_k
  _refln_index_l
  _refln_F_squared_calc
  _refln_F_squared_meas
  _refln_F_squared_sigma
  _refln_F_squared_weight
  _refln_observed_status
-10 -3 -5 3.690 3.434 0.574 34.821 o
-10 -3 -4 7.964 8.309 0.487 33.901 o
-10 -3 -3 45.552 45.575 0.881 2.565 o
-10 -3 -2 17.020 17.250 0.597 13.347 o
-10 -3 -1 30.760 31.754 1.025 4.214 o
-10 -2 -7 14.292 15.823 0.901 9.973 o
-10 -2 -6 10.087 9.067 0.808 14.764 o
-10 -2 -5 28.165 28.805 1.623 2.941 o
-10 -2 -4 2.349 2.087 0.322 108.512 o
-10 -2 -3 3.952 3.674 0.376 72.422 o
-10 -2 -2 1.815 1.041 0.365 89.654 o
-10 -2 -1 39.128 40.887 1.105 2.879 o
-10 -1 -7 19.503 19.567 0.615 11.030 o
-10 -1 -6 23.612 25.119 0.663 7.864 o
-10 -1 -5 19.737 20.485 1.108 6.162 o
-10 -1 -4 13.520 13.328 0.676 15.264 o
-10 -1 -3 11.048 13.103 0.708 16.056 o
-10 -1 -2 1.289 1.019 0.360 93.597 o
-10 -1 -1 15.879 15.689 0.698 12.694 o
-9 -6 -2 4.734 4.175 0.531 38.329 o
-9 -6 -1 0.681 0.628 0.435 65.131 o
-9 -5 -7 4.100 3.842 0.563 35.434 o
-9 -5 -6 15.673 14.627 0.571 15.782 o
-9 -5 -5 8.401 8.184 0.474 34.347 o
-9 -5 -4 3.264 2.757 0.293 117.997 o
-9 -5 -3 3.536 3.784 0.323 95.334 o
-9 -5 -2 20.272 20.866 0.607 10.435 o
-9 -5 -1 16.695 18.018 0.590 13.443 o
-9 -4 -9 7.186 6.959 0.617 25.791 o
-9 -4 -8 45.877 45.865 0.906 2.512 o
-9 -4 -7 3.031 3.555 0.326 98.078 o
-9 -4 -6 20.609 21.427 0.654 9.683 o
-9 -4 -5 8.297 8.791 0.394 41.924 o
-9 -4 -4 31.684 30.914 0.597 5.420 o
-9 -4 -3 14.231 15.531 0.576 16.475 o
-9 -4 -2 7.063 7.284 0.471 38.500 o
-9 -4 -1 7.789 7.280 0.432 41.251 o
-9 -3 -10 17.343 17.445 0.483 15.045 o
-9 -3 -9 3.935 3.958 0.302 101.904 o
-9 -3 -8 25.672 26.397 0.887 5.901 o
-9 -3 -7 4.142 5.212 0.367 70.864 o
-9 -3 -6 5.543 5.495 1.156 8.850 o
-9 -3 -5 0.095 -0.151 0.198 316.749 o
-9 -3 -4 62.762 62.915 0.775 1.492 o
-9 -3 -3 8.475 7.972 0.414 40.463 o
-9 -3 -2 14.148 13.116 0.400 23.264 o
-9 -3 -1 7.270 7.471 0.334 57.119 o
-9 -2 -11 8.301 8.547 0.378 44.159 o
-9 -2 -10 7.977 8.426 0.363 47.514 o
-9 -2 -9 21.589 22.078 0.599 9.658 o
-9 -2 -8 0.991 1.371 0.242 202.041 o
-9 -2 -7 7.105 6.974 0.366 53.491 o
-9 -2 -6 34.389 33.380 0.632 4.651 o
-9 -2 -5 6.442 7.077 0.419 47.216 o
-9 -2 -4 29.461 29.075 0.692 5.738 o
-9 -2 -3 2.454 2.114 0.341 97.498 o
-9 -2 -2 71.656 72.212 1.266 1.061 o
-9 -2 -1 10.146 10.333 0.448 30.653 o
-9 -1 -12 5.825 5.944 0.644 25.664 o
-9 -1 -11 27.577 27.470 0.534 7.015 o
-9 -1 -10 18.898 19.128 0.407 14.257 o
-9 -1 -9 11.253 11.640 0.364 32.143 o
-9 -1 -8 5.130 4.809 0.326 79.578 o
-9 -1 -7 10.241 9.461 0.305 43.022 o
-9 -1 -6 6.048 5.886 0.292 79.749 o
-9 -1 -5 18.239 18.876 0.569 12.520 o
-9 -1 -4 2.705 2.740 0.229 184.737 o
-9 -1 -3 1.044 1.192 0.198 298.670 o
-9 -1 -2 31.126 30.813 0.593 5.554 o
-9 -1 -1 2.086 2.058 0.247 177.656 o
-8 -7 -4 3.342 3.498 0.596 32.768 o
-8 -7 -3 9.268 10.542 0.528 26.764 o
-8 -7 -2 30.045 30.456 0.789 5.158 o
-8 -7 -1 15.790 16.606 0.573 14.873 o
-8 -6 -8 0.268 0.106 0.240 214.046 o
-8 -6 -7 25.195 25.788 0.586 7.731 o
-8 -6 -6 5.045 5.565 0.368 65.674 o
-8 -6 -5 1.875 2.328 0.252 173.173 o
-8 -6 -4 5.283 5.680 0.372 63.336 o
-8 -6 -3 26.972 28.654 0.608 6.696 o
-8 -6 -2 6.614 7.536 0.474 38.923 o
-8 -6 -1 0.363 0.372 0.226 240.379 o
-8 -5 -10 0.951 1.093 0.212 264.122 o
-8 -5 -9 12.967 14.372 0.464 21.806 o
-8 -5 -8 1.156 1.175 0.212 259.133 o
-8 -5 -7 4.164 4.226 0.328 87.068 o
-8 -5 -6 0.146 -0.055 0.170 429.657 o
-8 -5 -5 81.160 85.227 0.961 0.871 o
-8 -5 -4 10.152 10.569 0.412 32.888 o
-8 -5 -3 0.670 1.021 0.234 221.750 o
-8 -5 -2 1.693 1.057 0.229 217.215 o
-8 -5 -1 27.422 27.587 0.574 6.867 o
-8 -4 -13 28.160 28.487 1.095 4.487 o
-8 -4 -12 0.277 0.240 0.198 313.422 o
-8 -4 -11 4.879 4.999 0.347 73.652 o
-8 -4 -10 10.473 10.271 0.411 32.553 o
-8 -4 -9 55.922 57.067 0.664 1.868 o
-8 -4 -8 2.270 1.793 0.210 234.768 o
-8 -4 -7 20.974 20.414 0.410 12.244 o
-8 -4 -6 7.241 7.080 0.494 35.850 o
-8 -4 -5 3.391 3.293 0.317 101.116 o
-8 -4 -4 18.980 17.924 0.380 15.069 o
-8 -4 -3 7.641 7.689 0.359 50.873 o
-8 -4 -2 10.205 9.947 0.313 41.585 o
-8 -4 -1 11.322 10.869 0.322 35.642 o
-8 -3 -14 2.041 2.110 0.406 71.412 o
-8 -3 -13 2.804 2.435 0.284 130.283 o
-8 -3 -12 9.039 8.169 0.347 45.809 o
-8 -3 -11 55.197 56.519 1.034 1.742 o
-8 -3 -10 2.886 2.853 0.273 136.286 o
-8 -3 -9 12.769 12.848 0.408 25.489 o
-8 -3 -8 21.646 21.954 0.408 11.360 o
-8 -3 -7 17.269 18.431 0.427 15.656 o
-8 -3 -6 17.248 17.988 0.405 16.253 o
-8 -3 -5 25.149 24.387 0.419 8.940 o
-8 -3 -4 27.913 27.055 0.629 6.567 o
-8 -3 -3 30.601 29.330 0.528 6.023 o
-8 -3 -2 44.921 43.472 0.782 2.773 o
-8 -3 -1 74.574 74.900 0.666 1.093 o
-8 -2 -14 3.555 3.271 0.272 126.673 o
-8 -2 -13 20.887 22.039 0.597 9.985 o
-8 -2 -12 0.128 -0.027 0.200 307.558 o
-8 -2 -11 5.755 5.678 0.370 61.434 o
-8 -2 -10 1.124 0.816 0.206 278.666 o
-8 -2 -9 7.849 7.647 0.333 54.025 o
-8 -2 -8 0.114 0.359 0.134 684.099 o
-8 -2 -7 28.966 29.907 0.457 6.579 o
-8 -2 -6 36.389 36.217 0.363 4.574 o
-8 -2 -5 40.699 40.191 0.415 3.667 o
-8 -2 -4 12.415 12.870 0.229 34.321 o
-8 -2 -3 19.988 19.117 0.317 14.433 o
-8 -2 -2 18.734 19.223 0.406 14.363 o
-8 -2 -1 43.291 41.524 0.447 3.295 o
-8 -1 -15 24.229 23.209 0.783 7.165 o
-8 -1 -14 1.091 0.760 0.226 233.066 o
-8 -1 -13 14.424 14.796 0.411 21.261 o
-8 -1 -12 6.753 6.985 0.350 57.844 o
-8 -1 -11 56.957 58.956 0.677 1.785 o
-8 -1 -10 25.261 25.254 0.561 7.938 o
-8 -1 -9 34.816 34.529 0.662 4.436 o
-8 -1 -8 2.592 2.548 0.162 315.595 o
-8 -1 -7 61.360 62.767 0.714 1.554 o
-8 -1 -6 10.760 10.733 0.231 44.369 o
-8 -1 -5 70.165 71.573 0.578 1.230 o
-8 -1 -4 25.200 24.715 0.381 9.046 o
-8 -1 -3 22.314 22.461 0.324 11.453 o
-8 -1 -2 14.209 14.858 0.420 21.243 o
-8 -1 -1 23.093 23.550 0.411 10.119 o
-7 -8 -5 1.560 1.363 0.392 78.333 o
-7 -8 -4 26.178 25.699 0.786 6.383 o
-7 -8 -3 5.258 4.615 0.403 58.408 o
-7 -8 -2 0.754 0.745 0.241 208.056 o
-7 -8 -1 2.176 2.106 0.326 107.237 o
-7 -7 -9 11.068 11.152 0.422 29.590 o
-7 -7 -8 15.125 15.623 0.509 17.300 o
-7 -7 -7 10.293 10.373 0.548 24.356 o
-7 -7 -6 1.374 1.298 0.269 162.903 o
-7 -7 -5 3.019 2.335 0.304 114.680 o
-7 -7 -4 2.609 2.861 0.280 133.440 o
-7 -7 -3 4.783 5.425 0.408 57.486 o
-7 -7 -2 35.251 34.978 0.622 4.423 o
-7 -7 -1 0.268 0.239 0.189 343.004 o
-7 -6 -12 7.468 6.020 0.719 20.195 o
-7 -6 -11 4.079 3.570 0.252 132.656 o
-7 -6 -10 28.030 28.017 0.620 6.458 o
-7 -6 -9 3.175 2.895 0.268 136.440 o
-7 -6 -8 9.779 10.201 0.366 38.004 o
-7 -6 -7 0.314 0.068 0.185 361.149 o
-7 -6 -6 56.658 57.634 0.694 1.816 o
-7 -6 -5 11.787 11.432 0.504 23.796 o
-7 -6 -4 4.525 4.240 0.406 60.767 o
-7 -6 -3 7.051 7.226 0.318 61.991 o
-7 -6 -2 28.758 29.050 0.512 6.561 o
-7 -6 -1 1.953 1.647 0.233 203.101 o
-7 -5 -14 2.267 1.559 0.353 93.217 o
-7 -5 -13 6.434 6.891 0.338 62.118 o
-7 -5 -12 7.925 7.701 0.301 58.627 o
-7 -5 -11 2.794 2.511 0.182 260.446 o
-7 -5 -10 1.071 1.206 0.177 365.974 o
-7 -5 -9 6.650 6.674 0.303 69.287 o
-7 -5 -8 59.019 61.463 0.681 1.662 o
-7 -5 -7 5.541 6.637 0.282 83.879 o
-7 -5 -6 10.089 10.424 0.312 41.191 o
-7 -5 -5 5.939 6.503 0.387 55.467 o
-7 -5 -4 66.644 65.133 0.792 1.351 o
-7 -5 -3 4.075 4.213 0.261 121.896 o
-7 -5 -2 10.445 10.491 0.317 39.410 o
-7 -5 -1 19.623 20.295 0.493 12.241 o
-7 -4 -15 0.854 1.157 0.338 106.286 o
-7 -4 -14 14.772 14.966 0.422 20.379 o
-7 -4 -13 7.387 7.462 0.337 56.092 o
-7 -4 -12 22.834 23.534 0.449 9.987 o
-7 -4 -11 27.101 26.280 0.387 7.968 o
-7 -4 -10 25.587 26.072 0.423 8.407 o
-7 -4 -9 3.961 4.167 0.218 156.063 o
-7 -4 -8 33.137 32.748 0.461 5.295 o
-7 -4 -7 17.151 16.517 0.248 19.921 o
-7 -4 -6 12.718 12.190 0.252 33.405 o
-7 -4 -5 12.385 12.947 0.392 26.788 o
-7 -4 -4 40.987 42.183 0.581 3.365 o
-7 -4 -3 7.173 7.501 0.218 81.994 o
-7 -4 -2 8.761 7.757 0.313 52.319 o
-7 -4 -1 7.684 7.049 0.294 63.236 o
-7 -3 -16 1.061 0.805 0.296 138.101 o
-7 -3 -15 21.377 19.920 0.495 11.288 o
-7 -3 -14 27.635 27.896 0.656 6.413 o
-7 -3 -13 21.935 22.713 0.451 10.628 o
-7 -3 -12 1.603 1.159 0.180 337.145 o
-7 -3 -11 4.715 4.656 0.234 126.594 o
-7 -3 -10 29.746 29.505 0.509 6.265 o
-7 -3 -9 70.599 69.888 0.588 1.238 o
-7 -3 -8 9.680 9.108 0.262 50.672 o
-7 -3 -7 23.540 23.491 0.305 10.560 o
-7 -3 -6 8.711 7.906 0.206 68.200 o
-7 -3 -5 25.052 23.146 0.373 9.509 o
-7 -3 -4 7.237 7.737 0.242 74.664 o
-7 -3 -3 24.408 23.652 0.314 10.011 o
-7 -3 -2 108.297 108.812 0.854 0.523 o
-7 -3 -1 0.482 0.712 0.165 441.588 o
-7 -2 -16 1.601 1.615 0.284 143.818 o
-7 -2 -15 20.129 20.523 0.495 11.831 o
-7 -2 -14 19.809 21.488 0.500 11.685 o
-7 -2 -13 28.868 28.289 0.495 6.694 o
-7 -2 -12 0.708 0.705 0.175 391.427 o
-7 -2 -11 65.936 67.680 0.782 1.340 o
-7 -2 -10 4.934 5.065 0.211 133.118 o
-7 -2 -9 2.213 2.075 0.136 447.908 o
-7 -2 -8 52.200 50.657 0.440 2.291 o
-7 -2 -7 66.107 66.975 0.501 1.399 o
-7 -2 -6 20.941 21.291 0.234 13.461 o
-7 -2 -5 50.536 51.155 0.540 2.330 o
-7 -2 -4 99.631 97.585 0.593 0.636 o
-7 -2 -3 12.187 12.056 0.202 37.689 o
-7 -2 -2 8.770 8.622 0.205 64.957 o
-7 -2 -1 35.084 33.725 0.560 4.665 o
-7 -1 -17 10.891 11.881 0.687 17.246 o
-7 -1 -16 11.854 12.940 0.480 23.736 o
-7 -1 -15 20.341 20.708 0.483 11.787 o
-7 -1 -14 16.171 16.765 0.672 12.703 o
-7 -1 -13 27.381 26.756 0.500 7.323 o
-7 -1 -12 1.963 1.379 0.211 244.842 o
-7 -1 -11 14.057 13.607 0.419 22.387 o
-7 -1 -10 12.843 11.921 0.310 30.736 o
-7 -1 -9 50.651 51.874 0.461 2.337 o
-7 -1 -8 39.498 40.335 0.426 3.788 o
-7 -1 -7 7.052 7.229 0.189 92.006 o
-7 -1 -6 49.744 47.470 0.426 2.546 o
-7 -1 -5 23.456 24.046 0.301 10.472 o
-7 -1 -4 108.607 108.689 1.167 0.508 o
-7 -1 -3 62.157 61.405 0.449 1.613 o
-7 -1 -2 48.829 46.163 0.305 2.705 o
-7 -1 -1 21.383 20.587 0.222 13.467 o
-6 -9 -4 3.320 2.538 0.499 46.248 o
-6 -9 -3 13.624 12.175 0.494 21.312 o
-6 -9 -2 7.207 6.792 0.510 34.607 o
-6 -9 -1 1.083 0.903 0.204 282.872 o
-6 -8 -9 2.996 2.512 0.349 89.940 o
-6 -8 -8 4.547 3.859 0.309 93.715 o
-6 -8 -7 14.418 13.989 0.361 23.449 o
-6 -8 -6 7.839 8.518 0.337 51.386 o
-6 -8 -5 9.714 9.974 0.322 42.520 o
-6 -8 -4 16.810 17.769 0.424 16.460 o
-6 -8 -3 6.400 5.659 0.326 68.632 o
-6 -8 -2 4.286 3.088 0.250 134.178 o
-6 -8 -1 0.567 0.511 0.197 313.654 o
-6 -7 -12 4.290 3.730 0.388 67.423 o
-6 -7 -11 12.097 11.959 0.399 27.968 o
-6 -7 -10 5.418 4.698 0.314 81.866 o
-6 -7 -9 4.577 4.623 0.328 83.075 o
-6 -7 -8 18.533 19.983 0.493 13.049 o
-6 -7 -7 16.677 16.023 0.459 16.745 o
-6 -7 -6 9.302 9.822 0.301 46.519 o
-6 -7 -5 4.576 4.012 0.292 100.497 o
-6 -7 -4 31.040 31.076 0.581 5.579 o
-6 -7 -3 33.548 34.663 0.521 4.921 o
-6 -7 -2 42.751 43.327 0.645 3.085 o
-6 -7 -1 37.781 38.191 0.821 3.558 o
-6 -6 -14 6.865 6.900 0.439 43.346 o
-6 -6 -13 17.682 17.780 0.468 14.888 o
-6 -6 -12 22.649 22.051 0.426 10.626 o
-6 -6 -11 17.390 17.506 0.458 15.427 o
-6 -6 -10 10.664 11.713 0.270 39.969 o
-6 -6 -9 44.059 44.183 0.598 2.982 o
-6 -6 -8 9.832 9.454 0.304 44.755 o
-6 -6 -7 2.991 2.986 0.200 216.014 o
-6 -6 -6 44.280 42.067 0.487 3.145 o
-6 -6 -5 47.937 46.442 0.463 2.689 o
-6 -6 -4 14.085 15.007 0.299 25.072 o
-6 -6 -3 37.339 38.705 0.436 4.159 o
-6 -6 -2 42.227 41.598 0.455 3.391 o
-6 -6 -1 62.188 64.822 0.585 1.528 o
-6 -5 -15 6.346 5.975 0.323 68.825 o
-6 -5 -14 31.932 30.666 0.553 5.519 o
-6 -5 -13 37.739 37.606 0.532 4.053 o
-6 -5 -12 0.037 -0.016 0.161 477.354 o
-6 -5 -11 48.120 49.162 0.648 2.475 o
-6 -5 -10 41.328 41.415 0.518 3.434 o
-6 -5 -9 15.294 15.818 0.308 22.030 o
-6 -5 -8 15.593 16.224 0.295 21.554 o
-6 -5 -7 71.307 70.807 0.556 1.216 o
-6 -5 -6 8.253 8.072 0.186 74.722 o
-6 -5 -5 56.566 55.163 0.577 1.913 o
-6 -5 -4 36.698 37.585 0.380 4.400 o
-6 -5 -3 38.139 38.084 0.382 4.153 o
-6 -5 -2 10.622 11.902 0.238 41.969 o
-6 -5 -1 32.322 31.852 0.478 5.509 o
-6 -4 -17 19.021 19.107 1.025 7.034 o
-6 -4 -16 11.064 10.584 0.344 35.322 o
-6 -4 -15 31.361 31.654 0.640 5.290 o
-6 -4 -14 7.702 7.789 0.319 56.734 o
-6 -4 -13 27.327 25.321 0.499 7.568 o
-6 -4 -12 39.284 40.313 0.582 3.639 o
-6 -4 -11 21.651 21.990 0.356 11.779 o
-6 -4 -10 16.332 16.418 0.319 19.829 o
-6 -4 -9 94.916 99.585 0.728 0.663 o
-6 -4 -8 34.137 33.697 0.359 5.196 o
-6 -4 -7 28.125 27.746 0.319 7.591 o
-6 -4 -6 30.325 31.617 0.326 6.343 o
-6 -4 -5 97.878 96.697 0.765 0.647 o
-6 -4 -4 7.084 6.851 0.184 95.411 o
-6 -4 -3 20.893 20.329 0.264 13.663 o
-6 -4 -2 12.500 13.889 0.246 31.869 o
-6 -4 -1 64.146 61.164 0.459 1.549 o
-6 -3 -17 14.427 14.621 0.380 22.350 o
-6 -3 -16 25.292 24.527 0.582 7.927 o
-6 -3 -15 3.878 3.426 0.225 159.211 o
-6 -3 -14 15.547 16.602 0.434 18.151 o
-6 -3 -13 38.279 37.626 0.516 4.004 o
-6 -3 -12 1.776 1.600 0.164 376.800 o
-6 -3 -11 44.556 44.455 0.536 2.980 o
-6 -3 -10 16.314 16.590 0.267 20.749 o
-6 -3 -9 22.653 22.847 0.317 11.181 o
-6 -3 -8 13.375 12.874 0.227 31.574 o
-6 -3 -7 27.746 29.183 0.352 7.379 o
-6 -3 -6 13.973 13.390 0.263 28.177 o
-6 -3 -5 16.421 16.974 0.273 20.220 o
-6 -3 -4 7.103 6.899 0.154 102.808 o
-6 -3 -3 3.938 3.310 0.116 304.255 o
-6 -3 -2 35.547 33.251 0.322 5.026 o
-6 -3 -1 2.580 2.114 0.139 400.165 o
-6 -2 -18 28.794 28.084 0.474 6.819 o
-6 -2 -17 22.017 22.725 0.404 10.959 o
-6 -2 -16 8.510 7.881 0.357 47.256 o
-6 -2 -15 35.485 35.429 0.486 4.602 o
-6 -2 -14 6.012 5.969 0.310 74.277 o
-6 -2 -13 36.019 36.597 0.666 4.124 o
-6 -2 -12 6.191 6.913 0.228 93.402 o
-6 -2 -11 68.985 69.921 0.644 1.266 o
-6 -2 -10 7.870 7.711 0.269 64.632 o
-6 -2 -9 2.507 2.646 0.135 398.415 o
-6 -2 -8 0.094 -0.067 0.085 1716.150 o
-6 -2 -7 54.317 54.453 0.451 2.074 o
-6 -2 -6 0.388 0.128 0.094 1368.810 o
-6 -2 -5 76.552 71.488 0.447 1.112 o
-6 -2 -4 17.768 16.324 0.179 20.135 o
-6 -2 -3 1.340 1.801 0.087 1034.810 o
-6 -2 -2 2.684 2.151 0.078 676.579 o
-6 -2 -1 75.791 69.422 0.354 1.156 o
-6 -1 -18 6.274 6.545 0.399 51.836 o
-6 -1 -17 11.835 12.337 0.412 27.444 o
-6 -1 -16 2.552 2.193 0.207 228.019 o
-6 -1 -15 6.628 5.940 0.271 80.595 o
-6 -1 -14 18.413 18.616 0.334 15.910 o
-6 -1 -13 4.405 4.345 0.278 107.817 o
-6 -1 -12 19.612 19.301 0.299 14.884 o
-6 -1 -11 7.130 6.915 0.214 86.475 o
-6 -1 -10 1.621 1.399 0.115 694.214 o
-6 -1 -9 8.622 7.881 0.214 67.733 o
-6 -1 -8 7.801 7.112 0.163 89.404 o
-6 -1 -7 5.405 5.001 0.130 174.328 o
-6 -1 -6 18.436 17.289 0.195 18.372 o
-6 -1 -5 9.020 8.885 0.144 69.547 o
-6 -1 -4 15.825 13.465 0.193 25.874 o
-6 -1 -3 11.191 10.320 0.110 50.747 o
-6 -1 -2 7.011 5.845 0.091 132.068 o
-6 -1 -1 0.520 0.573 0.053 3699.980 o
-5 -9 -8 7.189 8.290 0.848 14.892 o
-5 -9 -7 16.664 16.909 0.477 15.983 o
-5 -9 -6 7.262 7.608 0.384 48.754 o
-5 -9 -5 0.872 0.829 0.245 200.670 o
-5 -9 -4 6.167 6.689 0.361 59.307 o
-5 -9 -3 21.334 21.294 0.511 10.780 o
-5 -9 -2 17.246 17.177 0.423 16.332 o
-5 -9 -1 9.788 9.873 0.427 33.387 o
-5 -8 -11 0.476 0.313 0.179 383.512 o
-5 -8 -10 22.207 20.855 0.389 11.519 o
-5 -8 -9 7.108 7.469 0.258 73.472 o
-5 -8 -8 19.337 18.767 0.396 14.192 o
-5 -8 -7 3.962 3.598 0.238 144.509 o
-5 -8 -6 23.485 23.734 0.391 10.012 o
-5 -8 -5 20.603 22.178 0.457 11.468 o
-5 -8 -4 6.960 6.669 0.281 72.310 o
-5 -8 -3 8.838 8.277 0.294 53.290 o
-5 -8 -2 7.995 9.348 0.363 45.646 o
-5 -8 -1 10.327 10.797 0.374 34.935 o
-5 -7 -14 21.276 22.713 0.597 9.675 o
-5 -7 -13 2.008 2.604 0.242 180.992 o
-5 -7 -12 17.557 16.871 0.373 17.078 o
-5 -7 -11 5.375 4.389 0.274 98.922 o
-5 -7 -10 21.541 21.525 0.334 12.177 o
-5 -7 -9 2.756 2.786 0.207 214.752 o
-5 -7 -8 33.135 32.874 0.458 5.291 o
-5 -7 -7 27.480 27.380 0.400 7.596 o
-5 -7 -6 12.104 13.114 0.278 32.617 o
-5 -7 -5 18.490 19.090 0.303 16.007 o
-5 -7 -4 18.612 18.393 0.376 15.247 o
-5 -7 -3 5.287 5.414 0.260 100.529 o
-5 -7 -2 10.324 9.976 0.259 45.764 o
-5 -7 -1 14.252 14.242 0.303 25.368 o
-5 -6 -16 7.301 6.085 0.816 16.309 o
-5 -6 -15 0.639 0.674 0.194 320.518 o
-5 -6 -14 12.278 11.919 0.356 29.832 o
-5 -6 -13 4.920 4.170 0.285 99.722 o
-5 -6 -12 11.636 11.253 0.340 33.070 o
-5 -6 -11 11.143 11.983 0.357 32.376 o
-5 -6 -10 0.622 0.728 0.144 569.165 o
-5 -6 -9 20.593 21.030 0.286 13.447 o
-5 -6 -8 0.209 0.124 0.107 1073.900 o
-5 -6 -7 5.630 5.579 0.181 131.262 o
-5 -6 -6 27.139 27.871 0.315 7.927 o
-5 -6 -5 3.354 2.907 0.155 281.419 o
-5 -6 -4 9.618 9.815 0.244 51.021 o
-5 -6 -3 71.469 72.126 0.523 1.202 o
-5 -6 -2 15.208 14.832 0.228 24.968 o
-5 -6 -1 43.967 45.777 0.444 3.040 o
-5 -5 -17 0.982 1.084 0.272 163.179 o
-5 -5 -16 8.348 9.068 0.336 48.157 o
-5 -5 -15 1.132 1.437 0.212 258.238 o
-5 -5 -14 21.214 21.695 0.400 11.775 o
-5 -5 -13 9.480 9.394 0.316 45.097 o
-5 -5 -12 0.094 0.013 0.139 639.611 o
-5 -5 -11 10.775 11.229 0.268 40.619 o
-5 -5 -10 11.723 11.008 0.260 38.084 o
-5 -5 -9 7.074 7.740 0.233 78.197 o
-5 -5 -8 32.900 32.662 0.365 5.540 o
-5 -5 -7 20.964 22.519 0.331 12.258 o
-5 -5 -6 17.128 16.323 0.273 19.678 o
-5 -5 -5 43.362 42.820 0.388 3.268 o
-5 -5 -4 48.603 49.585 0.386 2.569 o
-5 -5 -3 11.477 10.746 0.187 44.060 o
-5 -5 -2 23.862 20.653 0.261 11.449 o
-5 -5 -1 139.954 140.557 0.651 0.320 o
-5 -4 -18 0.757 0.359 0.192 328.138 o
-5 -4 -17 3.809 3.615 0.243 143.368 o
-5 -4 -16 11.322 10.991 0.337 34.484 o
-5 -4 -15 1.227 0.984 0.179 358.763 o
-5 -4 -14 4.818 4.173 0.254 117.066 o
-5 -4 -13 3.674 3.429 0.262 131.952 o
-5 -4 -12 12.358 12.656 0.292 31.902 o
-5 -4 -11 4.749 4.784 0.200 146.628 o
-5 -4 -10 16.861 16.262 0.272 20.109 o
-5 -4 -9 31.782 31.772 0.458 5.678 o
-5 -4 -8 34.687 33.476 0.450 4.961 o
-5 -4 -7 26.986 26.736 0.388 7.925 o
-5 -4 -6 11.311 10.361 0.222 43.421 o
-5 -4 -5 61.596 61.147 0.530 1.619 o
-5 -4 -4 27.285 23.985 0.241 8.870 o
-5 -4 -3 124.108 130.851 1.054 0.384 o
-5 -4 -2 2.862 3.375 0.122 378.157 o
-5 -4 -1 16.381 16.771 0.228 21.212 o
-5 -3 -19 6.046 5.194 0.316 75.234 o
-5 -3 -18 3.290 3.022 0.240 159.315 o
-5 -3 -17 1.359 1.427 0.207 265.109 o
-5 -3 -16 7.128 6.814 0.282 70.312 o
-5 -3 -15 24.229 24.449 0.470 9.015 o
-5 -3 -14 40.259 41.021 0.477 3.610 o
-5 -3 -13 4.850 5.373 0.273 99.923 o
-5 -3 -12 86.805 86.622 0.727 0.814 o
-5 -3 -11 6.633 6.293 0.204 99.198 o
-5 -3 -10 90.817 96.121 0.885 0.707 o
-5 -3 -9 0.895 0.765 0.118 805.766 o
-5 -3 -8 145.461 148.064 1.434 0.282 o
-5 -3 -7 93.090 91.996 0.712 0.716 o
-5 -3 -6 34.199 33.386 0.307 5.291 o
-5 -3 -5 52.145 52.144 0.409 2.263 o
-5 -3 -4 56.209 51.810 0.352 2.074 o
-5 -3 -3 56.835 53.687 0.412 1.984 o
-5 -3 -2 29.082 27.109 0.287 7.464 o
-5 -3 -1 29.929 33.148 0.202 6.463 o
-5 -2 -19 4.930 4.616 0.307 88.551 o
-5 -2 -18 27.657 28.149 0.471 7.147 o
-5 -2 -17 2.660 2.324 0.204 228.234 o
-5 -2 -16 0.839 0.996 0.171 403.412 o
-5 -2 -15 7.234 7.353 0.282 67.694 o
-5 -2 -14 66.560 65.993 0.712 1.361 o
-5 -2 -13 0.690 0.459 0.135 648.695 o
-5 -2 -12 11.047 11.201 0.246 41.133 o
-5 -2 -11 40.064 39.273 0.379 3.828 o
-5 -2 -10 106.503 106.304 0.685 0.549 o
-5 -2 -9 19.599 18.129 0.243 16.053 o
-5 -2 -8 46.858 46.186 0.536 2.733 o
-5 -2 -7 12.162 10.841 0.212 39.538 o
-5 -2 -6 9.997 9.585 0.132 59.809 o
-5 -2 -5 52.603 46.976 0.454 2.369 o
-5 -2 -4 122.884 127.443 0.818 0.401 o
-5 -2 -3 21.767 24.194 0.131 12.241 o
-5 -2 -2 151.827 141.474 0.476 0.287 o
-5 -2 -1 31.757 28.330 0.166 6.671 o
-5 -1 -20 31.901 28.814 0.960 4.448 o
-5 -1 -19 9.454 9.062 0.423 35.468 o
-5 -1 -18 3.611 3.463 0.238 151.539 o
-5 -1 -17 7.513 7.349 0.436 41.428 o
-5 -1 -16 46.421 45.693 0.536 2.784 o
-5 -1 -15 20.748 20.465 0.368 12.795 o
-5 -1 -14 23.058 21.735 0.368 10.921 o
-5 -1 -13 31.831 31.110 0.353 5.976 o
-5 -1 -12 19.607 18.543 0.257 15.690 o
-5 -1 -11 28.619 27.421 0.314 7.495 o
-5 -1 -10 6.795 5.941 0.181 107.135 o
-5 -1 -9 71.674 70.422 0.473 1.222 o
-5 -1 -8 51.145 52.725 0.347 2.323 o
-5 -1 -7 65.207 60.609 0.346 1.542 o
-5 -1 -6 191.502 190.561 0.844 0.172 o
-5 -1 -5 7.458 6.748 0.111 108.482 o
-5 -1 -4 90.755 87.543 0.418 0.780 o
-5 -1 -3 164.865 152.104 0.747 0.243 o
-5 -1 -2 397.484 408.354 1.675 0.039 o
-5 -1 -1 101.605 99.028 0.362 0.621 o
-4 -10 -4 6.434 4.993 0.493 39.641 o
-4 -10 -3 6.378 5.353 0.341 65.913 o
-4 -10 -2 8.473 8.653 0.462 34.824 o
-4 -10 -1 3.268 2.665 0.400 69.239 o
-4 -9 -10 19.783 20.146 0.751 9.254 o
-4 -9 -9 9.868 9.556 0.427 33.622 o
-4 -9 -8 13.990 13.596 0.403 23.049 o
-4 -9 -7 7.807 8.447 0.344 50.672 o
-4 -9 -6 14.700 15.900 0.571 16.050 o
-4 -9 -5 6.991 8.046 0.449 40.310 o
-4 -9 -4 20.608 20.058 0.577 10.794 o
-4 -9 -3 7.822 8.115 0.338 52.225 o
-4 -9 -2 1.113 0.975 0.229 226.030 o
-4 -9 -1 0.075 0.254 0.217 262.441 o
-4 -8 -13 10.893 10.405 0.542 23.854 o
-4 -8 -12 9.549 10.253 0.309 43.886 o
-4 -8 -11 28.280 30.215 0.469 6.684 o
-4 -8 -10 16.238 16.734 0.324 19.649 o
-4 -8 -9 9.000 9.547 0.303 48.337 o
-4 -8 -8 38.462 37.603 0.554 3.929 o
-4 -8 -7 18.657 18.247 0.372 15.331 o
-4 -8 -6 4.019 3.539 0.211 167.778 o
-4 -8 -5 4.610 4.242 0.250 121.222 o
-4 -8 -4 17.077 17.133 0.379 17.334 o
-4 -8 -3 24.300 23.898 0.403 9.511 o
-4 -8 -2 9.197 8.835 0.270 53.024 o
-4 -8 -1 6.852 6.867 0.239 83.017 o
-4 -7 -15 21.542 21.340 0.617 9.668 o
-4 -7 -14 3.096 2.871 0.294 118.719 o
-4 -7 -13 21.884 21.930 0.465 10.743 o
-4 -7 -12 14.886 14.400 0.415 20.790 o
-4 -7 -11 7.222 7.847 0.346 54.395 o
-4 -7 -10 7.689 7.501 0.286 63.414 o
-4 -7 -9 10.601 10.618 0.322 38.266 o
-4 -7 -8 4.763 4.380 0.195 154.902 o
-4 -7 -7 2.993 2.863 0.163 283.872 o
-4 -7 -6 28.333 28.195 0.395 7.209 o
-4 -7 -5 31.836 29.773 0.371 6.098 o
-4 -7 -4 30.236 29.823 0.389 6.452 o
-4 -7 -3 18.096 17.575 0.264 17.778 o
-4 -7 -2 7.517 6.894 0.184 89.512 o
-4 -7 -1 40.672 41.104 0.461 3.575 o
-4 -6 -17 40.375 40.670 0.834 3.181 o
-4 -6 -16 12.975 13.528 0.525 20.162 o
-4 -6 -15 3.629 2.621 0.255 143.235 o
-4 -6 -14 23.401 23.296 0.501 9.404 o
-4 -6 -13 2.587 2.507 0.253 161.299 o
-4 -6 -12 15.805 15.992 0.414 18.687 o
-4 -6 -11 2.367 2.057 0.184 282.396 o
-4 -6 -10 31.041 31.419 0.468 5.856 o
-4 -6 -9 25.453 24.599 0.356 9.088 o
-4 -6 -8 12.634 13.162 0.274 31.312 o
-4 -6 -7 4.235 4.250 0.190 174.266 o
-4 -6 -6 43.463 42.855 0.405 3.246 o
-4 -6 -5 26.402 26.390 0.299 8.545 o
-4 -6 -4 1.863 1.673 0.108 685.574 o
-4 -6 -3 38.080 38.795 0.357 4.138 o
-4 -6 -2 11.972 12.258 0.195 38.424 o
-4 -6 -1 67.838 69.096 0.515 1.324 o
-4 -5 -18 15.137 14.786 0.414 20.251 o
-4 -5 -17 6.168 5.833 0.306 74.868 o
-4 -5 -16 10.496 10.512 0.342 37.226 o
-4 -5 -15 11.310 10.389 0.329 35.943 o
-4 -5 -14 52.855 50.354 0.661 2.166 o
-4 -5 -13 3.517 2.838 0.235 161.617 o
-4 -5 -12 49.952 49.159 0.508 2.440 o
-4 -5 -11 20.319 19.768 0.290 14.152 o
-4 -5 -10 77.250 78.791 0.926 0.978 o
-4 -5 -9 2.361 2.442 0.116 501.101 o
-4 -5 -8 58.474 61.458 0.409 1.752 o
-4 -5 -7 18.150 18.656 0.210 17.718 o
-4 -5 -6 20.039 19.642 0.239 14.911 o
-4 -5 -5 5.061 5.033 0.119 193.256 o
-4 -5 -4 12.538 13.095 0.256 32.462 o
-4 -5 -3 27.558 23.378 0.283 8.747 o
-4 -5 -2 30.299 27.519 0.540 6.268 o
-4 -5 -1 58.378 51.832 0.611 1.895 o
-4 -4 -19 5.499 4.402 0.310 83.908 o
-4 -4 -18 0.688 0.577 0.193 325.075 o
-4 -4 -17 30.974 30.927 0.463 5.941 o
-4 -4 -16 39.129 39.254 0.693 3.564 o
-4 -4 -15 21.855 22.256 0.500 10.373 o
-4 -4 -14 4.480 4.125 0.245 127.383 o
-4 -4 -13 16.754 16.788 0.329 18.859 o
-4 -4 -12 49.675 51.897 0.513 2.371 o
-4 -4 -11 14.927 15.555 0.285 23.438 o
-4 -4 -10 23.144 23.939 0.285 10.762 o
-4 -4 -9 1.947 1.836 0.113 624.143 o
-4 -4 -8 3.782 5.024 0.140 229.029 o
-4 -4 -7 34.917 30.783 0.468 5.130 o
-4 -4 -6 43.697 43.326 0.310 3.258 o
-4 -4 -5 67.253 62.998 0.477 1.426 o
-4 -4 -4 33.960 29.349 0.197 5.925 o
-4 -4 -3 85.575 77.011 0.501 0.910 o
-4 -4 -2 34.681 37.140 0.301 4.857 o
-4 -4 -1 106.354 101.415 0.796 0.562 o
-4 -3 -20 10.578 10.146 0.406 32.784 o
-4 -3 -19 9.305 9.493 0.341 43.085 o
-4 -3 -18 14.888 14.736 0.433 20.048 o
-4 -3 -17 15.744 15.901 0.376 19.713 o
-4 -3 -16 9.140 9.930 0.316 45.478 o
-4 -3 -15 25.193 25.011 0.427 8.749 o
-4 -3 -14 9.211 8.973 0.239 56.291 o
-4 -3 -13 66.149 65.566 0.502 1.417 o
-4 -3 -12 20.730 19.965 0.330 13.361 o
-4 -3 -11 24.699 23.742 0.286 9.974 o
-4 -3 -10 15.299 13.570 0.237 25.832 o
-4 -3 -9 56.019 53.714 0.785 1.884 o
-4 -3 -8 43.341 43.758 0.389 3.225 o
-4 -3 -7 49.580 45.760 0.402 2.627 o
-4 -3 -6 68.936 65.745 0.431 1.350 o
-4 -3 -5 236.386 228.511 0.927 0.115 o
-4 -3 -4 19.703 19.474 0.163 15.913 o
-4 -3 -3 70.892 65.370 0.341 1.315 o
-4 -3 -2 22.895 22.215 0.141 12.111 o
-4 -3 -1 107.432 96.714 0.444 0.583 o
-4 -2 -20 12.079 12.325 0.434 25.951 o
-4 -2 -19 5.037 4.563 0.404 58.977 o
-4 -2 -18 15.337 15.704 0.354 20.922 o
-4 -2 -17 22.681 21.738 0.474 10.308 o
-4 -2 -16 16.876 16.448 0.353 18.441 o
-4 -2 -15 7.100 7.540 0.213 83.678 o
-4 -2 -14 9.235 9.247 0.235 55.856 o
-4 -2 -13 0.790 0.728 0.112 901.893 o
-4 -2 -12 7.689 7.691 0.212 77.252 o
-4 -2 -11 36.483 36.578 0.316 4.584 o
-4 -2 -10 117.034 117.166 0.807 0.452 o
-4 -2 -9 37.976 34.209 0.400 4.437 o
-4 -2 -8 94.489 89.891 1.058 0.689 o
-4 -2 -7 87.144 84.647 0.482 0.839 o
-4 -2 -6 97.648 94.879 0.643 0.663 o
-4 -2 -5 52.282 49.892 0.279 2.359 o
-4 -2 -4 9.513 9.323 0.120 65.676 o
-4 -2 -3 124.423 121.787 0.421 0.413 o
-4 -2 -2 105.744 115.759 0.388 0.530 o
-4 -2 -1 92.947 91.066 0.745 0.721 o
-4 -1 -20 4.316 4.466 0.399 63.028 o
-4 -1 -19 20.445 20.878 0.536 11.105 o
-4 -1 -18 32.004 31.968 0.549 5.386 o
-4 -1 -17 17.140 16.425 0.343 18.338 o
-4 -1 -16 13.071 13.160 0.300 29.120 o
-4 -1 -15 1.689 1.545 0.167 374.333 o
-4 -1 -14 31.782 28.332 0.389 6.246 o
-4 -1 -13 19.764 18.176 0.276 15.519 o
-4 -1 -12 113.121 109.956 0.632 0.497 o
-4 -1 -11 47.936 46.458 0.411 2.715 o
-4 -1 -10 14.960 15.071 0.275 24.073 o
-4 -1 -9 1.708 1.603 0.136 515.000 o
-4 -1 -8 43.508 42.480 0.304 3.322 o
-4 -1 -7 71.161 69.028 0.309 1.266 o
-4 -1 -6 112.232 117.773 0.457 0.484 o
-4 -1 -5 71.975 71.056 0.376 1.218 o
-4 -1 -4 94.208 98.895 0.384 0.686 o
-4 -1 -3 19.908 19.255 0.137 15.971 o
-4 -1 -2 25.457 24.230 0.141 9.954 o
-4 -1 -1 236.270 231.414 0.692 0.115 o
-3 -10 -7 1.312 1.279 0.391 79.103 o
-3 -10 -6 23.943 23.443 0.559 8.747 o
-3 -10 -5 2.117 1.765 0.271 152.608 o
-3 -10 -4 6.662 6.820 0.316 65.876 o
-3 -10 -3 1.601 1.383 0.213 248.421 o
-3 -10 -2 6.915 7.407 0.361 54.308 o
-3 -10 -1 0.067 0.027 0.211 277.108 o
-3 -9 -11 6.810 6.520 0.338 61.196 o
-3 -9 -10 23.045 23.578 0.541 9.201 o
-3 -9 -9 1.802 1.650 0.261 167.116 o
-3 -9 -8 41.089 41.822 0.779 3.142 o
-3 -9 -7 7.067 5.811 0.394 51.264 o
-3 -9 -6 15.134 14.941 0.456 19.011 o
-3 -9 -5 11.385 11.564 0.327 34.126 o
-3 -9 -4 5.320 4.562 0.294 90.632 o
-3 -9 -3 0.501 0.339 0.177 387.672 o
-3 -9 -2 37.999 38.678 0.611 3.839 o
-3 -9 -1 13.721 13.692 0.489 20.429 o
-3 -8 -14 7.401 7.196 0.401 46.615 o
-3 -8 -13 16.698 16.604 0.585 13.993 o
-3 -8 -12 30.464 32.844 0.635 5.361 o
-3 -8 -11 3.114 2.887 0.255 148.613 o
-3 -8 -10 36.914 36.019 0.611 4.142 o
-3 -8 -9 27.303 27.214 0.549 7.064 o
-3 -8 -8 12.880 13.124 0.344 27.764 o
-3 -8 -7 15.103 14.946 0.318 22.783 o
-3 -8 -6 22.171 21.762 0.378 11.355 o
-3 -8 -5 9.654 8.421 0.265 52.290 o
-3 -8 -4 24.879 24.901 0.434 8.862 o
-3 -8 -3 22.492 22.756 0.374 10.914 o
-3 -8 -2 6.649 6.079 0.303 71.314 o
-3 -8 -1 2.346 2.019 0.167 328.529 o
-3 -7 -16 9.976 9.696 0.499 28.116 o
-3 -7 -15 8.959 8.899 0.502 30.302 o
-3 -7 -14 22.774 21.663 0.505 10.027 o
-3 -7 -13 10.997 10.815 0.412 30.711 o
-3 -7 -12 8.623 7.537 0.303 55.068 o
-3 -7 -11 3.428 3.164 0.216 180.945 o
-3 -7 -10 3.226 2.612 0.220 186.221 o
-3 -7 -9 4.242 4.707 0.192 165.500 o
-3 -7 -8 22.788 21.481 0.313 11.540 o
-3 -7 -7 7.940 7.454 0.201 78.067 o
-3 -7 -6 24.241 22.669 0.345 10.179 o
-3 -7 -5 68.109 68.686 0.530 1.320 o
-3 -7 -4 17.712 18.362 0.288 17.440 o
-3 -7 -3 10.576 9.925 0.248 45.684 o
-3 -7 -2 19.643 19.029 0.345 14.460 o
-3 -7 -1 81.096 82.769 0.669 0.920 o
-3 -6 -17 7.065 6.945 0.344 57.682 o
-3 -6 -16 16.427 16.686 0.422 17.421 o
-3 -6 -15 16.680 16.237 0.364 18.599 o
-3 -6 -14 23.223 24.352 0.418 9.817 o
-3 -6 -13 2.563 2.502 0.243 172.224 o
-3 -6 -12 13.656 13.799 0.265 28.345 o
-3 -6 -11 2.768 2.233 0.153 339.365 o
-3 -6 -10 0.403 0.434 0.109 1011.690 o
-3 -6 -9 16.710 17.070 0.384 17.674 o
-3 -6 -8 14.639 14.318 0.259 25.831 o
-3 -6 -7 39.984 39.516 0.626 3.551 o
-3 -6 -6 14.086 14.148 0.299 25.916 o
-3 -6 -5 5.088 6.158 0.190 131.724 o
-3 -6 -4 37.031 36.265 0.551 4.208 o
-3 -6 -3 137.277 142.657 1.718 0.304 o
-3 -6 -2 13.918 14.770 0.290 25.904 o
-3 -6 -1 64.101 63.697 0.697 1.462 o
-3 -5 -19 2.726 2.939 0.329 100.113 o
-3 -5 -18 9.897 9.689 0.432 33.003 o
-3 -5 -17 11.278 11.185 0.329 34.875 o
-3 -5 -16 31.289 30.777 0.458 5.898 o
-3 -5 -15 3.251 3.003 0.195 214.452 o
-3 -5 -14 26.798 26.760 0.388 7.984 o
-3 -5 -13 13.216 13.474 0.256 30.140 o
-3 -5 -12 18.331 19.143 0.285 16.370 o
-3 -5 -11 20.823 20.687 0.293 13.343 o
-3 -5 -10 29.987 30.071 0.298 6.706 o
-3 -5 -9 7.238 7.308 0.185 90.344 o
-3 -5 -8 10.966 11.237 0.246 41.378 o
-3 -5 -7 45.440 47.020 0.341 2.922 o
-3 -5 -6 29.902 29.865 0.370 6.586 o
-3 -5 -5 49.584 49.573 0.390 2.502 o
-3 -5 -4 0.989 0.774 0.084 1432.430 o
-3 -5 -3 8.583 7.056 0.143 83.914 o
-3 -5 -2 23.163 21.594 0.240 11.707 o
-3 -5 -1 158.868 151.410 6.911 0.130 o
-3 -4 -20 5.246 4.084 0.408 58.180 o
-3 -4 -19 14.893 15.179 0.415 20.265 o
-3 -4 -18 13.853 12.741 0.404 23.914 o
-3 -4 -17 0.091 -0.058 0.145 587.942 o
-3 -4 -16 13.346 13.607 0.361 25.665 o
-3 -4 -15 43.855 44.858 0.446 3.089 o
-3 -4 -14 16.532 16.222 0.295 20.171 o
-3 -4 -13 7.776 7.863 0.224 73.305 o
-3 -4 -12 27.991 27.565 0.413 7.353 o
-3 -4 -11 21.826 21.863 0.322 11.970 o
-3 -4 -10 10.758 11.411 0.205 44.692 o
-3 -4 -9 19.450 19.869 0.223 15.510 o
-3 -4 -8 69.407 66.951 0.516 1.311 o
-3 -4 -7 45.737 41.684 0.581 2.961 o
-3 -4 -6 4.596 4.032 0.102 256.574 o
-3 -4 -5 87.257 82.128 0.638 0.843 o
-3 -4 -4 87.804 83.947 0.563 0.830 o
-3 -4 -3 380.890 377.747 1.952 0.043 o
-3 -4 -2 27.843 23.876 0.231 8.684 o
-3 -4 -1 202.111 195.035 1.151 0.156 o
-3 -3 -21 0.718 0.445 0.392 80.153 o
-3 -3 -20 3.204 2.610 0.237 167.580 o
-3 -3 -19 6.221 5.856 0.266 86.193 o
-3 -3 -18 0.256 0.227 0.148 560.663 o
-3 -3 -17 5.229 4.835 0.233 117.715 o
-3 -3 -16 0.695 0.828 0.138 613.675 o
-3 -3 -15 6.151 5.808 0.205 109.460 o
-3 -3 -14 6.420 5.440 0.205 108.295 o
-3 -3 -13 8.646 8.888 0.218 63.177 o
-3 -3 -12 24.999 24.633 0.349 9.312 o
-3 -3 -11 64.288 60.737 0.603 1.522 o
-3 -3 -10 9.370 9.437 0.186 59.839 o
-3 -3 -9 21.601 23.106 0.912 6.930 o
-3 -3 -8 33.642 33.290 0.254 5.485 o
-3 -3 -7 227.016 223.358 2.006 0.120 o
-3 -3 -6 2.579 2.971 0.086 570.708 o
-3 -3 -5 172.277 177.714 0.973 0.206 o
-3 -3 -4 9.602 11.043 0.104 59.214 o
-3 -3 -3 158.249 151.606 0.700 0.258 o
-3 -3 -2 12.505 13.755 0.189 34.233 o
-3 -3 -1 211.224 212.409 1.240 0.139 o
-3 -2 -21 21.252 20.657 0.449 11.604 o
-3 -2 -20 3.269 3.216 0.259 140.717 o
-3 -2 -19 20.007 20.803 0.435 12.487 o
-3 -2 -18 1.800 1.856 0.235 200.889 o
-3 -2 -17 7.328 7.262 0.313 61.160 o
-3 -2 -16 1.684 1.849 0.187 302.827 o
-3 -2 -15 11.977 11.107 0.266 36.682 o
-3 -2 -14 32.220 32.238 0.350 5.762 o
-3 -2 -13 32.104 31.557 0.444 5.666 o
-3 -2 -12 62.501 63.867 0.839 1.467 o
-3 -2 -11 11.905 12.088 0.232 37.128 o
-3 -2 -10 192.158 196.423 2.543 0.156 o
-3 -2 -9 245.725 235.408 2.051 0.104 o
-3 -2 -8 95.661 100.852 0.690 0.652 o
-3 -2 -7 94.846 99.864 0.479 0.673 o
-3 -2 -6 75.039 77.502 0.453 1.083 o
-3 -2 -5 229.670 225.408 0.912 0.121 o
-3 -2 -4 51.126 56.401 0.371 2.214 o
-3 -2 -3 379.051 397.368 3.152 0.041 o
-3 -2 -2 330.120 350.613 0.879 0.056 o
-3 -2 -1 113.014 121.179 0.627 0.467 o
-3 -1 -21 12.450 13.747 0.460 23.109 o
-3 -1 -20 3.952 3.939 0.358 77.909 o
-3 -1 -19 16.666 16.576 0.535 14.976 o
-3 -1 -18 17.500 18.417 0.443 15.190 o
-3 -1 -17 15.741 16.323 0.333 20.417 o
-3 -1 -16 5.939 5.790 0.202 113.895 o
-3 -1 -15 25.631 24.837 0.388 8.806 o
-3 -1 -14 82.256 82.956 0.741 0.896 o
-3 -1 -13 29.401 28.299 0.372 6.944 o
-3 -1 -12 24.950 25.302 0.239 9.648 o
-3 -1 -11 12.887 12.363 0.180 35.594 o
-3 -1 -10 65.944 65.351 0.474 1.430 o
-3 -1 -9 24.739 23.526 0.189 10.394 o
-3 -1 -8 219.472 225.779 1.108 0.128 o
-3 -1 -7 4.659 3.946 0.066 291.723 o
-3 -1 -6 111.821 119.841 0.522 0.479 o
-3 -1 -5 21.486 22.254 0.131 13.180 o
-3 -1 -4 80.927 84.480 0.273 0.936 o
-3 -1 -3 77.214 81.355 0.341 1.018 o
-3 -1 -2 188.897 207.812 0.913 0.165 o
-3 -1 -1 254.585 275.346 1.367 0.092 o
-2 -10 -8 2.776 2.324 0.295 122.826 o
-2 -10 -7 15.635 16.644 0.469 17.245 o
-2 -10 -6 1.377 1.492 0.207 263.301 o
-2 -10 -5 2.822 2.916 0.238 170.766 o
-2 -10 -4 7.244 7.190 0.360 53.375 o
-2 -10 -3 7.634 8.570 0.358 49.216 o
-2 -10 -2 22.584 24.097 0.437 10.058 o
-2 -10 -1 2.293 2.121 0.268 151.290 o
-2 -9 -12 8.295 8.174 0.391 43.316 o
-2 -9 -11 7.311 8.173 0.428 41.845 o
-2 -9 -10 2.604 2.203 0.237 181.075 o
-2 -9 -9 28.434 29.643 0.564 6.380 o
-2 -9 -8 4.166 3.171 0.243 141.028 o
-2 -9 -7 6.369 7.165 0.393 51.458 o
-2 -9 -6 5.412 4.989 0.292 88.699 o
-2 -9 -5 18.039 18.009 0.371 16.038 o
-2 -9 -4 48.228 47.112 0.546 2.598 o
-2 -9 -3 0.933 0.687 0.171 402.354 o
-2 -9 -2 2.113 1.476 0.200 262.832 o
-2 -9 -1 2.017 1.401 0.278 147.782 o
-2 -8 -15 2.914 3.311 0.531 41.163 o
-2 -8 -14 9.543 10.376 0.379 37.264 o
-2 -8 -13 1.794 1.774 0.259 168.664 o
-2 -8 -12 13.621 14.912 0.540 18.270 o
-2 -8 -11 3.919 3.317 0.289 112.052 o
-2 -8 -10 11.769 11.641 0.348 31.760 o
-2 -8 -9 1.358 1.473 0.193 299.792 o
-2 -8 -8 99.542 102.718 0.800 0.607 o
-2 -8 -7 11.504 12.492 0.453 25.847 o
-2 -8 -6 24.783 25.992 0.805 6.564 o
-2 -8 -5 1.164 1.121 0.194 307.121 o
-2 -8 -4 79.906 82.673 0.728 0.933 o
-2 -8 -3 11.036 11.831 0.374 31.782 o
-2 -8 -2 16.797 16.664 0.434 16.819 o
-2 -8 -1 2.027 1.485 0.232 204.694 o
-2 -7 -17 2.561 1.958 0.478 51.733 o
-2 -7 -16 6.833 7.427 0.361 54.460 o
-2 -7 -15 7.788 9.181 0.445 37.425 o
-2 -7 -14 5.502 5.101 0.265 98.012 o
-2 -7 -13 2.904 2.920 0.254 152.551 o
-2 -7 -12 30.275 29.939 0.592 5.823 o
-2 -7 -11 7.026 7.524 0.250 75.819 o
-2 -7 -10 89.851 91.971 0.791 0.745 o
-2 -7 -9 11.818 12.435 0.285 34.084 o
-2 -7 -8 13.335 12.564 0.229 32.080 o
-2 -7 -7 2.137 1.765 0.134 479.790 o
-2 -7 -6 131.320 136.569 0.845 0.351 o
-2 -7 -5 31.138 30.428 0.312 6.316 o
-2 -7 -4 7.086 7.228 0.176 95.058 o
-2 -7 -3 16.940 15.327 0.320 19.726 o
-2 -7 -2 23.947 22.451 0.306 10.616 o
-2 -7 -1 1.781 1.656 0.118 622.773 o
-2 -6 -18 3.929 3.132 0.265 128.583 o
-2 -6 -17 7.642 8.129 0.357 50.181 o
-2 -6 -16 5.143 4.674 0.234 119.763 o
-2 -6 -15 1.234 1.024 0.170 391.127 o
-2 -6 -14 55.520 54.328 0.678 1.938 o
-2 -6 -13 6.367 6.846 0.239 88.264 o
-2 -6 -12 18.558 18.203 0.287 16.601 o
-2 -6 -11 2.613 2.442 0.161 319.607 o
-2 -6 -10 68.296 69.104 0.622 1.295 o
-2 -6 -9 5.347 5.386 0.151 156.694 o
-2 -6 -8 27.698 27.709 0.334 7.698 o
-2 -6 -7 11.415 10.597 0.249 40.702 o
-2 -6 -6 8.540 7.490 0.205 71.514 o
-2 -6 -5 32.806 29.981 0.299 5.981 o
-2 -6 -4 1.413 1.215 0.088 1100.330 o
-2 -6 -3 2.974 2.858 0.177 256.248 o
-2 -6 -2 138.074 136.906 1.283 0.321 o
-2 -6 -1 92.028 85.918 0.572 0.768 o
-2 -5 -19 13.538 13.799 0.349 25.570 o
-2 -5 -18 5.094 5.549 0.314 81.279 o
-2 -5 -17 9.000 9.045 0.282 51.961 o
-2 -5 -16 36.328 35.732 0.658 4.155 o
-2 -5 -15 2.441 1.873 0.171 315.274 o
-2 -5 -14 4.156 3.879 0.264 121.086 o
-2 -5 -13 0.017 0.098 0.108 1051.800 o
-2 -5 -12 79.951 82.175 0.563 0.951 o
-2 -5 -11 8.128 8.932 0.212 67.757 o
-2 -5 -10 0.392 0.504 0.094 1350.090 o
-2 -5 -9 24.327 22.786 0.289 10.406 o
-2 -5 -8 17.088 20.326 0.264 17.354 o
-2 -5 -7 11.987 10.683 0.206 40.886 o
-2 -5 -6 5.554 4.798 0.231 114.099 o
-2 -5 -5 37.956 34.022 0.350 4.515 o
-2 -5 -4 71.723 63.630 0.391 1.311 o
-2 -5 -3 208.868 204.736 0.607 0.147 o
-2 -5 -2 2.493 2.164 0.105 558.371 o
-2 -5 -1 140.007 138.199 0.755 0.322 o
-2 -4 -20 3.521 3.755 0.245 144.724 o
-2 -4 -19 5.916 5.949 0.272 86.674 o
-2 -4 -18 4.251 3.741 0.231 144.319 o
-2 -4 -17 11.726 11.136 0.312 34.680 o
-2 -4 -16 9.715 10.604 0.303 43.071 o
-2 -4 -15 7.977 8.138 0.242 67.076 o
-2 -4 -14 9.769 10.133 0.227 51.036 o
-2 -4 -13 0.308 0.234 0.102 1170.510 o
-2 -4 -12 30.566 29.380 0.326 6.578 o
-2 -4 -11 14.578 12.961 0.194 29.329 o
-2 -4 -10 31.648 31.592 0.347 5.976 o
-2 -4 -9 6.002 5.161 0.167 134.629 o
-2 -4 -8 126.881 128.799 0.794 0.383 o
-2 -4 -7 149.606 150.221 1.402 0.271 o
-2 -4 -6 22.335 22.485 0.224 12.049 o
-2 -4 -5 121.984 119.929 0.695 0.424 o
-2 -4 -4 166.725 164.567 1.207 0.224 o
-2 -4 -3 69.485 68.362 0.445 1.301 o
-2 -4 -2 6.450 5.762 0.093 147.118 o
-2 -4 -1 220.431 222.042 0.991 0.129 o
-2 -3 -21 0.300 0.104 0.173 411.279 o
-2 -3 -20 7.154 7.070 0.304 64.691 o
-2 -3 -19 3.442 3.100 0.221 175.542 o
-2 -3 -18 3.926 3.273 0.237 148.798 o
-2 -3 -17 13.659 13.559 0.371 24.777 o
-2 -3 -16 23.002 22.708 0.348 10.814 o
-2 -3 -15 7.755 8.179 0.216 73.453 o
-2 -3 -14 6.069 5.869 0.172 124.020 o
-2 -3 -13 14.528 15.071 0.203 26.722 o
-2 -3 -12 77.591 77.735 0.433 1.036 o
-2 -3 -11 31.126 30.476 0.394 6.131 o
-2 -3 -10 204.075 201.645 2.173 0.145 o
-2 -3 -9 49.700 46.746 0.372 2.597 o
-2 -3 -8 69.371 71.635 0.380 1.271 o
-2 -3 -7 7.690 6.981 0.126 99.524 o
-2 -3 -6 545.318 548.141 1.916 0.021 o
-2 -3 -5 260.870 266.168 1.344 0.091 o
-2 -3 -4 59.420 59.041 0.556 1.727 o
-2 -3 -3 219.387 231.348 0.944 0.126 o
-2 -3 -2 227.282 243.531 1.293 0.115 o
-2 -3 -1 159.064 174.363 1.137 0.230 o
-2 -2 -21 15.896 16.526 0.402 18.545 o
-2 -2 -20 17.519 16.313 0.371 17.448 o
-2 -2 -19 0.846 0.944 0.142 573.847 o
-2 -2 -18 5.833 6.329 0.295 78.710 o
-2 -2 -17 0.222 0.041 0.139 634.683 o
-2 -2 -16 52.247 50.645 0.470 2.277 o
-2 -2 -15 22.899 22.560 0.280 11.343 o
-2 -2 -14 23.217 21.515 0.248 11.653 o
-2 -2 -13 56.326 53.654 0.376 2.018 o
-2 -2 -12 49.752 47.271 0.416 2.557 o
-2 -2 -11 50.728 50.532 0.403 2.395 o
-2 -2 -10 1.991 2.430 0.078 825.391 o
-2 -2 -9 106.827 107.096 0.496 0.549 o
-2 -2 -8 126.185 127.238 0.688 0.390 o
-2 -2 -7 112.987 114.756 0.476 0.488 o
-2 -2 -6 237.674 257.583 0.785 0.106 o
-2 -2 -5 6.252 6.227 0.108 140.999 o
-2 -2 -4 77.335 81.881 0.308 1.013 o
-2 -2 -3 90.896 105.180 0.397 0.688 o
-2 -2 -2 949.870 1050.830 3.042 0.007 o
-2 -2 -1 267.336 296.409 1.406 0.082 o
-2 -1 -22 18.968 19.023 0.570 12.042 o
-2 -1 -21 11.449 12.989 0.596 19.513 o
-2 -1 -20 4.824 4.543 0.366 69.682 o
-2 -1 -19 26.468 26.091 0.476 7.834 o
-2 -1 -18 65.380 65.786 0.536 1.430 o
-2 -1 -17 54.640 54.280 0.399 2.078 o
-2 -1 -16 18.320 18.489 0.253 17.126 o
-2 -1 -15 21.619 22.024 0.391 11.504 o
-2 -1 -14 40.754 40.737 0.309 3.713 o
-2 -1 -13 92.069 92.582 0.539 0.733 o
-2 -1 -12 87.682 84.037 1.776 0.698 o
-2 -1 -11 92.016 89.996 0.788 0.733 o
-2 -1 -10 46.970 47.764 0.269 2.798 o
-2 -1 -9 53.281 51.194 0.327 2.251 o
-2 -1 -8 9.137 7.422 0.244 61.017 o
-2 -1 -7 140.536 141.518 1.425 0.304 o
-2 -1 -6 185.566 196.252 1.537 0.172 o
-2 -1 -5 18.093 16.876 0.202 19.015 o
-2 -1 -4 954.466 1032.170 3.510 0.007 o
-2 -1 -3 173.252 185.010 0.543 0.201 o
-2 -1 -2 519.098 584.159 1.583 0.022 o
-2 -1 -1 57.407 59.800 0.326 1.844 o
-1 -10 -9 4.213 3.064 0.293 107.759 o
-1 -10 -8 0.780 0.208 0.190 335.518 o
-1 -10 -7 4.254 3.190 0.261 126.701 o
-1 -10 -6 18.021 18.759 0.441 14.633 o
-1 -10 -5 3.283 3.722 0.281 121.222 o
-1 -10 -4 5.919 5.802 0.332 69.532 o
-1 -10 -3 8.646 9.433 0.349 44.783 o
-1 -10 -2 4.738 4.808 0.326 82.307 o
-1 -10 -1 19.976 20.258 0.538 11.507 o
-1 -9 -13 27.291 31.116 1.116 4.360 o
-1 -9 -12 1.819 1.571 0.295 133.304 o
-1 -9 -11 16.457 16.368 0.427 17.468 o
-1 -9 -10 2.949 2.711 0.271 138.515 o
-1 -9 -9 14.157 14.181 0.376 23.225 o
-1 -9 -8 8.992 10.212 0.336 43.402 o
-1 -9 -7 18.673 18.276 0.530 13.000 o
-1 -9 -6 7.559 7.109 0.306 61.545 o
-1 -9 -5 3.642 2.861 0.225 169.329 o
-1 -9 -4 3.240 2.737 0.214 192.733 o
-1 -9 -3 6.363 6.727 0.290 74.398 o
-1 -9 -2 13.454 13.322 0.503 20.474 o
-1 -9 -1 5.243 5.381 0.418 53.834 o
-1 -8 -15 11.491 11.449 0.535 22.758 o
-1 -8 -14 2.521 1.896 0.266 152.585 o
-1 -8 -13 14.421 14.825 0.382 22.115 o
-1 -8 -12 8.427 9.158 0.372 43.432 o
-1 -8 -11 2.462 2.058 0.184 279.406 o
-1 -8 -10 2.553 2.121 0.156 345.730 o
-1 -8 -9 34.424 37.126 0.477 4.651 o
-1 -8 -8 2.920 3.166 0.211 199.047 o
-1 -8 -7 13.373 13.852 0.294 27.890 o
-1 -8 -6 1.663 1.519 0.211 248.893 o
-1 -8 -5 38.709 38.826 0.497 3.898 o
-1 -8 -4 21.605 20.974 0.344 12.243 o
-1 -8 -3 0.417 0.408 0.179 381.286 o
-1 -8 -2 55.609 55.744 0.653 1.914 o
-1 -8 -1 22.757 21.387 0.364 11.230 o
-1 -7 -17 18.302 18.652 0.906 8.345 o
-1 -7 -16 7.826 8.502 0.427 40.042 o
-1 -7 -15 7.817 7.990 0.590 26.345 o
-1 -7 -14 12.902 13.241 0.402 25.136 o
-1 -7 -13 16.723 19.309 0.524 14.095 o
-1 -7 -12 0.194 0.481 0.155 510.569 o
-1 -7 -11 14.135 14.326 0.338 24.395 o
-1 -7 -10 15.143 16.101 0.279 22.738 o
-1 -7 -9 56.954 56.467 0.615 1.856 o
-1 -7 -8 0.195 0.149 0.106 1097.740 o
-1 -7 -7 13.679 14.700 0.247 27.840 o
-1 -7 -6 32.468 31.032 0.324 5.892 o
-1 -7 -5 42.507 42.045 0.373 3.403 o
-1 -7 -4 47.114 46.240 0.414 2.783 o
-1 -7 -3 24.802 24.465 0.380 9.282 o
-1 -7 -2 13.575 12.382 0.241 31.206 o
-1 -7 -1 40.759 39.977 0.393 3.691 o
-1 -6 -19 9.963 11.719 0.816 14.015 o
-1 -6 -18 28.402 28.845 0.679 6.033 o
-1 -6 -17 36.609 37.531 0.586 4.124 o
-1 -6 -16 7.612 6.976 0.326 58.027 o
-1 -6 -15 10.149 10.452 0.301 41.901 o
-1 -6 -14 19.810 20.187 0.419 13.020 o
-1 -6 -13 78.087 82.026 0.663 0.972 o
-1 -6 -12 11.367 11.004 0.248 40.170 o
-1 -6 -11 14.452 13.988 0.243 27.031 o
-1 -6 -10 0.668 0.852 0.120 804.374 o
-1 -6 -9 0.776 0.765 0.113 894.298 o
-1 -6 -8 42.096 41.331 0.490 3.387 o
-1 -6 -7 42.075 39.899 0.500 3.452 o
-1 -6 -6 8.967 8.542 0.186 66.341 o
-1 -6 -5 85.658 84.812 0.632 0.847 o
-1 -6 -4 59.040 58.356 0.389 1.795 o
-1 -6 -3 55.511 54.863 0.400 2.022 o
-1 -6 -2 74.967 73.142 0.781 1.086 o
-1 -6 -1 97.001 94.594 1.015 0.649 o
-1 -5 -20 27.115 25.818 0.677 6.700 o
-1 -5 -19 26.336 27.599 0.523 7.412 o
-1 -5 -18 3.542 4.043 0.260 130.844 o
-1 -5 -17 1.790 1.548 0.184 311.941 o
-1 -5 -16 36.959 38.253 0.899 3.501 o
-1 -5 -15 126.095 132.308 0.887 0.377 o
-1 -5 -14 7.890 7.602 0.233 71.596 o
-1 -5 -13 14.425 13.879 0.277 26.194 o
-1 -5 -12 15.092 15.914 0.277 23.046 o
-1 -5 -11 47.164 44.975 0.466 2.799 o
-1 -5 -10 10.738 9.808 0.192 49.690 o
-1 -5 -9 51.101 47.442 0.406 2.467 o
-1 -5 -8 0.606 0.938 0.117 840.672 o
-1 -5 -7 123.633 120.495 0.983 0.409 o
-1 -5 -6 56.705 55.468 0.477 1.932 o
-1 -5 -5 37.183 30.577 0.394 4.870 o
-1 -5 -4 5.165 4.403 0.132 191.583 o
-1 -5 -3 310.172 310.003 0.662 0.066 o
-1 -5 -2 71.942 74.511 0.376 1.181 o
-1 -5 -1 111.054 109.506 0.438 0.515 o
-1 -4 -21 2.918 2.604 0.315 107.683 o
-1 -4 -20 20.468 21.345 0.427 12.096 o
-1 -4 -19 19.417 19.214 0.408 13.801 o
-1 -4 -18 19.272 18.770 0.361 14.691 o
-1 -4 -17 9.669 10.908 0.330 40.301 o
-1 -4 -16 34.613 35.799 0.501 4.686 o
-1 -4 -15 28.356 29.154 0.485 6.752 o
-1 -4 -14 33.365 32.729 0.756 4.557 o
-1 -4 -13 31.015 29.238 0.672 5.483 o
-1 -4 -12 41.656 42.565 0.386 3.455 o
-1 -4 -11 214.146 209.959 1.452 0.137 o
-1 -4 -10 25.161 24.474 0.292 9.539 o
-1 -4 -9 3.342 3.005 0.157 275.156 o
-1 -4 -8 33.409 34.735 0.327 5.286 o
-1 -4 -7 228.497 223.061 1.101 0.122 o
-1 -4 -6 28.201 33.774 0.308 6.664 o
-1 -4 -5 46.815 46.980 0.294 2.832 o
-1 -4 -4 13.241 13.069 0.162 33.877 o
-1 -4 -3 129.002 128.476 0.466 0.380 o
-1 -4 -2 25.370 28.666 0.189 8.828 o
-1 -4 -1 120.071 130.422 0.504 0.412 o
-1 -3 -22 34.235 35.419 0.918 3.890 o
-1 -3 -21 27.925 28.781 0.444 7.076 o
-1 -3 -20 2.671 2.225 0.247 168.431 o
-1 -3 -19 8.895 8.924 0.358 43.687 o
-1 -3 -18 38.692 37.811 0.564 3.875 o
-1 -3 -17 16.311 15.660 0.283 21.150 o
-1 -3 -16 24.899 24.805 0.378 9.174 o
-1 -3 -15 0.836 0.567 0.114 872.774 o
-1 -3 -14 21.238 20.880 0.425 11.777 o
-1 -3 -13 65.353 67.004 0.525 1.415 o
-1 -3 -12 46.375 44.838 0.417 2.894 o
-1 -3 -11 44.583 41.063 0.458 3.186 o
-1 -3 -10 27.181 27.550 0.377 7.756 o
-1 -3 -9 316.862 327.125 1.551 0.061 o
-1 -3 -8 36.397 36.519 0.242 4.674 o
-1 -3 -7 135.471 143.662 0.465 0.330 o
-1 -3 -6 45.738 54.364 0.354 2.614 o
-1 -3 -5 21.663 22.752 0.277 12.103 o
-1 -3 -4 71.833 76.916 0.329 1.162 o
-1 -3 -3 361.256 399.451 2.163 0.045 o
-1 -3 -2 43.849 48.997 0.258 3.008 o
-1 -3 -1 308.677 324.816 0.762 0.064 o
-1 -2 -22 13.192 12.045 0.491 22.033 o
-1 -2 -21 13.193 13.107 0.517 20.424 o
-1 -2 -20 38.762 39.093 0.550 3.808 o
-1 -2 -19 14.453 14.863 0.271 25.340 o
-1 -2 -18 6.664 6.346 0.233 89.430 o
-1 -2 -17 7.491 7.218 0.201 84.155 o
-1 -2 -16 4.245 4.078 0.172 193.905 o
-1 -2 -15 15.230 13.417 0.234 26.215 o
-1 -2 -14 38.616 37.925 0.374 4.107 o
-1 -2 -13 62.408 59.707 0.557 1.610 o
-1 -2 -12 28.512 27.585 0.345 7.409 o
-1 -2 -11 5.304 6.012 0.252 100.140 o
-1 -2 -10 8.120 7.720 0.164 81.803 o
-1 -2 -9 221.312 235.991 0.970 0.123 o
-1 -2 -8 3.305 3.590 0.087 410.546 o
-1 -2 -7 86.222 92.201 0.666 0.792 o
-1 -2 -6 15.820 17.491 0.168 22.446 o
-1 -2 -5 353.726 406.178 0.960 0.046 o
-1 -2 -4 140.311 156.603 0.801 0.294 o
-1 -2 -3 445.854 516.505 2.946 0.028 o
-1 -2 -2 270.303 275.258 1.202 0.085 o
-1 -2 -1 67.851 66.089 0.324 1.386 o
-1 -1 -22 15.681 16.876 0.570 14.917 o
-1 -1 -21 0.537 0.420 0.167 435.380 o
-1 -1 -20 3.036 3.604 0.227 172.550 o
-1 -1 -19 7.635 7.577 0.227 75.246 o
-1 -1 -18 15.893 16.170 0.230 22.449 o
-1 -1 -17 17.234 17.743 0.263 18.754 o
-1 -1 -16 41.739 41.198 0.352 3.544 o
-1 -1 -15 59.436 57.373 0.412 1.794 o
-1 -1 -14 19.097 19.684 0.248 15.718 o
-1 -1 -13 103.127 104.380 1.096 0.560 o
-1 -1 -12 2.000 2.063 0.174 324.533 o
-1 -1 -11 12.147 12.634 0.171 38.095 o
-1 -1 -10 109.354 112.596 0.443 0.516 o
-1 -1 -9 204.826 208.961 0.961 0.148 o
-1 -1 -8 190.963 208.419 1.439 0.160 o
-1 -1 -7 282.136 315.330 1.554 0.073 o
-1 -1 -6 19.244 19.854 0.147 16.304 o
-1 -1 -5 388.794 429.818 1.921 0.039 o
-1 -1 -4 132.421 150.823 0.854 0.324 o
-1 -1 -3 968.668 1100.870 4.656 0.006 o
-1 -1 -2 88.501 108.906 0.323 0.695 o
-1 -1 -1 124.172 130.724 0.673 0.392 o
0 0 2 182.857 201.605 1.372 0.173 o
0 0 4 5114.840 5286.520 18.589 0.000 o
0 0 6 82.019 88.507 0.476 0.881 o
0 0 8 48.734 37.885 0.381 3.008 o
0 0 10 0.592 1.541 0.135 623.880 o
0 0 12 176.639 185.573 5.417 0.134 o
0 0 14 44.174 48.228 0.671 2.755 o
0 0 16 17.103 18.698 0.416 15.870 o
0 0 18 138.058 140.301 1.167 0.318 o
0 0 20 0.154 0.338 0.194 328.866 o
0 0 22 62.131 61.124 1.065 1.442 o
0 1 1 262.537 277.029 1.076 0.088 o
0 1 2 5323.240 5320.690 12.851 0.000 o
0 1 3 82.059 72.311 0.296 1.015 o
0 1 4 1526.830 1706.770 4.613 0.003 o
0 1 5 283.196 332.018 1.735 0.070 o
0 1 6 44.525 55.899 0.349 2.648 o
0 1 7 19.903 18.554 0.156 16.238 o
0 1 8 315.906 364.865 1.607 0.057 o
0 1 9 2.454 2.633 0.103 540.389 o
0 1 10 36.352 35.066 0.287 4.762 o
0 1 11 79.621 77.147 0.679 0.985 o
0 1 12 21.901 24.385 0.292 11.324 o
0 1 13 43.920 47.268 0.451 2.976 o
0 1 14 1.574 1.732 0.120 635.849 o
0 1 15 63.983 63.609 0.494 1.510 o
0 1 16 18.984 18.515 0.290 15.965 o
0 1 17 21.426 22.616 0.279 12.293 o
0 1 18 0.203 0.089 0.099 1251.410 o
0 1 19 22.360 22.282 0.333 11.420 o
0 1 20 23.095 21.199 0.352 11.172 o
0 1 21 1.718 1.719 0.165 373.052 o
0 1 22 2.296 2.300 0.261 157.374 o
0 2 0 38.843 38.616 0.458 3.940 o
0 2 1 45.253 36.125 0.201 3.521 o
0 2 2 1537.680 1734.660 4.420 0.002 o
0 2 3 674.568 738.969 3.061 0.013 o
0 2 4 42.615 44.764 0.296 3.301 o
0 2 5 88.856 96.863 0.332 0.753 o
0 2 6 1775.060 1979.360 6.337 0.002 o
0 2 7 237.626 245.892 0.649 0.109 o
0 2 8 1.369 1.158 0.098 959.957 o
0 2 9 212.523 213.820 0.754 0.139 o
0 2 10 181.958 211.154 0.898 0.171 o
0 2 11 1.600 2.385 0.136 486.959 o
0 2 12 31.299 29.954 0.395 6.151 o
0 2 13 138.468 137.611 0.730 0.328 o
0 2 14 7.832 7.022 0.175 86.943 o
0 2 15 44.988 48.480 0.360 2.890 o
0 2 16 21.531 21.524 0.280 12.599 o
0 2 17 27.514 27.620 0.428 7.441 o
0 2 18 24.846 24.774 0.328 9.454 o
0 2 19 22.256 21.546 0.353 11.563 o
0 2 20 1.391 1.088 0.154 455.991 o
0 2 21 4.950 4.447 0.237 122.829 o
0 2 22 8.028 8.565 0.561 27.706 o
0 3 1 23.717 26.257 0.184 10.225 o
0 3 2 0.436 0.416 0.043 5659.950 o
0 3 3 50.613 54.046 0.518 2.254 o
0 3 4 376.044 419.928 2.030 0.041 o
0 3 5 172.025 174.214 1.095 0.208 o
0 3 6 34.717 38.952 0.231 4.763 o
0 3 7 204.071 215.285 1.216 0.144 o
0 3 8 53.288 66.197 0.340 1.880 o
0 3 9 86.750 82.543 0.579 0.851 o
0 3 10 21.330 25.107 0.269 11.594 o
0 3 11 193.760 201.904 2.596 0.151 o
0 3 12 10.952 9.020 0.190 50.881 o
0 3 13 1.498 1.894 0.182 321.837 o
0 3 14 1.854 2.516 0.123 528.133 o
0 3 15 18.916 18.319 0.365 15.156 o
0 3 16 33.928 29.614 0.372 5.633 o
0 3 17 23.826 23.053 0.377 10.097 o
0 3 18 1.611 1.554 0.163 392.680 o
0 3 19 0.751 0.627 0.147 543.987 o
0 3 20 15.906 17.660 0.446 16.976 o
0 3 21 16.149 17.455 0.456 16.617 o
0 4 0 354.448 373.726 4.448 0.045 o
0 4 1 310.677 321.011 1.457 0.064 o
0 4 2 29.525 25.693 0.164 7.819 o
0 4 3 0.501 0.730 0.059 2995.970 o
0 4 4 32.810 31.871 0.305 5.750 o
0 4 5 14.839 12.801 0.185 29.097 o
0 4 6 111.259 99.018 0.421 0.548 o
0 4 7 78.370 74.915 0.365 1.052 o
0 4 8 102.771 116.733 0.691 0.539 o
0 4 9 84.686 91.983 0.514 0.822 o
0 4 10 61.311 57.957 0.498 1.692 o
0 4 11 10.311 8.503 0.335 41.829 o
0 4 12 165.565 179.446 1.977 0.205 o
0 4 13 36.228 39.403 0.504 4.173 o
0 4 14 4.086 4.159 0.213 157.569 o
0 4 15 8.468 8.705 0.233 62.833 o
0 4 16 53.125 58.269 0.601 1.988 o
0 4 17 0.332 0.382 0.151 538.222 o
0 4 18 0.452 0.285 0.159 485.597 o
0 4 19 6.174 5.981 0.300 75.963 o
0 4 20 0.428 0.152 0.253 191.720 o
0 4 21 2.094 1.675 0.310 119.219 o
0 5 1 31.960 29.966 0.254 6.269 o
0 5 2 43.551 48.716 0.332 3.014 o
0 5 3 197.039 189.113 0.694 0.167 o
0 5 4 53.010 43.179 0.362 2.498 o
0 5 5 63.737 58.472 0.365 1.623 o
0 5 6 0.105 0.248 0.102 1177.850 o
0 5 7 10.190 8.784 0.320 43.171 o
0 5 8 15.013 10.976 0.340 25.790 o
0 5 9 20.900 18.620 0.283 14.211 o
0 5 10 31.777 34.583 0.375 5.555 o
0 5 11 19.261 19.606 0.293 15.132 o
0 5 12 0.634 1.024 0.119 804.349 o
0 5 13 6.984 8.219 0.199 84.647 o
0 5 14 33.098 33.641 0.466 5.208 o
0 5 15 7.770 8.009 0.266 64.788 o
0 5 16 3.146 2.631 0.167 274.387 o
0 5 17 7.260 7.058 0.254 74.799 o
0 5 18 2.859 2.531 0.230 183.184 o
0 5 19 0.062 0.224 0.204 296.832 o
0 5 20 0.085 0.090 0.266 174.045 o
0 6 0 85.603 80.803 0.722 0.867 o
0 6 1 58.869 54.308 0.488 1.861 o
0 6 2 4.046 4.833 0.125 238.471 o
0 6 3 20.712 19.134 0.323 13.767 o
0 6 4 7.817 5.798 0.143 103.239 o
0 6 5 54.827 51.058 0.428 2.141 o
0 6 6 51.853 55.727 0.711 2.058 o
0 6 7 57.404 54.584 0.616 1.876 o
0 6 8 29.261 29.637 0.374 6.786 o
0 6 9 0.742 1.048 0.114 863.574 o
0 6 10 57.340 58.228 0.642 1.796 o
0 6 11 0.057 0.002 0.129 741.242 o
0 6 12 33.173 32.288 0.522 5.198 o
0 6 13 15.874 15.150 0.327 21.215 o
0 6 14 5.083 4.811 0.302 88.367 o
0 6 15 12.133 12.560 0.462 24.367 o
0 6 16 3.918 4.286 0.281 111.835 o
0 6 17 4.631 4.336 0.320 86.723 o
0 6 18 9.531 9.619 0.500 28.903 o
0 7 1 0.227 0.383 0.175 401.880 o
0 7 2 49.822 47.741 0.663 2.405 o
0 7 3 10.952 9.974 0.273 41.992 o
0 7 4 6.131 6.093 0.205 107.625 o
0 7 5 36.425 36.035 0.397 4.539 o
0 7 6 10.590 10.917 0.229 44.870 o
0 7 7 2.431 2.387 0.134 419.632 o
0 7 8 25.007 25.416 0.361 9.079 o
0 7 9 24.225 24.821 0.331 9.720 o
0 7 10 52.977 54.874 0.636 2.059 o
0 7 11 24.370 24.655 0.509 8.676 o
0 7 12 10.034 9.919 0.346 39.365 o
0 7 13 0.009 -0.023 0.177 394.973 o
0 7 14 9.670 10.075 0.306 43.971 o
0 7 15 10.447 10.355 0.489 27.454 o
0 7 16 2.802 1.685 0.288 130.581 o
0 7 17 4.751 4.016 0.307 92.464 o
0 8 0 2.123 1.578 0.258 166.976 o
0 8 1 1.055 0.850 0.140 571.735 o
0 8 2 24.928 23.541 0.460 8.974 o
0 8 3 0.909 1.376 0.185 338.685 o
0 8 4 0.844 0.859 0.128 693.383 o
0 8 5 4.030 3.929 0.206 167.940 o
0 8 6 68.327 68.752 0.640 1.296 o
0 8 7 14.745 16.195 0.293 22.991 o
0 8 8 1.940 1.677 0.201 263.400 o
0 8 9 31.296 33.179 0.418 5.724 o
0 8 10 12.248 12.913 0.407 26.391 o
0 8 11 9.963 10.657 0.316 40.862 o
0 8 12 5.201 4.665 0.310 85.264 o
0 8 13 24.779 27.406 0.493 8.105 o
0 8 14 0.007 -0.170 0.174 409.800 o
0 8 15 0.143 0.043 0.187 354.438 o
0 9 1 0.457 0.357 0.167 435.791 o
0 9 2 11.191 10.305 0.286 39.481 o
0 9 3 0.243 0.313 0.134 678.542 o
0 9 4 94.156 98.192 1.097 0.652 o
0 9 5 0.613 0.827 0.173 398.924 o
0 9 6 4.236 4.008 0.241 134.418 o
0 9 7 2.313 1.423 0.220 219.778 o
0 9 8 66.405 69.636 0.839 1.291 o
0 9 9 3.930 4.494 0.259 123.686 o
0 9 10 11.592 12.087 0.319 33.338 o
0 9 11 9.578 9.806 0.389 37.144 o
0 9 12 4.351 4.425 0.368 71.422 o
0 9 13 2.116 2.798 0.440 60.465 o
0 10 0 121.023 130.628 2.420 0.344 o
0 10 1 1.447 1.855 0.405 73.128 o
0 10 2 4.987 4.768 0.405 58.491 o
0 10 3 0.023 0.009 0.191 339.781 o
0 10 4 53.767 55.432 0.941 1.864 o
0 10 5 8.416 7.637 0.421 40.291 o
0 10 6 10.551 10.499 0.419 31.526 o
0 10 7 0.704 0.959 0.281 153.630 o
0 10 8 2.711 2.429 0.326 103.416 o
0 10 9 7.218 7.693 0.437 41.614 o
1 0 1 692.465 735.985 3.936 0.012 o
1 0 2 170.005 118.003 0.620 0.270 o
1 0 3 610.762 706.960 2.321 0.015 o
1 0 4 84.188 94.504 0.529 0.811 o
1 0 5 0.405 0.412 0.059 3226.350 o
1 0 6 391.338 461.508 1.777 0.037 o
1 0 7 28.636 30.903 0.222 7.138 o
1 0 8 45.999 44.907 0.278 2.991 o
1 0 9 31.969 25.465 0.257 6.883 o
1 0 10 106.222 115.674 0.619 0.522 o
1 0 11 55.902 59.955 0.334 1.903 o
1 0 12 60.104 62.307 0.646 1.621 o
1 0 13 16.458 14.624 0.230 22.808 o
1 0 14 28.269 28.076 0.277 7.601 o
1 0 15 65.265 66.883 0.374 1.442 o
1 0 16 0.818 0.587 0.088 1392.280 o
1 0 17 0.833 0.795 0.108 945.541 o
1 0 18 30.884 33.949 0.481 5.583 o
1 0 19 9.349 9.298 0.287 49.095 o
1 0 20 17.177 18.034 0.342 17.391 o
1 0 21 0.781 0.417 0.179 375.585 o
1 0 22 0.193 0.287 0.213 271.772 o
1 1 0 50.789 70.780 0.288 1.898 o
1 1 1 124.064 132.958 0.511 0.390 o
1 1 2 88.687 109.222 0.376 0.690 o
1 1 3 968.094 1106.400 4.759 0.006 o
1 1 4 132.387 152.546 0.648 0.324 o
1 1 5 388.961 421.127 2.272 0.039 o
1 1 6 19.284 20.163 0.169 15.953 o
1 1 7 281.899 315.811 1.611 0.073 o
1 1 8 190.946 210.751 0.652 0.162 o
1 1 9 204.985 209.482 0.693 0.148 o
1 1 10 109.512 114.238 0.489 0.509 o
1 1 11 12.200 12.737 0.185 37.141 o
1 1 12 2.012 1.612 0.139 469.574 o
1 1 13 103.179 106.198 0.637 0.574 o
1 1 14 19.135 19.013 0.319 15.230 o
1 1 15 59.427 58.519 0.557 1.736 o
1 1 16 41.698 43.078 0.321 3.468 o
1 1 17 17.241 17.197 0.247 19.350 o
1 1 18 15.884 15.494 0.233 22.982 o
1 1 19 7.630 8.136 0.258 66.833 o
1 1 20 3.042 3.439 0.294 116.403 o
1 1 21 0.531 0.576 0.189 338.973 o
1 1 22 15.728 16.740 0.535 15.664 o
1 2 0 1.114 0.957 0.035 3592.390 o
1 2 1 68.060 64.810 0.408 1.388 o
1 2 2 270.377 275.644 0.821 0.085 o
1 2 3 445.821 510.088 2.427 0.029 o
1 2 4 140.275 160.217 0.701 0.291 o
1 2 5 353.164 397.593 1.858 0.046 o
1 2 6 15.889 17.751 0.152 22.322 o
1 2 7 86.292 92.253 0.571 0.797 o
1 2 8 3.364 3.745 0.099 368.207 o
1 2 9 221.129 242.476 1.139 0.120 o
1 2 10 8.131 7.214 0.142 88.597 o
1 2 11 5.304 5.765 0.144 157.095 o
1 2 12 28.582 28.805 0.322 7.257 o
1 2 13 62.433 61.569 0.509 1.589 o
1 2 14 38.669 39.387 0.446 3.927 o
1 2 15 15.317 13.697 0.213 26.263 o
1 2 16 4.248 4.075 0.159 208.308 o
1 2 17 7.496 7.142 0.188 87.493 o
1 2 18 6.704 6.535 0.222 91.226 o
1 2 19 14.485 15.178 0.363 22.342 o
1 2 20 38.797 39.317 0.669 3.629 o
1 2 21 13.200 14.313 0.353 25.587 o
1 2 22 13.164 12.730 0.359 26.914 o
1 3 0 170.979 187.710 0.605 0.202 o
1 3 1 308.231 326.907 2.172 0.063 o
1 3 2 43.919 48.892 0.315 2.982 o
1 3 3 361.420 400.512 2.747 0.044 o
1 3 4 71.719 76.112 0.318 1.174 o
1 3 5 21.718 22.217 0.162 12.891 o
1 3 6 45.666 55.067 0.228 2.636 o
1 3 7 135.158 140.899 0.884 0.331 o
1 3 8 36.283 35.884 0.247 4.743 o
1 3 9 316.646 320.035 1.486 0.062 o
1 3 10 27.186 26.757 0.263 8.276 o
1 3 11 44.477 42.434 0.460 3.132 o
1 3 12 46.407 44.675 0.397 2.910 o
1 3 13 65.210 67.370 0.439 1.428 o
1 3 14 21.348 21.110 0.338 12.422 o
1 3 15 0.840 0.697 0.112 897.915 o
1 3 16 25.043 24.508 0.365 9.243 o
1 3 17 16.368 15.857 0.308 20.408 o
1 3 18 38.716 38.303 0.536 3.880 o
1 3 19 8.892 9.039 0.315 48.474 o
1 3 20 2.655 2.719 0.227 188.489 o
1 3 21 27.938 29.507 0.490 6.800 o
1 4 0 2.235 2.428 0.066 840.605 o
1 4 1 120.362 130.170 0.871 0.405 o
1 4 2 25.363 28.881 0.219 8.710 o
1 4 3 128.517 127.196 0.927 0.377 o
1 4 4 13.289 13.259 0.170 33.201 o
1 4 5 46.687 46.901 0.283 2.849 o
1 4 6 28.159 32.914 0.224 6.970 o
1 4 7 228.321 223.484 1.400 0.121 o
1 4 8 33.521 34.314 0.234 5.427 o
1 4 9 3.374 2.923 0.150 288.872 o
1 4 10 25.075 25.354 0.308 9.305 o
1 4 11 214.036 210.751 0.750 0.139 o
1 4 12 41.712 42.782 0.395 3.431 o
1 4 13 31.037 29.596 0.393 6.266 o
1 4 14 33.378 33.179 0.356 5.403 o
1 4 15 28.384 28.453 0.400 7.140 o
1 4 16 34.592 35.098 0.421 4.885 o
1 4 17 9.639 10.191 0.343 40.433 o
1 4 18 19.299 19.511 0.390 14.002 o
1 4 19 19.446 20.281 0.474 12.577 o
1 4 20 20.480 21.519 0.544 10.837 o
1 4 21 2.902 2.280 0.507 45.563 o
1 5 0 9.822 8.259 0.151 64.648 o
1 5 1 110.814 110.693 0.588 0.510 o
1 5 2 72.032 74.564 0.467 1.170 o
1 5 3 310.049 310.975 1.935 0.065 o
1 5 4 5.135 4.329 0.142 186.657 o
1 5 5 37.048 31.689 0.362 4.842 o
1 5 6 56.831 54.664 0.520 1.931 o
1 5 7 123.543 122.556 0.993 0.405 o
1 5 8 0.620 0.655 0.189 337.744 o
1 5 9 51.078 47.164 0.687 2.334 o
1 5 10 10.780 9.480 0.198 49.865 o
1 5 11 47.207 46.104 0.440 2.768 o
1 5 12 15.046 15.302 0.270 23.829 o
1 5 13 14.404 14.038 0.276 26.120 o
1 5 14 7.814 8.020 0.247 67.834 o
1 5 15 125.989 131.188 0.872 0.380 o
1 5 16 36.870 37.725 0.513 4.188 o
1 5 17 1.789 1.897 0.221 223.726 o
1 5 18 3.526 4.170 0.340 86.421 o
1 5 19 26.272 27.882 0.590 7.074 o
1 5 20 27.118 27.966 0.732 6.186 o
1 6 0 25.388 25.941 0.302 9.056 o
1 6 1 96.922 93.784 0.701 0.672 o
1 6 2 74.949 70.775 0.461 1.150 o
1 6 3 55.781 55.338 0.508 1.967 o
1 6 4 58.985 60.272 0.544 1.724 o
1 6 5 85.714 82.211 0.838 0.845 o
1 6 6 8.923 8.466 0.205 64.466 o
1 6 7 42.158 40.492 0.525 3.390 o
1 6 8 42.156 40.900 0.497 3.396 o
1 6 9 0.760 1.181 0.141 578.426 o
1 6 10 0.691 0.894 0.131 679.970 o
1 6 11 14.436 13.970 0.378 22.885 o
1 6 12 11.396 11.250 0.341 33.674 o
1 6 13 77.985 81.555 0.943 0.944 o
1 6 14 19.858 20.344 0.453 12.536 o
1 6 15 10.161 10.051 0.377 36.175 o
1 6 16 7.636 6.830 0.373 50.550 o
1 6 17 36.578 38.467 0.637 3.985 o
1 6 18 28.381 28.562 0.710 5.945 o
1 7 0 140.487 134.193 0.918 0.324 o
1 7 1 40.916 39.499 0.328 3.753 o
1 7 2 13.620 12.215 0.213 32.343 o
1 7 3 24.783 24.989 0.462 8.727 o
1 7 4 47.222 47.650 0.542 2.651 o
1 7 5 42.649 42.248 0.716 3.065 o
1 7 6 32.506 31.227 0.409 5.693 o
1 7 7 13.639 14.310 0.252 28.247 o
1 7 8 0.180 -0.109 0.134 687.727 o
1 7 9 56.935 56.907 0.595 1.855 o
1 7 10 15.081 15.513 0.300 22.820 o
1 7 11 14.096 15.288 0.395 21.860 o
1 7 12 0.202 0.088 0.173 413.578 o
1 7 13 16.717 18.137 0.375 17.261 o
1 7 14 12.866 14.014 0.351 26.578 o
1 7 15 7.815 7.353 0.346 52.860 o
1 7 16 7.783 7.682 0.356 50.673 o
1 7 17 18.288 20.232 0.522 12.737 o
1 8 0 20.498 19.319 0.349 13.596 o
1 8 1 22.681 22.124 0.435 10.520 o
1 8 2 55.702 54.808 0.890 1.826 o
1 8 3 0.408 0.252 0.127 756.276 o
1 8 4 21.559 20.736 0.342 12.371 o
1 8 5 38.669 40.126 0.463 3.863 o
1 8 6 1.682 1.160 0.137 533.124 o
1 8 7 13.367 14.069 0.301 27.414 o
1 8 8 2.933 3.100 0.187 235.423 o
1 8 9 34.474 36.399 0.526 4.616 o
1 8 10 2.529 2.321 0.186 265.459 o
1 8 11 2.474 2.473 0.207 226.186 o
1 8 12 8.396 9.404 0.350 45.570 o
1 8 13 14.465 15.610 0.460 19.285 o
1 8 14 2.528 2.028 0.209 227.107 o
1 8 15 11.462 12.039 0.378 30.319 o
1 9 0 5.219 5.293 0.355 68.899 o
1 9 1 5.196 5.903 0.428 51.367 o
1 9 2 13.355 14.444 0.464 21.255 o
1 9 3 6.372 7.364 0.280 74.532 o
1 9 4 3.212 3.122 0.283 124.077 o
1 9 5 3.633 3.383 0.264 131.419 o
1 9 6 7.504 7.578 0.307 60.400 o
1 9 7 18.680 19.892 0.505 12.815 o
1 9 8 8.962 9.369 0.328 45.987 o
1 9 9 14.140 15.088 0.392 22.055 o
1 9 10 2.935 2.328 0.205 218.632 o
1 9 11 16.481 16.936 0.369 18.305 o
1 9 12 1.831 2.006 0.194 277.041 o
1 9 13 27.218 28.127 0.711 6.239 o
1 10 0 1.077 0.710 0.256 183.501 o
1 10 1 20.029 21.951 0.650 9.856 o
1 10 2 4.768 4.422 0.288 98.648 o
1 10 3 8.634 8.773 0.363 44.352 o
1 10 4 5.878 6.255 0.287 80.891 o
1 10 5 3.299 3.482 0.270 130.184 o
1 10 6 18.013 19.141 0.535 13.080 o
1 10 7 4.253 3.835 0.393 66.019 o
1 10 8 0.787 0.578 0.191 329.850 o
1 10 9 4.197 3.085 0.260 128.881 o
2 0 0 2738.960 2972.340 11.059 0.001 o
2 0 1 521.051 506.034 1.718 0.024 o
2 0 2 145.403 177.923 0.787 0.257 o
2 0 3 60.238 53.929 0.204 1.866 o
2 0 4 158.636 170.900 0.714 0.237 o
2 0 5 497.970 543.111 2.499 0.024 o
2 0 6 85.453 82.684 0.577 0.868 o
2 0 7 5.538 5.321 0.142 157.858 o
2 0 8 97.582 95.747 0.374 0.670 o
2 0 9 19.216 19.903 0.211 15.826 o
2 0 10 34.236 39.112 0.284 4.782 o
2 0 11 70.814 70.652 0.460 1.241 o
2 0 12 20.675 19.709 0.278 13.982 o
2 0 13 15.072 16.117 0.217 24.234 o
2 0 14 14.168 14.227 0.200 28.624 o
2 0 15 136.957 139.103 0.680 0.331 o
2 0 16 2.628 1.968 0.137 412.113 o
2 0 17 45.060 44.931 0.458 2.974 o
2 0 18 11.201 10.366 0.251 41.824 o
2 0 19 72.381 74.799 0.847 1.109 o
2 0 20 0.427 0.184 0.171 418.088 o
2 0 21 30.893 30.698 0.534 5.787 o
2 0 22 15.398 15.020 0.510 17.301 o
2 1 0 3029.150 3169.880 6.187 0.001 o
2 1 1 57.373 60.120 0.450 1.813 o
2 1 2 519.106 583.213 2.358 0.022 o
2 1 3 173.104 184.109 0.703 0.201 o
2 1 4 953.817 1034.930 3.718 0.007 o
2 1 5 18.015 17.175 0.157 19.398 o
2 1 6 185.510 204.314 1.212 0.169 o
2 1 7 140.607 141.917 0.550 0.317 o
2 1 8 9.109 7.485 0.135 76.692 o
2 1 9 53.181 53.369 0.548 2.123 o
2 1 10 46.896 48.247 0.341 2.758 o
2 1 11 92.144 91.537 0.628 0.733 o
2 1 12 87.618 86.174 0.804 0.801 o
2 1 13 92.208 92.537 0.609 0.728 o
2 1 14 40.855 42.053 0.473 3.493 o
2 1 15 21.656 21.843 0.333 12.003 o
2 1 16 18.325 18.171 0.260 17.222 o
2 1 17 54.755 54.800 0.552 2.011 o
2 1 18 65.480 65.475 0.613 1.417 o
2 1 19 26.499 26.189 0.495 7.714 o
2 1 20 4.848 4.736 0.369 68.131 o
2 1 21 11.453 11.925 0.452 26.460 o
2 1 22 18.933 19.289 0.529 12.527 o
2 2 0 2.746 2.845 0.047 716.092 o
2 2 1 267.153 294.696 1.577 0.082 o
2 2 2 949.603 1053.410 1.334 0.007 o
2 2 3 90.990 105.957 0.970 0.655 o
2 2 4 77.307 86.498 0.534 0.961 o
2 2 5 6.224 5.923 0.139 133.950 o
2 2 6 237.496 259.401 0.784 0.105 o
2 2 7 113.047 113.491 0.840 0.482 o
2 2 8 125.890 126.758 0.746 0.392 o
2 2 9 107.074 106.618 0.515 0.549 o
2 2 10 2.024 2.418 0.099 654.164 o
2 2 11 50.759 51.141 0.319 2.403 o
2 2 12 49.687 48.561 0.331 2.551 o
2 2 13 56.287 56.439 0.392 1.951 o
2 2 14 23.194 22.547 0.255 11.307 o
2 2 15 23.024 23.835 0.372 10.340 o
2 2 16 52.326 52.789 0.513 2.197 o
2 2 17 0.215 0.168 0.121 844.261 o
2 2 18 5.822 5.771 0.233 103.252 o
2 2 19 0.874 0.680 0.177 379.917 o
2 2 20 17.521 18.045 0.451 15.198 o
2 2 21 15.932 16.569 0.423 18.006 o
2 3 0 0.103 0.006 0.030 13849.200 o
2 3 1 158.911 175.072 0.954 0.231 o
2 3 2 227.466 237.197 2.388 0.113 o
2 3 3 219.289 231.377 1.597 0.124 o
2 3 4 59.233 59.698 0.364 1.765 o
2 3 5 261.031 264.350 0.999 0.092 o
2 3 6 545.213 551.304 2.141 0.021 o
2 3 7 7.704 6.924 0.122 100.700 o
2 3 8 69.399 70.605 0.352 1.286 o
2 3 9 49.767 46.382 0.365 2.608 o
2 3 10 203.894 207.541 0.793 0.150 o
2 3 11 31.340 30.280 0.471 5.910 o
2 3 12 77.580 80.240 0.631 0.998 o
2 3 13 14.576 15.438 0.357 22.163 o
2 3 14 6.083 6.020 0.177 120.262 o
2 3 15 7.785 8.033 0.235 70.343 o
2 3 16 22.926 23.151 0.483 9.780 o
2 3 17 13.750 14.235 0.294 26.674 o
2 3 18 3.930 3.871 0.286 110.980 o
2 3 19 3.478 3.319 0.239 154.101 o
2 3 20 7.179 7.012 0.312 62.996 o
2 3 21 0.301 0.407 0.209 281.001 o
2 4 0 16.217 13.508 0.136 26.011 o
2 4 1 220.829 221.725 1.542 0.127 o
2 4 2 6.472 5.797 0.101 143.493 o
2 4 3 69.563 69.571 0.349 1.295 o
2 4 4 166.573 168.435 0.899 0.224 o
2 4 5 122.194 121.502 0.880 0.416 o
2 4 6 22.377 22.710 0.279 11.630 o
2 4 7 149.669 148.983 0.816 0.280 o
2 4 8 126.824 128.605 1.540 0.364 o
2 4 9 6.079 5.134 0.240 101.108 o
2 4 10 31.608 31.493 0.400 5.883 o
2 4 11 14.516 14.288 0.345 23.542 o
2 4 12 30.486 30.416 0.332 6.445 o
2 4 13 0.299 0.250 0.097 1289.770 o
2 4 14 9.714 10.123 0.335 41.047 o
2 4 15 8.050 8.904 0.356 47.226 o
2 4 16 9.638 9.606 0.337 42.020 o
2 4 17 11.660 12.732 0.342 31.063 o
2 4 18 4.245 3.678 0.246 133.739 o
2 4 19 5.921 6.720 0.356 61.458 o
2 4 20 3.513 3.424 0.328 94.124 o
2 5 0 264.684 259.340 1.566 0.090 o
2 5 1 139.769 137.097 0.956 0.321 o
2 5 2 2.524 2.397 0.104 539.815 o
2 5 3 209.176 202.262 1.534 0.144 o
2 5 4 71.777 67.320 0.659 1.229 o
2 5 5 38.169 34.810 0.323 4.450 o
2 5 6 5.589 4.878 0.125 173.372 o
2 5 7 12.012 10.765 0.338 32.887 o
2 5 8 17.093 19.469 0.529 13.691 o
2 5 9 24.361 23.471 0.372 9.765 o
2 5 10 0.385 0.590 0.106 1059.930 o
2 5 11 8.185 8.465 0.228 66.629 o
2 5 12 79.973 86.150 0.708 0.908 o
2 5 13 0.020 0.183 0.128 751.008 o
2 5 14 4.146 4.025 0.234 140.893 o
2 5 15 2.414 2.235 0.223 203.490 o
2 5 16 36.346 37.609 0.488 4.306 o
2 5 17 9.057 10.286 0.379 38.863 o
2 5 18 5.101 4.514 0.235 121.107 o
2 5 19 13.527 14.788 0.483 20.181 o
2 6 0 6.002 6.485 0.153 127.012 o
2 6 1 91.929 86.046 1.210 0.717 o
2 6 2 138.233 140.129 1.037 0.320 o
2 6 3 2.962 2.600 0.122 405.096 o
2 6 4 1.441 1.063 0.094 1020.280 o
2 6 5 32.666 29.769 0.582 5.383 o
2 6 6 8.535 7.942 0.244 63.385 o
2 6 7 11.505 10.953 0.280 37.699 o
2 6 8 27.880 27.697 0.388 7.458 o
2 6 9 5.397 5.482 0.213 120.209 o
2 6 10 68.169 72.679 0.670 1.248 o
2 6 11 2.645 2.485 0.198 235.689 o
2 6 12 18.613 18.206 0.366 15.468 o
2 6 13 6.376 6.679 0.291 74.287 o
2 6 14 55.571 57.652 0.734 1.844 o
2 6 15 1.258 1.427 0.229 220.904 o
2 6 16 5.109 4.304 0.428 53.955 o
2 6 17 7.665 8.075 0.354 50.740 o
2 6 18 3.941 3.617 0.266 124.089 o
2 7 0 10.361 10.307 0.239 46.532 o
2 7 1 1.770 1.402 0.139 502.680 o
2 7 2 23.878 23.821 0.487 9.185 o
2 7 3 16.897 17.073 0.401 17.151 o
2 7 4 7.168 7.284 0.226 81.220 o
2 7 5 31.283 31.116 0.398 6.007 o
2 7 6 131.456 139.019 1.270 0.338 o
2 7 7 2.110 1.953 0.159 369.508 o
2 7 8 13.352 13.675 0.338 26.447 o
2 7 9 11.912 13.017 0.328 30.825 o
2 7 10 90.021 92.121 1.064 0.720 o
2 7 11 7.079 7.594 0.297 64.766 o
2 7 12 30.345 30.616 0.517 5.966 o
2 7 13 2.890 2.717 0.234 175.906 o
2 7 14 5.496 5.517 0.371 62.936 o
2 7 15 7.800 8.220 0.369 47.678 o
2 7 16 6.871 7.682 0.407 46.604 o
2 7 17 2.567 2.431 0.329 102.320 o
2 8 0 0.119 0.057 0.164 461.479 o
2 8 1 2.012 1.528 0.197 271.007 o
2 8 2 16.913 17.812 0.477 15.365 o
2 8 3 11.080 10.501 0.285 39.590 o
2 8 4 79.801 82.305 0.909 0.916 o
2 8 5 1.153 0.938 0.147 516.342 o
2 8 6 24.839 24.505 0.424 9.018 o
2 8 7 11.502 12.531 0.304 33.799 o
2 8 8 99.716 103.958 0.996 0.591 o
2 8 9 1.354 1.318 0.173 371.137 o
2 8 10 11.752 12.356 0.299 33.589 o
2 8 11 3.908 3.763 0.234 147.164 o
2 8 12 13.658 13.929 0.408 23.137 o
2 8 13 1.807 1.510 0.215 237.288 o
2 8 14 9.588 10.459 0.327 41.637 o
2 8 15 2.913 2.535 0.340 94.620 o
2 9 0 58.101 57.444 0.841 1.709 o
2 9 1 2.017 1.472 0.345 98.659 o
2 9 2 2.089 1.282 0.255 172.530 o
2 9 3 0.905 1.203 0.255 184.790 o
2 9 4 48.339 49.470 0.677 2.433 o
2 9 5 18.057 17.661 0.442 15.049 o
2 9 6 5.445 5.240 0.274 94.089 o
2 9 7 6.340 6.066 0.283 79.046 o
2 9 8 4.160 3.646 0.316 94.567 o
2 9 9 28.422 29.160 0.605 6.287 o
2 9 10 2.632 2.392 0.260 154.048 o
2 9 11 7.341 7.800 0.382 48.353 o
2 9 12 8.339 8.521 0.363 45.949 o
2 10 0 22.843 23.293 0.602 8.879 o
2 10 1 2.276 1.932 0.285 136.931 o
2 10 2 22.632 23.264 0.628 8.764 o
2 10 3 7.638 7.451 0.390 46.858 o
2 10 4 7.202 7.855 0.393 47.292 o
2 10 5 2.823 2.322 0.271 141.765 o
2 10 6 1.380 1.098 0.245 195.623 o
2 10 7 15.604 16.753 0.530 15.878 o
2 10 8 2.780 2.668 0.315 108.558 o
3 0 1 74.123 78.748 0.329 1.098 o
3 0 2 138.633 141.783 0.907 0.318 o
3 0 3 196.143 191.863 0.899 0.166 o
3 0 4 634.901 667.221 2.966 0.015 o
3 0 5 64.032 70.576 0.630 1.383 o
3 0 6 227.138 252.113 1.076 0.113 o
3 0 7 18.904 19.074 0.261 16.087 o
3 0 8 44.028 46.263 0.333 3.079 o
3 0 9 119.231 120.967 0.474 0.439 o
3 0 10 31.285 34.699 0.383 5.634 o
3 0 11 56.580 55.108 0.585 1.911 o
3 0 12 94.652 99.092 0.527 0.676 o
3 0 13 110.620 112.699 0.558 0.506 o
3 0 14 18.557 17.717 0.245 17.390 o
3 0 15 63.232 59.901 0.533 1.585 o
3 0 16 104.324 105.958 0.832 0.559 o
3 0 17 33.527 34.353 0.604 4.773 o
3 0 18 14.425 14.409 0.491 19.129 o
3 0 19 1.300 0.780 0.190 319.596 o
3 0 20 26.633 26.724 0.515 7.492 o
3 0 21 0.850 0.489 0.221 246.856 o
3 1 0 28.424 30.576 0.151 7.372 o
3 1 1 254.327 272.965 1.028 0.093 o
3 1 2 189.370 204.979 1.185 0.165 o
3 1 3 77.485 79.532 0.643 1.004 o
3 1 4 80.713 84.567 0.391 0.933 o
3 1 5 21.531 23.241 0.282 11.994 o
3 1 6 111.880 119.284 0.400 0.482 o
3 1 7 4.634 3.682 0.077 293.013 o
3 1 8 219.189 226.418 1.036 0.128 o
3 1 9 24.552 22.883 0.182 10.707 o
3 1 10 66.101 68.321 0.444 1.389 o
3 1 11 12.895 12.644 0.196 34.517 o
3 1 12 24.889 25.834 0.249 9.514 o
3 1 13 29.277 28.158 0.246 7.325 o
3 1 14 82.531 84.920 0.541 0.895 o
3 1 15 25.703 25.659 0.457 8.275 o
3 1 16 5.889 5.644 0.265 91.052 o
3 1 17 15.752 16.281 0.385 19.244 o
3 1 18 17.494 17.835 0.438 15.531 o
3 1 19 16.708 17.197 0.443 16.465 o
3 1 20 3.924 3.644 0.359 78.471 o
3 1 21 12.399 13.482 0.417 25.193 o
3 2 0 96.518 119.187 0.488 0.579 o
3 2 1 113.363 121.717 0.869 0.457 o
3 2 2 330.110 343.097 2.574 0.055 o
3 2 3 379.016 406.340 3.577 0.040 o
3 2 4 51.182 56.859 0.843 1.995 o
3 2 5 229.488 224.272 0.835 0.122 o
3 2 6 75.007 78.849 0.544 1.063 o
3 2 7 94.734 96.551 0.406 0.692 o
3 2 8 95.702 101.906 0.480 0.656 o
3 2 9 245.681 239.337 1.971 0.104 o
3 2 10 192.177 195.369 1.549 0.165 o
3 2 11 11.799 11.571 0.168 41.791 o
3 2 12 62.614 64.172 0.707 1.496 o
3 2 13 32.192 30.819 0.471 5.663 o
3 2 14 32.174 34.517 0.435 5.364 o
3 2 15 12.024 11.340 0.264 36.264 o
3 2 16 1.678 1.776 0.147 453.716 o
3 2 17 7.294 7.397 0.253 73.416 o
3 2 18 1.785 1.668 0.192 288.916 o
3 2 19 19.963 21.529 0.534 11.211 o
3 2 20 3.257 2.908 0.336 93.627 o
3 2 21 21.240 22.172 0.625 9.540 o
3 3 0 162.358 180.041 0.965 0.220 o
3 3 1 211.076 211.345 1.242 0.140 o
3 3 2 12.499 13.681 0.129 36.324 o
3 3 3 157.749 152.561 1.043 0.255 o
3 3 4 9.510 11.368 0.152 55.450 o
3 3 5 172.298 179.511 1.163 0.203 o
3 3 6 2.583 3.053 0.145 347.796 o
3 3 7 226.517 219.809 1.300 0.124 o
3 3 8 33.822 35.447 0.465 4.913 o
3 3 9 21.613 23.299 0.438 10.755 o
3 3 10 9.344 8.989 0.273 51.391 o
3 3 11 64.428 62.097 0.867 1.430 o
3 3 12 25.007 25.632 0.351 9.078 o
3 3 13 8.632 8.964 0.240 59.908 o
3 3 14 6.383 6.762 0.211 97.445 o
3 3 15 6.204 6.291 0.229 96.370 o
3 3 16 0.693 0.831 0.177 379.711 o
3 3 17 5.241 5.205 0.259 102.789 o
3 3 18 0.260 0.202 0.155 509.778 o
3 3 19 6.199 6.222 0.314 71.149 o
3 3 20 3.237 2.891 0.259 143.445 o
3 4 0 6.697 6.516 0.154 112.999 o
3 4 1 201.964 196.100 0.935 0.157 o
3 4 2 27.956 24.664 0.255 8.407 o
3 4 3 380.843 378.159 1.794 0.043 o
3 4 4 87.705 87.653 0.422 0.816 o
3 4 5 86.982 82.086 0.483 0.857 o
3 4 6 4.622 3.869 0.187 171.426 o
3 4 7 45.841 43.147 0.457 2.984 o
3 4 8 69.361 67.735 0.505 1.304 o
3 4 9 19.427 20.401 0.292 14.630 o
3 4 10 10.730 10.918 0.321 37.476 o
3 4 11 21.699 22.280 0.425 11.096 o
3 4 12 28.020 27.475 0.354 7.563 o
3 4 13 7.685 7.502 0.255 69.404 o
3 4 14 16.615 16.689 0.369 18.303 o
3 4 15 43.818 42.144 0.707 2.982 o
3 4 16 13.355 12.942 0.399 24.732 o
3 4 17 0.095 0.116 0.181 375.727 o
3 4 18 13.874 13.265 0.360 25.059 o
3 4 19 14.914 14.055 0.436 20.356 o
3 4 20 5.251 4.452 0.345 73.952 o
3 5 0 20.268 19.569 0.494 12.054 o
3 5 1 158.784 167.617 1.111 0.237 o
3 5 2 23.248 22.343 0.339 10.839 o
3 5 3 8.609 7.582 0.255 62.410 o
3 5 4 0.982 0.734 0.102 1028.260 o
3 5 5 49.693 50.806 0.640 2.336 o
3 5 6 29.906 30.557 0.389 6.444 o
3 5 7 45.362 45.462 0.517 2.887 o
3 5 8 11.024 12.185 0.291 36.569 o
3 5 9 7.127 7.908 0.287 65.549 o
3 5 10 29.899 30.977 0.393 6.379 o
3 5 11 20.781 20.186 0.297 13.535 o
3 5 12 18.407 18.692 0.364 15.470 o
3 5 13 13.092 13.507 0.300 28.680 o
3 5 14 26.802 26.609 0.506 7.500 o
3 5 15 3.226 2.380 0.200 217.509 o
3 5 16 31.288 30.088 0.542 5.743 o
3 5 17 11.286 11.418 0.406 29.811 o
3 5 18 9.926 10.194 0.339 39.839 o
3 5 19 2.745 2.303 0.331 100.944 o
3 6 0 5.575 5.177 0.270 94.611 o
3 6 1 64.039 62.340 0.580 1.511 o
3 6 2 13.943 14.511 0.273 26.663 o
3 6 3 137.283 145.671 1.093 0.314 o
3 6 4 36.997 35.704 0.366 4.514 o
3 6 5 5.090 5.369 0.183 144.231 o
3 6 6 14.105 14.399 0.263 26.749 o
3 6 7 39.760 40.421 0.487 3.690 o
3 6 8 14.726 14.478 0.279 24.944 o
3 6 9 16.714 16.248 0.316 19.494 o
3 6 10 0.400 0.484 0.128 735.337 o
3 6 11 2.746 2.658 0.219 198.169 o
3 6 12 13.590 13.537 0.335 26.234 o
3 6 13 2.554 1.922 0.201 241.754 o
3 6 14 23.199 25.053 0.480 9.256 o
3 6 15 16.692 16.867 0.546 14.643 o
3 6 16 16.374 17.155 0.584 14.045 o
3 6 17 7.051 7.351 0.405 46.910 o
3 6 18 30.916 31.673 0.831 4.786 o
3 7 0 4.312 4.934 0.238 128.071 o
3 7 1 81.012 80.361 0.752 0.931 o
3 7 2 19.623 18.417 0.577 11.749 o
3 7 3 10.660 9.057 0.265 45.779 o
3 7 4 17.654 19.882 0.339 15.975 o
3 7 5 68.039 71.744 0.613 1.272 o
3 7 6 24.252 23.665 0.347 9.909 o
3 7 7 7.985 8.467 0.243 65.678 o
3 7 8 22.708 22.834 0.478 9.999 o
3 7 9 4.233 4.507 0.228 139.612 o
3 7 10 3.229 3.029 0.183 233.354 o
3 7 11 3.409 2.837 0.229 170.551 o
3 7 12 8.651 8.653 0.324 49.318 o
3 7 13 10.996 11.614 0.381 31.753 o
3 7 14 22.768 23.188 0.499 9.723 o
3 7 15 8.880 8.752 0.446 35.194 o
3 7 16 9.930 10.448 0.515 26.659 o
3 8 0 46.772 46.089 0.607 2.695 o
3 8 1 2.327 2.692 0.208 224.675 o
3 8 2 6.724 6.253 0.346 60.656 o
3 8 3 22.489 22.418 0.406 10.771 o
3 8 4 24.771 23.956 0.493 8.757 o
3 8 5 9.717 8.974 0.303 46.383 o
3 8 6 22.055 21.776 0.421 11.074 o
3 8 7 15.078 15.886 0.387 20.324 o
3 8 8 12.880 12.477 0.476 22.778 o
3 8 9 27.281 27.492 0.506 7.217 o
3 8 10 36.794 36.507 0.704 3.964 o
3 8 11 3.107 2.922 0.279 129.115 o
3 8 12 30.485 33.187 0.551 5.562 o
3 8 13 16.607 16.971 0.438 16.777 o
3 8 14 7.424 6.637 0.880 14.129 o
3 9 0 7.810 8.439 0.398 43.590 o
3 9 1 13.739 13.846 0.550 18.398 o
3 9 2 37.943 40.253 0.900 3.315 o
3 9 3 0.504 1.064 0.227 235.630 o
3 9 4 5.348 5.615 0.340 71.447 o
3 9 5 11.416 10.770 0.459 27.158 o
3 9 6 15.117 15.700 0.443 18.929 o
3 9 7 7.033 7.057 0.344 57.553 o
3 9 8 41.055 41.075 0.784 3.171 o
3 9 9 1.800 1.621 0.227 215.919 o
3 9 10 22.993 23.786 0.581 8.884 o
3 9 11 6.789 6.722 0.383 52.337 o
3 10 0 5.355 5.501 0.395 58.024 o
3 10 1 0.065 -0.051 0.240 214.243 o
3 10 2 6.951 7.055 0.424 44.995 o
3 10 3 1.589 0.983 0.217 243.667 o
3 10 4 6.606 7.284 0.435 44.060 o
3 10 5 2.136 2.215 0.360 89.333 o
3 10 6 23.973 27.404 0.685 7.281 o
3 10 7 1.307 1.628 0.379 83.759 o
4 0 0 187.981 184.441 0.884 0.180 o
4 0 1 32.318 32.620 0.176 5.949 o
4 0 2 78.666 81.711 0.383 0.988 o
4 0 3 8.919 6.822 0.100 87.238 o
4 0 4 204.338 207.427 0.473 0.150 o
4 0 5 0.923 0.727 0.057 2638.280 o
4 0 6 56.299 56.784 0.272 1.967 o
4 0 7 22.071 23.557 0.236 11.799 o
4 0 8 52.553 55.903 0.356 2.155 o
4 0 9 6.924 6.217 0.176 104.785 o
4 0 10 73.772 71.416 0.562 1.156 o
4 0 11 71.726 70.643 0.545 1.210 o
4 0 12 31.417 29.515 0.328 6.329 o
4 0 13 8.588 7.641 0.221 67.843 o
4 0 14 96.026 96.160 0.754 0.667 o
4 0 15 31.662 29.896 0.385 6.094 o
4 0 16 62.326 61.040 0.767 1.536 o
4 0 17 2.569 2.232 0.272 143.859 o
4 0 18 5.497 5.945 0.325 73.799 o
4 0 19 2.754 2.353 0.233 182.690 o
4 0 20 1.027 0.604 0.260 178.832 o
4 0 21 0.035 -0.295 0.408 74.318 o
4 1 0 288.618 292.900 1.354 0.075 o
4 1 1 235.909 223.320 0.865 0.117 o
4 1 2 25.459 24.000 0.255 9.659 o
4 1 3 19.928 19.508 0.144 15.783 o
4 1 4 93.816 96.572 0.394 0.701 o
4 1 5 71.833 71.993 0.335 1.215 o
4 1 6 112.385 116.086 0.481 0.487 o
4 1 7 71.237 68.092 0.485 1.257 o
4 1 8 43.423 42.174 0.481 3.224 o
4 1 9 1.701 2.413 0.239 192.123 o
4 1 10 15.025 15.758 0.282 23.160 o
4 1 11 48.106 46.621 0.416 2.694 o
4 1 12 112.952 112.567 0.581 0.492 o
4 1 13 19.747 18.323 0.304 15.155 o
4 1 14 31.775 30.978 0.423 5.851 o
4 1 15 1.672 1.456 0.154 429.392 o
4 1 16 13.026 12.949 0.335 27.991 o
4 1 17 17.104 17.050 0.537 14.430 o
4 1 18 32.036 32.067 0.768 4.773 o
4 1 19 20.420 19.945 0.785 8.729 o
4 1 20 4.327 4.171 0.297 99.992 o
4 2 0 46.739 46.631 0.223 2.876 o
4 2 1 92.954 92.549 0.554 0.723 o
4 2 2 105.652 112.412 0.326 0.543 o
4 2 3 124.438 119.682 0.523 0.417 o
4 2 4 9.606 9.101 0.145 63.601 o
4 2 5 52.249 49.791 0.282 2.363 o
4 2 6 97.600 94.743 0.489 0.671 o
4 2 7 87.363 81.028 1.078 0.807 o
4 2 8 94.503 86.614 2.129 0.589 o
4 2 9 38.155 34.325 0.367 4.441 o
4 2 10 117.020 112.951 0.901 0.460 o
4 2 11 36.511 35.809 0.430 4.498 o
4 2 12 7.643 7.838 0.283 63.198 o
4 2 13 0.799 0.710 0.143 570.061 o
4 2 14 9.210 9.137 0.206 59.812 o
4 2 15 7.068 7.190 0.230 81.704 o
4 2 16 16.842 17.513 0.364 17.671 o
4 2 17 22.694 23.477 0.451 10.054 o
4 2 18 15.333 16.149 0.407 19.315 o
4 2 19 5.019 5.052 0.379 64.010 o
4 2 20 12.064 11.558 0.400 28.400 o
4 3 0 11.498 10.323 0.146 47.278 o
4 3 1 107.546 97.275 0.598 0.576 o
4 3 2 23.076 23.386 0.239 11.203 o
4 3 3 70.936 65.321 0.394 1.309 o
4 3 4 19.691 19.544 0.176 15.800 o
4 3 5 236.940 221.467 2.015 0.114 o
4 3 6 68.920 63.264 1.500 1.124 o
4 3 7 49.537 46.404 0.480 2.570 o
4 3 8 43.373 41.894 0.357 3.333 o
4 3 9 56.176 52.690 0.516 2.006 o
4 3 10 15.205 13.475 0.338 23.287 o
4 3 11 24.694 24.459 0.480 8.761 o
4 3 12 20.758 19.852 0.410 12.578 o
4 3 13 65.967 66.853 1.192 1.240 o
4 3 14 9.221 9.911 0.254 51.785 o
4 3 15 25.188 25.634 0.481 8.341 o
4 3 16 9.115 9.925 0.318 45.362 o
4 3 17 15.684 16.585 0.385 19.134 o
4 3 18 14.834 14.690 0.399 21.125 o
4 3 19 9.322 8.376 0.412 37.727 o
4 3 20 10.558 11.628 0.566 22.380 o
4 4 0 66.475 59.079 0.494 1.503 o
4 4 1 106.601 95.900 0.766 0.581 o
4 4 2 34.819 35.280 1.704 2.339 o
4 4 3 85.795 74.718 0.634 0.914 o
4 4 4 33.939 28.357 0.422 5.664 o
4 4 5 67.435 62.731 0.394 1.437 o
4 4 6 43.951 43.645 0.381 3.178 o
4 4 7 35.013 30.960 0.315 5.360 o
4 4 8 3.779 4.579 0.148 229.214 o
4 4 9 1.945 1.657 0.139 474.460 o
4 4 10 23.246 23.232 0.347 10.541 o
4 4 11 14.969 15.231 0.384 20.989 o
4 4 12 49.613 52.771 0.605 2.304 o
4 4 13 16.807 16.726 0.357 18.295 o
4 4 14 4.462 3.121 0.267 120.293 o
4 4 15 21.894 23.642 0.529 9.779 o
4 4 16 39.051 39.462 0.766 3.455 o
4 4 17 30.960 30.936 0.688 5.283 o
4 4 18 0.699 0.856 0.217 256.609 o
4 4 19 5.472 5.158 0.315 79.564 o
4 5 0 0.003 0.163 0.082 1834.110 o
4 5 1 58.301 50.235 0.579 1.944 o
4 5 2 30.357 27.323 0.380 6.786 o
4 5 3 27.622 24.171 0.330 8.390 o
4 5 4 12.598 13.410 0.245 32.316 o
4 5 5 5.060 4.669 0.135 188.811 o
4 5 6 20.007 19.697 0.349 13.835 o
4 5 7 18.149 18.812 0.330 16.136 o
4 5 8 58.623 61.249 0.497 1.731 o
4 5 9 2.345 2.261 0.175 301.398 o
4 5 10 77.097 79.137 0.732 1.004 o
4 5 11 20.373 20.360 0.353 13.256 o
4 5 12 49.986 48.752 0.542 2.433 o
4 5 13 3.530 3.087 0.255 141.844 o
4 5 14 52.806 53.115 0.724 2.068 o
4 5 15 11.313 11.508 0.368 31.899 o
4 5 16 10.453 9.440 0.406 33.962 o
4 5 17 6.161 5.937 0.307 74.157 o
4 5 18 15.173 14.533 0.469 18.841 o
4 6 0 0.074 0.148 0.089 1556.100 o
4 6 1 67.597 66.405 0.560 1.357 o
4 6 2 11.965 12.258 0.381 28.829 o
4 6 3 38.107 38.943 0.478 3.989 o
4 6 4 1.846 1.401 0.150 437.435 o
4 6 5 26.422 26.668 0.389 8.137 o
4 6 6 43.341 42.604 0.468 3.222 o
4 6 7 4.193 4.923 0.210 149.891 o
4 6 8 12.622 13.159 0.302 30.119 o
4 6 9 25.563 25.949 0.358 8.744 o
4 6 10 30.993 30.706 0.505 5.847 o
4 6 11 2.351 1.781 0.202 248.515 o
4 6 12 15.873 15.781 0.482 17.135 o
4 6 13 2.548 1.940 0.270 147.688 o
4 6 14 23.471 24.320 0.793 7.154 o
4 6 15 3.632 4.117 0.461 51.457 o
4 6 16 13.053 13.789 0.666 15.682 o
4 6 17 40.453 40.998 2.812 1.111 o
4 7 0 0.192 0.188 0.137 660.648 o
4 7 1 40.648 42.160 0.906 3.001 o
4 7 2 7.518 7.229 0.306 61.488 o
4 7 3 18.021 17.904 0.332 16.708 o
4 7 4 30.145 29.523 0.405 6.473 o
4 7 5 31.706 31.839 0.422 5.771 o
4 7 6 28.381 27.533 0.475 7.008 o
4 7 7 2.976 2.686 0.187 242.677 o
4 7 8 4.737 4.654 0.266 108.374 o
4 7 9 10.554 9.866 0.378 35.279 o
4 7 10 7.681 7.777 0.307 58.788 o
4 7 11 7.219 7.889 0.335 56.206 o
4 7 12 14.881 15.943 0.429 19.419 o
4 7 13 21.927 22.010 0.480 10.571 o
4 7 14 3.102 2.303 0.284 128.282 o
4 7 15 21.575 23.313 0.654 8.934 o
4 8 0 3.006 2.838 0.231 176.329 o
4 8 1 6.839 6.678 0.320 64.410 o
4 8 2 9.224 8.691 0.348 44.113 o
4 8 3 24.235 25.166 0.409 9.223 o
4 8 4 17.014 17.358 0.333 18.124 o
4 8 5 4.648 4.430 0.278 104.910 o
4 8 6 4.038 3.637 0.229 150.215 o
4 8 7 18.571 18.851 0.383 14.982 o
4 8 8 38.559 39.605 0.913 3.268 o
4 8 9 9.018 10.060 0.498 29.481 o
4 8 10 16.226 16.649 0.501 15.991 o
4 8 11 28.360 31.487 0.729 5.580 o
4 8 12 9.579 10.127 0.437 32.850 o
4 8 13 10.909 10.624 0.971 10.555 o
4 9 0 33.952 34.078 0.634 4.661 o
4 9 1 0.077 0.062 0.220 254.518 o
4 9 2 1.096 0.952 0.184 343.576 o
4 9 3 7.832 8.669 0.367 47.066 o
4 9 4 20.624 20.567 0.488 11.604 o
4 9 5 7.010 6.875 0.383 51.316 o
4 9 6 14.694 14.866 0.404 21.045 o
4 9 7 7.812 8.536 0.473 35.276 o
4 9 8 13.990 13.965 0.465 20.721 o
4 9 9 9.914 9.845 0.512 27.299 o
4 9 10 19.800 19.402 1.138 6.037 o
4 10 0 1.466 0.977 0.234 213.239 o
4 10 1 3.269 2.319 0.200 216.950 o
4 10 2 8.519 8.510 0.379 43.352 o
4 10 3 6.393 5.139 0.337 67.470 o
4 10 4 6.437 6.805 0.516 35.345 o
5 0 1 222.855 209.323 0.537 0.133 o
5 0 2 123.038 117.024 0.667 0.427 o
5 0 3 41.346 40.199 0.196 3.738 o
5 0 4 346.402 335.915 0.975 0.054 o
5 0 5 162.767 156.127 0.589 0.245 o
5 0 6 0.678 0.895 0.070 2077.780 o
5 0 7 7.469 6.389 0.172 96.665 o
5 0 8 123.363 120.521 0.501 0.420 o
5 0 9 62.384 60.539 0.416 1.626 o
5 0 10 6.994 6.726 0.191 95.589 o
5 0 11 18.849 16.848 0.305 16.775 o
5 0 12 0.603 0.441 0.106 1054.440 o
5 0 13 57.779 58.983 0.518 1.802 o
5 0 14 1.526 1.824 0.177 339.278 o
5 0 15 10.224 9.803 0.388 35.421 o
5 0 16 8.423 8.339 0.334 49.739 o
5 0 17 44.125 43.042 0.597 3.024 o
5 0 18 1.241 0.956 0.219 243.651 o
5 0 19 10.025 9.299 0.335 41.358 o
5 0 20 0.332 0.209 0.300 136.634 o
5 1 0 259.501 252.101 1.170 0.095 o
5 1 1 101.718 99.406 0.497 0.615 o
5 1 2 397.735 404.704 1.992 0.039 o
5 1 3 164.669 156.370 0.536 0.241 o
5 1 4 90.656 88.535 0.392 0.777 o
5 1 5 7.430 6.482 0.117 110.026 o
5 1 6 191.600 191.241 1.952 0.164 o
5 1 7 65.210 63.838 0.595 1.451 o
5 1 8 51.096 52.437 0.735 2.163 o
5 1 9 71.746 70.837 0.853 1.159 o
5 1 10 6.849 6.191 0.175 106.421 o
5 1 11 28.693 29.017 0.431 6.863 o
5 1 12 19.555 19.316 0.370 14.118 o
5 1 13 31.927 31.518 0.392 5.826 o
5 1 14 23.122 23.508 0.433 9.968 o
5 1 15 20.786 19.995 0.435 12.250 o
5 1 16 46.211 47.372 0.638 2.666 o
5 1 17 7.479 6.945 0.331 58.016 o
5 1 18 3.586 3.334 0.302 107.454 o
5 1 19 9.475 8.700 0.379 39.942 o
5 2 0 119.587 126.422 0.458 0.424 o
5 2 1 31.666 27.195 0.232 6.765 o
5 2 2 151.794 142.615 0.839 0.282 o
5 2 3 21.965 25.229 0.257 11.224 o
5 2 4 122.842 125.619 0.619 0.409 o
5 2 5 52.634 47.770 0.500 2.324 o
5 2 6 10.040 10.437 0.286 43.662 o
5 2 7 12.080 11.575 0.431 26.750 o
5 2 8 46.664 47.762 0.383 2.775 o
5 2 9 19.568 18.231 0.306 15.338 o
5 2 10 106.657 107.797 0.714 0.542 o
5 2 11 40.147 42.146 0.514 3.523 o
5 2 12 10.975 11.650 0.261 39.562 o
5 2 13 0.702 0.660 0.139 611.418 o
5 2 14 66.518 66.243 0.776 1.344 o
5 2 15 7.337 6.949 0.310 62.580 o
5 2 16 0.833 0.803 0.220 248.684 o
5 2 17 2.657 2.930 0.263 147.564 o
5 2 18 27.574 27.468 0.601 6.725 o
5 2 19 4.885 4.135 0.485 44.568 o
5 3 0 53.285 45.504 0.287 2.430 o
5 3 1 30.008 32.821 0.307 6.310 o
5 3 2 29.148 26.915 0.209 7.655 o
5 3 3 56.878 51.131 0.476 2.023 o
5 3 4 56.231 51.828 0.502 2.029 o
5 3 5 52.214 52.658 0.526 2.201 o
5 3 6 34.149 33.608 0.340 5.231 o
5 3 7 93.110 90.502 0.690 0.725 o
5 3 8 145.669 147.746 1.230 0.286 o
5 3 9 0.903 0.882 0.137 611.805 o
5 3 10 90.621 94.590 0.814 0.722 o
5 3 11 6.685 6.379 0.398 50.902 o
5 3 12 86.855 88.867 0.926 0.783 o
5 3 13 4.884 4.604 0.317 85.166 o
5 3 14 40.234 41.145 0.580 3.495 o
5 3 15 24.291 25.217 0.489 8.720 o
5 3 16 7.129 7.000 0.432 43.486 o
5 3 17 1.381 1.384 0.253 183.105 o
5 3 18 3.282 3.404 0.333 93.219 o
5 3 19 6.044 5.639 0.767 18.819 o
5 4 0 20.893 23.509 0.227 12.688 o
5 4 1 16.413 16.854 0.288 20.042 o
5 4 2 2.903 2.945 0.106 444.897 o
5 4 3 123.763 127.907 0.602 0.401 o
5 4 4 27.374 24.840 0.389 8.123 o
5 4 5 61.641 60.670 0.491 1.634 o
5 4 6 11.354 10.937 0.210 42.781 o
5 4 7 26.917 25.799 0.341 8.302 o
5 4 8 34.697 33.525 0.422 5.004 o
5 4 9 31.941 32.373 0.470 5.553 o
5 4 10 16.806 17.242 0.341 18.284 o
5 4 11 4.765 4.831 0.247 117.007 o
5 4 12 12.343 12.303 0.379 28.129 o
5 4 13 3.679 3.877 0.410 63.120 o
5 4 14 4.778 4.726 0.538 36.992 o
5 4 15 1.213 1.063 0.291 141.275 o
5 4 16 11.298 11.460 0.522 23.634 o
5 4 17 3.819 3.570 0.388 69.580 o
5 4 18 0.773 0.667 0.264 175.322 o
5 5 0 2.414 2.880 0.143 371.019 o
5 5 1 139.769 142.611 1.935 0.292 o
5 5 2 23.893 21.663 0.367 10.491 o
5 5 3 11.480 10.403 0.196 44.240 o
5 5 4 48.518 47.979 0.673 2.470 o
5 5 5 43.262 44.312 0.527 3.104 o
5 5 6 17.163 17.018 0.332 18.163 o
5 5 7 21.000 21.455 0.365 12.305 o
5 5 8 32.971 32.066 0.447 5.426 o
5 5 9 7.103 7.934 0.230 77.838 o
5 5 10 11.741 11.737 0.375 30.223 o
5 5 11 10.812 11.126 0.388 32.285 o
5 5 12 0.095 0.178 0.242 211.363 o
5 5 13 9.453 9.273 0.429 34.730 o
5 5 14 21.215 22.087 0.524 10.518 o
5 5 15 1.127 1.294 0.358 94.337 o
5 5 16 8.337 8.737 0.597 24.933 o
5 5 17 0.996 0.689 0.293 141.470 o
5 6 0 11.041 10.959 0.349 34.533 o
5 6 1 43.883 45.253 0.621 2.933 o
5 6 2 15.172 15.528 0.342 21.591 o
5 6 3 71.642 69.774 0.671 1.203 o
5 6 4 9.534 9.940 0.252 50.289 o
5 6 5 3.331 3.150 0.200 202.943 o
5 6 6 27.121 28.756 0.808 5.766 o
5 6 7 5.581 6.247 0.249 96.757 o
5 6 8 0.206 0.189 0.159 487.472 o
5 6 9 20.453 21.709 0.408 12.178 o
5 6 10 0.619 0.511 0.158 484.628 o
5 6 11 11.130 12.443 0.414 28.614 o
5 6 12 11.649 12.904 0.432 26.275 o
5 6 13 4.866 4.210 0.465 47.804 o
5 6 14 12.302 13.523 0.584 18.851 o
5 6 15 0.640 0.588 0.280 156.336 o
5 7 0 3.386 3.004 0.204 198.616 o
5 7 1 14.300 14.516 0.349 23.586 o
5 7 2 10.337 10.367 0.308 40.747 o
5 7 3 5.274 4.713 0.293 90.864 o
5 7 4 18.584 19.922 0.540 12.393 o
5 7 5 18.516 18.072 0.462 14.199 o
5 7 6 12.043 12.870 0.417 26.323 o
5 7 7 27.351 28.928 0.465 7.148 o
5 7 8 33.068 33.587 0.456 5.238 o
5 7 9 2.742 2.945 0.288 125.907 o
5 7 10 21.544 22.604 0.636 9.240 o
5 7 11 5.299 5.131 0.526 37.386 o
5 7 12 17.582 18.363 0.600 12.610 o
5 7 13 2.019 2.183 0.313 116.469 o
5 8 0 0.463 0.290 0.152 527.348 o
5 8 1 10.263 10.811 0.446 30.051 o
5 8 2 8.030 7.926 0.288 59.656 o
5 8 3 8.794 9.008 0.306 50.048 o
5 8 4 6.931 7.326 0.341 57.879 o
5 8 5 20.564 22.195 0.468 11.378 o
5 8 6 23.451 23.384 0.474 9.557 o
5 8 7 3.925 3.566 0.339 86.156 o
5 8 8 19.351 19.510 0.455 13.150 o
5 8 9 7.105 7.872 0.407 45.548 o
5 8 10 22.141 23.055 0.635 8.925 o
5 8 11 0.477 0.437 0.314 124.627 o
5 9 0 30.612 32.838 0.592 5.458 o
5 9 1 9.788 9.722 0.347 40.374 o
5 9 2 17.231 17.815 0.431 15.897 o
5 9 3 21.337 22.231 0.516 10.492 o
5 9 4 6.154 6.509 0.337 64.963 o
5 9 5 0.856 1.018 0.258 181.712 o
5 9 6 7.268 7.734 0.382 48.829 o
5 9 7 16.714 18.218 0.585 13.450 o
6 0 0 0.162 0.419 0.106 1087.710 o
6 0 1 76.422 74.033 0.360 1.097 o
6 0 2 14.259 12.678 0.174 31.102 o
6 0 3 1.044 0.729 0.050 2900.000 o
6 0 4 13.291 13.902 0.146 32.867 o
6 0 5 65.507 64.557 0.759 1.396 o
6 0 6 10.916 10.017 0.234 45.086 o
6 0 7 109.684 108.763 0.496 0.525 o
6 0 8 23.511 23.452 0.316 10.524 o
6 0 9 10.047 10.261 0.176 53.660 o
6 0 10 10.939 10.618 0.228 44.076 o
6 0 11 80.193 79.654 0.707 0.953 o
6 0 12 4.997 5.160 0.185 147.301 o
6 0 13 2.114 1.837 0.141 445.511 o
6 0 14 5.734 5.373 0.248 100.406 o
6 0 15 0.000 -0.469 0.245 206.342 o
6 0 16 25.173 26.177 0.516 8.062 o
6 0 17 15.062 15.641 0.447 18.934 o
6 0 18 4.469 4.217 0.323 87.146 o
6 1 0 0.609 0.553 0.040 5377.320 o
6 1 1 0.520 0.505 0.050 4030.470 o
6 1 2 6.994 5.929 0.098 129.411 o
6 1 3 11.208 10.392 0.196 45.536 o
6 1 4 15.724 13.709 0.206 25.563 o
6 1 5 9.001 8.744 0.223 60.419 o
6 1 6 18.521 17.150 0.277 17.358 o
6 1 7 5.449 5.526 0.149 153.547 o
6 1 8 7.775 7.510 0.180 83.871 o
6 1 9 8.622 8.121 0.185 71.267 o
6 1 10 1.666 1.305 0.121 642.096 o
6 1 11 7.125 7.452 0.233 79.039 o
6 1 12 19.578 19.059 0.373 14.163 o
6 1 13 4.363 4.565 0.235 132.374 o
6 1 14 18.452 18.723 0.373 15.281 o
6 1 15 6.610 6.132 0.298 72.834 o
6 1 16 2.598 2.123 0.228 194.966 o
6 1 17 11.837 11.598 0.351 31.501 o
6 1 18 6.323 7.115 0.352 59.246 o
6 2 0 66.646 60.875 0.278 1.501 o
6 2 1 75.580 69.444 0.403 1.156 o
6 2 2 2.680 2.110 0.095 587.987 o
6 2 3 1.334 1.699 0.096 919.738 o
6 2 4 17.667 16.529 0.272 18.835 o
6 2 5 76.423 70.820 0.985 1.048 o
6 2 6 0.385 0.302 0.128 738.038 o
6 2 7 54.414 57.357 0.475 1.993 o
6 2 8 0.093 0.099 0.099 1247.680 o
6 2 9 2.494 2.426 0.180 278.947 o
6 2 10 7.874 7.964 0.236 69.732 o
6 2 11 69.008 71.989 0.643 1.241 o
6 2 12 6.204 6.404 0.243 91.002 o
6 2 13 35.980 36.261 0.590 4.288 o
6 2 14 6.070 5.812 0.357 62.768 o
6 2 15 35.410 34.985 0.618 4.408 o
6 2 16 8.526 8.676 0.422 38.506 o
6 2 17 21.997 22.286 0.441 10.797 o
6 2 18 28.814 29.296 0.562 6.335 o
6 3 0 0.058 0.266 0.083 1770.250 o
6 3 1 2.582 2.001 0.100 586.536 o
6 3 2 35.577 33.274 0.447 4.829 o
6 3 3 3.889 3.826 0.139 254.351 o
6 3 4 7.200 7.445 0.205 84.966 o
6 3 5 16.489 17.099 0.387 17.848 o
6 3 6 14.047 14.107 0.236 28.028 o
6 3 7 27.663 29.438 0.335 7.415 o
6 3 8 13.385 13.449 0.280 28.854 o
6 3 9 22.760 25.242 0.370 10.131 o
6 3 10 16.405 17.139 0.592 13.884 o
6 3 11 44.541 45.712 0.556 2.914 o
6 3 12 1.726 1.382 0.200 274.929 o
6 3 13 38.210 37.875 0.624 3.843 o
6 3 14 15.527 16.027 0.461 17.852 o
6 3 15 3.894 3.227 0.267 126.550 o
6 3 16 25.246 25.553 0.569 7.845 o
6 3 17 14.382 15.823 0.567 16.440 o
6 4 0 0.249 0.025 0.075 2178.160 o
6 4 1 64.480 61.912 0.672 1.483 o
6 4 2 12.539 13.371 0.305 29.923 o
6 4 3 20.864 21.631 0.436 11.677 o
6 4 4 7.061 6.943 0.251 77.628 o
6 4 5 98.145 99.932 0.914 0.624 o
6 4 6 30.336 30.336 0.448 6.203 o
6 4 7 28.033 28.767 0.460 6.987 o
6 4 8 34.170 33.849 0.445 5.030 o
6 4 9 94.804 98.800 0.832 0.661 o
6 4 10 16.281 16.731 0.402 17.987 o
6 4 11 21.586 21.976 0.409 11.385 o
6 4 12 39.320 39.931 0.642 3.578 o
6 4 13 27.271 28.747 0.633 6.499 o
6 4 14 7.666 7.558 0.374 48.852 o
6 4 15 31.334 32.141 0.628 5.284 o
6 4 16 11.037 11.733 0.406 29.968 o
6 5 0 36.071 35.225 0.383 4.680 o
6 5 1 32.260 32.272 0.818 4.583 o
6 5 2 10.709 11.801 0.401 30.912 o
6 5 3 38.370 38.801 0.572 3.843 o
6 5 4 36.696 38.541 0.597 4.029 o
6 5 5 56.524 59.250 0.726 1.778 o
6 5 6 8.249 8.724 0.266 59.355 o
6 5 7 71.350 73.973 1.258 1.053 o
6 5 8 15.606 16.450 0.439 18.068 o
6 5 9 15.229 16.336 0.387 19.830 o
6 5 10 41.261 40.478 0.610 3.390 o
6 5 11 48.033 46.533 0.934 2.344 o
6 5 12 0.036 0.038 0.260 182.382 o
6 5 13 37.728 40.835 0.951 3.226 o
6 5 14 31.964 32.633 0.651 5.062 o
6 5 15 6.325 6.891 0.359 58.364 o
6 6 0 35.674 38.662 0.505 4.301 o
6 6 1 61.931 61.897 0.917 1.488 o
6 6 2 42.198 42.382 0.718 3.095 o
6 6 3 37.335 39.332 0.611 3.880 o
6 6 4 14.234 15.717 0.544 17.202 o
6 6 5 47.820 46.782 1.089 2.217 o
6 6 6 44.273 46.793 0.910 2.579 o
6 6 7 2.976 2.597 0.245 162.648 o
6 6 8 9.808 9.702 0.357 39.461 o
6 6 9 44.068 45.273 0.670 2.875 o
6 6 10 10.636 12.490 0.470 26.427 o
6 6 11 17.446 18.918 0.499 14.115 o
6 6 12 22.618 23.751 0.752 7.744 o
6 6 13 17.665 18.507 0.569 13.005 o
6 6 14 6.822 7.190 0.751 18.776 o
6 7 0 6.503 7.080 0.311 67.245 o
6 7 1 37.849 40.488 0.584 3.789 o
6 7 2 42.761 44.100 0.634 3.061 o
6 7 3 33.397 34.302 0.522 4.976 o
6 7 4 30.892 32.059 0.544 5.613 o
6 7 5 4.546 4.047 0.287 103.218 o
6 7 6 9.267 10.200 0.352 40.856 o
6 7 7 16.669 17.209 0.495 15.500 o
6 7 8 18.572 20.151 0.518 12.626 o
6 7 9 4.631 4.237 0.316 88.789 o
6 7 10 5.378 5.604 0.501 40.030 o
6 7 11 12.109 12.985 0.509 22.110 o
6 8 0 41.066 42.929 0.790 3.084 o
6 8 1 0.576 0.553 0.181 370.841 o
6 8 2 4.225 3.840 0.289 106.224 o
6 8 3 6.394 5.733 0.298 75.768 o
6 8 4 16.759 17.535 0.445 16.219 o
6 8 5 9.757 10.128 0.428 33.093 o
6 8 6 7.830 8.408 0.330 52.776 o
6 8 7 14.389 14.566 0.429 20.940 o
6 8 8 4.507 4.198 0.324 86.549 o
6 9 0 0.029 -0.199 0.191 338.555 o
6 9 1 1.079 1.059 0.252 188.666 o
6 9 2 7.229 7.587 0.404 46.110 o
6 9 3 13.652 14.927 0.681 14.536 o
6 9 4 3.331 3.316 0.419 62.829 o
7 0 1 49.034 49.998 0.344 2.542 o
7 0 2 422.239 427.297 1.347 0.035 o
7 0 3 0.000 0.117 0.073 2298.020 o
7 0 4 12.291 10.901 0.285 34.938 o
7 0 5 19.741 20.148 0.234 14.995 o
7 0 6 31.153 32.313 0.364 5.973 o
7 0 7 35.511 35.966 0.391 4.700 o
7 0 8 2.548 2.256 0.160 330.790 o
7 0 9 2.967 2.740 0.187 241.519 o
7 0 10 5.425 5.465 0.311 79.985 o
7 0 11 22.213 21.642 0.477 10.543 o
7 0 12 5.094 4.670 0.311 85.522 o
7 0 13 9.047 9.569 0.351 42.749 o
7 0 14 0.251 0.321 0.194 326.486 o
7 0 15 0.300 0.204 0.219 256.275 o
7 0 16 49.356 50.763 0.793 2.262 o
7 0 17 0.619 0.734 0.398 77.650 o
7 1 0 197.720 199.936 1.059 0.159 o
7 1 1 21.383 21.038 0.537 10.575 o
7 1 2 48.865 46.621 0.643 2.511 o
7 1 3 62.347 63.391 0.457 1.572 o
7 1 4 108.451 108.263 0.888 0.522 o
7 1 5 23.372 24.621 0.372 9.966 o
7 1 6 49.736 48.421 0.395 2.528 o
7 1 7 7.114 7.425 0.253 74.597 o
7 1 8 39.285 39.645 0.403 3.879 o
7 1 9 50.571 50.189 0.420 2.409 o
7 1 10 12.918 12.608 0.279 31.102 o
7 1 11 14.063 13.047 0.366 24.675 o
7 1 12 1.965 1.503 0.182 313.589 o
7 1 13 27.436 28.203 0.432 7.358 o
7 1 14 16.279 17.276 0.438 16.946 o
7 1 15 20.458 20.362 0.409 12.617 o
7 1 16 11.834 12.617 0.385 28.533 o
7 1 17 10.900 11.069 0.982 10.317 o
7 2 0 4.278 3.903 0.280 110.171 o
7 2 1 35.112 35.071 0.451 4.749 o
7 2 2 8.755 8.791 0.341 46.483 o
7 2 3 12.051 11.530 0.194 39.574 o
7 2 4 99.537 103.036 0.833 0.605 o
7 2 5 50.573 50.446 0.407 2.405 o
7 2 6 20.855 21.488 0.438 11.708 o
7 2 7 65.943 66.204 0.478 1.418 o
7 2 8 52.145 53.471 0.434 2.218 o
7 2 9 2.187 2.148 0.132 463.387 o
7 2 10 4.938 5.142 0.170 159.164 o
7 2 11 66.092 67.229 0.581 1.382 o
7 2 12 0.687 0.382 0.176 388.477 o
7 2 13 28.986 29.343 0.533 6.391 o
7 2 14 19.838 21.028 0.584 10.862 o
7 2 15 20.267 19.791 0.469 12.272 o
7 2 16 1.589 1.498 0.230 213.948 o
7 3 0 2.816 3.423 0.154 297.118 o
7 3 1 0.514 0.450 0.089 1470.690 o
7 3 2 108.226 111.899 0.888 0.512 o
7 3 3 24.332 24.410 0.496 8.821 o
7 3 4 7.226 8.044 0.317 58.917 o
7 3 5 24.979 24.391 0.268 9.750 o
7 3 6 8.668 8.109 0.181 71.505 o
7 3 7 23.546 23.668 0.319 10.427 o
7 3 8 9.659 9.772 0.294 45.834 o
7 3 9 70.755 71.610 0.609 1.212 o
7 3 10 29.691 30.555 0.476 6.254 o
7 3 11 4.702 4.537 0.215 140.182 o
7 3 12 1.595 1.396 0.187 313.823 o
7 3 13 22.035 24.122 0.593 9.100 o
7 3 14 27.550 27.997 0.448 7.294 o
7 3 15 21.388 20.924 0.453 11.412 o
7 3 16 1.068 0.558 0.381 84.244 o
7 4 0 97.605 105.178 1.369 0.578 o
7 4 1 7.628 7.561 0.239 72.844 o
7 4 2 8.766 8.290 0.311 51.298 o
7 4 3 7.108 7.064 0.224 83.412 o
7 4 4 41.037 42.826 0.493 3.416 o
7 4 5 12.452 12.429 0.256 33.667 o
7 4 6 12.677 12.409 0.289 31.539 o
7 4 7 17.215 17.248 0.331 17.975 o
7 4 8 33.206 32.565 0.450 5.322 o
7 4 9 3.998 4.411 0.242 134.246 o
7 4 10 25.483 26.277 0.432 8.364 o
7 4 11 27.168 28.432 0.424 7.437 o
7 4 12 22.834 24.785 0.461 9.610 o
7 4 13 7.371 8.098 0.350 52.525 o
7 4 14 14.740 15.470 0.447 19.391 o
7 4 15 0.842 0.628 0.286 148.538 o
7 5 0 0.970 1.014 0.206 278.589 o
7 5 1 19.630 19.620 0.445 13.037 o
7 5 2 10.480 11.105 0.371 34.305 o
7 5 3 4.125 4.609 0.391 65.555 o
7 5 4 66.670 66.067 1.142 1.248 o
7 5 5 5.910 5.930 0.256 92.460 o
7 5 6 10.130 10.351 0.308 41.516 o
7 5 7 5.602 5.721 0.226 109.118 o
7 5 8 59.028 61.973 0.628 1.668 o
7 5 9 6.642 7.226 0.314 65.145 o
7 5 10 1.070 1.294 0.217 248.377 o
7 5 11 2.781 2.609 0.301 117.748 o
7 5 12 7.889 7.818 0.329 54.109 o
7 5 13 6.400 6.496 0.329 65.379 o
7 6 0 9.202 9.259 0.322 45.866 o
7 6 1 1.949 1.827 0.244 185.556 o
7 6 2 28.750 29.015 0.572 6.350 o
7 6 3 7.122 7.304 0.437 42.374 o
7 6 4 4.517 4.882 0.292 97.005 o
7 6 5 11.840 11.203 0.398 29.337 o
7 6 6 56.753 59.627 0.842 1.718 o
7 6 7 0.322 0.222 0.177 392.856 o
7 6 8 9.768 9.892 0.425 33.560 o
7 6 9 3.179 3.056 0.241 159.727 o
7 6 10 28.144 30.540 0.506 6.551 o
7 6 11 4.088 4.085 0.324 90.086 o
7 6 12 7.505 7.458 0.520 32.514 o
7 7 0 14.893 15.172 0.461 19.017 o
7 7 1 0.257 0.144 0.211 276.457 o
7 7 2 35.279 34.434 0.667 4.367 o
7 7 3 4.798 5.364 0.472 45.600 o
7 7 4 2.612 2.744 0.325 103.818 o
7 7 5 3.008 3.164 0.275 131.608 o
7 7 6 1.366 1.575 0.241 198.947 o
7 7 7 10.267 11.015 0.351 36.522 o
7 7 8 15.190 15.865 0.398 19.901 o
7 7 9 11.080 11.554 0.418 29.374 o
7 8 0 29.629 30.797 0.795 5.179 o
7 8 1 2.193 1.820 0.250 173.915 o
7 8 2 0.748 0.844 0.226 236.603 o
7 8 3 5.282 4.620 0.313 83.716 o
7 8 4 26.231 26.297 0.513 7.700 o
8 0 0 18.949 17.818 0.440 14.288 o
8 0 1 1.628 2.067 0.228 213.409 o
8 0 2 7.456 7.064 0.333 57.328 o
8 0 3 12.214 12.204 0.398 27.547 o
8 0 4 1.394 1.280 0.123 659.413 o
8 0 5 0.007 0.031 0.093 1425.500 o
8 0 6 7.277 7.771 0.216 80.082 o
8 0 7 41.968 43.257 0.624 3.177 o
8 0 8 59.680 62.374 0.734 1.608 o
8 0 9 8.696 8.363 0.282 55.377 o
8 0 10 3.465 3.580 0.248 144.998 o
8 0 11 27.487 26.863 0.479 7.362 o
8 0 12 24.079 24.518 0.671 7.758 o
8 0 13 20.613 20.819 0.525 11.150 o
8 0 14 6.122 6.052 0.523 35.708 o
8 0 15 0.062 -0.454 0.315 124.837 o
8 1 0 6.883 6.620 0.310 66.416 o
8 1 1 22.935 22.602 0.382 10.650 o
8 1 2 14.182 13.460 0.328 25.435 o
8 1 3 22.280 22.346 0.406 10.907 o
8 1 4 25.151 25.555 0.383 8.880 o
8 1 5 69.860 72.772 0.629 1.216 o
8 1 6 10.810 10.552 0.222 45.252 o
8 1 7 61.528 63.372 0.485 1.594 o
8 1 8 2.572 2.420 0.160 325.270 o
8 1 9 34.810 35.378 0.604 4.495 o
8 1 10 25.291 24.681 0.429 8.768 o
8 1 11 57.065 57.713 0.666 1.809 o
8 1 12 6.744 7.087 0.315 64.780 o
8 1 13 14.445 14.651 0.452 20.116 o
8 1 14 1.084 0.585 0.234 218.274 o
8 1 15 24.229 26.265 1.191 4.705 o
8 2 0 43.145 43.095 0.667 3.039 o
8 2 1 43.116 42.269 0.449 3.274 o
8 2 2 18.701 18.649 0.343 15.501 o
8 2 3 19.926 19.889 0.293 14.404 o
8 2 4 12.347 13.374 0.305 30.416 o
8 2 5 40.698 40.437 0.460 3.610 o
8 2 6 36.316 36.593 0.555 4.277 o
8 2 7 28.866 29.617 0.332 7.018 o
8 2 8 0.114 -0.139 0.106 1102.330 o
8 2 9 7.884 8.198 0.233 69.243 o
8 2 10 1.109 1.303 0.187 327.987 o
8 2 11 5.772 5.298 0.261 95.566 o
8 2 12 0.121 0.122 0.158 496.828 o
8 2 13 20.887 21.496 0.593 10.150 o
8 2 14 3.583 3.116 0.302 108.556 o
8 3 0 2.055 2.430 0.195 260.844 o
8 3 1 74.816 75.216 0.680 1.084 o
8 3 2 44.850 44.182 0.612 2.906 o
8 3 3 30.547 30.287 0.526 5.933 o
8 3 4 27.893 27.173 0.463 7.255 o
8 3 5 25.175 24.920 0.419 8.820 o
8 3 6 17.205 18.113 0.555 13.665 o
8 3 7 17.208 18.028 0.552 13.739 o
8 3 8 21.550 23.114 0.435 10.865 o
8 3 9 12.733 13.285 0.366 26.933 o
8 3 10 2.911 2.256 0.227 187.737 o
8 3 11 55.064 59.445 0.805 1.799 o
8 3 12 9.039 9.165 0.360 42.626 o
8 3 13 2.812 2.469 0.227 187.957 o
8 3 14 2.079 1.647 0.424 66.099 o
8 4 0 31.000 29.905 0.476 6.016 o
8 4 1 11.292 12.127 0.487 24.841 o
8 4 2 10.257 9.766 0.368 37.062 o
8 4 3 7.651 7.839 0.349 51.960 o
8 4 4 18.956 19.837 0.602 11.402 o
8 4 5 3.380 3.590 0.278 122.886 o
8 4 6 7.247 6.639 0.329 60.398 o
8 4 7 20.899 20.249 0.657 9.770 o
8 4 8 2.258 1.870 0.223 211.781 o
8 4 9 55.798 60.624 0.811 1.747 o
8 4 10 10.444 10.355 0.430 31.231 o
8 4 11 4.878 5.047 0.281 97.652 o
8 4 12 0.268 0.367 0.210 279.573 o
8 4 13 28.138 29.490 1.046 4.601 o
8 5 0 21.762 22.994 0.600 9.383 o
8 5 1 27.416 28.921 0.568 6.716 o
8 5 2 1.682 1.482 0.254 177.561 o
8 5 3 0.684 0.911 0.235 218.750 o
8 5 4 10.230 10.492 0.352 37.296 o
8 5 5 81.103 86.688 0.963 0.862 o
8 5 6 0.141 0.225 0.248 200.247 o
8 5 7 4.164 3.879 0.423 58.559 o
8 5 8 1.182 1.483 0.279 152.977 o
8 5 9 12.961 13.803 0.421 23.836 o
8 5 10 0.950 0.744 0.212 266.548 o
8 5 11 7.294 8.022 0.749 18.415 o
8 6 0 14.932 16.745 0.618 14.498 o
8 6 1 0.361 0.901 0.338 107.847 o
8 6 2 6.607 7.302 0.434 44.298 o
8 6 3 27.001 29.861 0.606 6.543 o
8 6 4 5.318 5.659 0.356 67.170 o
8 6 5 1.877 2.084 0.243 185.741 o
8 6 6 5.061 5.912 0.452 47.476 o
8 6 7 25.243 27.932 0.729 6.636 o
8 6 8 0.264 -0.164 0.263 177.937 o
8 7 0 0.454 0.629 0.301 135.479 o
8 7 1 15.745 15.583 0.580 15.160 o
8 7 2 30.075 33.124 0.648 5.368 o
8 7 3 9.270 11.054 0.453 31.319 o
8 7 4 3.340 2.898 0.340 91.411 o
9 0 1 4.218 4.439 0.491 44.631 o
9 0 2 31.091 31.815 0.502 5.713 o
9 0 3 39.462 38.941 0.548 3.739 o
9 0 4 12.975 12.301 0.355 27.919 o
9 0 5 1.229 1.076 0.206 272.644 o
9 0 6 0.829 0.867 0.185 346.101 o
9 0 7 28.589 29.646 0.666 5.957 o
9 0 8 48.018 49.241 0.897 2.301 o
9 0 9 13.051 12.764 0.274 30.739 o
9 0 10 6.264 6.661 0.280 78.118 o
9 0 11 0.995 0.844 0.170 404.502 o
9 0 12 19.355 18.619 0.510 12.721 o
9 1 0 0.093 0.110 0.178 390.679 o
9 1 1 2.101 1.838 0.238 191.174 o
9 1 2 31.010 31.854 0.681 5.212 o
9 1 3 1.022 0.882 0.206 278.721 o
9 1 4 2.688 2.647 0.277 136.415 o
9 1 5 18.171 18.416 0.489 13.912 o
9 1 6 6.003 6.104 0.261 88.703 o
9 1 7 10.155 9.602 0.349 39.191 o
9 1 8 5.085 5.476 0.274 96.358 o
9 1 9 11.210 11.669 0.312 35.447 o
9 1 10 18.980 19.286 0.495 12.956 o
9 1 11 27.599 26.948 0.414 7.576 o
9 1 12 5.820 5.935 0.314 74.588 o
9 2 0 45.993 46.013 1.578 1.870 o
9 2 1 10.125 10.167 0.840 13.651 o
9 2 2 71.719 69.969 1.331 1.063 o
9 2 3 2.481 2.173 0.413 68.013 o
9 2 4 29.305 29.200 0.907 4.962 o
9 2 5 6.418 6.062 0.472 41.166 o
9 2 6 34.378 34.776 0.582 4.650 o
9 2 7 7.102 7.226 0.338 57.782 o
9 2 8 0.968 0.633 0.260 179.431 o
9 2 9 21.540 21.257 0.512 10.677 o
9 2 10 7.975 7.282 0.486 35.025 o
9 2 11 8.305 8.633 0.596 25.090 o
9 3 0 46.735 48.285 0.789 2.487 o
9 3 1 7.330 7.711 0.394 46.848 o
9 3 2 14.094 12.853 0.471 21.094 o
9 3 3 8.423 7.866 0.409 41.226 o
9 3 4 62.921 62.705 0.895 1.455 o
9 3 5 0.095 0.241 0.241 213.331 o
9 3 6 5.530 4.601 0.480 43.565 o
9 3 7 4.149 3.912 0.582 33.295 o
9 3 8 25.662 26.694 0.698 6.851 o
9 3 9 3.979 3.491 0.306 101.459 o
9 3 10 17.345 17.227 0.620 12.780 o
9 4 0 13.813 14.029 0.571 17.606 o
9 4 1 7.760 8.840 0.442 38.223 o
9 4 2 7.096 6.937 0.414 46.062 o
9 4 3 14.239 14.999 0.526 18.027 o
9 4 4 31.746 31.845 0.592 5.335 o
9 4 5 8.329 8.570 0.479 33.697 o
9 4 6 20.624 20.656 0.639 9.991 o
9 4 7 3.059 3.390 0.375 77.098 o
9 4 8 45.981 46.493 0.717 2.651 o
9 4 9 7.227 7.660 0.695 20.996 o
9 5 0 0.236 0.314 0.250 196.673 o
9 5 1 16.727 19.448 0.599 12.818 o
9 5 2 20.271 20.965 0.515 11.405 o
9 5 3 3.546 3.573 0.303 105.900 o
9 5 4 3.272 2.949 0.286 122.102 o
9 5 5 8.395 10.055 0.489 31.265 o
9 5 6 15.731 16.968 0.623 13.807 o
9 5 7 4.167 3.882 0.416 60.225 o
9 6 0 17.734 19.182 0.907 8.416 o
9 6 1 0.677 1.637 0.451 60.263 o
9 6 2 4.724 4.171 0.413 58.576 o
9 6 3 5.642 6.621 0.719 21.078 o
10 0 0 2.218 1.738 0.376 82.766 o
10 0 1 0.113 0.038 0.370 90.153 o
10 0 2 12.425 12.384 0.433 25.337 o
10 0 3 31.528 31.367 0.629 5.316 o
10 0 4 15.760 16.468 0.481 16.929 o
10 0 5 17.877 17.943 0.848 9.205 o
10 0 6 21.022 21.979 0.544 10.447 o
10 0 7 29.430 30.176 0.567 6.069 o
10 0 8 35.149 35.805 0.739 4.144 o
10 1 0 1.138 1.476 0.365 90.757 o
10 1 1 15.852 16.344 0.681 12.822 o
10 1 2 1.280 1.408 0.234 211.793 o
10 1 3 11.075 11.088 0.423 29.564 o
10 1 4 13.570 13.797 0.794 12.443 o
10 1 5 19.711 18.991 0.864 8.325 o
10 1 6 23.546 24.849 1.199 4.832 o
10 1 7 19.584 21.420 0.810 8.519 o
10 2 0 29.462 30.134 0.971 4.648 o
10 2 1 39.038 40.833 1.095 2.903 o
10 2 2 1.835 1.626 0.408 71.704 o
10 2 3 3.973 3.085 0.472 49.578 o
10 2 4 2.342 2.297 0.445 59.166 o
10 2 5 28.134 29.597 0.955 4.929 o
10 2 6 10.121 10.431 0.660 19.337 o
10 3 0 0.310 1.277 0.419 70.244 o
10 3 1 30.810 33.149 1.041 4.083 o
10 3 2 16.960 16.457 0.794 10.476 o
10 3 3 45.521 48.479 1.213 2.175 o
10 3 4 7.946 8.472 0.660 21.912 o
;
_iucr_refine_instructions_details
;
TITL 
CELL 0.71073 5.7755 5.9551 12.2553 90 90 90
ZERR 4 0.0104 0.0165 0.0243 0 0 0
LATT -1
SYMM 0.5-X,-Y,0.5+Z
SYMM 0.5+X,0.5-Y,-Z
SYMM -X,0.5+Y,0.5-Z
SFAC C H N O
UNIT 12 28 4 8

L.S. 4
PLAN  20
CONF
FMAP 2
MORE -1
BOND $H
ACTA
WGHT 0.044127 0
FVAR 1.365169
REM <olex2.extras>
REM <HklSrc "%.\\fk_03480_intdb_v128.hkl">
REM </olex2.extras>

O     4     0.23857  0.94258  0.31569  11.00000  0.00768  0.01605  0.01435 =
 -0.00328 -0.00116 -0.00100
O1    4     0.37490  1.22760  0.41616  11.00000  0.01146  0.01439  0.01276 =
 -0.00404  0.00111  0.00146
N     3     0.81666  1.14859  0.36238  11.00000  0.00788  0.01192  0.01074 =
 -0.00065 -0.00004 -0.00057
C4    1     0.64556  0.96812  0.33888  11.00000  0.00714  0.01119  0.00920 =
 -0.00090 -0.00011  0.00013
C5    1     0.39981  1.05536  0.35904  11.00000  0.00734  0.01168  0.00810 =
 0.00016  0.00022  0.00057
C6    1     0.69669  0.76266  0.40919  11.00000  0.01122  0.01272  0.01614 =
 0.00260 -0.00046  0.00110
H4    2     0.65887  0.93515  0.26411  11.00000 -1.20000
H6a   2     0.85175  0.70447  0.39114  11.00000 -1.50000
H6b   2     0.69825  0.80336  0.48411  11.00000 -1.50000
H6c   2     0.58506  0.64576  0.39423  11.00000 -1.50000
Ha    2     0.79769  1.26907  0.31929  11.00000 -1.20000
Hb    2     0.80824  1.19555  0.43426  11.00000 -1.20000
Hc    2     0.96221  1.09139  0.35430  11.00000 -1.20000
HKLF 4

END
Q1 1 0.3 1 0.333333 11 0.05 0.45
Q2 1 0.55 1 0.344444 11 0.05 0.34
Q3 1 0.4 1.15 0.377778 11 0.05 0.33
Q4 1 0.75 1.05 0.355556 11 0.05 0.29
Q5 1 0.65 0.85 0.377778 11 0.05 0.28
Q6 1 0.8 0.75 0.4 11 0.05 0.16
Q7 1 0.7 0.95 0.244444 11 0.05 0.1
Q8 1 0.75 1.25 0.288889 11 0.05 0.1
Q9 1 0.9 1 0.177778 11 0.05 0.09
Q10 1 0.5 0.65 0.433333 11 0.05 0.09

  REM The information below was added by Olex2.
  REM
  REM R1 = 0.0262 for 2750 Fo > 4sig(Fo) and 0.0271 for all 2834 data
  REM 76 parameters refined using 0 restraints
  REM Highest difference peak 0.4498, deepest hole -0.1715
  REM Mean Shift 0.0001, Max Shift 0.0006.

  REM +++ Tabular Listing of Refinement Information +++
  REM R1_all = 0.0271
  REM R1_gt = 0.0262
  REM wR_ref = 0.0725
  REM GOOF = 1.3563
  REM Shift_max = 0.0006
  REM Shift_mean = 0.0001
  REM Reflections_all = 2834
  REM Reflections_gt = 2750
  REM Parameters = 76
  REM Hole = -0.1715
  REM Peak = 0.4498
  REM Flack = 0.10(11)

  
;
_olex2_exptl_crystal_mounting_method  'Cryo loop'
_olex2_submission_special_instructions  'No special instructions were received'
