data_fk_03409_int_db_v128
_audit_creation_date               2024-03-13
_audit_creation_method
;
Olex2 1.5-alpha
(compiled 2023.11.24 svn.r209d9fb2 for OlexSys, GUI svn.r6869)
;
_audit_contact_author_address      ?
_audit_contact_author_email        ?
_audit_contact_author_name         ''
_audit_contact_author_phone        ?
_publ_contact_author_id_orcid      ?
_publ_section_references
;
Bourhis, L.J., Dolomanov, O.V., Gildea, R.J., Howard, J.A.K., Puschmann, H.
 (2015). Acta Cryst. A71, 59-75.

Dolomanov, O.V., Bourhis, L.J., Gildea, R.J, Howard, J.A.K. & Puschmann, H.
 (2009), J. Appl. Cryst. 42, 339-341.
;
_chemical_name_systematic          '2-Amino-3-carbamoylpropanoic acid monohydrate'
_chemical_formula_moiety           'C4 H8 N2 O3, H2 O'
_chemical_formula_sum              'C4 H10 N2 O4'
_chemical_formula_weight           150.135
_chemical_absolute_configuration   unk
loop_
  _atom_type_symbol
  _atom_type_scat_dispersion_real
  _atom_type_scat_dispersion_imag
  _atom_type_scat_Cromer_Mann_a1
  _atom_type_scat_Cromer_Mann_a2
  _atom_type_scat_Cromer_Mann_a3
  _atom_type_scat_Cromer_Mann_a4
  _atom_type_scat_Cromer_Mann_b1
  _atom_type_scat_Cromer_Mann_b2
  _atom_type_scat_Cromer_Mann_b3
  _atom_type_scat_Cromer_Mann_b4
  _atom_type_scat_Cromer_Mann_c
  _atom_type_scat_source
  _atom_type_scat_dispersion_source
 C 0.00313 0.00162 2.31000 1.02000 1.58860 0.86500 20.84390 10.20750 0.56870
 51.65120 0.21560 'International Tables Volume C Table 6.1.1.4 (pp. 500-502)'
 'Brennan, Cowan, Rev. Sci. Instrum., 1992, 63, 850'
 H 0.00000 0.00000 0.49300 0.32291 0.14019 0.04081 10.51090 26.12570 3.14236
 57.79970 0.00304 'International Tables Volume C Table 6.1.1.4 (pp. 500-502)'
 'Brennan, Cowan, Rev. Sci. Instrum., 1992, 63, 850'
 N 0.00612 0.00332 12.21260 3.13220 2.01250 1.16630 0.00570 9.89330 28.99750
 0.58260 -11.52900 'International Tables Volume C Table 6.1.1.4 (pp. 500-502)'
 'Brennan, Cowan, Rev. Sci. Instrum., 1992, 63, 850'
 O 0.01085 0.00610 3.04850 2.28680 1.54630 0.86700 13.27710 5.70110 0.32390
 32.90890 0.25080 'International Tables Volume C Table 6.1.1.4 (pp. 500-502)'
 'Brennan, Cowan, Rev. Sci. Instrum., 1992, 63, 850'

_space_group_crystal_system        'orthorhombic'
_space_group_IT_number             19
_space_group_name_H-M_alt          'P 21 21 21'
_space_group_name_Hall             ' P 2ac 2ab'
loop_
  _space_group_symop_id
  _space_group_symop_operation_xyz
 1 x,y,z
 2 x+1/2,-y+1/2,-z
 3 -x,y+1/2,-z+1/2
 4 -x+1/2,-y,z+1/2

_symmetry_Int_Tables_number        19
_cell_length_a                     5.5795(4)
_cell_length_b                     9.7400(6)
_cell_length_c                     11.7064(7)
_cell_angle_alpha                  90
_cell_angle_beta                   90
_cell_angle_gamma                  90
_cell_volume                       636.18(7)
_cell_formula_units_Z              4
_cell_measurement_temperature      100
_cell_measurement_theta_min        2.7
_cell_measurement_theta_max        33.4
_exptl_absorpt_coefficient_mu      0.139
_exptl_absorpt_correction_T_max    1.0000
_exptl_absorpt_correction_T_min    1.0000
_exptl_absorpt_correction_type     multi-scan
_exptl_crystal_colour              'clear colourless'
_exptl_crystal_colour_lustre       clear
_exptl_crystal_colour_modifier     .
_exptl_crystal_colour_primary      colourless
_exptl_crystal_density_diffrn      1.568
_exptl_crystal_description         block
_exptl_crystal_F_000               320.292
_exptl_crystal_size_max            0.2
_exptl_crystal_size_mid            0.15
_exptl_crystal_size_min            0.09
_diffrn_reflns_av_R_equivalents    0.0205
_diffrn_reflns_av_unetI/netI       0.0135
_diffrn_reflns_Laue_measured_fraction_full  1.0000
_diffrn_reflns_Laue_measured_fraction_max  0.9893
_diffrn_reflns_limit_h_max         9
_diffrn_reflns_limit_h_min         -9
_diffrn_reflns_limit_k_max         17
_diffrn_reflns_limit_k_min         -16
_diffrn_reflns_limit_l_max         15
_diffrn_reflns_limit_l_min         -20
_diffrn_reflns_number              34742
_diffrn_reflns_point_group_measured_fraction_full  1.0000
_diffrn_reflns_point_group_measured_fraction_max  0.9804
_diffrn_reflns_theta_full          25.2417
_diffrn_reflns_theta_max           38.39
_diffrn_reflns_theta_min           2.72
_diffrn_ambient_temperature        100
_diffrn_detector                   Pilatus200K
_diffrn_detector_area_resol_mean   5.81
_diffrn_detector_type              'DECTRIS PILATUS 200K'
_diffrn_measured_fraction_theta_full  1.0000
_diffrn_measured_fraction_theta_max  0.9893
_diffrn_measurement_device         'Eulerian 4-circle diffractometer'
_diffrn_measurement_device_type    'STOE STADIVARI'
_diffrn_measurement_method         'rotation method, \w scans'
_diffrn_radiation_collimation      '0.6 mm diameter'
_diffrn_radiation_monochromator    'Graded multilayer mirror'
_diffrn_radiation_probe            x-ray
_diffrn_radiation_type             'Mo K\a'
_diffrn_radiation_wavelength       0.71073
_diffrn_source                     'Genix Mo'
_diffrn_special_details            ?
_reflns_Friedel_coverage           0.968
_reflns_limit_h_max                9
_reflns_limit_h_min                -9
_reflns_limit_k_max                17
_reflns_limit_k_min                -16
_reflns_limit_l_max                20
_reflns_limit_l_min                -20
_reflns_number_gt                  3356
_reflns_number_total               3495
_reflns_threshold_expression       I>=2u(I)
_computing_molecular_graphics      'Olex2 1.5-alpha (Dolomanov et al., 2009)'
_computing_publication_material    'Olex2 1.5-alpha (Dolomanov et al., 2009)'
_computing_structure_refinement   
 'olex2.refine 1.5-alpha (Bourhis et al., 2015)'
_computing_structure_solution     
 'olex2.solve 1.5-alpha (Bourhis et al., 2015)'
_refine_diff_density_max           0.4114
_refine_diff_density_min           -0.1841
_refine_diff_density_rms           0.0582
_refine_ls_abs_structure_details  
 'Hooft, R.W.W., Straver, L.H., Spek, A.L. (2010). J. Appl. Cryst., 43, 665-668.'
_refine_ls_abs_structure_Flack     -0.23(14)
_refine_ls_d_res_high              0.5723
_refine_ls_d_res_low               7.4873
_refine_ls_goodness_of_fit_ref     1.0796
_refine_ls_hydrogen_treatment      mixed
_refine_ls_matrix_type             full
_refine_ls_number_constraints      8
_refine_ls_number_parameters       123
_refine_ls_number_reflns           3495
_refine_ls_number_restraints       0
_refine_ls_R_factor_all            0.0289
_refine_ls_R_factor_gt             0.0269
_refine_ls_restrained_S_all        1.0796
_refine_ls_shift/su_max            -0.0003
_refine_ls_shift/su_mean           0.0000
_refine_ls_structure_factor_coef   Fsqd
_refine_ls_weighting_details      
 'w=1/[\s^2^(Fo^2^)+(0.0451P)^2^+0.0608P] where P=(Fo^2^+2Fc^2^)/3'
_refine_ls_weighting_scheme        calc
_refine_ls_wR_factor_gt            0.0711
_refine_ls_wR_factor_ref           0.0726
_refine_special_details            ?
_olex2_refinement_description
;
1. Fixed Uiso
 At 1.2 times of:
  All C(H) groups, All C(H,H) groups, All N(H,H,H) groups
 At 1.5 times of:
  All O(H,H) groups
;
_atom_sites_solution_primary       iterative
loop_
  _atom_site_label
  _atom_site_type_symbol
  _atom_site_fract_x
  _atom_site_fract_y
  _atom_site_fract_z
  _atom_site_U_iso_or_equiv
  _atom_site_adp_type
  _atom_site_occupancy
  _atom_site_refinement_flags_posn
 O1 O -0.10941(8) 0.60555(5) 0.73780(4) 0.01024(8) Uani 1.000000 .
 O5 O 0.12149(8) 0.67601(4) 0.49538(4) 0.00974(7) Uani 1.000000 .
 O3 O 0.00916(8) 0.45515(5) 0.49835(4) 0.01077(8) Uani 1.000000 .
 O2 O 0.70186(10) 0.27268(5) 0.61297(4) 0.01374(9) Uani 1.000000 .
 H2a H 0.662(3) 0.2071(14) 0.5708(11) 0.02061(13) Uiso 1.000000 R
 H2b H 0.798(3) 0.3197(15) 0.5813(11) 0.02061(13) Uiso 1.000000 R
 N N -0.10706(10) 0.43524(6) 0.86953(4) 0.01046(8) Uani 1.000000 .
 N1 N 0.41830(9) 0.65615(5) 0.67322(4) 0.00800(8) Uani 1.000000 .
 H1a H 0.446(2) 0.7134(11) 0.6134(10) 0.00960(9) Uiso 1.000000 R
 H1b H 0.328(2) 0.6997(12) 0.7246(10) 0.00960(9) Uiso 1.000000 R
 H1c H 0.559(2) 0.6411(13) 0.7024(10) 0.00960(9) Uiso 1.000000 R
 C1 C -0.01627(10) 0.50065(5) 0.77925(5) 0.00753(8) Uani 1.000000 .
 C2 C 0.12800(10) 0.55695(6) 0.53485(4) 0.00735(8) Uani 1.000000 .
 C3 C 0.30970(10) 0.52614(5) 0.63005(4) 0.00701(8) Uani 1.000000 .
 H3 H 0.434(2) 0.4780(12) 0.5948(9) 0.00842(10) Uiso 1.000000 R
 C4 C 0.20985(10) 0.44038(6) 0.72765(5) 0.00808(8) Uani 1.000000 .
 H4a H 0.326(2) 0.4345(12) 0.7888(10) 0.00970(10) Uiso 1.000000 R
 H4b H 0.173(2) 0.3512(12) 0.6970(10) 0.00970(10) Uiso 1.000000 R
 Ha H -0.233(3) 0.4718(14) 0.9067(11) 0.022(3) Uiso 1.000000 .
 Hb H -0.042(3) 0.3611(14) 0.8977(11) 0.019(3) Uiso 1.000000 .

loop_
  _atom_site_aniso_label
  _atom_site_aniso_U_11
  _atom_site_aniso_U_22
  _atom_site_aniso_U_33
  _atom_site_aniso_U_12
  _atom_site_aniso_U_13
  _atom_site_aniso_U_23
 O1 0.00868(16) 0.00957(16) 0.01247(17) 0.00194(13) 0.00058(14) 0.00269(13)
 O5 0.01143(17) 0.00836(15) 0.00944(15) 0.00068(13) -0.00173(14) 0.00215(13)
 O3 0.01172(17) 0.00920(15) 0.01139(16) -0.00149(13) -0.00316(15) -0.00102(13)
 O2 0.0154(2) 0.01352(19) 0.01229(18) -0.00280(16) 0.00136(16) -0.00088(15)
 N 0.01047(19) 0.01134(19) 0.00956(17) 0.00011(16) 0.00231(15) 0.00306(14)
 N1 0.00736(17) 0.00843(18) 0.00821(16) -0.00082(14) -0.00081(14) 0.00057(13)
 C1 0.00721(18) 0.00794(18) 0.00744(17) -0.00097(15) -0.00015(15) 0.00038(15)
 C2 0.00724(18) 0.00817(18) 0.00666(16) 0.00074(15) -0.00008(15) 0.00001(14)
 C3 0.00680(18) 0.00714(18) 0.00710(17) 0.00056(14) -0.00006(15) 0.00044(14)
 C4 0.00781(19) 0.00789(18) 0.00854(18) 0.00117(15) 0.00044(16) 0.00186(15)

loop_
  _geom_bond_atom_site_label_1
  _geom_bond_atom_site_label_2
  _geom_bond_distance
  _geom_bond_site_symmetry_2
  _geom_bond_publ_flag
 O1 C1 1.2448(7) . ?
 O5 C2 1.2489(7) . ?
 O3 C2 1.2670(7) . ?
 O2 H2a 0.838(14) . ?
 O2 H2b 0.796(14) . ?
 N C1 1.3339(7) . ?
 N Ha 0.900(14) . ?
 N Hb 0.874(14) . ?
 N1 H1a 0.909(11) . ?
 N1 H1b 0.891(12) . ?
 N1 H1c 0.868(12) . ?
 N1 C3 1.4920(7) . ?
 C1 C4 1.5170(8) . ?
 C2 C3 1.5362(7) . ?
 C3 H3 0.933(12) . ?
 C3 C4 1.5210(8) . ?
 C4 H4a 0.967(12) . ?
 C4 H4b 0.962(12) . ?

loop_
  _geom_angle_atom_site_label_1
  _geom_angle_atom_site_label_2
  _geom_angle_atom_site_label_3
  _geom_angle
  _geom_angle_site_symmetry_1
  _geom_angle_site_symmetry_3
  _geom_angle_publ_flag
 H2b O2 H2a 110.2(13) . . ?
 Ha N C1 119.4(9) . . ?
 Hb N C1 122.4(9) . . ?
 Hb N Ha 118.0(12) . . ?
 H1b N1 H1a 108.9(10) . . ?
 H1c N1 H1a 104.6(11) . . ?
 H1c N1 H1b 108.9(11) . . ?
 C3 N1 H1a 109.2(7) . . ?
 C3 N1 H1b 113.8(7) . . ?
 C3 N1 H1c 110.9(8) . . ?
 N C1 O1 122.84(5) . . ?
 C4 C1 O1 120.64(5) . . ?
 C4 C1 N 116.52(5) . . ?
 O3 C2 O5 125.92(5) . . ?
 C3 C2 O5 117.97(5) . . ?
 C3 C2 O3 115.93(5) . . ?
 C2 C3 N1 110.36(4) . . ?
 H3 C3 N1 106.0(7) . . ?
 H3 C3 C2 105.5(7) . . ?
 C4 C3 N1 111.12(4) . . ?
 C4 C3 C2 114.24(4) . . ?
 C4 C3 H3 109.2(7) . . ?
 C3 C4 C1 113.03(4) . . ?
 H4a C4 C1 106.6(7) . . ?
 H4a C4 C3 110.1(7) . . ?
 H4b C4 C1 108.5(7) . . ?
 H4b C4 C3 107.1(7) . . ?
 H4b C4 H4a 111.5(10) . . ?

loop_
  _geom_torsion_atom_site_label_1
  _geom_torsion_atom_site_label_2
  _geom_torsion_atom_site_label_3
  _geom_torsion_atom_site_label_4
  _geom_torsion
  _geom_torsion_site_symmetry_1
  _geom_torsion_site_symmetry_2
  _geom_torsion_site_symmetry_3
  _geom_torsion_site_symmetry_4
  _geom_torsion_publ_flag
 O1 C1 C4 C3 3.83(6) . . . . ?
 O5 C2 C3 N1 10.49(5) . . . . ?
 O5 C2 C3 C4 136.56(5) . . . . ?
 O3 C2 C3 N1 -174.18(5) . . . . ?
 O3 C2 C3 C4 -48.11(6) . . . . ?
 N C1 C4 C3 -176.38(5) . . . . ?
 N1 C3 C4 C1 71.91(5) . . . . ?
 C1 C4 C3 C2 -53.75(5) . . . . ?

loop_
  _diffrn_refln_index_h
  _diffrn_refln_index_k
  _diffrn_refln_index_l
  _diffrn_refln_intensity_net
  _diffrn_refln_intensity_u
  _diffrn_refln_scale_group_code
 -6 4 3 44.57 4.23 0
 -6 5 2 9.9 3.13 0
 -6 5 3 212.56 7.74 0
 -5 -6 6 205.53 6.85 0
 -5 -3 7 70.7 2.96 0
 -5 -2 7 106.96 2.97 0
 -5 1 6 40.49 1.97 0
 -5 2 5 97.28 3.79 0
 -5 2 6 33.2 1.85 0
 -5 3 4 33.63 2.92 0
 -5 3 5 11.68 1.84 0
 -5 4 3 439.21 9.84 0
 -5 4 4 90.31 4.38 0
 -5 4 5 323.65 7.05 0
 -5 5 3 41.07 3.9 0
 -5 5 4 101.23 4.9 0
 -5 6 0 82.67 6.15 0
 -5 6 1 365.81 10.63 0
 -5 6 3 9.76 2.65 0
 -5 6 4 140.82 5.8 0
 -5 7 3 4.31 2.17 0
 -4 -7 6 46.15 4.09 0
 -4 -7 7 389.19 10.01 0
 -4 -6 7 76.43 4.29 0
 -4 -6 8 20.37 2.81 0
 -4 -5 7 24.87 2.43 0
 -4 -5 8 54.16 3.3 0
 -4 -4 7 24.83 2.26 0
 -4 -4 8 151.03 4.48 0
 -4 -3 7 7.06 1.28 0
 -4 -2 7 190.31 3.53 0
 -4 2 5 378.92 5.85 0
 -4 3 4 54.31 2.98 0
 -4 3 5 439.84 6.8 0
 -4 4 2 122.9 5.23 0
 -4 4 3 136.56 5.06 0
 -4 4 4 289.69 6.71 0
 -4 5 0 603.55 12.74 0
 -4 5 1 224.87 7.54 0
 -4 5 2 159.77 6.38 0
 -4 5 3 28.78 3.17 0
 -4 5 4 251.87 6.72 0
 -4 6 -2 394.71 11.61 0
 -4 6 -1 48.5 4.43 0
 -4 6 1 53.89 4.64 0
 -4 6 2 390.35 9.73 0
 -4 7 -1 411.34 11.7 0
 -4 7 0 18.14 3.4 0
 -4 7 1 406.09 11.01 0
 -4 7 2 146.51 6.55 0
 -4 8 1 21.78 3.48 0
 -3 -8 4 280.76 9.07 0
 -3 -8 5 96.27 5.73 0
 -3 -7 4 18.96 2.92 0
 -3 -7 5 39.81 3.66 0
 -3 -7 6 51.97 4.07 0
 -3 -7 7 15.25 3.16 0
 -3 -6 5 281.19 7.88 0
 -3 -6 6 452.9 9.97 0
 -3 -6 7 133.18 5.53 0
 -3 -5 5 338.78 7.66 0
 -3 -5 6 14.23 2.19 0
 -3 -5 7 13.23 2.08 0
 -3 -4 6 33.07 2.53 0
 -3 -4 7 597.6 9.15 0
 -3 -3 6 452.37 6.98 0
 -3 -3 7 737.16 8.68 0
 -3 -2 6 132.67 3.15 0
 -3 1 5 410.38 3.56 0
 -3 2 4 657.51 7.21 0
 -3 3 3 748.88 9.46 0
 -3 3 4 62.32 2.63 0
 -3 4 1 1011.99 13.68 0
 -3 4 2 128.07 4.8 0
 -3 4 3 58.68 3.35 0
 -3 5 -1 9.84 2.85 0
 -3 5 0 770.09 12.9 0
 -3 5 1 8.55 2.2 0
 -3 5 2 81.44 4.27 0
 -3 5 3 62.84 3.66 0
 -3 6 -6 437.69 12.53 0
 -3 6 -4 328.45 10.32 0
 -3 6 -3 253.6 9.15 0
 -3 6 -2 728.94 14.18 0
 -3 6 -1 268.41 8.64 0
 -3 6 1 286.84 8.14 0
 -3 7 -4 12.5 3.26 0
 -3 7 -3 109.34 6.75 0
 -3 7 -2 203.36 8.23 0
 -3 7 1 343.73 9.42 0
 -3 8 -2 234.81 9.07 0
 -3 8 -1 288.61 9.56 0
 -2 -9 1 44.29 4.23 0
 -2 -9 2 95.16 5.98 0
 -2 -9 3 227.96 9.04 0
 -2 -9 4 63.15 5.37 0
 -2 -8 2 418.83 10.8 0
 -2 -8 3 141.69 6.54 0
 -2 -8 4 162.15 7.28 0
 -2 -8 5 112.74 6.28 0
 -2 -8 6 162.11 7.42 0
 -2 -7 3 49.52 3.85 0
 -2 -7 5 33.25 3.51 0
 -2 -7 6 38.77 4.07 0
 -2 -6 4 24.43 3.02 0
 -2 -5 4 124.53 4.87 0
 -2 -5 6 19.18 2.65 0
 -2 -4 4 1036.48 11.65 0
 -2 -3 5 318.28 5.9 0
 -2 -3 6 186.04 4.61 0
 -2 -2 5 125.17 3.08 0
 -2 2 3 297.59 4.58 0
 -2 3 1 1039.29 11.35 0
 -2 3 2 1184.23 11.27 0
 -2 3 3 400.47 6.01 0
 -2 4 -1 27.47 2.82 0
 -2 4 0 141.86 5 0
 -2 4 1 28.01 2.51 0
 -2 4 2 17.96 2.15 0
 -2 5 -5 323.39 9.75 0
 -2 5 -3 296.63 8.42 0
 -2 5 -1 470.75 9.77 0
 -2 5 0 27.93 2.74 0
 -2 6 -8 37.54 4.41 0
 -2 6 -6 454.66 11.67 0
 -2 6 -3 660.12 13.21 0
 -2 6 -2 281.37 8.38 0
 -2 6 0 355.64 8.72 0
 -2 7 -4 422.25 11.52 0
 -2 7 -3 45.79 4.75 0
 -2 7 -2 165.34 6.85 0
 -2 7 -1 354.8 9.41 0
 -2 8 -4 164.16 7.62 0
 -2 8 -2 411.63 10.84 0
 -1 -9 0 962.34 16.96 0
 -1 -9 1 317.68 10.11 0
 -1 -9 5 225.74 9.17 0
 -1 -8 1 43.54 4.24 0
 -1 -8 2 218.78 8.18 0
 -1 -8 3 282.17 9.3 0
 -1 -8 4 6.58 2.51 0
 -1 -8 5 215.58 8.45 0
 -1 -7 1 166.63 6.44 0
 -1 -7 2 38.35 3.6 0
 -1 -7 3 2.84 1.96 0
 -1 -7 4 824.65 14.19 0
 -1 -6 2 148.35 5.8 0
 -1 -6 5 73.82 4.5 0
 -1 -5 2 715.02 10.64 0
 -1 -5 3 1881.04 17.74 0
 -1 -5 5 81.52 4.46 0
 -1 -4 3 224.76 5.77 0
 -1 -4 5 114.29 4.65 0
 -1 -3 3 817.23 9.16 0
 -1 -2 3 493.61 5.95 0
 -1 -2 4 1676.13 11.41 0
 -1 -1 3 9462.87 18.95 0
 -1 2 0 149.85 3.66 0
 -1 2 1 3389.59 15.07 0
 -1 3 -2 367.98 7.26 0
 -1 3 0 63.82 2.83 0
 -1 3 1 1079.96 9.94 0
 -1 4 -12 103.99 6.31 0
 -1 4 -11 9.05 2.82 0
 -1 4 -10 354.75 10.01 0
 -1 4 -9 542.87 12.17 0
 -1 4 -8 1027.71 16.02 0
 -1 4 -7 392.38 9.75 0
 -1 4 -6 548.48 11.16 0
 -1 4 -5 111.56 5.31 0
 -1 4 -3 219.36 6.24 0
 -1 4 -2 1631.11 15.98 0
 -1 4 0 685.2 9.5 0
 -1 5 -11 424.1 11.39 0
 -1 5 -10 21.95 3.42 0
 -1 5 -9 258.39 8.78 0
 -1 5 -7 532.18 11.48 0
 -1 5 -6 47.97 4.27 0
 -1 5 -5 81.62 4.58 0
 -1 5 -4 178.63 6.25 0
 -1 5 -3 1868.68 19.15 0
 -1 5 -2 703.79 11.41 0
 -1 6 -10 13.5 3.42 0
 -1 6 -9 154.86 7.42 0
 -1 6 -8 406.85 11.19 0
 -1 6 -7 91.58 5.51 0
 -1 6 -6 79.54 4.98 0
 -1 6 -5 74.79 4.75 0
 -1 6 -4 193.12 6.89 0
 -1 6 -3 21.97 3.28 0
 -1 7 -8 96.65 6.2 0
 -1 7 -7 93.37 5.73 0
 -1 7 -6 36.95 4.12 0
 -1 7 -4 837.2 14.71 0
 0 -9 -6 662.62 13.7 0
 0 -9 -5 57.12 4.96 0
 0 -9 -3 229.16 8.44 0
 0 -9 -1 62.16 4.92 0
 0 -9 1 66.78 4.95 0
 0 -9 2 31.86 4.27 0
 0 -9 3 242.23 9.49 0
 0 -8 -3 448.74 10.66 0
 0 -8 -2 808.12 14.51 0
 0 -8 -1 72.13 4.94 0
 0 -8 1 74.79 4.9 0
 0 -8 2 798.56 15.02 0
 0 -8 3 451.54 11.81 0
 0 -7 -2 4.94 1.9 0
 0 -7 3 71.04 4.58 0
 0 -6 0 6.41 1.78 0
 0 -6 3 229.68 7.21 0
 0 -5 0 1.81 1.43 0
 0 -5 1 768.68 11.42 0
 0 -5 2 537.22 9.73 0
 0 -4 3 381.05 7.71 0
 0 -3 0 -0.36 0.95 0
 0 -3 2 665.37 8.46 0
 0 -2 2 448.23 6.09 0
 0 -1 1 757.84 5.45 0
 0 1 -1 761.71 5.38 0
 0 2 -13 138.67 5.69 0
 0 2 -12 163.5 5.99 0
 0 2 -4 1409.89 12.05 0
 0 2 -3 952.97 9.05 0
 0 2 -1 521.7 5.83 0
 0 3 -13 403.62 9.67 0
 0 3 -12 2.48 1.79 0
 0 3 -11 378.88 8.94 0
 0 3 -10 46.2 3.65 0
 0 3 -9 0.01 1.38 0
 0 3 -7 6.43 1.65 0
 0 3 -6 56.34 3.08 0
 0 3 -5 1625.58 14.68 0
 0 3 -4 1251.89 12.48 0
 0 3 -3 2713.33 17.29 0
 0 3 -2 644.04 8.06 0
 0 4 -13 38.33 3.67 0
 0 4 -12 361.47 9.35 0
 0 4 -11 131.65 5.81 0
 0 4 -9 127.25 5.59 0
 0 4 -8 196.34 6.57 0
 0 4 -7 2.69 1.62 0
 0 4 -6 31.11 3.08 0
 0 4 -5 461.19 8.76 0
 0 4 -4 722.2 10.47 0
 0 4 -3 389.72 7.36 0
 0 5 -12 111.37 5.61 0
 0 5 -11 690.87 13.15 0
 0 5 -10 45.83 4.05 0
 0 5 -9 388.13 9.58 0
 0 5 -8 118.12 5.6 0
 0 5 -7 34.85 3.21 0
 0 5 -6 1523.62 17.36 0
 0 5 -5 1359.64 15.83 0
 0 5 -4 78.73 3.92 0
 0 6 -11 17.06 2.93 0
 0 6 -9 0.99 1.9 0
 0 6 -7 394.81 9.66 0
 1 -9 -7 22.56 3.28 0
 1 -9 -5 231.68 8.52 0
 1 -9 -4 305.34 9.76 0
 1 -9 -3 476.6 12.16 0
 1 -9 -2 53.53 4.99 0
 1 -9 -1 318.09 10.16 0
 1 -9 0 944.54 17.66 0
 1 -8 -9 37.53 3.59 0
 1 -8 -8 45.85 3.97 0
 1 -8 -7 45.23 3.96 0
 1 -8 -5 207.79 7.56 0
 1 -8 -4 6.19 2.79 0
 1 -8 -3 286.6 8.98 0
 1 -8 -2 211.05 7.65 0
 1 -8 0 539.16 12.58 0
 1 -7 -9 61.3 3.79 0
 1 -7 -8 92.74 4.74 0
 1 -7 -7 92.6 4.78 0
 1 -7 -5 510.67 10.55 0
 1 -7 -4 859.24 13.82 0
 1 -7 -3 0.2 1.72 0
 1 -7 -2 38.05 3.87 0
 1 -7 -1 171 6.7 0
 1 -7 0 137.25 6.04 0
 1 -6 -8 426.31 8.48 0
 1 -6 -6 82.76 4.18 0
 1 -6 -5 71.75 3.94 0
 1 -5 -3 1894.62 16.94 0
 1 -5 -2 710.55 10.74 0
 1 -5 -1 95.77 4.23 0
 1 -4 -4 70.66 2.97 0
 1 -4 -3 223.09 5.34 0
 1 -4 0 727.06 10.29 0
 1 -3 -4 287.45 4.84 0
 1 -3 -2 385.42 6 0
 1 -2 -3 490.98 5.11 0
 1 -2 -2 4079.46 15.53 0
 1 0 -11 1.95 0.85 0
 1 0 -10 36.3 1.93 0
 1 1 -12 24.86 1.84 0
 1 1 -11 223.47 4.87 0
 1 1 -10 153.9 3.98 0
 1 1 -9 104.85 3.18 0
 1 1 -8 70.4 2.47 0
 1 1 -7 169.16 3.49 0
 1 1 -6 375.54 4.71 0
 1 1 -5 2352.86 10.51 0
 1 2 -12 0.53 0.75 0
 1 3 -9 341.48 6.69 0
 2 -9 -6 123.59 6.38 0
 2 -8 -5 122.28 6.07 0
 2 -7 -7 213.02 6.84 0
 2 -7 -6 35.95 3.24 0
 2 -7 -5 36.88 3.54 0
 2 -6 -8 36.03 2.71 0
 2 -6 -6 469.59 9.21 0
 2 -6 -5 281.89 7.5 0
 2 -5 -9 32.26 2.09 0
 2 -5 -8 280.95 6.03 0
 -6 -3 -5 49.37 4.33 0
 -6 -3 -4 13.91 2.71 0
 -6 -3 -3 7.95 2 0
 -6 -3 -2 78.48 3.9 0
 -6 -3 -1 89.1 3.71 0
 -6 -3 0 41.74 2.31 0
 -6 -2 -5 385.81 9.82 0
 -6 -2 -4 77.77 4.54 0
 -6 -2 -3 112.38 4.78 0
 -6 -2 -2 8.44 1.98 0
 -6 -2 -1 91.91 3.56 0
 -6 -1 -6 234.23 8.38 0
 -6 -1 -5 28.67 3.38 0
 -6 -1 -4 59.16 4.14 0
 -6 -1 -3 127.37 5.01 0
 -6 0 -6 0.54 2 0
 -6 0 -5 3.74 2.16 0
 -6 0 -4 42.79 3.49 0
 -5 -5 4 99.46 2.77 0
 -5 -3 2 562.51 4.83 0
 -5 -2 -7 108.8 6.36 0
 -5 -2 -2 30.69 2.8 0
 -5 -2 -1 77.01 3.28 0
 -5 -2 0 260.01 4.98 0
 -5 -2 1 66.7 2.05 0
 -5 -1 -6 46.26 3.86 0
 -5 -1 -5 16.16 2.7 0
 -5 -1 -4 7.75 2.15 0
 -5 -1 -3 2.02 1.4 0
 -5 -1 -2 94.18 3.94 0
 -5 -1 -1 17.04 1.96 0
 -5 -1 0 17.25 1.53 0
 -5 0 -7 300.14 9.29 0
 -5 0 -6 26.02 3.78 0
 -5 0 -5 38.71 3.72 0
 -5 0 -4 100.24 4.79 0
 -5 0 -3 439.65 8.71 0
 -5 0 -2 3.04 1.36 0
 -5 1 -6 49.47 4.39 0
 -5 1 -4 8.69 2.04 0
 -4 -6 6 202.41 5.36 0
 -4 -6 7 79.5 3.51 0
 -4 -5 5 3.91 1.06 0
 -4 -5 6 0.93 0.89 0
 -4 -4 5 663.42 6.56 0
 -4 -2 2 32.19 1.14 0
 -4 -1 -8 135.92 6.56 0
 -4 -1 -7 133.46 6.34 0
 -4 -1 -1 1042.03 10.19 0
 -4 -1 1 1057.04 6.95 0
 -4 0 -8 14.32 3.16 0
 -4 0 -7 158.52 6.51 0
 -4 0 -6 50.22 3.92 0
 -4 0 -5 4.8 1.91 0
 -4 0 -4 8.9 1.96 0
 -4 0 -3 132.34 4.68 0
 -4 0 -2 6.86 1.45 0
 -4 0 -1 7.22 1.23 0
 -4 1 -8 133.58 6.55 0
 -4 1 -7 132.4 6.13 0
 -4 1 -6 507.46 10.88 0
 -4 1 -4 99.42 4.47 0
 -4 1 -3 186.94 5.68 0
 -4 1 -2 27.8 2.25 0
 -4 2 -8 78.53 5.25 0
 -4 2 -7 190.95 7.55 0
 -4 2 -6 123.59 5.89 0
 -4 2 -5 365.35 8.78 0
 -3 -8 7 5.67 1.84 0
 -3 -8 8 83 4.76 0
 -3 -7 6 55.25 3.57 0
 -3 -7 7 14.96 2.51 0
 -3 -7 8 25.97 3.01 0
 -3 -7 9 127.37 5.34 0
 -3 -6 8 49.51 3.17 0
 -3 -5 6 11.07 1.8 0
 -3 -5 7 8.96 1.64 0
 -3 -4 6 36.09 2.18 0
 -3 -3 4 62.17 2.12 0
 -3 -2 3 319.29 3.09 0
 -3 0 -9 26.37 3.81 0
 -3 0 -7 112.6 5.54 0
 -3 0 -5 297.97 7.44 0
 -3 0 -4 1.21 1.68 0
 -3 0 -3 197.96 5.16 0
 -3 0 -2 1090.73 10.68 0
 -3 0 -1 26.84 1.71 0
 -3 0 0 0.12 0.6 0
 -3 1 -8 254.93 8.14 0
 -3 1 -7 1419.97 17.72 0
 -3 1 -6 620.03 11.16 0
 -3 1 -5 420.03 8.67 0
 -3 1 -4 46.71 3 0
 -3 1 -3 16.72 2.26 0
 -3 1 -2 1722.56 13.91 0
 -3 2 -9 112.28 6.21 0
 -3 2 -8 170.71 6.98 0
 -3 2 -7 24.28 3.33 0
 -3 2 -6 128.71 5.7 0
 -3 2 -5 515.87 9.99 0
 -3 3 -8 126.39 6.21 0
 -2 -8 7 268.71 8.5 0
 -2 -7 7 209.75 7.04 0
 -2 -7 8 207.06 7 0
 -2 -7 9 147.72 6.15 0
 -2 -6 7 49.04 3.38 0
 -2 -6 8 35.63 3.21 0
 -2 -6 9 107.35 4.97 0
 -2 -5 6 21.75 2.23 0
 -2 -5 7 460.21 8.79 0
 -2 -5 8 277.85 7.08 0
 -2 -4 6 243.55 5.71 0
 -2 -4 7 106.76 4.08 0
 -2 -3 4 1822.38 12.36 0
 -2 -2 4 1016.63 7.7 0
 -2 0 -10 50.89 4.46 0
 -2 0 -8 1.65 1.83 0
 -2 0 0 208.06 3 0
 -2 1 -10 512.23 11.85 0
 -2 1 -8 177.39 6.54 0
 -2 1 -6 482.63 9.35 0
 -2 1 -5 517.27 9.1 0
 -2 1 -4 368.2 7.17 0
 -2 1 -3 827.75 9.6 0
 -2 1 -2 3128.78 16.83 0
 -2 1 -1 2577.3 13.57 0
 -2 2 -10 323.99 9.88 0
 -2 2 -7 71 4.22 0
 -2 2 -5 121.42 4.63 0
 -2 2 -4 1032.9 12.4 0
 -2 2 -3 284.21 6.05 0
 -2 3 -9 97.7 5.47 0
 -2 3 -8 9.14 2.43 0
 -1 -7 7 87.34 4.87 0
 -1 -7 8 88.62 5.14 0
 -1 -7 9 55.08 4.45 0
 -1 -6 6 82.56 4.45 0
 -1 -6 7 93.81 4.77 0
 -1 -6 8 424.54 9.68 0
 -1 -6 9 155.94 6.46 0
 -1 -5 6 49.67 3.25 0
 -1 -5 7 527.94 9.9 0
 -1 -5 8 322.77 8.18 0
 -1 -4 5 108.48 4.16 0
 -1 -4 6 563.79 9.31 0
 -1 -4 7 395.32 8.2 0
 -1 -3 4 275.45 5.41 0
 -1 -3 5 396.92 6.88 0
 -1 -3 6 608 8.92 0
 -1 -2 3 488.7 5.66 0
 -1 -2 4 1739.74 11.74 0
 -1 -2 5 124.18 3.61 0
 -1 -1 2 195.32 2.52 0
 -1 -1 3 9683.2 21.09 0
 -1 0 -11 2.82 2.18 0
 -1 0 -9 309.63 8.86 0
 -1 1 -9 106.25 5.11 0
 -1 1 -8 75.88 4.16 0
 -1 1 -6 388.28 7.89 0
 -1 1 -5 2231.68 17.12 0
 -1 1 -3 9648.2 28.81 0
 -1 1 -2 196.01 3.86 0
 -1 2 -11 251.77 8.63 0
 -1 2 -10 645.5 13.15 0
 -1 2 -9 100.77 5.16 0
 -1 2 -7 341.52 8.05 0
 -1 2 -6 958.42 12.45 0
 -1 2 -4 1738.05 14.69 0
 -1 3 -9 339.42 9.22 0
 -1 3 -8 84.54 4.68 0
 0 -8 7 23.76 3.61 0
 0 -7 6 295.13 8.57 0
 0 -7 7 310.93 9.15 0
 0 -7 8 277.63 8.71 0
 0 -6 6 650.37 11.98 0
 0 -6 7 394.22 9.81 0
 0 -6 9 0.42 1.79 0
 0 -5 5 1312.58 15.26 0
 0 -5 6 1531.51 17.09 0
 0 -5 7 34.01 3.49 0
 0 -5 8 109.86 5.18 0
 0 -4 5 436.21 8.38 0
 0 -4 6 34.05 3.19 0
 0 -4 7 1.38 1.86 0
 0 -3 4 1257.2 12.2 0
 0 -3 5 1663.31 14.72 0
 0 -3 6 60.43 3.62 0
 0 -2 3 997.19 9.05 0
 0 -2 4 1455.02 11.89 0
 0 -2 5 263.76 5.85 0
 0 -1 -12 3.89 2.83 0
 0 -1 2 609.32 5.56 0
 0 -1 3 12.67 1.47 0
 0 0 -12 -0.07 2 0
 0 0 -10 196.02 6.91 0
 0 0 -9 2.61 2.14 0
 0 1 -12 1.17 2.12 0
 0 1 -11 8.75 2.39 0
 0 1 -9 40.41 3.24 0
 0 1 -8 12.57 2.2 0
 0 1 -7 214.88 5.98 0
 0 1 -6 271.6 6.18 0
 0 1 -5 2165.87 15.18 0
 0 1 -3 13.79 1.36 0
 0 1 -2 639.88 5.8 0
 0 2 -12 160.76 7.1 0
 0 2 -10 124.56 5.63 0
 0 2 -9 13.87 2.44 0
 0 2 -8 300.28 7.52 0
 0 2 -6 5.59 2.06 0
 0 2 -5 253.82 5.62 0
 1 -8 6 21.83 3.38 0
 1 -7 5 506.1 11.2 0
 1 -7 6 34.8 4.18 0
 1 -7 7 87.11 5.57 0
 1 -6 6 78.81 4.6 0
 1 -5 7 538.44 11.08 0
 1 -5 8 320.63 8.87 0
 1 -4 4 66.77 3.68 0
 1 -4 7 386.25 8.89 0
 1 -3 3 824.3 10.18 0
 1 -3 5 407.52 8.11 0
 1 -3 6 603.91 10.35 0
 1 -2 2 3880.96 18.22 0
 1 -2 3 485.22 7.07 0
 1 -2 4 1728.05 14.21 0
 1 -1 -12 30.59 3.57 0
 1 -1 1 1045.55 7.35 0
 1 -1 2 198.94 3.77 0
 1 0 -13 132.63 6.49 0
 1 0 -12 98.37 5.34 0
 1 0 -11 1 1.67 0
 1 0 -10 37.08 3.09 0
 1 0 -9 296.68 7.12 0
 1 0 -8 223.29 5.9 0
 1 1 -13 71.18 4.83 0
 1 1 -11 235.05 7.36 0
 1 1 -10 157.79 5.77 0
 1 1 -9 107.89 4.57 0
 1 1 -7 166.64 4.75 0
 1 1 -6 389.84 6.64 0
 1 1 -5 2259.18 14.03 0
 1 1 -4 609.81 6.4 0
 1 2 -12 0.39 2.27 0
 1 2 -10 659.12 11.78 0
 1 2 -9 100.29 4.59 0
 1 2 -8 90.85 3.92 0
 1 2 -7 341.45 6.91 0
 2 -7 4 410.58 10.11 0
 2 -7 5 35.36 4.3 0
 2 -7 6 40.15 3.95 0
 2 -6 4 27.24 3.23 0
 2 -6 5 276.38 8.17 0
 2 -6 6 457.08 10.69 0
 2 -5 4 121.8 5.18 0
 2 -5 6 19.32 3.13 0
 2 -5 7 465.08 10.61 0
 2 -4 3 724.48 11 0
 2 -3 2 1204.25 12.21 0
 2 -3 4 1849.48 16.9 0
 2 -2 -13 37.3 3.67 0
 2 -2 2 1763.45 13.41 0
 2 -2 3 289.46 6.17 0
 2 -1 -13 30.98 3.56 0
 2 -1 -12 117.36 5.34 0
 2 -1 -11 19.23 2.45 0
 2 -1 -10 517.34 9.45 0
 2 -1 -1 2505.02 9.63 0
 2 0 -13 18.62 2.95 0
 2 0 -12 237.11 7.29 0
 2 0 -11 -1.65 1.43 0
 2 0 -10 53.85 3.28 0
 2 0 -9 496.76 8.37 0
 2 0 -8 1.63 1.01 0
 2 0 -7 424.47 6.58 0
 2 0 -4 1829.82 7.95 0
 2 1 -13 31.64 3.41 0
 2 1 -12 116.14 5.3 0
 2 1 -10 535.4 9.65 0
 2 1 -8 182.34 4.87 0
 2 1 -7 332.32 5.87 0
 3 -8 3 34.24 3.87 0
 3 -7 3 102.53 5.42 0
 3 -7 4 12.91 2.76 0
 3 -7 5 39.28 4.6 0
 3 -6 2 798.42 12.95 0
 3 -6 3 245.91 7.78 0
 3 -6 4 333.85 9.07 0
 3 -6 5 265.7 8.26 0
 3 -6 6 428.4 10.93 0
 3 -5 2 77.03 4.09 0
 3 -5 3 65.54 3.96 0
 3 -5 5 356.12 9.16 0
 3 -5 6 16.5 2.89 0
 3 -4 3 58.17 3.45 0
 3 -3 1 539.83 8.2 0
 3 -2 -11 176.66 5.37 0
 3 -2 -2 598.61 5.99 0
 3 -2 -1 98.1 2.78 0
 3 -2 0 568.35 6.99 0
 3 -2 1 97.54 3.29 0
 3 -1 -12 81.82 4.03 0
 3 -1 -8 261.6 5 0
 3 -1 -7 1371.11 9.73 0
 3 -1 -6 608.77 5.55 0
 3 0 -9 27.04 1.89 0
 3 0 -8 217.58 4.27 0
 4 -8 1 18.77 3.27 0
 4 -7 1 402.82 10.02 0
 4 -7 2 142.88 6.22 0
 4 -6 0 17.31 2.42 0
 4 -6 1 50.72 3.61 0
 4 -6 2 398.89 9.55 0
 4 -6 3 26.68 3.19 0
 4 -6 4 19.57 3.27 0
 4 -5 -1 217.51 5.86 0
 4 -5 0 614.23 10.33 0
 4 -5 1 224.86 6.54 0
 4 -5 2 152.27 5.63 0
 4 -5 3 25.49 2.88 0
 4 -5 4 247.7 7.77 0
 4 -4 -1 -0.29 0.77 0
 4 -4 0 1094.51 12.55 0
 4 -4 1 0.83 1.14 0
 4 -4 2 121.17 4.79 0
 4 -4 3 137.08 5.55 0
 4 -3 -3 93.25 2.77 0
 4 -3 -2 25.7 1.78 0
 5 -8 -1 23.02 3 0
 5 -7 -1 13.14 2.2 0
 5 -7 0 1.09 1.65 0
 5 -7 1 15.36 2.86 0
 5 -7 2 91.9 5.38 0
 5 -6 -2 160.52 5.44 0
 5 -6 -1 335.33 8.08 0
 5 -6 1 347.14 8.74 0
 5 -6 2 152.11 6.09 0
 5 -6 3 13.35 2.69 0
 5 -5 0 93.73 4.17 0
 5 -5 1 184.29 5.99 0
 5 -4 -2 47.52 2.44 0
 5 -4 -1 16 1.93 0
 -3 -9 -5 45.96 2.95 0
 -3 -9 -3 41.79 2.3 0
 -3 -9 -2 33.34 1.83 0
 -3 -9 -1 25.58 1.44 0
 -3 -9 2 39.99 1.55 0
 -3 -9 3 41.95 1.8 0
 -3 -8 -8 89.91 4.69 0
 -3 -8 -7 5.64 1.81 0
 -3 -8 -6 198.9 5.66 0
 -3 -8 -5 86.47 3.65 0
 -3 -8 -4 275.79 5.59 0
 -3 -8 -3 37.9 2.09 0
 -3 -8 -2 240.04 3.99 0
 -3 -8 -1 291.69 3.5 0
 -3 -8 2 236.78 2.56 0
 -3 -8 3 36.6 1.52 0
 -3 -8 4 283.69 4.58 0
 -3 -7 -7 15.95 2.21 0
 -3 -7 -6 53.07 3.25 0
 -3 -7 -5 43.02 2.57 0
 -3 -7 -4 16.51 1.64 0
 -3 -7 -3 100.71 2.83 0
 -3 -7 -2 198.76 3.13 0
 -2 -10 -7 9.22 2.57 0
 -2 -9 -8 49.14 3.92 0
 -2 -9 -6 131.54 5.44 0
 -2 -8 -9 109.62 5.92 0
 -2 -8 -8 115.98 5.67 0
 -2 -8 -7 253.02 7.4 0
 -2 -8 -6 170.58 5.97 0
 -2 -7 -9 154.56 6.6 0
 -2 -7 -6 41.75 3.08 0
 -2 -7 -5 32.78 2.54 0
 -2 -7 5 31.72 2.45 0
 -2 -7 6 38.26 2.9 0
 -2 -7 7 207.66 6.17 0
 -2 -7 8 203.42 6.28 0
 -2 -7 9 143.33 5.79 0
 -2 -7 10 9.15 2.34 0
 -2 -6 -10 58.75 4.38 0
 -2 -6 -9 116.43 5.6 0
 -2 -6 -7 51.93 3.83 0
 -2 -6 -6 478.74 8.96 0
 -2 -6 -5 277.99 6.36 0
 -2 -6 -4 28.96 2.42 0
 -2 -6 4 27.77 2.03 0
 -2 -6 5 287.35 5.94 0
 -2 -6 6 470.53 8.24 0
 -2 -6 7 46.38 2.96 0
 -2 -6 8 36.04 3.02 0
 -2 -6 9 105.15 4.85 0
 -2 -5 -10 322.75 9.38 0
 -2 -5 -9 38.67 3.8 0
 -2 -5 -8 301.99 7.86 0
 -2 -5 -7 486.77 9.56 0
 -2 -5 -6 21.41 2.56 0
 -2 -5 -5 338.91 6.83 0
 -2 -5 -4 118.92 3.78 0
 -2 -5 -3 290.76 5.06 0
 -2 -5 3 297.87 4.54 0
 -2 -5 4 120.45 3.45 0
 -2 -5 5 333.55 6.13 0
 -2 -5 6 23.73 2.2 0
 -2 -5 7 470.06 8.63 0
 -2 -5 8 285.93 7.26 0
 -2 -4 -9 0.01 1.61 0
 -2 -4 -8 225.4 6.84 0
 -2 -4 -7 103.09 4.36 0
 -2 -4 -5 401.95 7.07 0
 -2 -4 -4 1013.33 10.19 0
 -2 -4 -3 706.09 7.44 0
 -2 -4 -2 17.55 1.23 0
 -2 -4 -1 28.84 1.14 0
 -2 -4 2 18.49 1.05 0
 -2 -4 3 708.79 6.51 0
 -2 -4 4 1034.72 9.2 0
 -2 -4 5 400.87 6.53 0
 -2 -3 -4 1869.81 13.32 0
 -1 -7 -9 57.31 4.71 0
 -1 -7 -8 85.74 4.89 0
 -1 -6 -9 159.65 6.5 0
 -1 -6 10 11.04 2.67 0
 -1 -5 -10 23.21 3.42 0
 -1 -5 -9 252.36 7.91 0
 -1 -5 -8 317.52 8.4 0
 -1 -5 -7 535.02 10.29 0
 -1 -5 6 53.26 3.25 0
 -1 -5 7 528.84 9.54 0
 -1 -5 8 333.16 8.24 0
 -1 -5 9 266.78 7.69 0
 -1 -5 10 20.98 3.24 0
 -1 -4 -10 364.04 9.91 0
 -1 -4 -9 546.09 11.53 0
 -1 -4 -8 1032.19 14.63 0
 -1 -4 -6 536.9 9.22 0
 -1 -4 5 105.96 3.74 0
 -1 -4 6 569.52 9.05 0
 -1 -4 7 402.67 8.26 0
 -1 -4 8 1009.11 13.73 0
 -1 -4 9 543.69 10.66 0
 -1 -4 10 359.65 9.28 0
 -1 -3 -11 200.46 7.77 0
 -1 -3 -10 215.33 7.64 0
 -1 -3 -9 336.05 8.69 0
 -1 -3 -7 730.32 11.33 0
 -1 -3 -6 601.9 9.46 0
 -1 -3 -5 395.97 7.18 0
 -1 -3 -4 276.59 5.43 0
 -1 -3 4 281.28 5.09 0
 -1 -3 5 405.27 6.91 0
 -1 -3 6 619.85 9.18 0
 -1 -3 7 711.75 10.63 0
 -1 -3 8 83.54 4.25 0
 -1 -3 9 348.08 8.64 0
 -1 -2 -9 99.95 5.24 0
 -1 -2 -7 352.79 7.75 0
 -1 -2 -6 944.24 11.63 0
 -1 -2 -4 1702.22 12.72 0
 -1 -2 -2 3915.8 14.11 0
 -1 -2 2 3970.42 12.8 0
 -1 -2 4 1700.29 12.02 0
 -1 -2 6 939.32 11.23 0
 -1 -2 7 338.93 7.35 0
 -1 -1 -5 2366.48 16.54 0
 -1 -1 -4 623.14 7.77 0
 -1 -1 -3 9621.65 25.79 0
 0 -6 9 -1.36 1.76 0
 0 -5 -9 393.7 10.15 0
 0 -5 10 50.37 4.59 0
 0 -4 -10 155.59 6.84 0
 0 -4 -9 123.07 5.73 0
 0 -4 -8 197.11 6.69 0
 0 -4 8 201.25 6.49 0
 0 -4 9 126.84 5.68 0
 0 -3 -10 40.36 4.24 0
 0 -3 -9 -0.88 1.64 0
 0 -3 -8 178.7 6.42 0
 0 -3 -7 5.24 2.13 0
 0 -3 6 61.07 3.49 0
 0 -3 8 189.63 6.43 0
 0 -3 9 1.15 1.81 0
 0 -2 -8 311.81 7.98 0
 0 -2 -7 217.98 6.19 0
 0 -2 -6 5.58 1.79 0
 0 -2 6 5.65 1.72 0
 0 -2 7 233.03 6.39 0
 0 -2 8 293.09 7.46 0
 0 -2 9 14.44 2.56 0
 0 -2 10 137.3 5.96 0
 0 -1 -10 13.98 2.86 0
 0 -1 -9 45.87 3.69 0
 0 -1 -8 16.52 2.58 0
 0 -1 -7 212.64 6.14 0
 0 -1 -6 271.66 6.32 0
 0 -1 -5 2183.83 15.86 0
 0 -1 -4 24.98 1.86 0
 0 -1 3 14.03 1.57 0
 0 -1 5 2219.65 15.9 0
 0 -1 7 208.3 5.86 0
 0 0 -8 4673.32 28.77 0
 0 0 -7 0.26 1.3 0
 0 0 -6 280.85 6.23 0
 0 0 -5 -0.11 1.37 0
 0 0 -4 2032.79 13.53 0
 0 0 -3 0.71 0.87 0
 0 0 -2 66.67 1.88 0
 0 0 2 63.6 1.8 0
 0 0 3 -0.65 0.96 0
 0 0 4 2046.35 13.58 0
 0 0 5 0.55 1.09 0
 1 -4 -10 355.06 10.33 0
 1 -4 9 535.34 11.49 0
 1 -4 10 352.59 9.95 0
 1 -3 -10 219.8 7.78 0
 1 -3 -9 337.49 9.09 0
 1 -3 9 349.26 9.15 0
 1 -3 10 211.97 7.56 0
 1 -2 -11 249.86 8.77 0
 1 -2 -10 664.84 13.31 0
 1 -2 -9 96.25 4.96 0
 1 -2 -8 92.42 4.65 0
 1 -2 9 100.78 5.02 0
 1 -2 10 641.53 12.67 0
 1 -2 11 250.06 8.37 0
 1 -1 -11 240.29 8.27 0
 1 -1 -10 160.26 6.67 0
 1 -1 -6 368.88 7.59 0
 1 -1 5 2322.6 16.9 0
 1 -1 6 383.13 7.5 0
 1 -1 10 144.93 6.35 0
 1 -1 11 222.44 7.86 0
 1 0 -11 -0.23 2.1 0
 1 0 -10 40.69 3.68 0
 1 0 -9 304.55 8.15 0
 1 0 -6 39.08 2.61 0
 1 0 -5 1516.29 13.18 0
 1 0 -4 436 6.51 0
 1 0 4 453.94 6.67 0
 1 0 6 36.2 2.97 0
 1 0 9 300.19 8.1 0
 1 1 -8 73.44 4.01 0
 1 1 -6 367.39 7.12 0
 1 1 -5 2368.52 16.04 0
 1 1 -4 634.35 7.58 0
 1 1 -3 9544.13 24.73 0
 1 1 -2 203.85 3.02 0
 1 1 1 1018.95 5.15 0
 1 1 2 198.71 3.18 0
 1 1 3 9757.06 25.83 0
 1 1 4 628.44 7.69 0
 1 1 5 2386.39 16.52 0
 2 -3 -10 82.82 5.66 0
 2 -3 9 92.82 5.36 0
 2 -3 10 79 5.09 0
 2 -2 -9 146.04 6.37 0
 2 -2 8 228 7.19 0
 2 -2 9 154.57 6.26 0
 2 -2 10 326.88 9.44 0
 2 -1 -9 119.06 5.46 0
 2 -1 -8 176.87 6.13 0
 2 -1 8 182.01 6.28 0
 2 -1 9 114.81 5.42 0
 2 -1 10 505.71 11.43 0
 2 0 -11 -1.18 1.95 0
 2 0 -7 401.36 8.32 0
 2 0 -6 775.43 10.68 0
 2 0 5 58.48 3.01 0
 2 0 8 1.01 2.11 0
 2 0 9 508.7 10.56 0
 2 0 11 0.43 2.4 0
 2 1 -10 538.73 11.3 0
 2 1 -9 119.92 5.38 0
 2 1 -8 183.14 5.95 0
 2 1 -7 334.87 7.46 0
 2 1 -6 471.88 8.14 0
 2 1 -5 508.88 7.62 0
 2 1 -4 365.03 5.87 0
 2 1 8 177.71 6.12 0
 2 1 9 123.57 5.57 0
 2 2 -7 72.33 3.52 0
 2 2 -6 40.82 2.65 0
 2 2 -5 124.66 3.71 0
 2 2 -4 1042.07 9.24 0
 2 2 -2 1729.84 7.92 0
 2 2 2 1752.27 9.25 0
 2 2 3 285.6 4.63 0
 2 2 4 1036.88 10 0
 3 -2 9 116.32 5.69 0
 3 -1 -10 92.96 5.28 0
 3 -1 -9 13.1 2.64 0
 3 -1 7 1428.42 16.43 0
 3 -1 8 241.86 7.52 0
 3 -1 9 10.98 2.77 0
 3 -1 10 91.73 5.48 0
 3 0 -10 38.8 4.4 0
 3 0 -9 31.1 3.25 0
 3 0 -7 109.02 4.62 0
 3 0 6 270.75 6.78 0
 3 0 7 108.94 4.81 0
 3 0 8 217.38 7.11 0
 3 0 9 28.05 3.31 0
 3 0 10 39.72 4.13 0
 3 1 -11 152.22 7.01 0
 3 1 -10 92.09 5.01 0
 3 1 -9 15.4 2.56 0
 3 1 -7 1427.25 15.38 0
 3 1 -6 607.22 9.35 0
 3 1 -5 426.17 7.23 0
 3 1 4 48.86 2.53 0
 3 1 6 637.27 10 0
 3 1 9 11.4 2.87 0
 3 1 10 98.59 5.42 0
 3 2 -9 119.38 5.32 0
 3 2 -8 181.43 5.91 0
 3 2 -7 22.01 2.17 0
 3 2 -6 125.7 4.24 0
 3 2 -5 515.32 7.59 0
 3 2 2 594.23 5.93 0
 3 2 4 661.78 8.17 0
 3 2 6 128.83 4.45 0
 3 2 7 19.1 2.29 0
 4 -1 -9 181.79 7.08 0
 4 -1 8 123.9 5.59 0
 4 -1 9 185.59 7.1 0
 4 0 -10 169.05 7.08 0
 4 0 -9 1.85 1.83 0
 4 0 -8 17.96 2.75 0
 4 0 6 49.65 3.3 0
 4 0 7 157.13 5.87 0
 4 0 8 15.35 2.66 0
 4 0 9 0.48 1.9 0
 4 1 -10 41.46 3.71 0
 4 1 -9 177.82 6.47 0
 4 1 -8 128.99 5.39 0
 4 1 -6 517.19 8.98 0
 4 1 7 135.65 5.26 0
 4 1 8 131.66 5.67 0
 4 1 9 169.24 6.68 0
 4 2 -8 82.12 4.1 0
 4 2 -7 186.8 5.6 0
 4 2 -6 124.85 4.33 0
 4 2 -3 425.99 5.62 0
 4 2 2 32.16 1.69 0
 4 2 3 436.36 6.39 0
 4 2 5 387.61 7.19 0
 4 2 7 188 5.98 0
 4 2 8 73.95 4.16 0
 5 -1 8 5.15 2.14 0
 5 0 -8 75.2 4.55 0
 5 0 6 22.32 2.81 0
 5 0 8 85.48 5.04 0
 5 1 -9 4.48 2.01 0
 5 1 -8 8.37 2.01 0
 5 1 -7 66.82 3.82 0
 5 1 -6 40.2 2.77 0
 5 1 5 13.75 1.96 0
 5 1 6 43.27 3.14 0
 5 1 7 69.75 4.08 0
 5 1 8 5.14 1.83 0
 5 1 9 4.44 2.09 0
 5 2 -7 111.56 4.39 0
 5 2 -5 101.09 3.57 0
 5 2 -4 1000.17 9.73 0
 5 2 3 265.71 5.24 0
 5 2 4 1059.62 11.44 0
 5 2 5 105.12 4.04 0
 5 2 6 29.79 2.56 0
 5 2 7 112.34 4.78 0
 5 2 8 323.26 8.27 0
 6 0 -7 452.85 9.92 0
 -1 -2 7 351.64 6.33 0
 -1 -2 8 98.95 3.81 0
 -1 -2 9 102.47 4.26 0
 -1 -2 10 637.67 10.72 0
 -1 -1 6 386.13 6.69 0
 -1 -1 7 162.34 4.89 0
 -1 -1 9 100.97 4.74 0
 -1 -1 10 154.43 6.01 0
 -1 -1 11 235.76 7.67 0
 -1 0 6 39.14 2.64 0
 -1 0 8 226.87 6.74 0
 -1 0 9 300.1 8.12 0
 -1 0 10 40.14 3.95 0
 -1 0 11 -0.6 2.33 0
 -1 1 6 387.17 7.94 0
 -1 1 10 146.5 6.38 0
 -1 2 7 356.63 8.69 0
 -1 2 9 97.87 5.32 0
 -1 2 10 631.42 13.25 0
 0 -8 0 441.85 9.36 0
 0 -8 1 78.77 3.84 0
 0 -8 3 441.47 7.4 0
 0 -8 4 169.84 4.24 0
 0 -8 5 519.27 6.37 0
 0 -8 6 402.18 4.55 0
 0 -7 0 -1.32 1.77 0
 0 -7 1 411.97 7.84 0
 0 -7 2 3.81 1.51 0
 0 -7 3 68.38 2.92 0
 0 -7 4 93.42 3.04 0
 0 -7 5 129.42 3.15 0
 0 -6 -2 66.6 4.06 0
 0 -6 -1 999.86 12.8 0
 0 -6 1 992.51 11.03 0
 0 -6 2 68.25 2.9 0
 0 -6 3 236.06 4.61 0
 0 -6 9 -0.18 0.78 0
 0 -5 -2 535.64 9.37 0
 0 -5 -1 754.43 10.33 0
 0 -5 0 0.52 1.2 0
 0 -5 1 764.61 8.77 0
 0 -5 2 513.79 6.46 0
 0 -4 -1 285.9 5.87 0
 0 -4 0 374.93 6.12 0
 0 -3 -2 668.95 8.72 0
 0 -3 0 1.13 1.29 0
 0 -3 12 -0.22 1.52 0
 0 -2 -2 426.15 6.4 0
 0 -2 -1 509.01 5.89 0
 0 -2 0 4598.27 14.44 0
 0 -2 9 13.01 2.62 0
 0 -1 9 44.52 3.81 0
 0 -1 10 14.58 2.62 0
 0 -1 11 6.9 2.47 0
 0 -1 12 3.19 2.47 0
 0 0 7 1.85 1.68 0
 0 0 8 4770.56 30.36 0
 0 0 9 1.09 2.02 0
 0 0 10 213.11 7.51 0
 0 0 13 -1.5 2.17 0
 0 1 1 761.74 5.78 0
 0 1 2 630.17 6.63 0
 0 1 3 11.92 1.67 0
 0 1 4 23.86 2.48 0
 0 1 5 2135.8 17.27 0
 0 1 6 280.5 7.07 0
 0 1 7 212.68 6.53 0
 0 1 9 39.06 3.64 0
 0 1 10 16.55 3.18 0
 0 1 12 1.17 2.52 0
 0 2 2 411.59 6.16 0
 0 2 3 985.19 10.62 0
 0 2 4 1461.06 14.26 0
 0 2 5 258.75 6.64 0
 0 2 6 6.18 2.18 0
 0 2 8 301.81 8.85 0
 0 2 9 17.13 3.19 0
 0 2 10 136.21 6.82 0
 0 2 12 153.79 7.96 0
 0 3 1 1216.09 10.24 0
 0 3 3 2682.41 18.86 0
 0 3 4 1245.91 14.2 0
 0 3 5 1640.52 17.41 0
 0 3 7 7.09 2.55 0
 0 3 8 183.31 7.48 0
 0 3 10 37.11 4.51 0
 0 4 2 664.54 9.43 0
 0 4 3 385.23 7.96 0
 0 4 4 733.81 11.84 0
 0 4 5 443.34 9.64 0
 0 4 9 130.45 7.22 0
 0 4 10 154.83 7.89 0
 0 5 6 1530.83 19.93 0
 0 5 7 31.11 3.67 0
 0 5 8 115.58 6.33 0
 0 5 9 378.42 11.65 0
 0 6 5 0.85 2.34 0
 0 6 6 654.29 13.45 0
 0 6 7 406.78 11.33 0
 0 6 8 123.43 7.19 0
 0 6 9 -0.42 2.77 0
 1 -11 -1 7.25 2.94 0
 1 -11 0 2.26 2.54 0
 1 -11 1 6.39 2.84 0
 1 -11 2 84.83 5.11 0
 1 -11 3 24.73 3.29 0
 1 -10 -2 271.78 9.75 0
 1 -10 0 2.23 2.18 0
 1 -10 1 183.98 7.33 0
 1 -10 2 279.14 8.38 0
 1 -10 3 518.87 10.72 0
 1 -10 4 122.74 5.27 0
 1 -9 -4 304.59 10.62 0
 1 -9 -3 473.13 12.51 0
 1 -9 -2 53.76 4.65 0
 1 -9 0 976.52 15.76 0
 1 -9 1 312.07 8.76 0
 1 -9 2 63.42 4.4 0
 1 -9 3 490.12 10.06 0
 1 -9 4 299.61 7.48 0
 1 -8 -4 10 3.2 0
 1 -8 -2 217.68 8.19 0
 1 -8 -1 41.53 3.84 0
 1 -8 0 546.92 11.43 0
 1 -8 1 43.37 3.51 0
 1 -7 -5 513.53 12.57 0
 1 -7 -4 832.4 15.49 0
 1 -7 -3 2.47 2.4 0
 1 -7 -2 40.65 3.71 0
 1 -7 -1 159.99 6.13 0
 1 -7 0 136.17 5.65 0
 1 -6 -5 68.44 5 0
 1 -6 -3 23.29 3.32 0
 1 -6 -2 147.01 5.98 0
 1 -6 -1 547.87 10.36 0
 1 -5 -6 50.07 4.36 0
 1 -5 -4 184.99 7.07 0
 1 -5 -3 1869.46 19.5 0
 1 -5 -2 693.42 11.45 0
 1 -4 -6 552.29 11.81 0
 1 -4 -5 112.77 5.42 0
 1 -4 -4 64.88 4.02 0
 1 -4 -2 1661.64 16.07 0
 1 -3 -6 617.3 11.66 0
 1 -3 -3 819.19 11.5 0
 1 -2 -6 915.79 13.52 0
 1 -2 -5 128.43 5.15 0
 1 -2 -4 1716.36 15.98 0
 1 -2 -3 479.21 7.93 0
 1 -1 -5 2309.04 18.18 0
 1 -1 -4 642.13 9.19 0
 1 -1 -3 9808.39 31.52 0
 1 0 -5 1570.04 13.89 0
 1 0 -4 454.62 6.9 0
 1 0 -3 1241.39 9.93 0
 1 1 -4 623.32 6.87 0
 1 1 12 31.52 5.01 0
 1 2 10 648.85 14.46 0
 1 2 11 256.52 9.82 0
 1 3 9 337.11 10.23 0
 1 3 10 218.98 8.83 0
 1 3 11 185.31 8.67 0
 1 4 -1 633.91 6.12 0
 1 4 0 716.01 7.87 0
 1 4 1 637.8 8.52 0
 1 4 2 1672.96 15.27 0
 1 4 9 522.57 13.01 0
 1 5 0 402.04 6.59 0
 1 5 1 93.03 3.66 0
 1 5 2 711.13 10.58 0
 1 5 3 1909.71 18.6 0
 1 5 7 518.86 12.45 0
 1 5 8 320.1 10.56 0
 1 6 1 537.13 9.04 0
 1 6 4 196.95 7.14 0
 1 6 5 69.44 4.79 0
 1 6 6 77.39 5.36 0
 1 6 7 96.59 6.03 0
 1 6 8 410.27 12.18 0
 1 7 2 40.59 3.14 0
 1 7 3 0.82 1.81 0
 1 7 4 840.81 14.67 0
 1 7 5 510.99 11.99 0
 1 8 5 199.11 7.96 0
 1 8 6 24.67 3.9 0
 2 -11 1 90.29 5.99 0
 2 -11 2 40.92 4.58 0
 2 -11 3 83.04 5.7 0
 2 -10 -1 54.55 5.46 0
 2 -10 0 1.61 3.1 0
 2 -10 1 53.6 5.09 0
 2 -10 2 260.67 8.79 0
 2 -9 -3 220.57 9.53 0
 2 -9 -1 48.45 4.71 0
 2 -9 0 189.65 7.98 0
 2 -8 -5 110.41 7.06 0
 2 -8 -4 156.75 8.2 0
 2 -8 -3 139.81 7.18 0
 2 -8 -1 476.46 11.81 0
 2 -7 -6 35.13 5.19 0
 2 -7 -4 417.51 11.7 0
 2 -7 -2 158.29 7.1 0
 2 -6 -7 47.98 5.67 0
 2 -6 -6 454.84 12.76 0
 2 -6 -5 282.64 9.69 0
 2 -6 -4 25.58 3.72 0
 2 -6 -3 653.81 13.21 0
 2 -5 -8 295.38 10.56 0
 2 -5 -5 328.38 9.71 0
 2 -5 -4 121.68 5.84 0
 2 -4 -6 243.7 8.6 0
 2 -4 -5 382.68 10.06 0
 2 -3 -8 11.1 3.04 0
 2 -3 -7 623.17 12.96 0
 2 -3 -5 316.62 8.51 0
 2 -2 -6 34.9 3.91 0
 2 -1 -8 178.14 6.9 0
 2 -1 -6 477.31 9.68 0
 2 -1 -5 516.92 9.37 0
 2 0 -7 418.06 8.89 0
 2 0 -6 813.31 11.58 0
 2 0 -5 54.82 3.37 0
 2 1 -6 470.49 8.19 0
 2 1 -5 515.81 7.93 0
 2 3 -5 330.39 4.47 0
 2 5 -2 311.85 4.57 0
 2 6 -2 299.05 4.52 0
 2 6 0 374.08 7.09 0
 2 6 5 278.8 9 0
 2 6 6 453.08 11.66 0
 2 6 7 49.67 4.76 0
 2 6 8 40.88 5.1 0
 2 7 -1 366.96 6.44 0
 2 7 1 347.62 7.97 0
 2 7 2 160.06 5.91 0
 2 7 3 49.7 3.88 0
 2 7 4 412.71 10.45 0
 2 7 5 36.92 3.94 0
 2 7 6 35.05 4.36 0
 2 8 0 9.22 1.84 0
 2 8 2 428.82 9.9 0
 2 8 3 133.67 6.29 0
 2 8 4 155.78 7.21 0
 2 8 5 118.55 6.7 0
 2 8 6 177.34 8.45 0
 2 9 2 95.73 5.16 0
 2 9 3 229.86 7.95 0
 2 9 4 54.4 4.96 0
 2 9 5 534.42 13.38 0
 3 -7 -4 16.86 3.78 0
 3 -6 -6 443 13.2 0
 3 -6 -5 291.28 10.23 0
 3 -5 -7 10.59 3.39 0
 3 -5 -5 355.8 10.65 0
 3 -4 -8 250.98 9.95 0
 3 -4 -6 37.25 4.44 0
 3 -3 -9 51.62 4.97 0
 3 -3 -8 130.55 6.93 0
 3 -3 -7 722.47 14.68 0
 3 -3 -6 458.97 11.26 0
 3 -2 -10 62.38 5.64 0
 3 -2 -9 120.26 6.89 0
 3 -2 -8 175.33 7.48 0
 3 -1 -9 9.61 3.22 0
 3 -1 -8 252.93 8.59 0
 3 -1 -7 1390.06 18.3 0
 3 -1 -6 595.64 11.5 0
 3 0 -8 209.85 7.19 0
 3 0 -7 113.45 5.22 0
 3 1 -8 252.5 7.32 0
 3 1 -6 618.86 10.17 0
 3 2 -7 20.07 2.34 0
 3 3 -7 745.16 9.47 0
 3 3 -6 463.08 7.27 0
 3 4 -6 36.17 1.77 0
 3 8 -1 290.46 6.39 0
 3 8 0 17.21 2.29 0
 3 8 1 289.12 7.84 0
 3 8 2 235.13 7.63 0
 3 8 3 40.21 3.91 0
 3 8 5 88.69 5.97 0
 3 9 1 28.45 3.07 0
 3 9 3 38.26 4.08 0
 3 10 3 7.41 2.33 0
 3 10 4 9.06 2.99 0
 4 -3 -8 2.29 3.29 0
 4 -2 -9 65.78 5.99 0
 4 -2 -7 187.61 7.82 0
 4 -1 -10 47.28 5.53 0
 4 -1 -9 166.39 7.77 0
 4 -1 -8 129.58 6.63 0
 4 0 -9 1.9 2.18 0
 4 0 -8 14.23 3.2 0
 4 0 -7 161.85 6.75 0
 4 1 -10 44.74 4.1 0
 4 2 -9 57.99 4.01 0
 4 2 -8 78.94 4.46 0
 4 2 -7 174.82 6.02 0
 4 4 -7 22.02 1.92 0
 4 5 -6 0.35 0.59 0
 4 9 3 9.72 2.93 0
 5 0 -9 377.6 11.13 0
 5 0 -8 70.48 5.21 0
 5 1 -10 56.52 4.7 0
 5 1 -9 6 2.79 0
 5 1 -8 9.01 2.82 0
 5 2 -9 152.24 6.44 0
 5 2 -8 326.44 9.16 0
 -3 2 7 21.12 3.43 0
 -3 3 7 754.77 15.01 0
 -3 3 8 130.41 6.82 0
 -3 4 3 54.56 3.99 0
 -3 4 4 485.33 11.1 0
 -3 4 5 54.57 4.44 0
 -3 4 7 606.28 13.83 0
 -3 4 8 243.66 9.52 0
 -3 5 4 186.83 7.58 0
 -3 5 5 359.61 10.32 0
 -3 5 6 13.09 3.26 0
 -3 5 7 9.61 3.26 0
 -3 6 2 788.49 13.73 0
 -3 6 3 243.15 8.16 0
 -3 6 4 333.93 9.92 0
 -3 6 5 276.61 9.46 0
 -3 7 1 322.26 8.7 0
 -3 7 2 203.3 7.54 0
 -3 7 3 100.08 6.11 0
 -3 7 5 42.99 4.56 0
 -3 8 1 290.14 8.58 0
 -3 8 2 230.19 8.32 0
 -3 8 3 35.11 4.28 0
 -3 8 4 280.84 9.75 0
 -3 9 1 23.89 3.48 0
 -3 9 2 36.83 4.19 0
 -2 0 6 806.28 12.41 0
 -2 0 8 1.45 1.88 0
 -2 0 9 499.07 11.22 0
 -2 0 10 51.84 4.61 0
 -2 0 11 -0.53 1.82 0
 -2 0 12 231.14 8.68 0
 -2 1 4 358.1 8.11 0
 -2 1 5 524.33 10.07 0
 -2 1 6 462 9.75 0
 -2 1 9 126.62 6.18 0
 -2 1 10 514.5 12.38 0
 -2 2 4 1011.03 13.58 0
 -2 2 7 72.92 4.66 0
 -2 2 8 228.41 7.99 0
 -2 2 9 147.9 6.83 0
 -2 2 10 315.3 10.09 0
 -2 2 11 72.48 6.07 0
 -2 3 1 1067.51 12.1 0
 -2 3 4 1810.79 18.87 0
 -2 3 7 638.78 13.08 0
 -2 3 9 92.68 5.8 0
 -2 4 0 144.71 4.55 0
 -2 4 1 30.29 2.96 0
 -2 4 2 16.38 2.39 0
 -2 4 3 691.06 11.59 0
 -2 4 9 -0.78 2.35 0
 -2 5 0 32.65 2.47 0
 -2 5 1 448.64 8.92 0
 -2 5 5 331.33 9.28 0
 -2 5 6 24.97 3.92 0
 -2 6 -1 52.92 3.1 0
 -2 6 2 276.9 7.63 0
 -2 6 3 636.76 12.18 0
 -2 6 5 272.05 9.11 0
 -2 6 6 471.95 12.13 0
 -2 6 7 44.92 5.05 0
 -2 6 8 38.11 4.89 0
 -2 7 0 496.89 9.45 0
 -2 7 1 347.77 8.45 0
 -2 7 2 167.09 6.29 0
 -2 7 4 413.2 10.93 0
 -2 7 5 35.86 4.13 0
 -2 7 7 203.97 8.87 0
 -2 8 -1 469.06 8.89 0
 -2 8 0 7.61 1.89 0
 -2 8 1 494.34 10.57 0
 -2 8 2 430.22 10.42 0
 -2 8 5 117.34 6.71 0
 -2 9 -2 100.4 4.08 0
 -2 9 -1 45.89 3.31 0
 -2 9 1 55.3 4.32 0
 -2 9 2 93.94 5.26 0
 -2 9 4 58.5 4.96 0
 -2 10 0 0.94 1.51 0
 -2 10 3 40.99 4.28 0
 -2 11 2 44.23 4.45 0
 -1 -2 8 91.88 3.91 0
 -1 -2 9 103.49 4.47 0
 -1 -2 10 660.89 11.21 0
 -1 -2 11 247.87 7.32 0
 -1 -2 12 3.12 2.12 0
 -1 -1 4 623.62 7.76 0
 -1 -1 5 2260.53 15.96 0
 -1 -1 8 71.42 3.95 0
 -1 -1 10 154.5 5.91 0
 -1 -1 11 228.33 7.37 0
 -1 -1 14 8.61 2.8 0
 -1 0 2 818.88 7.84 0
 -1 0 3 1303.4 11.04 0
 -1 0 5 1594.03 14.4 0
 -1 0 6 42.47 3.04 0
 -1 0 7 457.8 8.85 0
 -1 0 9 302.71 8.15 0
 -1 0 10 36.79 3.64 0
 -1 0 11 1.05 1.82 0
 -1 0 12 94.53 5.63 0
 -1 1 1 1006.82 8.43 0
 -1 1 3 9841.97 32.02 0
 -1 1 4 641.19 9.17 0
 -1 1 5 2335.67 18.51 0
 -1 1 7 161.98 5.81 0
 -1 1 8 69.46 4.49 0
 -1 1 9 105.52 5.49 0
 -1 1 10 153.37 6.41 0
 -1 1 12 30.94 3.84 0
 -1 1 13 82.48 5.47 0
 -1 2 0 152.44 3.28 0
 -1 2 1 3266.43 16.31 0
 -1 2 12 0.86 2.13 0
 -1 3 -1 1084.2 8.07 0
 -1 3 0 59.68 2.28 0
 -1 4 -2 1670.32 9.29 0
 -1 4 -1 618.22 6.81 0
 -1 5 -2 713.83 7.07 0
 -1 6 -3 19.9 1.27 0
 -1 6 -2 151.09 3.71 0
 -1 7 -3 1.12 0.76 0
 -1 7 -2 39.86 2.3 0
 -1 9 -2 55.76 3.03 0
 0 -3 8 181.19 4.15 0
 0 -3 9 1.76 1 0
 0 -3 10 39.58 2.64 0
 0 -3 11 377.54 7.44 0
 0 -3 12 -0.29 1.2 0
 0 -2 4 1452.17 7.71 0
 0 -2 5 255 4.01 0
 0 -2 6 4.97 1.04 0
 0 -2 7 225.7 4.81 0
 0 -2 8 295.64 6.1 0
 0 -2 9 13.77 2 0
 0 -2 10 129.97 4.86 0
 0 -2 11 164.59 5.71 0
 0 -2 13 130.25 5.54 0
 0 -1 10 14.77 2.32 0
 0 -1 11 5.3 2.15 0
 0 -1 12 2.82 1.78 0
 0 -1 13 78.06 4.88 0
 0 0 13 0.91 1.75 0
 1 -3 9 345.91 5.79 0
 1 -3 10 208.31 4.84 0
 1 -3 11 193.97 5.05 0
 1 -3 12 180.83 5.17 0
 1 -2 1 3317.49 12.95 0
 1 -2 13 56.58 3.82 0
 1 -1 14 15.91 2.88 0
 1 0 -3 1247.9 10.9 0
 1 0 -2 804.22 7.97 0
 1 1 -4 635.58 8.16 0
 1 1 -3 9632.85 28.52 0
 1 2 -4 1704.6 12.53 0
 1 3 -4 282.54 5.07 0
 1 5 -6 52.41 2.37 0
 1 6 -6 86.34 2.85 0
 1 7 -6 35.8 1.91 0
 1 8 -6 22.96 1.57 0
 2 -4 3 717.98 7.73 0
 2 -4 4 1003.82 8.35 0
 2 -4 6 253.58 3.68 0
 2 -4 11 14.68 1.38 0
 2 -3 1 1030.06 10.73 0
 2 -3 2 1190.97 10.73 0
 2 -2 -2 1755.65 15.91 0
 2 -2 -1 604.52 9.08 0
 2 -2 0 1166.22 11.6 0
 2 -1 -1 2536.13 17.6 0
 2 0 -5 57.43 3.6 0
 2 0 -4 1876.4 17.24 0
 2 0 -3 1614.47 15.35 0
 2 1 -5 523.65 9.73 0
 2 1 -4 363.15 7.86 0
 2 1 -3 829.52 10.77 0
 2 2 -6 41.53 3.48 0
 2 2 -5 120.32 4.88 0
 2 2 -4 1020.7 12.31 0
 2 3 -7 629.99 10.73 0
 2 3 -6 195.99 5.97 0
 2 3 -5 335.41 7.45 0
 2 4 -7 109.52 4.56 0
 2 4 -5 404.01 8.03 0
 2 5 -7 457.02 8.76 0
 2 5 -6 23.74 2.57 0
 2 6 -6 459.23 8.58 0
 2 7 -8 193.38 5.46 0
 2 8 -7 259.28 6.29 0
 3 -5 3 60.21 3.25 0
 3 -5 4 188.65 5.09 0
 3 -5 5 369.2 6.42 0
 3 -5 6 15.42 1.78 0
 3 -5 7 13.31 1.55 0
 3 -4 1 997.19 12.98 0
 3 -4 3 57.07 3.21 0
 3 -4 5 52.56 2.8 0
 3 -3 -2 86.13 4.9 0
 3 -3 0 1011.01 13.63 0
 3 -3 1 525.12 9.54 0
 3 -2 -4 665.82 12.83 0
 3 -2 -2 575.92 11.01 0
 3 -2 -1 94.14 4.49 0
 3 -2 0 584.62 10.28 0
 3 -1 -5 430.59 10.47 0
 3 -1 -4 47.66 3.97 0
 3 -1 -2 1728.12 18.2 0
 3 0 -6 265.04 8.67 0
 3 0 -5 296.23 8.41 0
 3 0 -4 -0.18 2 0
 3 0 -3 205.66 6.72 0
 3 1 -7 1417.28 19.29 0
 3 1 -6 604.28 12.06 0
 3 2 -7 20.99 3.17 0
 3 2 -6 126.53 6.03 0
 3 2 -5 502 10.7 0
 3 3 -6 443.65 10.15 0
 3 3 -5 182.16 6.5 0
 3 4 -8 235.55 7.72 0
 3 4 -7 588.51 11.91 0
 3 5 -8 227.43 7.61 0
 3 5 -7 11.16 2.47 0
 3 5 -6 12.32 2.65 0
 3 6 -9 120.35 5.77 0
 3 6 -8 52.46 4.15 0
 3 6 -7 144 6.11 0
 3 7 -8 26.91 3.34 0
 3 7 -7 17.63 2.66 0
 3 8 -7 5.41 1.87 0
 4 -5 1 218.14 7.4 0
 4 -5 3 32.67 3.07 0
 4 -5 4 249.57 7.11 0
 4 -5 5 6.42 2.02 0
 4 -5 6 1.44 1.43 0
 4 -5 7 22.71 2.47 0
 4 -5 8 53.04 3.09 0
 4 -4 -2 129.45 6.52 0
 4 -4 -1 -0.72 2.09 0
 4 -4 0 1086.59 16.33 0
 4 -4 3 137.28 5.68 0
 4 -4 5 680.91 11.38 0
 4 -3 -3 87.73 5.54 0
 4 -3 -2 20.98 3.81 0
 4 -3 2 26.35 3.13 0
 4 -2 -5 370.86 11.15 0
 4 -2 -4 679.21 14.31 0
 4 -2 -3 444.47 11.31 0
 4 -2 -1 592.89 12.28 0
 4 -1 -6 512.98 13.01 0
 4 -1 -4 102.39 5.9 0
 4 -1 -3 177.2 7.49 0
 4 -1 -2 25.89 3.46 0
 4 -1 -1 1076.69 16.41 0
 4 0 -7 160.96 8.08 0
 4 0 -6 49.06 4.64 0
 4 0 -4 10.45 3.12 0
 4 1 -7 128.56 6.8 0
 4 1 -6 507.9 12.45 0
 4 1 -5 319.98 10.01 0
 4 2 -8 78.88 5.87 0
 4 2 -7 178.31 8.15 0
 4 2 -6 123.56 6.52 0
 4 2 -5 366.49 10.65 0
 4 2 -4 661.36 13.63 0
 4 3 -8 0.13 2.34 0
 4 3 -7 13.63 3.36 0
 4 3 -6 77.66 5.59 0
 4 3 -5 451.85 11.5 0
 4 4 -9 43.65 5.08 0
 4 4 -8 139.64 7.34 0
 4 4 -7 27.49 4.35 0
 4 4 -6 56.26 5.19 0
 4 5 -9 128.67 6.96 0
 4 5 -7 25.4 3.81 0
 4 5 -6 1.11 2.32 0
 4 6 -8 18.38 3.4 0
 4 6 -7 69.48 5.38 0
 4 6 -6 199.71 8.15 0
 4 7 -8 155.68 7.38 0
 4 7 -7 420.85 11.37 0
 4 8 -7 125.04 6.54 0
 5 -6 4 144.25 6.41 0
 5 -6 5 55.36 4.22 0
 5 -5 0 90.14 5.95 0
 5 -5 1 199.21 8.14 0
 5 -5 2 185.49 7.75 0
 5 -5 3 41.9 4.44 0
 5 -5 4 104.43 5.78 0
 5 -5 5 6.81 2.46 0
 5 -5 6 13.63 2.87 0
 5 -4 -2 52.57 5.05 0
 5 -4 0 446.38 11.88 0
 5 -4 1 15.86 3.53 0
 5 -4 3 441.19 11.08 0
 5 -4 4 90.37 5.46 0
 5 -4 6 10.5 2.76 0
 5 -3 -3 410.37 12.27 0
 5 -3 -2 573.35 13.92 0
 5 -3 -1 59.82 5.1 0
 5 -3 0 8.34 3.1 0
 5 -3 1 52.94 5.12 0
 5 -3 2 573.14 13.05 0
 5 -3 3 400.71 10.74 0
 5 -2 -3 254.44 9.99 0
 5 -2 -2 26.81 4.11 0
 5 -2 1 76.15 5.45 0
 5 -1 -4 9.24 4.25 0
 5 -1 -3 4.04 3.5 0
 5 -1 -2 94.98 6.38 0
 5 -1 -1 12.35 3.23 0
 5 0 -4 97.92 6.54 0
 5 0 -3 447.83 12.4 0
 5 0 -2 3.45 2.76 0
 5 1 -4 4.24 3.12 0
 5 1 -3 0.51 2.86 0
 5 2 -4 1020.16 19.02 0
 -2 -2 -7 76.11 1.71 0
 -2 -2 -6 39.26 1.47 0
 -2 0 -11 0.14 0.65 0
 -2 1 -12 111.43 3.95 0
 -2 4 -14 150.81 6.61 0
 -2 5 -14 149.18 7.38 0
 -2 7 -16 40.71 5.61 0
 -2 7 -15 64.92 6.34 0
 -2 8 -15 16.93 4.39 0
 -2 9 -16 47.37 6.62 0
 -2 9 -15 41.04 6.16 0
 -2 10 -15 13.71 5.06 0
 -2 10 -14 14.71 5.02 0
 -2 11 -14 7.39 4.97 0
 -1 -2 -2 4088.42 12.83 0
 -1 -2 -1 3253.04 12.8 0
 -1 -1 -10 148.67 2.29 0
 -1 -1 -9 104.24 2.03 0
 -1 -1 -8 73.11 1.7 0
 -1 -1 -7 160.24 2.31 0
 -1 -1 -3 9824.16 16.75 0
 -1 -1 -2 204.74 2.78 0
 -1 -1 0 1661.87 9.09 0
 -1 0 -11 1.14 0.84 0
 -1 0 -10 37.65 2.06 0
 -1 0 0 0.12 1 0
 -1 0 1 1091.32 7.56 0
 -1 2 -12 -0.28 1.27 0
 -1 2 -11 242.8 6.51 0
 -1 3 -14 17.18 2.74 0
 -1 4 -14 384.69 10.42 0
 -1 4 -13 152.49 6.63 0
 -1 5 -15 164.85 7.72 0
 -1 5 -14 33.7 4.43 0
 -1 5 -13 18.04 3.43 0
 -1 6 -13 119.03 7.3 0
 -1 7 -15 107.44 7.76 0
 -1 7 -13 44.48 5.41 0
 -1 8 -16 76.7 7.22 0
 -1 8 -14 14.65 4.47 0
 -1 8 -13 32.03 5.27 0
 -1 9 -17 4.72 4.23 0
 -1 9 -16 10.72 4.45 0
 -1 9 -15 10.41 4.3 0
 -1 9 -14 33.97 6.15 0
 -1 9 -13 24.49 5.13 0
 -1 10 -16 29.25 6.28 0
 -1 10 -13 47.27 6.89 0
 -1 11 -14 99.67 9.54 0
 -1 11 -13 40.7 7.36 0
 -1 11 -12 4.99 4.4 0
 -1 12 -12 83.39 8.91 0
 -1 13 -11 12.31 5.76 0
 0 -1 -11 5.97 1.04 0
 0 -1 -10 14.78 1.31 0
 0 -1 -9 43.85 1.87 0
 0 -1 -8 14.63 1.18 0
 0 -1 -7 204.57 3.32 0
 0 -1 -5 2187.46 8.63 0
 0 0 -12 1.13 0.99 0
 0 0 -11 1.47 0.95 0
 0 1 -11 6.08 1.53 0
 0 1 -10 17.5 2.28 0
 0 1 -9 43.36 2.77 0
 0 1 -8 16.07 1.84 0
 0 1 -7 204.57 4.72 0
 0 1 -6 270.9 5.19 0
 0 2 -12 160.88 5.81 0
 0 2 -11 159.84 5.75 0
 0 2 -10 130.95 5.02 0
 0 2 -9 12.8 2.05 0
 0 2 -8 300.24 6.68 0
 0 3 -14 19.53 2.97 0
 0 3 -10 43.65 3.7 0
 0 3 -9 0.32 1.76 0
 0 3 5 1679 6.99 0
 0 4 -15 0.7 1.84 0
 0 4 -14 55.95 4.84 0
 0 4 -13 37.2 4.53 0
 0 4 -12 338.92 9.89 0
 0 4 6 33.83 1.25 0
 0 5 -15 17.13 3.87 0
 0 5 -14 304.46 10.48 0
 0 5 -13 407.76 11.78 0
 0 5 -12 118.22 6.49 0
 0 5 -11 681.99 14.33 0
 0 5 -10 49.04 4.28 0
 0 5 7 32.35 1.27 0
 0 6 -16 1.15 2.71 0
 0 6 -15 15.11 3.91 0
 0 6 -14 78.82 6.74 0
 0 6 -13 23.2 4.35 0
 0 6 -12 141.61 7.74 0
 0 6 -11 19.4 3.74 0
 0 6 -10 139.81 7.04 0
 0 6 8 127.6 1.97 0
 0 7 -17 -1.67 2.85 0
 0 7 -16 52.17 6.23 0
 0 7 -14 110.57 7.54 0
 0 7 -13 251.7 10.81 0
 0 7 -12 4.03 3.44 0
 0 7 -11 4.68 3.22 0
 0 8 -17 3.19 3.59 0
 0 8 -16 19.67 4.63 0
 0 8 -15 48.79 6.92 0
 0 8 -14 34.45 5.54 0
 0 8 -13 2.83 3.46 0
 0 8 -12 2.53 3.41 0
 0 8 -11 55.62 5.9 0
 0 8 -10 13.92 3.99 0
 0 9 -17 4.49 4.1 0
 0 9 -16 34.9 6.53 0
 0 9 -15 5.92 4.17 0
 0 9 -13 34.01 5.62 0
 0 9 -11 21.03 5.03 0
 0 9 -10 30.41 5.41 0
 0 10 -16 13.58 5.42 0
 0 10 -15 38.66 6.56 0
 0 10 -14 23.27 5.58 0
 0 10 -13 65.53 7.21 0
 0 10 -11 0.4 3.58 0
 0 10 -10 5.77 4.29 0
 0 11 -15 2.62 4.67 0
 0 11 -13 51.04 7.79 0
 0 11 -12 -0.36 4.1 0
 0 11 -11 111.09 9.09 0
 0 11 -10 119.07 9.43 0
 0 11 -9 113.5 9.03 0
 0 12 -13 104.02 9.99 0
 0 12 -11 8.17 4.91 0
 0 12 -10 6.1 4.84 0
 0 12 -8 39.95 6.5 0
 0 13 -12 132.14 11.16 0
 0 13 -11 7.94 4.97 0
 0 13 -10 115.99 9.55 0
 0 13 -8 21.04 6.16 0
 0 14 -10 6.45 5.25 0
 0 14 -9 -0.48 4.73 0
 0 14 -8 109.86 9.97 0
 0 14 -7 10.37 5.16 0
 0 14 -6 30.96 6.18 0
 0 14 4 106.1 7 0
 0 15 -7 6.83 5.15 0
 0 15 -5 9.84 4.92 0
 0 15 -4 57.04 7.84 0
 0 15 -2 166.93 10.65 0
 0 15 0 -2.41 3.4 0
 0 15 1 3.89 4.22 0
 0 15 2 151.87 9.17 0
 0 15 3 56.36 6.68 0
 0 16 -1 -0.32 3.74 0
 0 16 0 15.12 4.98 0
 0 16 1 -3.27 3.19 0
 0 16 2 1.57 4.09 0
 0 17 1 15.15 5 0
 1 -1 -6 368.77 5.75 0
 1 -1 -5 2326.41 13.64 0
 1 0 -11 0.89 1.43 0
 1 0 -10 35.04 2.75 0
 1 0 -9 300.36 6.55 0
 1 0 -8 220.8 5.41 0
 1 0 -7 436.63 7.08 0
 1 0 -6 39.43 2.42 0
 1 0 -5 1589.18 12.08 0
 1 0 -4 445.68 6.15 0
 1 0 -3 1287.66 9.57 0
 1 0 -2 821.89 7.23 0
 1 0 -1 1068.4 7.45 0
 1 1 -12 31.77 3.14 0
 1 1 -10 144.9 5.26 0
 1 1 -8 72.6 3.64 0
 1 1 -7 163.11 4.98 0
 1 1 -6 384.1 6.95 0
 1 1 -5 2308.26 15.78 0
 1 1 -4 626.32 7.98 0
 1 1 -3 9917.06 28.51 0
 1 1 -2 199.62 4.17 0
 1 1 -1 1056.04 8.04 0
 1 1 0 1611.88 8.96 0
 1 1 1 1037.07 6.65 0
 1 2 -14 42.31 3.84 0
 1 2 -10 644.84 11.38 0
 1 2 -7 334.48 7.47 0
 1 2 -6 938.2 11.76 0
 1 2 -4 1733.29 14.27 0
 1 2 -3 485.93 7.22 0
 1 2 -2 3969.07 18.82 0
 1 2 -1 3444.58 16.28 0
 1 2 0 149.05 3.46 0
 1 2 1 3284.47 13.11 0
 1 2 2 3903.34 12.63 0
 1 3 -15 38.96 4.04 0
 1 3 -14 18.65 3.53 0
 1 3 -13 71.32 4.83 0
 1 3 -12 167.39 7.08 0
 1 3 -7 736.46 11.78 0
 1 3 -6 608.46 10.32 0
 1 3 -5 394.6 8 0
 1 3 -4 276.39 6.35 0
 1 3 -3 781.12 9.96 0
 1 3 -2 366.73 6.49 0
 1 3 -1 1079.81 10.25 0
 1 3 0 63.32 2.58 0
 1 3 1 1081.7 8.94 0
 1 4 -14 367.4 10.95 0
 1 4 -13 148.38 7.37 0
 1 4 -12 111.5 6.48 0
 1 4 -11 11.37 3.23 0
 1 4 -6 550.78 10.54 0
 1 4 -2 1651.58 14.92 0
 1 4 2 1619.72 11.55 0
 1 4 5 108.75 1.92 0
 1 5 -16 72.25 6.11 0
 1 5 -15 159.43 8.17 0
 1 5 -13 20.7 4.22 0
 1 5 -4 192.83 6.36 0
 1 5 3 1822.45 12.94 0
 1 5 4 176.71 3.84 0
 1 5 5 82.19 2.33 0
 1 5 6 50.31 1.32 0
 1 6 -17 51.01 6.05 0
 1 6 -16 119.31 7.71 0
 1 6 -14 97.37 7.17 0
 1 6 -13 127.09 7.57 0
 1 6 -10 14.69 3.44 0
 1 6 -9 154.57 7.56 0
 1 6 5 66.68 2.59 0
 1 6 6 84 2.41 0
 1 7 -17 21.5 4.96 0
 1 7 -15 102.44 8.12 0
 1 7 -13 42.91 6.22 0
 1 7 -12 14 4.17 0
 1 7 -11 12.46 3.76 0
 1 7 -10 21.3 4.46 0
 1 7 -8 94.78 6.16 0
 1 7 -7 85.98 5.72 0
 1 7 5 493.09 7.55 0
 1 7 6 40.32 2.21 0
 1 7 7 89.77 2.37 0
 1 8 -17 3.28 3.69 0
 1 8 -16 67.32 8.01 0
 1 8 -14 14.93 4.78 0
 1 8 -13 32.13 6.01 0
 1 8 -12 74.41 6.75 0
 1 8 -10 155.92 8.58 0
 1 8 -9 31.22 4.81 0
 1 8 -8 44.31 5.26 0
 1 8 -7 44.56 4.56 0
 1 8 -6 24.07 3.97 0
 1 8 4 8 2.05 0
 1 8 5 207.29 5.57 0
 1 8 6 23.89 2.17 0
 1 8 7 42.72 2.21 0
 1 9 -17 3.67 4.44 0
 1 9 -16 11.1 5.22 0
 1 9 -15 13.77 5.41 0
 1 9 -14 41.57 7.1 0
 1 9 -12 21.21 5.73 0
 1 9 -11 13.07 4.46 0
 1 9 -9 257.67 10.96 0
 1 9 -8 85.77 6.7 0
 1 9 -7 27.35 4.56 0
 1 9 -6 19.71 4.47 0
 1 9 4 288.87 7.63 0
 1 9 5 219.35 6.31 0
 1 9 6 20.44 2.42 0
 1 9 7 25.15 2.1 0
 1 10 -14 45.05 7.54 0
 1 10 -13 60.62 7.63 0
 1 10 -12 31.3 6.28 0
 1 10 -11 167.71 10.13 0
 1 10 -9 83.85 7.3 0
 1 10 -8 8.84 3.85 0
 1 10 -7 2.52 3.21 0
 1 10 -6 120.79 7.98 0
 1 10 -4 122.82 7.37 0
 1 10 6 124.73 4.96 0
 1 11 -14 99.29 9.72 0
 1 11 -13 40.49 6.83 0
 1 11 -12 4.17 4.6 0
 1 11 -10 153.63 10.33 0
 1 11 -9 10.98 4.55 0
 1 11 -8 33.17 5.65 0
 1 11 -7 41.24 6.19 0
 1 11 -6 80.99 7.16 0
 1 11 -5 78.53 6.69 0
 1 11 -4 110.69 7.6 0
 1 11 -3 27.76 4.98 0
 1 11 -2 75.53 6.09 0
 1 11 -1 3.73 2.72 0
 1 11 0 -0.48 2.56 0
 1 11 1 10.91 3.57 0
 1 11 2 76.26 5.7 0
 1 11 3 27.34 3.73 0
 1 11 4 110.9 5.75 0
 1 12 -13 118.47 10.6 0
 1 12 -12 71.52 9.12 0
 1 12 -11 24.93 6.27 0
 1 12 -10 21.26 6.11 0
 1 12 -9 48.92 7.08 0
 1 12 -8 37.92 6.29 0
 1 12 -7 68.53 7.71 0
 1 12 -5 8.71 4.85 0
 1 12 -4 49.31 6.28 0
 1 12 -3 14.86 4.18 0
 1 12 -2 47.22 5.9 0
 1 12 -1 7.98 3.85 0
 1 12 0 155.14 8.28 0
 1 12 1 5.14 3.19 0
 1 12 2 48.51 5.07 0
 1 12 3 15.48 3.56 0
 1 12 4 39.74 4.58 0
 1 12 5 6.64 2.84 0
 1 13 -11 13.31 5.74 0
 1 13 -9 66.7 8.17 0
 1 13 -6 8.33 4.48 0
 1 13 -5 146.51 9.6 0
 1 13 -4 89.96 8.24 0
 1 13 -2 74.87 7.4 0
 1 13 2 83.66 6.6 0
 1 13 3 32.66 4.57 0
 1 13 4 79.96 5.82 0
 1 14 -9 68.71 9.39 0
 1 14 -7 13.74 5.28 0
 1 14 -6 55.35 7.71 0
 1 14 -5 8.23 4.74 0
 1 14 -4 17.01 5.11 0
 1 14 -3 125.56 9.2 0
 1 14 -1 43.02 6.47 0
 1 14 1 27.78 5.3 0
 1 14 2 6.24 3.51 0
 1 14 3 116.07 7.43 0
 1 14 4 21.71 4.27 0
 1 15 -7 30.19 7.33 0
 1 15 -5 44.97 7.08 0
 1 15 -4 43.92 7.37 0
 1 15 -3 10.46 4.74 0
 1 15 -2 42.92 6.48 0
 1 15 -1 68.98 7.16 0
 1 15 0 4.81 4.28 0
 1 15 1 77.92 7.19 0
 1 15 2 39.48 5.84 0
 1 15 3 7.96 3.72 0
 1 16 -4 4.35 5.51 0
 1 16 -3 14.71 5.62 0
 1 16 -2 7.07 4.71 0
 1 16 -1 131.86 9.93 0
 1 16 0 22.45 5.21 0
 2 0 -10 48.06 3.68 0
 2 0 -9 511.02 9.88 0
 2 0 -8 0.22 1.59 0
 2 0 -7 400.16 8.19 0
 2 0 -6 784.29 10.96 0
 2 0 -5 54.74 3.18 0
 2 0 -4 1856.16 15.59 0
 2 0 -3 1620.95 14 0
 2 0 -2 186.16 4.83 0
 2 1 -14 138.76 6.23 0
 2 1 -13 36.19 3.81 0
 2 1 -8 184 6.35 0
 2 1 -7 329.84 7.92 0
 2 1 -6 464.25 8.9 0
 2 1 -5 528.76 9.13 0
 2 1 -4 370.59 7.38 0
 2 1 -3 835.64 10.44 0
 2 1 -2 3191.25 19.43 0
 2 1 -1 2558.68 16.59 0
 2 1 0 280.4 5.45 0
 2 2 -15 59.89 4.73 0
 2 2 -14 36.45 4.24 0
 2 2 -13 36.53 4.4 0
 2 2 -12 39.64 3.94 0
 2 2 -11 78.01 5.09 0
 2 2 -8 225.52 7.23 0
 2 2 -7 77.43 4.26 0
 2 2 -5 122.5 4.79 0
 2 2 -4 1010.84 12.5 0
 2 2 -3 292.48 6.58 0
 2 2 -2 1697.47 14.67 0
 2 2 -1 611.46 8.7 0
 2 2 0 1186.72 11.27 0
 2 2 1 611.79 7.79 0
 2 3 -15 63.51 5.49 0
 2 3 -14 42.75 4.63 0
 2 3 -12 357.98 10.58 0
 2 3 -10 84.49 5.44 0
 2 3 -4 1803.02 17.81 0
 2 3 -3 392.06 8.12 0
 2 3 -2 1172.7 13.18 0
 2 3 -1 1031.94 11.8 0
 2 3 0 26.47 2.6 0
 2 3 1 1039.33 10.68 0
 2 3 2 1169.23 10.59 0
 2 3 3 396.31 5.83 0
 2 4 -14 151.43 7.82 0
 2 4 -12 338.96 11.03 0
 2 4 -11 11.07 3.09 0
 2 4 -10 101.95 6.04 0
 2 4 -9 0.32 2.08 0
 2 4 -4 1003.68 14.32 0
 2 4 -3 692.57 11.36 0
 2 4 -2 18.44 2.45 0
 2 4 0 148.85 4.75 0
 2 4 3 686.88 8.19 0
 2 4 4 999.35 9.06 0
 2 5 -16 16.94 4.65 0
 2 5 -15 99.09 7.41 0
 2 5 -13 25.28 4.46 0
 2 5 -12 33.38 4.79 0
 2 5 -11 192.7 8.58 0
 2 5 -9 36.53 4.31 0
 2 5 -8 285.51 9.34 0
 2 5 -7 454.56 11.47 0
 2 5 -4 119.15 5.55 0
 2 5 -3 296.07 8.11 0
 2 5 -2 293.59 7.64 0
 2 5 -1 458.95 9.23 0
 2 5 2 284.65 6.26 0
 2 5 3 293.06 6.06 0
 2 5 4 127.06 3.71 0
 2 5 5 336.59 5.31 0
 2 6 -17 36.28 5.89 0
 2 6 -15 11.02 4.34 0
 2 6 -14 78.37 6.79 0
 2 6 -13 201.06 9.91 0
 2 6 -12 3.96 3.18 0
 2 6 -11 75.92 6.71 0
 2 6 -10 61.57 6.08 0
 2 6 -9 113.51 7.2 0
 2 6 -8 40.67 4.54 0
 2 6 -7 47 4.92 0
 2 6 -1 51.56 3.96 0
 2 6 0 362.23 8.44 0
 2 6 1 53.17 3.74 0
 2 6 2 287.33 6.83 0
 2 6 3 643.71 9.49 0
 2 6 4 30.15 2.46 0
 2 6 5 275.27 5.38 0
 2 6 6 460.92 5.88 0
 2 7 -16 45.55 7.04 0
 2 7 -15 68.83 7.52 0
 2 7 -14 2.68 3.63 0
 2 7 -13 65.8 7.03 0
 2 7 -12 47.52 6.2 0
 2 7 -11 16.42 4.19 0
 2 7 -10 8.14 3.55 0
 2 7 -9 156.92 8.25 0
 2 7 -8 199.06 9.1 0
 2 7 -6 42.07 4.93 0
 2 7 -5 33.89 4.1 0
 2 7 -4 409.43 10.93 0
 2 7 1 346.58 8.45 0
 2 7 3 44.33 3.3 0
 2 7 4 416.75 7.91 0
 2 7 5 34.73 2.52 0
 2 7 6 35.64 2.19 0
 2 8 -17 15.45 4.88 0
 2 8 -16 137.9 9.3 0
 2 8 -15 13.48 4.76 0
 2 8 -14 12.15 5.17 0
 2 8 -13 29.26 5.45 0
 2 8 -12 27.23 5.45 0
 2 8 -11 104.08 8.19 0
 2 8 -10 87.14 7.43 0
 2 8 -9 113.8 7.58 0
 2 8 -7 251.62 10.13 0
 2 8 -6 169.28 8.11 0
 2 8 -4 161.33 7.57 0
 2 8 -3 133.64 6.8 0
 2 8 2 393.59 9.38 0
 2 8 4 166.82 5.71 0
 2 8 6 167.34 4.64 0
 2 8 7 255.03 4.67 0
 2 9 -13 10.4 4.71 0
 2 9 -12 20.06 5.08 0
 2 9 -11 28.22 5.67 0
 2 9 -9 85.29 7.68 0
 2 9 -8 48.64 6.03 0
 2 9 -7 39.77 5.64 0
 2 9 -6 124.14 7.82 0
 2 9 -4 64.87 5.52 0
 2 9 -3 217.89 9.08 0
 2 9 -2 94.47 6.39 0
 2 9 0 180.08 7.49 0
 2 9 1 48.11 4.49 0
 2 9 4 55.74 3.81 0
 2 9 5 557.24 9.96 0
 2 9 6 130.21 4.6 0
 2 10 -15 14.87 5.87 0
 2 10 -14 8.43 4.88 0
 2 10 -13 15.16 5.48 0
 2 10 -11 183.61 11.05 0
 2 10 -10 33.98 5.98 0
 2 10 -9 83.33 7.93 0
 2 10 -8 4.33 3.6 0
 2 10 -7 12.28 4.38 0
 2 10 -6 268.29 11.55 0
 2 10 -5 -1.41 2.68 0
 2 10 -4 31.92 4.85 0
 2 10 -3 45.54 5.34 0
 2 10 -2 261.36 10.14 0
 2 10 -1 45.99 4.84 0
 2 10 0 4.17 3.17 0
 2 10 1 52.47 5 0
 2 10 2 262.4 8.76 0
 2 10 3 39.79 4.13 0
 2 11 -14 3.6 4.69 0
 2 11 -13 8.07 5.28 0
 2 11 -12 82.39 9.12 0
 2 11 -10 37.5 6.34 0
 2 11 -9 43.3 7.25 0
 2 11 -8 245.33 11.97 0
 2 11 -7 9.59 4.43 0
 2 11 -6 60.95 6.56 0
 2 11 -4 21.04 4.88 0
 2 11 -3 72.29 6.58 0
 2 11 -2 40.18 5.36 0
 2 11 1 88.18 6.16 0
 2 11 2 42.35 4.79 0
 2 11 3 86 5.58 0
 2 11 4 17.42 3.36 0
 2 11 5 97.83 5.24 0
 2 12 -12 34.57 6.9 0
 2 12 -11 9.75 5.17 0
 2 12 -10 39.12 7.67 0
 2 12 -9 53.7 7.51 0
 2 12 -8 24.46 5.63 0
 2 12 -3 13.58 4.4 0
 2 12 0 18.87 4.12 0
 2 12 1 105.44 7 0
 2 12 2 161.08 8.11 0
 2 12 4 48.65 4.69 0
 2 12 5 12.87 2.77 0
 2 13 -11 79.19 9.59 0
 2 13 -8 83.05 8.7 0
 2 13 -6 16.79 5.3 0
 2 13 -3 63.12 7.59 0
 2 13 -2 32.23 6.01 0
 2 13 -1 3.48 3.49 0
 2 13 0 53.64 6.47 0
 2 13 1 -1.12 3.44 0
 2 13 2 30.06 4.64 0
 2 13 3 58.57 5.32 0
 2 13 4 39.65 4.73 0
 2 14 -9 21.49 6.35 0
 2 14 -8 58.08 8.13 0
 2 14 -7 32.16 6.84 0
 2 14 -6 16.2 5.43 0
 2 14 -4 24.06 5.74 0
 2 14 -1 0.21 3.94 0
 2 14 0 0.82 3.31 0
 2 14 1 -0.55 3.12 0
 2 14 2 85.43 7.12 0
 2 14 3 102.38 7.1 0
 2 15 -5 67.22 8.7 0
 2 15 -4 36.34 6.67 0
 2 15 -3 44.02 7.14 0
 2 15 -2 64.41 7.98 0
 2 15 -1 45.9 6.7 0
 2 15 0 99.13 8.02 0
 2 15 1 46.2 6.29 0
 2 16 -2 1.23 3.83 0
 2 16 -1 120.09 9.66 0
 2 16 0 6.32 4.07 0
 3 0 -6 264.28 7.71 0
 3 1 -13 18.98 3.86 0
 3 1 -12 85.19 5.78 0
 3 1 -10 87.31 5.57 0
 3 1 -5 413.04 9.34 0
 3 1 -4 50.52 3.54 0
 3 1 -3 18.65 2.68 0
 3 1 -2 1739.99 17.22 0
 3 2 -15 46.35 5.43 0
 3 2 -14 8.08 3 0
 3 2 -13 106.37 6.62 0
 3 2 -12 77.74 6 0
 3 2 -11 185.87 7.99 0
 3 2 -9 109.31 6.14 0
 3 2 -4 682.04 12.09 0
 3 2 -2 581.59 10.42 0
 3 2 -1 94.14 4.6 0
 3 3 -16 33.13 4.92 0
 3 3 -14 14.63 3.94 0
 3 3 -13 32.03 4.68 0
 3 3 -12 17.62 3.87 0
 3 3 -9 50.95 4.7 0
 3 3 -8 128.37 6.42 0
 3 3 -4 56.98 4.35 0
 3 3 -3 771.98 12.77 0
 3 3 -2 94.84 4.64 0
 3 3 0 1000.58 13.22 0
 3 3 1 523.9 9.16 0
 3 3 2 91.7 3.92 0
 3 4 -15 132.34 8.41 0
 3 4 -14 26.15 4.85 0
 3 4 -13 76.88 6.32 0
 3 4 -12 37.49 4.95 0
 3 4 -11 88.38 6.38 0
 3 4 -10 148.74 7.88 0
 3 4 -9 38.74 4.53 0
 3 4 -8 248.76 8.98 0
 3 4 -7 601.41 13.25 0
 3 4 -6 33.55 4.17 0
 3 4 -2 132.81 5.77 0
 3 4 -1 990.33 13.96 0
 3 4 0 37.23 3.37 0
 3 4 1 1013.9 13.15 0
 3 4 2 136.61 5.02 0
 3 4 3 58.37 3.28 0
 3 5 -17 15.6 4.28 0
 3 5 -16 29.48 5.45 0
 3 5 -15 47.78 6.7 0
 3 5 -14 6.78 3.74 0
 3 5 -13 78.34 7.28 0
 3 5 -11 29.68 4.77 0
 3 5 -10 4.75 2.98 0
 3 5 -7 12.14 3.47 0
 3 5 -1 11.03 2.71 0
 3 5 0 763.08 12.51 0
 3 5 1 7.07 2.12 0
 3 5 2 83.5 4.12 0
 3 5 4 181.22 5.22 0
 3 6 -17 2.9 3.88 0
 3 6 -16 86.2 8.07 0
 3 6 -12 67.87 6.51 0
 3 6 -10 244.76 10.8 0
 3 6 -9 116.82 7.3 0
 3 6 -8 49.74 4.99 0
 3 6 -7 142.9 7.59 0
 3 6 -6 427.88 12.09 0
 3 6 1 270.18 7.68 0
 3 6 2 779.75 12.28 0
 3 6 3 248.07 6.82 0
 3 6 4 337.44 7.48 0
 3 6 5 281.08 6.23 0
 3 7 -17 20.71 5.1 0
 3 7 -16 11.56 4.58 0
 3 7 -15 52.98 7.71 0
 3 7 -14 8.25 4.52 0
 3 7 -12 40.75 5.97 0
 3 7 -11 21.93 4.79 0
 3 7 -10 97.2 7.63 0
 3 7 -9 123.52 7.79 0
 3 7 -7 19.6 4.11 0
 3 7 -6 51.15 5.25 0
 3 7 -5 41.86 4.67 0
 3 7 -4 14.41 3.55 0
 3 7 -3 99.26 6.02 0
 3 7 -2 208.36 8.26 0
 3 7 3 110.37 5.13 0
 3 7 4 15.75 2.6 0
 3 7 5 41.27 3.05 0
 3 8 -16 0.12 4.18 0
 3 8 -15 81.41 8.08 0
 3 8 -14 79.76 8.51 0
 3 8 -12 103.4 8.99 0
 3 8 -11 60.14 7.05 0
 3 8 -6 195.75 9.28 0
 3 8 -3 40.96 4.92 0
 3 8 0 21.2 3.42 0
 3 8 4 287.32 7.64 0
 3 8 5 92.05 4.37 0
 3 8 6 208.25 5.61 0
 3 9 -14 23.71 6.35 0
 3 9 -13 137.29 10.38 0
 3 9 -12 133.3 10.14 0
 3 9 -11 15.7 5 0
 3 9 -10 21.86 5.26 0
 3 9 -9 23.26 5.08 0
 3 9 -8 22.76 5.03 0
 3 9 -6 114.2 7.79 0
 3 9 -5 48.53 6.14 0
 3 9 -4 326.71 11.84 0
 3 9 -1 21.45 4.18 0
 3 9 0 135.36 7.1 0
 3 9 1 26.11 3.95 0
 3 9 2 39.24 4.26 0
 3 9 6 118.89 4.71 0
 3 10 -14 10.97 5.25 0
 3 10 -13 18.03 5.52 0
 3 10 -12 7.64 4.78 0
 3 10 -11 36.06 6.68 0
 3 10 -10 1.23 3.99 0
 3 10 -9 45.73 7.01 0
 3 10 -7 14.92 5.15 0
 3 10 -6 53.04 6.64 0
 3 10 -4 10.39 3.8 0
 3 10 -3 5.01 3.25 0
 3 10 -2 125.7 7.87 0
 3 10 0 -2.55 2.52 0
 3 10 2 135.12 6.74 0
 3 10 3 7.73 2.94 0
 3 10 4 10.42 2.7 0
 3 11 -12 12.84 5.7 0
 3 11 -10 14.63 5.83 0
 3 11 -9 358.45 15.23 0
 3 11 -8 73.12 8.35 0
 3 11 -7 51.7 7.48 0
 3 11 -5 44.55 6.26 0
 3 11 -4 14.38 4.43 0
 3 11 -1 545.06 14.96 0
 3 11 0 19.53 4.14 0
 3 11 3 10.78 3.11 0
 3 11 4 12.35 3.09 0
 3 11 5 43.05 3.9 0
 3 12 -11 46.8 7.91 0
 3 12 -10 4.65 5.26 0
 3 12 -8 1.1 5.01 0
 3 12 -6 5.99 4.28 0
 3 12 -4 158.02 10.21 0
 3 12 -3 44.11 6.5 0
 3 12 -2 83.11 7.3 0
 3 12 0 10.46 4.32 0
 3 12 1 17.78 4.08 0
 3 12 2 88.18 6.46 0
 3 12 3 38.95 4.76 0
 3 12 4 144.2 7.1 0
 3 13 -10 23.64 6.97 0
 3 13 -9 131.02 10.73 0
 3 13 -7 15.61 5.58 0
 3 13 -6 25.22 6.06 0
 3 13 -5 116.83 9.64 0
 3 13 -4 39.35 6.58 0
 3 13 -3 6.55 4.41 0
 3 13 -2 81.21 7.95 0
 3 13 -1 109.68 8.39 0
 3 13 0 33.07 5.46 0
 3 13 1 109.55 7.78 0
 3 13 2 81.94 6.81 0
 3 13 3 0.88 2.55 0
 3 14 -8 -0.11 4.93 0
 3 14 -4 15.09 5.11 0
 3 14 -3 43.1 6.98 0
 3 14 -1 8.45 4.6 0
 3 14 0 1.7 3.77 0
 3 14 1 4.89 3.59 0
 3 14 2 118.54 7.89 0
 3 15 -4 11.46 6.1 0
 3 15 -3 29.1 6.42 0
 3 15 -1 29.42 5.76 0
 3 15 0 46.13 6.4 0
 3 15 1 33.79 5.81 0
 3 16 -1 22.04 6.22 0
 3 16 0 157.97 10.16 0
 4 1 -7 127.54 6.62 0
 4 1 -6 511.33 12.32 0
 4 2 -12 173.87 9 0
 4 2 -11 33.2 4.71 0
 4 2 -10 287 10.33 0
 4 2 -9 60.02 5.32 0
 4 2 -8 85.91 5.94 0
 4 2 -7 190.12 8.15 0
 4 2 -6 121.66 6.68 0
 4 2 -5 370.05 10.29 0
 4 3 -15 78.37 7.27 0
 4 3 -14 69.54 6.74 0
 4 3 -12 33.87 5.12 0
 4 3 -11 113.65 7.58 0
 4 3 -10 96.56 7.15 0
 4 3 -9 68.4 6.15 0
 4 3 -8 1.28 2.53 0
 4 3 -7 13.76 3.51 0
 4 3 -5 453.61 11.8 0
 4 3 -4 54.01 4.91 0
 4 4 -15 17.02 4.62 0
 4 4 -13 67.29 6.62 0
 4 4 -9 48.81 5.61 0
 4 4 -7 27.21 4.37 0
 4 4 -6 49.52 5.32 0
 4 4 -4 284.23 9.42 0
 4 4 -3 134.55 6.52 0
 4 4 2 126.53 5.66 0
 4 5 -17 38.93 6.12 0
 4 5 -15 -1.55 3.29 0
 4 5 -13 24.24 5.24 0
 4 5 -12 34.64 5.81 0
 4 5 -11 124.17 8.42 0
 4 5 -9 124.19 8.21 0
 4 5 -7 27.21 4.42 0
 4 5 -6 0.82 2.49 0
 4 5 -5 6.01 2.72 0
 4 5 -4 255.64 9.53 0
 4 5 -3 22.86 3.7 0
 4 5 -2 155.7 7.27 0
 4 5 3 26.1 3.29 0
 4 6 -17 42.6 6.98 0
 4 6 -16 70.05 8.44 0
 4 6 -15 1.8 4.24 0
 4 6 -13 3.46 4.34 0
 4 6 -12 155.92 10.04 0
 4 6 -11 121.69 8.65 0
 4 6 -10 212.64 10.31 0
 4 6 -9 237.53 10.68 0
 4 6 -7 75.71 6.9 0
 4 6 -5 33.44 4.68 0
 4 6 -4 21.25 4.09 0
 4 6 -3 31.18 4.27 0
 4 6 -1 47.18 4.57 0
 4 6 4 23.52 3.01 0
 4 7 -16 7.84 5.37 0
 4 7 -15 57.96 7.85 0
 4 7 -13 44.07 6.88 0
 4 7 -12 70.56 8.46 0
 4 7 -11 173.87 10.11 0
 4 7 -10 60.74 6.47 0
 4 7 -8 160.43 9.06 0
 4 7 -7 403.26 13.6 0
 4 7 -5 261.65 10.36 0
 4 7 -4 143.7 7.82 0
 4 7 -3 372.58 11.84 0
 4 7 -2 154.9 7.93 0
 4 7 -1 407.35 11.48 0
 4 7 0 17.86 3.46 0
 4 7 1 393.15 10.65 0
 4 8 -15 15.63 6.22 0
 4 8 -13 15.08 5.34 0
 4 8 -12 189.11 11.09 0
 4 8 -9 19.03 5.17 0
 4 8 -8 2.83 3.86 0
 4 8 -7 126.9 8.37 0
 4 8 -6 43.35 6.24 0
 4 8 -5 68.72 6.26 0
 4 8 -4 19.82 4.52 0
 4 8 -3 19.9 4.27 0
 4 8 -1 24.57 4.14 0
 4 8 0 198.73 8.53 0
 4 8 1 18.57 3.65 0
 4 8 2 77.78 5.49 0
 4 8 3 16.61 3.09 0
 4 9 -13 3.7 5.32 0
 4 9 -12 192.28 11.55 0
 4 9 -10 122.46 9.67 0
 4 9 -9 8.4 4.72 0
 4 9 -7 71.32 7.59 0
 4 9 -6 6.19 3.9 0
 4 9 -5 9.36 3.91 0
 4 9 -4 128.11 8.13 0
 4 9 -3 14.34 4.38 0
 4 9 -2 6.26 3.47 0
 4 9 -1 8.27 3.69 0
 4 9 0 5.94 2.94 0
 4 9 1 3.78 2.71 0
 4 9 2 5.51 3.16 0
 4 9 3 7.86 2.82 0
 4 9 4 115.7 5.82 0
 4 10 -13 0.25 4.6 0
 4 10 -12 162.86 11.28 0
 4 10 -11 3 4.61 0
 4 10 -10 40.93 7.33 0
 4 10 -9 14.38 5.85 0
 4 10 -8 105.51 9.16 0
 4 10 -7 62.16 6.94 0
 4 10 -6 147.78 9.81 0
 4 10 -5 40.96 6.16 0
 4 10 -4 87.02 7.66 0
 4 10 -3 52.49 6.35 0
 4 10 -1 8.27 4.1 0
 4 10 0 0.28 2.83 0
 4 10 1 9.45 3.25 0
 4 10 2 174.7 8.16 0
 4 10 3 56.12 5.13 0
 4 10 5 44.88 4.1 0
 4 11 -11 18.16 6.37 0
 4 11 -10 29.93 6.45 0
 4 11 -9 -0.33 4.41 0
 4 11 -8 164.3 11.09 0
 4 11 -7 56.52 7.82 0
 4 11 -6 80.19 8.44 0
 4 11 -5 2.16 3.87 0
 4 11 -4 149.25 9.51 0
 4 11 -3 23.01 5.47 0
 4 11 -2 14.23 4.25 0
 4 11 -1 116.32 7.78 0
 4 11 0 6.87 3.8 0
 4 11 2 16.46 4.14 0
 4 11 3 23.09 4.32 0
 4 11 4 147.3 7.21 0
 4 12 -9 22.03 6.14 0
 4 12 -8 129.92 10.77 0
 4 12 -6 157.78 11.06 0
 4 12 -5 5.86 4.38 0
 4 12 -4 14.4 4.98 0
 4 12 -3 20.01 5.91 0
 4 12 -1 4.03 3.7 0
 4 12 0 25.54 5.31 0
 4 12 1 4 3.27 0
 4 12 3 16.58 3.87 0
 4 13 -8 7.83 5.63 0
 4 13 -7 0.1 4.43 0
 4 13 -6 53.76 7.77 0
 4 13 -5 54.35 8.26 0
 4 13 -4 31.12 6.55 0
 4 13 -3 14.53 4.92 0
 4 13 -2 37.89 6.84 0
 4 13 0 8.49 3.99 0
 4 13 2 37.33 5.27 0
 4 14 -6 115.99 10.69 0
 4 14 -3 2 4.37 0
 4 14 -2 75.24 8.23 0
 4 14 0 24.67 5.68 0
 4 15 -3 87.83 8.8 0
 4 15 -2 14.04 5.59 0
 4 15 -1 102.33 9.01 0
 4 15 0 2.54 3.73 0
 5 3 -11 80.41 7.72 0
 5 3 -10 555.37 16.12 0
 5 3 -9 225.15 10.18 0
 5 3 -8 82.5 6.94 0
 5 3 -7 75.01 6.72 0
 5 3 -6 22.04 4.19 0
 5 3 -5 16.15 3.55 0
 5 3 -4 34.96 4.55 0
 5 4 -13 25.25 5.49 0
 5 4 -12 9.83 4.79 0
 5 4 -11 56.84 6.56 0
 5 4 -10 5.86 3.88 0
 5 4 -9 23.49 5.3 0
 5 4 -8 31.77 5.16 0
 5 4 -6 14.47 3.77 0
 5 4 -5 303.94 11.12 0
 5 4 -4 86.2 6.21 0
 5 4 -3 436.52 12.45 0
 5 4 -1 20.1 4.06 0
 5 5 -13 5.94 4.38 0
 5 5 -12 18.22 5.49 0
 5 5 -11 22.49 5.24 0
 5 5 -10 56.75 6.88 0
 5 5 -9 186.83 10.53 0
 5 5 -6 14.29 3.77 0
 5 5 -5 8.15 3.53 0
 5 5 -4 99.77 7.07 0
 5 5 -2 175.54 8.26 0
 5 5 -1 186.78 8.15 0
 5 5 0 88.58 5.84 0
 5 6 -15 17.14 5.28 0
 5 6 -14 57.14 7.86 0
 5 6 -11 5.57 4.39 0
 5 6 -6 225.28 10.55 0
 5 6 -5 54.93 6.33 0
 5 6 -4 147.23 8.33 0
 5 6 -3 14.63 4.04 0
 5 6 -2 162.7 8.26 0
 5 6 -1 341.23 11.41 0
 5 6 0 80.83 6.33 0
 5 7 -14 148.83 10.52 0
 5 7 -11 130.03 10.13 0
 5 7 -10 77.91 8.11 0
 5 7 -8 40.08 6.39 0
 5 7 -6 113.32 8.1 0
 5 7 -5 41.31 5.59 0
 5 7 -2 90.11 7.25 0
 5 7 -1 14.88 3.78 0
 5 7 0 4.25 2.95 0
 5 7 1 11.33 3.23 0
 5 7 2 94.07 6.22 0
 5 8 -12 45.7 7.4 0
 5 8 -11 23.8 6.03 0
 5 8 -10 94.71 8.7 0
 5 8 -9 43.21 6.91 0
 5 8 -6 49.09 6.41 0
 5 8 -5 19.04 4.88 0
 5 8 -4 30.14 5.4 0
 5 8 -3 66.5 6.96 0
 5 8 -2 273.71 11.43 0
 5 8 -1 23.37 4.54 0
 5 8 0 106.27 7.18 0
 5 8 1 27.77 4.42 0
 5 8 3 60.99 5.26 0
 5 9 -12 -1.93 4.31 0
 5 9 -11 70.46 8.77 0
 5 9 -10 0.4 4.37 0
 5 9 -9 228.65 12.45 0
 5 9 -8 4.97 4.91 0
 5 9 -7 27.83 5.81 0
 5 9 -6 15.17 4.94 0
 5 9 -5 12.27 4.51 0
 5 9 -4 21.82 5.12 0
 5 9 -2 93.66 7.37 0
 5 9 0 -2.54 2.67 0
 5 9 1 69.18 6.24 0
 5 9 2 98.13 6.52 0
 5 9 3 318.6 10.47 0
 5 10 -10 128.22 10.23 0
 5 10 -9 4.73 4.93 0
 5 10 -8 5.75 4.87 0
 5 10 -7 3.47 4.62 0
 5 10 -5 24.79 5.52 0
 5 10 -3 145.12 9.24 0
 5 10 -2 32.57 5.72 0
 5 10 -1 37.63 5.64 0
 5 10 0 2.33 3.38 0
 5 10 1 39.1 5.34 0
 5 10 2 26.07 4.81 0
 5 10 3 137.19 7.53 0
 5 10 4 83.26 5.91 0
 5 11 -10 47.09 8.64 0
 5 11 -9 137.03 10.92 0
 5 11 -8 18.24 5.85 0
 5 11 -7 1.28 4.57 0
 5 11 -6 11.48 6.02 0
 5 11 -4 33.99 6.24 0
 5 11 -3 19.45 5.42 0
 5 11 -2 6.06 4.28 0
 5 11 -1 27.68 5.84 0
 5 11 0 16.18 4.48 0
 5 11 1 22.58 4.7 0
 5 11 2 7.02 3.61 0
 5 11 3 25.47 4.15 0
 5 12 -8 144.07 10.79 0
 5 12 -7 36.32 7.59 0
 5 12 -6 14.55 5.91 0
 5 12 -5 2.99 5.19 0
 5 12 -4 138.27 10.3 0
 5 12 -3 17 5.77 0
 5 12 -2 13.98 4.77 0
 5 12 -1 55.18 7.46 0
 5 12 0 201.16 10.37 0
 5 12 1 67.24 6.62 0
 5 12 2 14.96 4.36 0
 5 13 -6 45.27 8.37 0
 5 13 -5 22.7 6.52 0
 5 13 -4 13.54 5.19 0
 5 13 -3 50.96 7.92 0
 5 13 -1 15.84 5.61 0
 5 13 0 3.49 3.8 0
 5 13 1 17.69 4.69 0
 5 14 -3 99.32 9.33 0
 5 14 -1 101.81 8.82 0
 5 14 0 83.43 8.18 0
 6 5 -10 30.85 6.72 0
 6 5 -9 120.93 9.04 0
 6 5 -8 78.66 8.3 0
 6 5 -7 63.41 7.7 0
 6 5 -6 45.41 6.52 0
 6 5 -5 15.67 4.55 0
 6 5 -4 26.16 5.11 0
 6 6 -12 77.2 8.37 0
 6 6 -10 110.52 9.01 0
 6 6 -7 13.24 4.9 0
 6 6 -6 88.24 7.65 0
 6 6 -5 11.16 4.9 0
 6 6 -3 2.55 3.3 0
 6 7 -12 7.48 4.99 0
 6 7 -11 115.22 9.56 0
 6 7 -10 10.67 5.04 0
 6 7 -7 222.06 11.76 0
 6 7 -3 38.25 5.8 0
 6 7 -2 69.72 6.6 0
 6 7 -1 234.73 10.81 0
 6 8 -11 16.63 6.22 0
 6 8 -9 45.91 7.45 0
 6 8 -8 2.65 5.43 0
 6 8 -7 112.57 9.81 0
 6 8 -6 5.15 4.76 0
 6 8 -3 15.7 4.76 0
 6 8 -2 35.16 5.72 0
 6 8 -1 130.67 8.66 0
 6 8 0 7.98 4.19 0
 6 9 -8 33.33 6.89 0
 6 9 -7 5.52 4.71 0
 6 9 -4 19.56 5.39 0
 6 9 -3 53.85 7.32 0
 6 9 -2 8.84 4.41 0
 6 9 -1 -1.21 3.2 0
 6 9 0 4.96 3.55 0
 6 9 1 4.26 3.7 0
 6 10 -6 144.75 10.8 0
 6 10 -5 9.1 5.44 0
 6 10 -4 49.08 7.36 0
 6 10 -2 149.29 10.09 0
 6 10 -1 10.83 4.4 0
 6 10 0 5.25 3.82 0
 6 11 -7 89.85 10.66 0
 6 11 -5 10.39 5.26 0
 6 11 -4 91.25 9.35 0
 6 11 -3 70.4 7.72 0
 6 11 -2 10.46 4.73 0
 6 11 -1 33.97 6.72 0
 6 11 0 129.81 9 0
 6 11 1 32.64 5.67 0
 6 12 -5 28.68 7.71 0
 6 12 -4 4.63 4.78 0
 6 12 -3 18.59 5.72 0
 6 12 -2 45.09 6.93 0
 6 12 -1 10.33 4.69 0
 6 12 1 5.39 3.82 0
 6 13 -2 57.96 7.94 0
 6 13 -1 12.38 5.12 0
 6 13 0 55.73 6.82 0
 7 8 -8 -1.75 4.69 0
 7 9 -7 25.11 7.01 0
 7 9 -5 153.3 11.14 0
 7 9 -4 85.46 8.7 0
 7 10 -5 38.97 7.76 0
 7 10 -4 41.5 7.29 0
 7 10 -3 69.95 8.58 0
 7 11 -3 2.76 4.74 0
 0 -11 -3 9.26 4.18 0
 0 -11 -2 128.21 7.86 0
 0 -11 -1 72.25 5.78 0
 0 -11 0 -1 2.51 0
 0 -11 1 83.59 5.66 0
 0 -10 -4 18.76 4.62 0
 0 -10 -3 32.21 4.65 0
 0 -10 -2 273.19 9.98 0
 0 -10 -1 58.61 5.42 0
 0 -10 3 29.89 3.66 0
 0 -10 4 13.64 2.56 0
 0 -9 -6 679 16.6 0
 0 -9 -5 61.97 5.7 0
 0 -9 -4 72.36 6.37 0
 0 -9 -2 27.64 4.27 0
 0 -9 2 26.71 3.26 0
 0 -9 3 240.92 7.04 0
 0 -9 4 70.9 3.83 0
 0 -8 -6 390.8 12.28 0
 0 -8 -4 176.31 7.91 0
 0 -8 0 423.73 9.99 0
 0 -8 1 79.07 4.53 0
 0 -8 2 785.18 12.25 0
 0 -8 3 450.15 8.69 0
 0 -8 4 170.19 5.09 0
 0 -7 -7 315.59 10.74 0
 0 -7 -6 295.07 10.38 0
 0 -7 -2 4.49 2.58 0
 0 -7 -1 404.97 9.62 0
 0 -7 0 1.21 1.83 0
 0 -7 1 419.61 8.85 0
 0 -7 3 71.39 3.56 0
 0 -7 4 94.13 3.53 0
 0 -7 5 129.98 3.61 0
 0 -6 -7 407.44 11.53 0
 0 -6 -4 91.3 5.3 0
 0 -6 -3 230.76 7.51 0
 0 -6 -2 69.67 4.56 0
 0 -6 -1 1005.61 13.78 0
 0 -6 0 8.56 2.08 0
 0 -6 1 1006.26 12.23 0
 0 -6 2 68.66 3.27 0
 0 -6 3 228.76 5.14 0
 0 -6 5 0.85 0.81 0
 0 -6 6 644.02 5.52 0
 0 -5 -5 1345.29 17.99 0
 0 -5 -4 78.77 4.81 0
 0 -5 -3 189.5 6.4 0
 0 -5 -2 522.8 9.72 0
 0 -5 -1 760.42 10.96 0
 0 -5 1 760.22 9.45 0
 0 -5 2 508.5 7.18 0
 0 -5 3 185.3 4.05 0
 0 -5 4 78.81 2.46 0
 0 -5 6 1474.65 7.17 0
 0 -4 -6 30.47 3.78 0
 0 -4 -4 698.94 11.72 0
 0 -4 -3 381.13 8.18 0
 0 -4 -1 285.25 6.23 0
 0 -4 0 358.21 6.26 0
 0 -4 1 284.6 5.24 0
 0 -4 2 666.4 6.95 0
 0 -4 5 449.07 4.24 0
 0 -4 7 0.77 0.45 0
 0 -3 -6 60.39 3.87 0
 0 -3 -5 1660.27 16.98 0
 0 -3 -3 2720.85 19.03 0
 0 -3 -2 663.51 8.76 0
 0 -3 -1 1172.45 10.57 0
 0 -3 0 0.5 1.12 0
 0 -3 1 1150.83 8.33 0
 0 -3 3 2663.08 10.01 0
 0 -3 7 5.45 0.86 0
 0 -2 -5 261.37 6.45 0
 0 -2 -4 1480.4 13.54 0
 0 -2 -3 1003.89 10.37 0
 0 -2 -2 440.1 6.36 0
 0 -2 0 4805.09 15.27 0
 0 -2 1 505.2 4.18 0
 0 -1 -4 24.21 2.05 0
 0 -1 -3 12.26 1.73 0
 0 -1 -2 592.15 6.08 0
 0 -1 -1 721.98 5.43 0
 0 -1 4 23.48 1.43 0
 0 0 3 -0.43 0.96 0
 0 1 1 756.79 5.61 0
 0 1 2 630.68 6.14 0
 0 3 -1 1214.24 8.64 0
 1 -14 -3 114.82 9.52 0
 1 -14 -2 7.48 4.39 0
 1 -14 -1 28.3 5.58 0
 1 -14 0 0.99 3.19 0
 1 -14 1 35.55 5.39 0
 1 -14 2 5.23 3.79 0
 1 -13 -6 6.84 4.92 0
 1 -13 -5 152.17 10.38 0
 1 -13 -3 31.21 6.03 0
 1 -13 -2 79.78 7.89 0
 1 -13 -1 129.89 8.96 0
 1 -13 0 26.79 4.92 0
 1 -13 1 135.56 8.02 0
 1 -13 2 83.72 6.4 0
 1 -13 3 29.59 4.37 0
 1 -12 -7 60.53 7.78 0
 1 -12 -6 7.75 5.19 0
 1 -12 -3 10.98 4.31 0
 1 -12 -2 44.41 5.85 0
 1 -12 -1 5.9 3.72 0
 1 -12 0 145.79 8.57 0
 1 -12 1 3.22 3 0
 1 -12 2 49.33 5.44 0
 1 -12 3 13.57 3.4 0
 1 -11 -8 40.63 6.61 0
 1 -11 -7 47.17 6.95 0
 1 -11 -6 86.21 7.72 0
 1 -11 -5 90.06 8.11 0
 1 -11 -3 31.67 5.21 0
 1 -11 -2 86.93 7.16 0
 1 -11 -1 6.99 3.85 0
 1 -11 0 -2.1 3.16 0
 1 -11 1 5.02 3.57 0
 1 -11 2 85.49 5.95 0
 1 -10 -8 8.28 4.43 0
 1 -10 -7 4.4 3.78 0
 1 -10 -6 132.14 8.7 0
 1 -10 -5 245.63 11.05 0
 1 -10 -4 120.16 7.8 0
 1 -10 -3 509.15 14.45 0
 1 -10 -2 274.41 10.77 0
 1 -10 -1 181.46 8.46 0
 1 -10 0 1.71 3.33 0
 1 -10 1 170.99 7.79 0
 1 -10 5 259.51 7.68 0
 1 -9 -7 26.62 5.02 0
 1 -9 -6 19.35 4.63 0
 1 -9 -4 290.85 11.05 0
 1 -9 -3 459.89 13 0
 1 -9 -2 59.79 5.22 0
 1 -9 -1 303.02 10.01 0
 1 -9 3 475.37 10.66 0
 1 -9 4 298.14 8.06 0
 1 -9 5 222.18 6.79 0
 1 -9 6 13.19 2.28 0
 1 -9 7 22.15 2.52 0
 1 -8 -10 165.8 10.15 0
 1 -8 -9 40.16 5.65 0
 1 -8 -8 51.78 6.02 0
 1 -8 -7 46.66 6.1 0
 1 -8 -5 207.01 9.06 0
 1 -8 2 209.13 7.2 0
 1 -8 3 299.81 8.04 0
 1 -8 4 8.69 2.18 0
 1 -8 5 211.14 6.22 0
 1 -8 7 44.02 2.85 0
 1 -7 -10 18.17 4.45 0
 1 -7 -9 57.14 5.85 0
 1 -7 -8 95.13 6.91 0
 1 -7 -6 37.86 4.86 0
 1 -7 -5 504.27 12.95 0
 1 -7 0 135.96 5.83 0
 1 -7 1 163.77 5.99 0
 1 -7 2 37.88 3.48 0
 1 -7 4 791.43 11.27 0
 1 -7 5 527.76 8.98 0
 1 -7 6 36.75 2.83 0
 1 -7 7 89.04 3.62 0
 1 -7 8 86.05 3.39 0
 1 -7 9 53.99 2.54 0
 1 -6 -10 11.42 4.22 0
 1 -6 -8 415.65 12.44 0
 1 -6 -7 91.44 6.18 0
 1 -6 -3 21.57 3.2 0
 1 -6 -2 154.88 6.12 0
 1 -6 -1 526.47 10.53 0
 1 -6 0 324.57 7.9 0
 1 -6 1 517.22 9.58 0
 1 -6 2 149.47 5.16 0
 1 -6 4 199.71 5.46 0
 1 -6 5 73.03 3.53 0
 1 -5 -9 250.8 9.51 0
 1 -5 -8 318.6 10.52 0
 1 -5 -4 175.72 6.9 0
 1 -5 -3 1886.12 19.86 0
 1 -5 -2 696.98 11.49 0
 1 -5 -1 93.36 4.36 0
 1 -5 0 381.39 7.98 0
 1 -5 2 704.74 10.11 0
 1 -5 3 1901.9 15.7 0
 1 -4 -10 344.4 10.66 0
 1 -4 -6 570.87 11.82 0
 1 -4 -4 66.51 4.19 0
 1 -4 -3 225.82 6.65 0
 1 -4 -2 1605.9 15.75 0
 1 -4 -1 627.59 9.68 0
 1 -4 0 696.04 9.76 0
 1 -4 1 612.76 8.91 0
 1 -3 -8 80.88 5.05 0
 1 -3 -7 735.59 13.08 0
 1 -3 -6 612.63 11.28 0
 1 -3 -5 394.05 8.61 0
 1 -3 -3 827.44 11.1 0
 1 -3 -2 375.37 7.06 0
 1 -2 -9 99.52 5.18 0
 1 -2 -8 88.5 5.04 0
 1 -2 -7 335.66 8.28 0
 1 -2 -6 954 12.88 0
 1 -2 -5 125.64 4.83 0
 1 -2 -4 1718.47 15.05 0
 1 -2 -3 489.96 7.61 0
 1 -2 -2 4052.52 20.34 0
 1 -2 -1 3377.21 17.62 0
 1 -1 -8 72.55 4.14 0
 1 -1 -6 367.79 7.37 0
 1 -1 -5 2317.34 16.58 0
 1 -1 -4 610.8 8.06 0
 1 -1 -3 9482.18 28.44 0
 1 -1 -2 195.87 4.32 0
 1 0 -7 434.04 7.41 0
 1 0 -5 1554.06 11.91 0
 1 0 -4 449.16 5.95 0
 1 0 -3 1256 8.88 0
 1 3 -1 1049.14 8.05 0
 1 4 -3 217.22 2.98 0
 1 5 -3 1816.09 10.59 0
 2 -16 -3 15.65 5.75 0
 2 -16 -2 -5.01 4.05 0
 2 -16 -1 122.15 9.45 0
 2 -15 -6 186.91 12.78 0
 2 -15 -5 59.27 9.23 0
 2 -15 -3 48.53 7.73 0
 2 -15 -1 34.27 6.44 0
 2 -15 0 108.7 9.06 0
 2 -15 1 43.92 6.33 0
 2 -14 -6 15 6.2 0
 2 -14 -5 53.22 8 0
 2 -14 -4 23.04 6.07 0
 2 -14 -3 106.27 9.99 0
 2 -14 -1 -0.86 4.07 0
 2 -14 0 -0.38 3.76 0
 2 -14 1 1.32 4.38 0
 2 -14 2 96.45 7.95 0
 2 -14 3 108.29 7.93 0
 2 -13 -9 28.75 7.58 0
 2 -13 -7 92.08 10.81 0
 2 -13 -6 15.1 5.88 0
 2 -13 -5 46.86 7.4 0
 2 -13 -4 44.71 7.83 0
 2 -13 -3 66.39 8.24 0
 2 -13 -2 21.74 5.37 0
 2 -13 -1 -1.21 4.03 0
 2 -13 0 46.25 6.27 0
 2 -13 2 22.25 5.05 0
 2 -13 3 60.2 6.17 0
 2 -12 -10 38.16 8.46 0
 2 -12 -9 60.29 8.51 0
 2 -12 -7 40.47 7.09 0
 2 -12 -6 103.62 9.08 0
 2 -12 -5 13.09 5.4 0
 2 -12 -4 55.74 7.42 0
 2 -12 -3 12.5 5.47 0
 2 -12 -2 161.75 9.69 0
 2 -12 -1 112.56 8.5 0
 2 -12 0 13.58 4.87 0
 2 -12 1 99.39 7.84 0
 2 -12 2 166.21 8.82 0
 2 -12 3 15.28 3.84 0
 2 -12 4 48.35 5.64 0
 2 -12 5 14.28 3.61 0
 2 -11 -11 27.59 6.57 0
 2 -11 -10 35.92 7.55 0
 2 -11 -9 37.09 6.95 0
 2 -11 -7 7.31 5.28 0
 2 -11 -5 99.18 8.36 0
 2 -11 -4 15.06 4.4 0
 2 -11 -3 79.69 7.26 0
 2 -11 0 210.99 9.82 0
 2 -11 1 91.14 6.71 0
 2 -11 3 78.43 5.79 0
 2 -10 -11 195.15 12.59 0
 2 -10 -9 86.48 8.44 0
 2 -10 -8 5.68 4.56 0
 2 -10 -7 9.19 4.74 0
 2 -10 -6 270.77 12.63 0
 2 -10 -5 -1.64 3.32 0
 2 -10 -4 36.5 5.64 0
 2 -10 -2 255.23 10.94 0
 2 -10 0 0.87 2.96 0
 2 -10 1 50.68 5.09 0
 2 -10 2 245.36 9.58 0
 2 -10 3 43.84 5.19 0
 2 -10 4 28.53 4.22 0
 2 -10 5 2.08 2.42 0
 2 -9 -11 25.44 6.02 0
 2 -9 -10 4.07 4.52 0
 2 -9 -9 96.8 8.3 0
 2 -9 -6 123.13 8.44 0
 2 -9 -5 536.2 15.61 0
 2 -9 -4 58.63 6.18 0
 2 -9 -1 47.58 5.46 0
 2 -9 0 185.99 8.21 0
 2 -9 1 51.82 4.84 0
 2 -9 2 96.76 6.16 0
 2 -9 8 59.2 4.09 0
 2 -8 -10 94.56 8.69 0
 2 -8 -9 110.63 8.87 0
 2 -8 -8 126.95 9.04 0
 2 -8 -6 164.11 9.24 0
 2 -8 -5 116.06 7.8 0
 2 -8 -4 164.57 8.46 0
 2 -8 -3 133.7 7.56 0
 2 -8 -2 404.21 11.69 0
 2 -8 5 113.21 5.95 0
 2 -8 6 170.79 6.52 0
 2 -8 7 264.4 7.82 0
 2 -8 8 124.72 5.54 0
 2 -8 9 110.98 5.07 0
 2 -7 -12 45.72 6.64 0
 2 -7 -10 8.16 4.27 0
 2 -7 -9 143.14 8.74 0
 2 -7 -8 203.52 10.16 0
 2 -7 -7 204.02 9.7 0
 2 -7 -6 39.74 5.25 0
 2 -7 -5 31.47 4.63 0
 2 -7 -4 417.19 11.94 0
 2 -7 2 173.08 6.78 0
 2 -7 3 50.54 4.1 0
 2 -6 -12 4.83 4.14 0
 2 -6 -11 70.81 6.75 0
 2 -6 -9 111.1 7.49 0
 2 -6 -6 459.05 12.69 0
 2 -6 -1 52.65 4.35 0
 2 -6 2 294.58 8.24 0
 2 -5 -12 27.17 5.09 0
 2 -5 -11 183.16 9.48 0
 2 -5 -10 314.7 11.38 0
 2 -5 -9 38.29 4.94 0
 2 -5 -8 279.77 10.05 0
 2 -5 -2 291.52 8.4 0
 2 -5 -1 470.7 10.28 0
 2 -5 0 33.35 3.37 0
 2 -4 -12 355.16 12 0
 2 -4 -11 11.26 3.54 0
 2 -4 -9 1.63 2.63 0
 2 -4 -5 382.38 9.75 0
 2 -4 -4 1029.84 15.2 0
 2 -4 -1 27.64 3 0
 2 -3 -12 366.25 11.46 0
 2 -3 -7 614.55 12.29 0
 2 -3 -6 185.42 6.83 0
 2 -3 -4 1835.69 18.73 0
 2 -3 -3 400.68 8.71 0
 2 -3 -2 1202.67 14.55 0
 2 -2 -8 233.57 7.52 0
 2 -2 -7 72.39 4.37 0
 2 -2 -4 1016.48 13.22 0
 2 -2 -3 295.74 7.03 0
 2 -1 -10 521.72 11.05 0
 2 -1 -9 126.33 5.58 0
 2 -1 -7 335.5 7.76 0
 2 -1 -5 515.07 8.92 0
 2 -1 -4 363.05 7.48 0
 2 0 -10 46.81 3.26 0
 2 0 -9 508.36 9.5 0
 2 0 -8 0.8 1.35 0
 2 0 -7 410.37 7.77 0
 2 0 -6 779.25 10.02 0
 2 0 -5 55.96 3.06 0
 2 0 -4 1846.4 14.55 0
 2 2 -8 232.86 4.38 0
 2 2 -7 75.28 2.53 0
 2 2 -6 37.21 1.81 0
 2 2 -5 125.81 3.08 0
 2 5 -4 124.44 2.7 0
 3 -16 -1 9.19 5.22 0
 3 -16 0 162.28 11.29 0
 3 -15 -3 29.47 7.23 0
 3 -15 -2 -0.26 4.74 0
 3 -15 -1 29.32 6.5 0
 3 -15 1 31.99 6.73 0
 3 -14 -7 20.78 7.71 0
 3 -14 -6 41.87 8.32 0
 3 -14 -4 11.62 6.4 0
 3 -14 -3 51.21 7.95 0
 3 -14 -2 129.06 10.86 0
 3 -14 -1 2.72 5.52 0
 3 -14 0 4.09 4.95 0
 3 -14 1 7.68 4.58 0
 3 -14 2 116.37 9.17 0
 3 -14 3 41.05 5.98 0
 3 -13 -10 21.55 7.06 0
 3 -13 -9 128.27 11.76 0
 3 -13 -8 72.26 10.25 0
 3 -13 -7 8.02 6.67 0
 3 -13 -6 19.76 7.27 0
 3 -13 -5 103.4 10.64 0
 3 -13 -3 -0.48 4.59 0
 3 -13 -2 80.46 9.17 0
 3 -13 -1 117.45 9.85 0
 3 -13 0 34.22 6.2 0
 3 -13 1 119.15 9.07 0
 3 -13 2 78.62 7.81 0
 3 -13 3 3.66 3.71 0
 3 -12 -11 36.52 7.8 0
 3 -12 -10 1.5 5.72 0
 3 -12 -9 21.78 6.79 0
 3 -12 -8 -1.94 5 0
 3 -12 -7 92.03 10.39 0
 3 -12 -6 6.3 5.32 0
 3 -12 -5 129.19 10.7 0
 3 -12 -4 150.75 10.96 0
 3 -12 -2 76.72 7.68 0
 3 -12 1 14.94 5.11 0
 3 -12 2 85.07 7.7 0
 3 -12 4 149.89 8.34 0
 3 -12 5 135.9 8.12 0
 3 -12 6 4.99 3.46 0
 3 -11 -12 10.38 6.07 0
 3 -11 -11 27.27 6.99 0
 3 -11 -9 388.76 16.82 0
 3 -11 -8 61.35 8.6 0
 3 -11 -7 51.08 7.63 0
 3 -11 -4 9.17 4.64 0
 3 -11 -3 8.16 4.3 0
 3 -11 -2 60.36 6.97 0
 3 -11 -1 526.84 16.11 0
 3 -11 0 11.77 4.21 0
 3 -11 1 511.56 15.35 0
 3 -11 2 60.76 6.56 0
 3 -11 3 10.61 3.74 0
 3 -11 4 14.03 3.92 0
 3 -11 5 50.82 5.61 0
 3 -11 6 78.9 6.15 0
 3 -11 7 45.87 4.96 0
 3 -10 -13 23.47 6.93 0
 3 -10 -12 6.73 5.47 0
 3 -10 -10 6.51 5.8 0
 3 -10 -6 44.5 7.13 0
 3 -10 -4 11.24 4.94 0
 3 -10 -3 6.44 3.8 0
 3 -10 -1 167.14 9.24 0
 3 -10 0 1.74 3.45 0
 3 -10 1 167.99 8.89 0
 3 -10 2 121.34 7.45 0
 3 -10 4 3.82 3.16 0
 3 -10 5 74.85 6.16 0
 3 -10 6 44.41 5.36 0
 3 -10 8 50.7 4.7 0
 3 -9 -13 130.63 10.44 0
 3 -9 -12 131.21 10.97 0
 3 -9 -9 25.6 6.48 0
 3 -9 -6 114.54 8.66 0
 3 -9 -5 47.58 6.04 0
 3 -9 -4 348.13 12.92 0
 3 -9 -2 31.78 5.01 0
 3 -9 1 20.33 4.33 0
 3 -9 2 32.36 5.19 0
 3 -9 3 37.37 4.88 0
 3 -9 4 336.35 10.97 0
 3 -9 5 51.87 5.41 0
 3 -9 7 43.57 5.3 0
 3 -9 8 17.1 3.33 0
 3 -9 9 23.98 3.73 0
 3 -8 -11 66.17 7.75 0
 3 -8 -10 33.14 6.39 0
 3 -8 -9 34.21 6.65 0
 3 -8 -8 85.87 7.67 0
 3 -8 -4 273.31 11.05 0
 3 -8 -1 288.64 10.73 0
 3 -8 0 15.05 3.6 0
 3 -8 1 297.68 10.59 0
 3 -8 2 228.24 9.14 0
 3 -8 3 33.05 4.75 0
 3 -8 5 92.29 6.23 0
 3 -7 -14 6.2 5.23 0
 3 -7 -12 30.9 6.34 0
 3 -7 -11 25.55 5.68 0
 3 -7 -8 22.26 4.87 0
 3 -7 -7 16.67 4.78 0
 3 -7 -6 50.38 5.57 0
 3 -7 -5 41.48 5.71 0
 3 -7 -3 108.86 7.21 0
 3 -7 -2 206.56 8.73 0
 3 -6 -14 111.19 9.26 0
 3 -6 -13 95.34 8.92 0
 3 -6 -12 68.41 7.98 0
 3 -6 -11 31.98 5.98 0
 3 -6 -8 46.98 5.49 0
 3 -6 -7 136.94 7.87 0
 3 -6 -6 434.33 12.86 0
 3 -6 -5 289.06 10.35 0
 3 -6 -3 250.54 9.43 0
 3 -5 -14 8.46 4.49 0
 3 -5 -13 78.75 7.61 0
 3 -5 -12 132.53 8.55 0
 3 -5 -11 33.44 5.36 0
 3 -5 -10 4.64 3.63 0
 3 -5 -8 229.38 9.63 0
 3 -5 -7 12.02 3.38 0
 3 -5 -6 17.66 3.74 0
 3 -5 -5 351.26 10.69 0
 3 -4 -13 73.63 7 0
 3 -4 -11 86.45 7.17 0
 3 -4 -9 35.92 4.85 0
 3 -4 -8 247.79 9.56 0
 3 -3 -13 34.2 5.3 0
 3 -3 -12 12.3 4.19 0
 3 -3 -11 258.57 10.06 0
 3 -2 -11 181.5 7.92 0
 3 -2 -6 133.47 5.95 0
 3 -2 -5 508.15 10.97 0
 3 -2 -4 669.05 12.21 0
 3 -1 -12 91.17 5.53 0
 3 -1 -9 12.38 2.71 0
 3 -1 -8 243.2 7.57 0
 3 -1 -7 1399.2 17.07 0
 3 -1 -6 622.13 11.42 0
 3 -1 -5 420.18 9.26 0
 3 0 -10 36.71 3.37 0
 3 0 -9 30.11 3.14 0
 3 0 -8 217.74 6.59 0
 3 1 -8 237.22 6.21 0
 3 1 -6 619.85 9.8 0
 3 2 -10 61.23 2.87 0
 3 2 -9 114.95 3.88 0
 3 2 -8 172.89 4.66 0
 3 3 -9 50.1 1.91 0
 3 3 -8 126.77 3.23 0
 3 3 -7 727.01 7.87 0
 3 3 -6 454.17 6.73 0
 3 4 -7 591.3 5.15 0
 3 5 -6 14.16 1 0
 3 5 -6 15.23 1.05 0
 4 -15 -2 12.92 6.1 0
 4 -15 -1 94.04 10.76 0
 4 -15 0 -1.01 4.61 0
 4 -14 -6 116.17 11.72 0
 4 -14 -4 151.47 12.3 0
 4 -14 -3 8.02 6.24 0
 4 -14 -1 17.42 5.84 0
 4 -14 2 69.99 8.14 0
 4 -14 3 4.18 4.8 0
 4 -13 -7 3.21 6.68 0
 4 -13 -6 50.25 9.21 0
 4 -13 -5 61.16 9.65 0
 4 -13 -4 24.81 7.59 0
 4 -13 -3 14.42 5.87 0
 4 -13 -2 44.94 7.41 0
 4 -13 -1 108.93 9.91 0
 4 -13 0 8.41 5.37 0
 4 -13 1 107.74 9.36 0
 4 -13 3 12.59 5.14 0
 4 -13 4 35.44 5.84 0
 4 -13 5 66.37 7.36 0
 4 -12 -10 53.17 9.03 0
 4 -12 -9 18 7.22 0
 4 -12 -7 109.52 11.17 0
 4 -12 -6 162.63 12.21 0
 4 -12 -4 14.12 5.54 0
 4 -12 -3 23.06 6.22 0
 4 -12 -2 111.18 9.4 0
 4 -12 -1 2.44 5.09 0
 4 -12 1 6.61 4.94 0
 4 -12 2 115.01 9.03 0
 4 -12 4 15.67 4.93 0
 4 -12 5 7.83 4.13 0
 4 -12 6 158.43 9.3 0
 4 -11 -11 10.05 6.15 0
 4 -11 -10 36.95 8.75 0
 4 -11 -9 -0.77 5.33 0
 4 -11 -7 44.94 8.45 0
 4 -11 -6 76.06 8.94 0
 4 -11 -5 4.15 4.85 0
 4 -11 -4 154.48 11.05 0
 4 -11 -2 16.93 5.09 0
 4 -11 -1 116.21 8.94 0
 4 -11 1 113.86 8.91 0
 4 -11 2 16.87 4.77 0
 4 -11 5 6.39 3.68 0
 4 -11 7 55.33 6.32 0
 4 -10 -13 -1.2 5.62 0
 4 -10 -10 37.19 7.83 0
 4 -10 -8 104.66 10.26 0
 4 -10 -6 154.58 10.55 0
 4 -10 -4 96.25 8.35 0
 4 -10 -2 183.5 10.47 0
 4 -10 0 0.72 3.55 0
 4 -10 1 6.11 3.86 0
 4 -10 2 163.8 9.39 0
 4 -10 6 163.28 9 0
 4 -10 7 68.05 6.81 0
 4 -10 8 114.68 7.68 0
 4 -9 -13 3.26 5.33 0
 4 -9 -11 37.74 7.5 0
 4 -9 -10 130.16 10.38 0
 4 -9 -8 218.17 12.12 0
 4 -9 -7 64.02 7.76 0
 4 -9 -6 7.22 4.15 0
 4 -9 -5 10.03 4.51 0
 4 -9 -4 116.4 8.59 0
 4 -9 -1 6.37 4.03 0
 4 -9 0 4.34 3.64 0
 4 -9 1 6.32 3.75 0
 4 -9 3 9.86 4.03 0
 4 -9 6 13.06 4.04 0
 4 -9 7 65.62 6.13 0
 4 -9 8 214.17 9.81 0
 4 -9 9 5.63 3.19 0
 4 -8 -14 8.08 5.46 0
 4 -8 -12 181.07 11.75 0
 4 -8 -11 30.91 7.24 0
 4 -8 -10 81.85 8.4 0
 4 -8 -9 24.49 6.04 0
 4 -8 -8 7.02 4.92 0
 4 -8 -7 136.26 9.33 0
 4 -8 -6 41.45 6.03 0
 4 -8 -5 76.69 7.52 0
 4 -8 -4 20.17 5.01 0
 4 -8 -1 26.31 5.02 0
 4 -8 0 185.81 9.53 0
 4 -8 1 22.08 4.57 0
 4 -8 2 84.95 7.46 0
 4 -8 3 16.63 4.3 0
 4 -7 -14 18.13 5.96 0
 4 -7 -13 39.73 7.9 0
 4 -7 -12 78.42 9.41 0
 4 -7 -11 182.33 10.97 0
 4 -7 -10 52.02 7.15 0
 4 -7 -8 156.2 9.64 0
 4 -7 -7 377.77 14.11 0
 4 -7 -6 41.88 5.9 0
 4 -7 -4 140.74 8.22 0
 4 -7 -3 378.44 13.21 0
 4 -7 -2 142.86 8.61 0
 4 -7 -1 406.25 13.2 0
 4 -7 0 14.95 4.05 0
 4 -6 -15 -0.48 3.84 0
 4 -6 -14 1.59 4.29 0
 4 -6 -13 5.53 4.82 0
 4 -6 -12 174.89 11.19 0
 4 -6 -11 114.79 9.3 0
 4 -6 -10 210.79 11.41 0
 4 -6 -7 71.89 6.88 0
 4 -6 -6 197.67 9.62 0
 4 -6 -5 31.89 5.04 0
 4 -6 -4 18.9 4.08 0
 4 -6 -2 408.17 12.7 0
 4 -6 -1 49.1 5.87 0
 4 -5 -15 3.45 3.95 0
 4 -5 -14 20.93 5.7 0
 4 -5 -12 27.07 5.44 0
 4 -5 -11 123.98 9.05 0
 4 -5 -10 10.37 4.18 0
 4 -5 -9 120.37 8.21 0
 4 -5 -7 25.77 4.52 0
 4 -5 -6 0.82 2.89 0
 4 -5 -5 1.62 3.3 0
 4 -5 -4 247.27 10.28 0
 4 -5 -3 29.66 4.57 0
 4 -4 -15 17.32 5.02 0
 4 -4 -12 35.35 5.91 0
 4 -4 -11 17.61 4.96 0
 4 -4 -9 50.08 5.68 0
 4 -4 -8 140.86 8.21 0
 4 -4 -7 25.25 4.51 0
 4 -4 -6 50.79 5.07 0
 4 -4 -5 636.61 14.97 0
 4 -3 -14 58.86 6.22 0
 4 -3 -13 37.87 5.63 0
 4 -3 -12 31.04 5.19 0
 4 -3 -11 113.96 7.31 0
 4 -3 -10 101.36 6.81 0
 4 -3 -7 11.16 3.33 0
 4 -3 -6 83.12 5.83 0
 4 -2 -13 119 7.26 0
 4 -2 -12 181.72 8.52 0
 4 -2 -11 35.01 4.62 0
 4 -2 -9 57.26 5.47 0
 4 -2 -8 81.38 5.87 0
 4 -1 -12 96.29 5.94 0
 4 -1 -11 7.82 3.07 0
 4 -1 -10 42.26 4.39 0
 4 0 -7 150.45 6.5 0
 4 0 -6 42.52 3.79 0
 4 1 -10 41.43 3.54 0
 4 1 -9 169.11 6.09 0
 4 1 -8 125.09 5.41 0
 4 1 -7 125.72 5.51 0
 4 2 -7 180.84 5.94 0
 4 3 -8 2.04 1.21 0
 4 4 -7 27.01 2.1 0
 5 -14 1 98 10.86 0
 5 -14 2 -5.12 4.79 0
 5 -14 3 107.18 9.51 0
 5 -13 -5 26.9 8.15 0
 5 -13 -4 10.03 6.39 0
 5 -13 -3 44.5 8.66 0
 5 -13 -1 14.97 6.67 0
 5 -13 1 16.59 5.86 0
 5 -13 2 1.8 4.89 0
 5 -13 3 46.09 7.14 0
 5 -13 4 15.97 5.28 0
 5 -12 -8 131.15 11.61 0
 5 -12 -7 32.49 9.16 0
 5 -12 -6 10.97 6.09 0
 5 -12 -5 4.13 5.48 0
 5 -12 -4 130.59 11.04 0
 5 -12 -3 15.82 6.26 0
 5 -12 -1 61.3 8.4 0
 5 -12 2 17.78 5.53 0
 5 -12 3 14.68 5.34 0
 5 -12 4 141.81 9.97 0
 5 -12 5 0.22 4.22 0
 5 -12 6 20.1 5.14 0
 5 -11 -10 49.91 9.86 0
 5 -11 -8 11.35 6.26 0
 5 -11 -5 316.09 15.95 0
 5 -11 -3 14.86 5.54 0
 5 -11 -1 20.3 5.69 0
 5 -11 0 11.95 5.06 0
 5 -11 1 25.4 6.73 0
 5 -11 2 3.73 4.44 0
 5 -11 3 19.91 5.6 0
 5 -11 4 38.82 7.14 0
 5 -11 5 331.39 14.02 0
 5 -11 6 10.44 4.51 0
 5 -11 7 6.1 4.87 0
 5 -11 8 15.09 5.22 0
 5 -10 -9 6.21 5.68 0
 5 -10 -7 -1.25 5.74 0
 5 -10 -6 18.66 6.33 0
 5 -10 -5 28.98 6.39 0
 5 -10 -4 80.58 9.76 0
 5 -10 -3 134.63 10.4 0
 5 -10 -2 36.68 6.67 0
 5 -10 1 33.15 6.21 0
 5 -10 2 31.14 6.08 0
 5 -10 3 137.78 10.12 0
 5 -10 4 88.62 8.63 0
 5 -10 5 19.13 5.26 0
 5 -10 6 21.09 5.58 0
 5 -10 7 5.16 4.76 0
 5 -10 8 2.7 4.14 0
 5 -10 9 6.92 4.03 0
 5 -9 -12 -3.35 5.36 0
 5 -9 -11 59.46 8.87 0
 5 -9 -10 -1.27 4.88 0
 5 -9 -9 229.39 13.62 0
 5 -9 -8 1.42 5.07 0
 5 -9 -7 25.02 6.88 0
 5 -9 -6 12.04 5.19 0
 5 -9 -2 82.57 7.74 0
 5 -9 -1 72.19 8.89 0
 5 -9 0 -1.1 3.64 0
 5 -9 1 78.57 7.82 0
 5 -9 2 86.56 8.26 0
 5 -9 4 27.88 5.61 0
 5 -9 5 14.61 5.38 0
 5 -8 -14 63.26 9.07 0
 5 -8 -12 45 7.62 0
 5 -8 -10 81.91 9.74 0
 5 -8 -6 55.95 7.99 0
 5 -8 -4 23.67 5.96 0
 5 -8 -3 70.36 7.88 0
 5 -8 -2 280.12 12.56 0
 5 -8 -1 21.32 5.13 0
 5 -8 0 113.81 9.1 0
 5 -7 -15 58.73 7.97 0
 5 -7 -14 141.97 10.96 0
 5 -7 -13 132.57 10.92 0
 5 -7 -10 76.71 9.28 0
 5 -7 -9 207.9 11.66 0
 5 -7 -8 41.69 7.35 0
 5 -7 -7 24.43 5.6 0
 5 -7 -6 119.24 9.39 0
 5 -7 -5 38.82 6.17 0
 5 -7 -2 84.69 7.85 0
 5 -7 -1 19.17 4.68 0
 5 -6 -15 7.88 5.53 0
 5 -6 -14 55.32 8.14 0
 5 -6 -12 19.82 5.49 0
 5 -6 -10 15.71 5.18 0
 5 -6 -8 25.34 5.54 0
 5 -6 -7 6.04 4.14 0
 5 -6 -4 151.71 9.26 0
 5 -6 -2 158.61 9.46 0
 5 -5 -14 22.98 5.63 0
 5 -5 -11 21.43 5.85 0
 5 -5 -10 58.56 7.25 0
 5 -5 -9 179.87 10.07 0
 5 -5 -8 101.94 8.19 0
 5 -5 -7 64.7 7.64 0
 5 -5 -6 16.09 5.02 0
 5 -4 -14 46.16 6.48 0
 5 -4 -13 23.35 5.08 0
 5 -4 -12 9.87 4.49 0
 5 -4 -11 47.33 6.88 0
 5 -4 -10 4.16 3.95 0
 5 -4 -8 37.68 5.9 0
 5 -4 -7 28.85 4.98 0
 5 -4 -6 9.98 4.35 0
 5 -4 -5 315.83 11.86 0
 5 -3 -13 69.24 6.59 0
 5 -3 -12 55.83 6.57 0
 5 -3 -11 75.98 7.29 0
 5 -3 -10 542.94 15.44 0
 5 -3 -9 227.88 10.31 0
 5 -3 -7 77.6 6.77 0
 5 -3 -6 27.21 5.09 0
 5 -3 -5 12.23 3.71 0
 5 -2 -13 0.26 2.47 0
 5 -2 -12 65.4 6.18 0
 5 -2 -11 2.52 3.06 0
 5 -2 -10 1.38 3.21 0
 5 -2 -9 155.01 8 0
 5 -2 -7 109.9 7.06 0
 5 -2 -6 32.67 4.91 0
 5 -1 -11 122.76 6.89 0
 5 -1 -9 3.5 2.9 0
 5 -1 -7 60.85 5.59 0
 5 0 -10 11.42 2.86 0
 5 1 -9 3.26 2.47 0
 6 -13 2 33.64 7.89 0
 6 -12 -4 2.1 5.83 0
 6 -12 -3 20.88 6.95 0
 6 -12 -2 48.52 8.37 0
 6 -12 -1 4.76 5.66 0
 6 -12 0 28.92 7.18 0
 6 -12 1 5.32 5.65 0
 6 -12 3 24.99 6.56 0
 6 -12 4 -0.1 4.21 0
 6 -12 6 198.68 12 0
 6 -11 -7 77.79 10.55 0
 6 -11 -6 5.37 6.01 0
 6 -11 -5 12.08 7.41 0
 6 -11 -4 100.87 10.88 0
 6 -11 -3 63.2 9.03 0
 6 -11 -2 7.7 5.57 0
 6 -11 -1 31.65 7.03 0
 6 -11 0 133.05 11.27 0
 6 -11 1 27.72 6.59 0
 6 -11 2 7.38 5.64 0
 6 -11 3 65.07 8.74 0
 6 -11 4 88.76 8.73 0
 6 -11 5 13.75 5.45 0
 6 -11 6 9.83 5.46 0
 6 -11 8 35.62 6.37 0
 6 -10 -9 5.36 5.82 0
 6 -10 -7 10.39 6.69 0
 6 -10 -4 49.62 8.04 0
 6 -10 -3 4.19 5.44 0
 6 -10 -2 144.18 11.14 0
 6 -10 0 8.71 5.19 0
 6 -10 3 -0.15 4.38 0
 6 -10 6 149.8 10.81 0
 6 -10 8 43.36 7.23 0
 6 -9 -9 12.14 6.58 0
 6 -9 -7 7.98 6.46 0
 6 -9 -6 12.93 5.83 0
 6 -9 -5 57.65 8.35 0
 6 -9 -2 6.6 5.18 0
 6 -9 -1 1.97 4.54 0
 6 -9 1 3.33 4.76 0
 6 -9 3 52.84 8.49 0
 6 -9 4 14.33 5.46 0
 6 -9 5 57.21 7.83 0
 6 -8 -11 9.8 5.93 0
 6 -8 -10 10.95 7 0
 6 -8 -9 36.17 7.5 0
 6 -8 -8 0.66 4.95 0
 6 -8 -6 8.95 5.47 0
 6 -8 -5 18.05 6.02 0
 6 -8 -2 30.93 7.2 0
 6 -8 -1 142.68 10.3 0
 6 -8 0 6.33 4.87 0
 6 -8 1 134.44 10.66 0
 6 -7 -13 52.9 8.41 0
 6 -7 -12 8.45 5.76 0
 6 -7 -11 121.88 10.86 0
 6 -7 -9 2.93 4.83 0
 6 -7 -8 167.39 11.87 0
 6 -7 -7 200.08 11.98 0
 6 -7 -5 78.1 9.69 0
 6 -7 -4 246.3 13.04 0
 6 -7 -3 31.61 6.59 0
 6 -7 -2 80.6 9.13 0
 6 -7 -1 241.83 12.46 0
 6 -6 -13 46.99 7.64 0
 6 -6 -12 88.65 9.61 0
 6 -6 -10 108.71 9.99 0
 6 -6 -8 68.38 8.19 0
 6 -6 -6 94.91 8.8 0
 6 -6 -5 8.11 4.66 0
 6 -6 -3 2.11 3.78 0
 6 -6 -2 101.88 8.86 0
 6 -5 -14 17.3 5.6 0
 6 -5 -13 37.18 6.49 0
 6 -5 -12 141.51 10.61 0
 6 -5 -11 18.89 5.52 0
 6 -5 -8 84.1 8.6 0
 6 -5 -6 53.52 7.16 0
 6 -5 -3 218.81 11.33 0
 6 -4 -13 -0.69 3.85 0
 6 -4 -12 4.45 4.45 0
 6 -4 -11 31.06 6.28 0
 6 -4 -10 23.52 5.37 0
 6 -4 -9 36.99 6.31 0
 6 -4 -8 43.89 6.54 0
 6 -4 -7 4.47 4.19 0
 6 -4 -5 85.09 7.58 0
 6 -3 -13 24.92 4.78 0
 6 -3 -12 65.83 7.61 0
 6 -3 -10 48.41 6.71 0
 6 -3 -9 62.55 6.61 0
 6 -3 -8 73.48 7.37 0
 6 -2 -12 6.78 3.95 0
 6 -2 -11 64.4 6.31 0
 6 -2 -10 17.92 4.86 0
 6 -2 -9 39.56 5.95 0
 6 -2 -7 99.62 7.87 0
 6 -2 -6 72.73 7.1 0
 6 -1 -10 72.83 6.28 0
 6 -1 -9 1.96 3.14 0
 6 -1 -8 128.08 8.12 0
 6 -1 -7 126.42 7.86 0
 6 0 -10 65.46 5.47 0
 6 0 -9 128.58 7.23 0
 6 0 -8 47.61 5.34 0
 6 0 -7 471.79 13.59 0
 6 1 -9 1.12 2.19 0
 6 1 -8 131.48 7.23 0
 6 1 -7 128.35 7.43 0
 6 2 -8 8.26 2.65 0
 7 -11 -1 166.46 13.17 0
 7 -11 2 8.75 5.77 0
 7 -10 -5 29.05 8.07 0
 7 -10 -2 42.34 8.58 0
 7 -10 -1 53.66 9.13 0
 7 -10 0 105.72 10.65 0
 7 -10 2 34.94 8.5 0
 7 -10 3 69.1 9.51 0
 7 -10 4 31.98 7.14 0
 7 -10 5 31.36 7.28 0
 7 -10 6 26.44 7.35 0
 7 -9 -7 36.09 8.06 0
 7 -9 -4 90.45 11.01 0
 7 -9 1 65.05 9.02 0
 7 -9 4 80.66 10.53 0
 7 -8 -9 15.89 6.39 0
 7 -8 -8 1.25 5.34 0
 7 -8 -7 55.3 8.41 0
 7 -8 -6 4.31 5.29 0
 7 -8 -4 60.53 9.27 0
 7 -8 -2 55.23 8.77 0
 7 -8 -1 105.07 10.06 0
 7 -8 2 59.65 8.55 0
 7 -7 -10 3.55 5.77 0
 7 -7 -9 22.38 6.79 0
 7 -7 -8 3.98 6.09 0
 7 -7 -7 6.48 5.44 0
 7 -7 -6 4.5 5.25 0
 7 -7 -5 49.63 7.87 0
 7 -7 -4 4.27 5 0
 7 -7 -3 83.55 10.42 0
 7 -7 -2 87.07 9.71 0
 7 -7 -1 54.99 8.36 0
 7 -7 0 42.99 7.4 0
 7 -6 -11 23.86 6.78 0
 7 -6 -10 107.7 10.61 0
 7 -6 -9 8.43 5.21 0
 7 -6 -8 -0.76 4.59 0
 7 -6 -7 22.09 6.73 0
 7 -6 -6 39.71 7.34 0
 7 -6 -4 16.41 6.05 0
 7 -6 -3 196.19 12.19 0
 7 -6 -2 57.66 8.03 0
 7 -5 -12 39.2 7.22 0
 7 -5 -11 18.55 5.43 0
 7 -5 -10 120.46 10.3 0
 7 -5 -8 54.54 7.47 0
 7 -5 -4 98.52 9.17 0
 7 -5 -3 -2.07 4.94 0
 7 -4 -12 178.79 11.17 0
 7 -4 -11 47.03 7.61 0
 7 -4 -10 57.65 7.58 0
 7 -4 -9 34 6.56 0
 7 -4 -8 1.08 4.48 0
 7 -4 -7 105.32 9.63 0
 7 -4 -6 191.73 11.43 0
 7 -4 -4 15.77 5.64 0
 7 -3 -12 9.56 4.81 0
 7 -3 -11 35.42 6.52 0
 7 -3 -9 5.39 4.29 0
 7 -3 -8 52.57 7.5 0
 7 -3 -7 40.35 7.07 0
 7 -3 -5 64.59 8.44 0
 7 -2 -11 110.09 8.49 0
 7 -2 -10 14.71 5.13 0
 7 -2 -9 29.69 6.08 0
 7 -2 -7 30.46 5.85 0
 7 -2 -6 5.02 4.28 0
 7 -1 -10 32.99 5.48 0
 7 -1 -9 18.55 4.88 0
 7 -1 -8 177.8 10.07 0
 7 -1 -7 308.15 12.97 0
 7 0 -9 7.59 3.6 0
 7 0 -8 111.78 8.15 0
 7 1 -8 184.06 9.28 0
 7 1 -7 302.75 11.82 0
 7 2 -7 34.07 5.38 0
 8 -8 -2 197.27 14.01 0
 8 -8 0 62.48 9.6 0
 8 -8 1 84.5 10.33 0
 8 -8 2 190.38 14.16 0
 8 -7 -5 6.08 6.63 0
 8 -7 -4 10.01 6.16 0
 8 -7 -2 5.07 5.91 0
 8 -7 -1 3.84 6.5 0
 8 -7 0 9.49 6.46 0
 8 -6 -7 32.4 7.29 0
 8 -6 -5 22.43 6.74 0
 8 -6 -4 38.15 7.71 0
 8 -6 -3 120.89 10.9 0
 8 -6 -2 12.43 7.14 0
 8 -6 -1 16.31 6.54 0
 8 -5 -9 68.72 9.4 0
 8 -5 -8 12.77 5.81 0
 8 -5 -7 76.11 9.52 0
 8 -5 -6 65.68 9.42 0
 8 -5 -5 23.23 6.54 0
 8 -5 -4 12.93 6.03 0
 8 -5 -3 63.79 9.03 0
 8 -4 -10 107.96 10.18 0
 8 -4 -9 11.28 5.34 0
 8 -4 -8 87.92 9.37 0
 8 -4 -6 20.7 6.22 0
 8 -4 -5 135 11.67 0
 8 -3 -10 61.81 7.64 0
 8 -3 -9 4.66 5.44 0
 8 -3 -8 53.88 8.09 0
 8 -3 -7 53.27 8.39 0
 8 -3 -6 35.01 7.67 0
 8 -3 -5 22.65 6.39 0
 8 -2 -9 34.83 6.4 0
 8 -2 -8 -1.44 4.72 0
 8 -2 -7 8.28 5.34 0
 8 -2 -5 110.71 10.3 0
 8 -1 -9 88.28 7.85 0
 8 -1 -8 11.52 4.78 0
 8 -1 -6 58.23 7.63 0
 8 0 -8 46.33 6.2 0
 8 0 -7 7.51 4.32 0
 8 0 -6 21.58 6.06 0
 9 -4 -3 21.08 8.18 0
 9 -3 -5 54.11 8.81 0
 9 -3 -4 5.23 5.57 0
 9 -1 -7 -1.67 4.37 0
 9 0 -7 27.91 7.01 0
 9 0 -6 18.57 5.94 0
 9 1 -6 6.29 4.55 0
 -2 1 -9 125.5 2.04 0
 -1 -1 -2 200.65 2.68 0
 -1 0 -3 1309.88 5.74 0
 -1 0 -1 1112.97 5.52 0
 -1 0 0 -0.26 0.87 0
 -1 0 1 1107.2 5.77 0
 -1 0 2 823.57 5.04 0
 -1 0 7 432.86 3.6 0
 -1 1 -6 387.9 2.94 0
 -1 1 -4 638.86 4.35 0
 -1 1 9 105.36 1.66 0
 0 2 -8 298.26 2.2 0
 0 2 -7 217.02 2.33 0
 0 3 -9 0.44 0.42 0
 0 3 -8 190.24 2.85 0
 0 3 10 36.68 1.07 0
 0 3 10 41.46 1.2 0
 0 4 -10 158.14 2.82 0
 0 4 -9 126.69 2.8 0
 0 4 11 123.41 2.33 0
 0 5 -10 44.77 2 0
 1 0 -3 1285.63 6.62 0
 1 0 -2 811.57 5.2 0
 1 0 0 0.51 0.66 0
 1 0 1 1052.66 5.52 0
 1 0 2 830.8 4.79 0
 1 1 -7 162.2 2.47 0
 1 1 -3 9712.76 18.57 0
 1 1 -2 197.58 2.79 0
 1 1 -1 1058.51 6.11 0
 1 1 1 1022.46 5.77 0
 1 1 3 9404.34 16.98 0
 1 1 6 378.46 3.03 0
 1 2 -9 106.41 2.08 0
 1 2 -8 94.49 2.12 0
 1 2 -5 127.42 2.62 0
 1 2 -4 1681.97 8.85 0
 1 2 -2 3952.66 13.46 0
 1 2 4 1685.45 8.43 0
 1 2 5 119.87 2.33 0
 1 2 6 938.56 5.97 0
 1 2 7 340.92 3.48 0
 1 2 8 93.91 1.68 0
 1 3 -10 209.1 3.15 0
 1 3 -9 341.18 4.3 0
 1 3 -6 634.88 6.24 0
 1 3 -5 397.48 5.1 0
 1 3 7 727.78 6.22 0
 1 3 8 84.67 2.13 0
 1 3 10 213.07 2.45 0
 1 4 -10 373.25 4.96 0
 1 4 -8 1051.53 8.9 0
 1 4 -7 390.95 5.51 0
 1 4 -6 554.67 6.72 0
 1 4 8 1016.01 8.41 0
 1 4 9 532.33 5.79 0
 1 4 11 9.9 0.93 0
 1 5 -9 261.96 4.99 0
 1 5 -7 521.97 7.22 0
 1 5 10 22.95 1.76 0
 1 5 11 437.66 5.51 0
 1 6 -10 13.02 1.77 0
 1 6 -9 163.19 4.42 0
 1 6 10 13.38 1.63 0
 1 6 11 18.79 1.79 0
 1 8 -11 18.83 2.16 0
 1 8 -9 32.32 3.1 0
 1 8 11 23.08 2.57 0
 1 9 -10 4.03 2.11 0
 1 10 -11 167.11 5.86 0
 1 10 -10 91.38 4.8 0
 1 11 -11 24.89 3.3 0
 1 11 -10 143.7 6.36 0
 1 12 -10 23.03 3.55 0
 1 13 -9 74.31 5.81 0
 1 14 -10 47.95 5.44 0
 1 14 -9 81.21 5.96 0
 1 15 -8 15.94 4.23 0
 2 0 -4 1886.9 11.45 0
 2 0 -3 1603.94 10.4 0
 2 0 -1 3275.41 14.5 0
 2 0 1 3411.74 14.46 0
 2 0 2 193.13 3.6 0
 2 0 3 1635.12 9.94 0
 2 0 4 1868.63 10.43 0
 2 1 -7 335.5 4.97 0
 2 1 -6 475.22 5.91 0
 2 1 -5 533.22 6.24 0
 2 1 -4 362.39 5.13 0
 2 1 -3 820.84 7.47 0
 2 1 -2 3136.1 14.33 0
 2 1 -1 2465.95 12.59 0
 2 1 0 275.36 4.29 0
 2 1 1 2629.95 12.74 0
 2 1 2 3169.13 13.89 0
 2 1 3 814.08 7.08 0
 2 1 4 349.7 4.67 0
 2 1 5 524.1 5.61 0
 2 1 6 475.98 5.21 0
 2 2 -8 232.34 4.37 0
 2 2 -6 40.42 1.97 0
 2 2 -5 128.02 3.31 0
 2 2 -4 1039.44 8.87 0
 2 2 -3 297.91 4.93 0
 2 2 -1 594.7 6.82 0
 2 2 1 609.66 6.7 0
 2 2 2 1767.47 11.15 0
 2 2 3 294.18 4.71 0
 2 2 4 1058.69 8.49 0
 2 2 5 121.71 2.93 0
 2 2 6 37.23 1.8 0
 2 2 7 73.49 2.28 0
 2 2 8 227.28 3.67 0
 2 2 9 149.84 2.81 0
 2 3 -7 647.44 7.53 0
 2 3 -6 193.09 4.25 0
 2 3 -4 1825.2 12.62 0
 2 3 -3 399.85 6.01 0
 2 3 -2 1226.12 10.14 0
 2 3 0 26.25 1.76 0
 2 3 1 1005.13 8.97 0
 2 3 2 1224.59 9.97 0
 2 3 3 405.41 5.79 0
 2 3 4 1782.92 11.81 0
 2 3 5 341.7 5.33 0
 2 3 7 625.5 6.82 0
 2 3 8 12.34 1.31 0
 2 3 9 97.19 2.64 0
 2 3 10 82.77 2.23 0
 2 4 -9 0.45 1.09 0
 2 4 -8 226.38 4.89 0
 2 4 -6 269.06 5.46 0
 2 4 -5 403.9 6.5 0
 2 4 -4 1032.61 10.11 0
 2 4 -3 730.51 8.57 0
 2 4 -2 15.4 1.94 0
 2 4 -1 29.32 2.11 0
 2 4 0 147.34 4.01 0
 2 4 1 27.74 1.93 0
 2 4 2 18.43 2.16 0
 2 4 3 694.12 8.15 0
 2 4 5 407.41 6.17 0
 2 4 6 254.94 4.98 0
 2 4 9 1.19 0.97 0
 2 4 10 90.95 2.73 0
 2 4 11 13.59 1.23 0
 2 5 -10 312.19 5.99 0
 2 5 -9 40.55 2.54 0
 2 5 -8 291.84 6.08 0
 2 5 -7 488.37 7.71 0
 2 5 -6 24.69 2.49 0
 2 5 -5 340.56 6.48 0
 2 5 -4 122.79 4.09 0
 2 5 4 133.6 4.12 0
 2 5 5 333.69 6.32 0
 2 5 6 23.61 2.07 0
 2 5 7 472.77 7.1 0
 2 5 11 186.97 4.07 0
 2 6 8 39.43 2.58 0
 2 6 9 102.97 3.74 0
 2 6 10 63.38 3.14 0
 2 6 11 76.95 3.16 0
 2 7 -11 15.53 2.17 0
 2 7 -10 7.56 1.99 0
 2 7 -9 149.58 5 0
 2 7 -8 194.83 5.67 0
 2 7 -7 210.92 6.01 0
 2 7 -6 38.56 3.24 0
 2 7 -5 31.5 2.88 0
 2 8 -11 105.35 4.52 0
 2 8 -10 92.38 4.47 0
 2 8 -9 113.38 4.86 0
 2 8 -8 124.46 5.19 0
 2 8 -7 245.64 6.94 0
 2 8 -6 174 5.92 0
 2 8 8 130.53 5.04 0
 2 8 9 114.78 4.6 0
 2 8 10 87.91 4.19 0
 2 8 11 101.05 4.27 0
 2 9 -10 0.77 1.94 0
 2 9 -9 96.23 4.98 0
 2 9 -8 52.54 4.05 0
 2 9 -7 38.57 3.98 0
 2 9 -6 135.7 5.69 0
 2 9 8 56.66 3.98 0
 2 9 9 92.61 4.87 0
 2 9 10 2.45 1.86 0
 2 9 11 32.49 3.2 0
 2 10 -11 193.85 6.72 0
 2 10 -10 26.09 3.32 0
 2 10 -9 78.88 5.1 0
 2 10 -7 10.2 2.77 0
 2 10 -6 267.37 8.34 0
 2 10 8 5.28 2.75 0
 2 10 9 83.42 4.73 0
 2 10 10 23.52 3.12 0
 2 10 11 198 6.58 0
 2 11 -11 33.35 3.64 0
 2 11 -9 37.26 4.17 0
 2 11 -8 260.81 8.48 0
 2 11 -7 9.12 3.18 0
 2 11 -6 68.09 5.37 0
 2 11 8 252.31 8.43 0
 2 11 10 35.7 4.12 0
 2 12 -11 9.29 3.14 0
 2 12 -10 47.76 4.53 0
 2 12 -9 54.74 4.8 0
 2 12 -8 22.09 3.88 0
 2 12 -7 42.3 4.45 0
 2 12 -6 109.91 6.3 0
 2 12 9 60.44 4.99 0
 2 12 10 41.89 4.5 0
 2 13 -11 67.86 5.47 0
 2 13 -9 22.8 4.36 0
 2 13 -8 90.32 6.14 0
 2 13 -7 101.37 6.82 0
 2 13 -6 13.49 3.89 0
 2 13 -5 54.51 5.14 0
 2 13 7 98.07 6.38 0
 2 13 9 19.76 3.75 0
 2 13 10 180.1 7.75 0
 2 14 -10 8.88 3.36 0
 2 14 -9 20.96 4.1 0
 2 14 -7 26.33 4.93 0
 2 14 -6 13.09 4 0
 2 14 -5 45.3 5.35 0
 2 14 9 16.7 3.81 0
 2 15 -7 44.48 5.5 0
 2 15 -5 62.92 7.09 0
 2 15 -4 37.36 5.28 0
 2 15 -3 47.4 5.87 0
 2 15 5 62.64 6.22 0
 2 15 6 171.23 8.93 0
 2 15 7 30.33 5.21 0
 3 0 -3 200.6 4.81 0
 3 0 1 25.08 2.36 0
 3 0 3 205.56 4.59 0
 3 1 -7 1411.17 12.52 0
 3 1 -6 621.28 8.41 0
 3 1 -5 408.7 6.79 0
 3 1 -4 51.71 2.71 0
 3 1 -3 18.53 1.96 0
 3 1 -2 1719.53 13.38 0
 3 1 -1 116.55 3.69 0
 3 1 2 1727.07 13.08 0
 3 1 3 20.5 1.81 0
 3 1 4 49.76 2.46 0
 3 1 5 426.47 6.49 0
 3 1 6 612.04 7.54 0
 3 2 -9 113.99 3.89 0
 3 2 -8 183.71 4.82 0
 3 2 -7 22.09 2.02 0
 3 2 -6 135.75 4.21 0
 3 2 -5 499.33 7.64 0
 3 2 -4 667.94 8.64 0
 3 2 -2 595.99 8.04 0
 3 2 -1 88.7 3.47 0
 3 2 0 563.52 7.75 0
 3 2 2 580.49 7.75 0
 3 2 3 314.45 5.73 0
 3 2 4 689.62 8.39 0
 3 2 5 506.84 7.13 0
 3 2 6 136.36 3.8 0
 3 2 7 19.12 1.76 0
 3 2 8 173.95 4.15 0
 3 2 9 116.88 3.4 0
 3 3 -9 47.02 2.78 0
 3 3 -8 137.4 4.47 0
 3 3 -7 736.28 9.6 0
 3 3 -6 464.66 7.65 0
 3 3 -5 184.09 4.9 0
 3 3 -3 757.58 9.44 0
 3 3 -2 86.83 3.52 0
 3 3 0 968.26 10.55 0
 3 3 1 511.84 7.69 0
 3 3 2 89.66 3.43 0
 3 3 3 761.14 9.27 0
 3 3 5 173.64 4.42 0
 3 3 6 465.76 7.08 0
 3 3 7 726.84 8.68 0
 3 3 8 129.44 3.84 0
 3 3 9 52.33 2.58 0
 3 3 10 56.66 2.49 0
 3 4 -5 50.25 3.1 0
 3 4 -3 55.77 3.2 0
 3 4 -2 129.21 4.33 0
 3 4 -1 1000.22 11.34 0
 3 4 1 996.88 11.34 0
 3 4 5 51.12 2.83 0
 3 4 6 34.15 2.71 0
 3 4 7 610.62 8.62 0
 3 4 8 246.36 5.37 0
 3 4 9 33.01 2.38 0
 3 4 10 151.58 4.11 0
 3 4 11 98.28 3.17 0
 3 5 -11 32.27 2.6 0
 3 5 10 3.7 1.57 0
 3 5 11 39.64 2.46 0
 3 6 -11 34.56 2.85 0
 3 6 -10 250.66 6.55 0
 3 6 -9 111.87 4.66 0
 3 6 -8 49.78 3.62 0
 3 6 -5 283.69 7.1 0
 3 6 -4 331.96 7.58 0
 3 6 -3 251.57 6.64 0
 3 7 -11 19.66 2.53 0
 3 7 -10 101.82 4.72 0
 3 7 -9 136.33 5.52 0
 3 7 -8 22.66 2.89 0
 3 7 -7 20.3 2.82 0
 3 7 -6 53.89 4.04 0
 3 7 -5 42.15 3.71 0
 3 7 -4 18.01 2.94 0
 3 7 -2 218.63 6.34 0
 3 7 0 43.09 3.4 0
 3 7 2 200.86 6.29 0
 3 7 3 103.3 4.55 0
 3 7 4 18.4 2.61 0
 3 7 5 40.49 3.51 0
 3 7 6 52.89 3.5 0
 3 7 7 16.62 2.62 0
 3 7 8 28.9 2.8 0
 3 7 9 132.4 4.99 0
 3 7 10 100.07 4.34 0
 3 7 11 24.94 2.66 0
 3 8 -11 72.45 4.32 0
 3 8 -10 34.42 3.6 0
 3 8 -9 43.38 3.8 0
 3 8 -8 84.81 4.93 0
 3 8 -7 7.62 2.47 0
 3 8 -6 208.86 7 0
 3 8 -3 32.48 3.2 0
 3 8 -2 248.36 7.26 0
 3 8 -1 303.61 7.91 0
 3 8 0 21.62 2.99 0
 3 8 1 286.63 7.82 0
 3 8 2 241.82 7.13 0
 3 8 3 39.9 3.46 0
 3 8 4 271.48 7.43 0
 3 8 5 83.41 4.7 0
 3 8 6 203.71 6.49 0
 3 8 7 9.57 2.41 0
 3 8 8 89.83 4.75 0
 3 8 9 37.87 3.55 0
 3 8 10 37.36 3.5 0
 3 8 11 65.86 3.93 0
 3 9 -11 18.15 2.83 0
 3 9 -10 21.57 3.2 0
 3 9 -9 29.48 3.84 0
 3 9 -8 22.15 3.61 0
 3 9 -7 49.95 4.05 0
 3 9 -6 102.47 5.53 0
 3 9 -5 52.81 4.34 0
 3 9 -4 335.2 8.85 0
 3 9 -2 34.86 3.57 0
 3 9 -1 26.63 3.38 0
 3 9 3 44.09 3.84 0
 3 9 4 358.56 9.02 0
 3 9 6 112.87 5.71 0
 3 9 7 45.97 3.95 0
 3 9 8 23.44 3.51 0
 3 9 9 33 3.9 0
 3 9 10 21.66 3.24 0
 3 9 11 21.34 2.9 0
 3 10 -11 38.17 4.15 0
 3 10 -10 4.73 2.8 0
 3 10 -9 50.31 4.67 0
 3 10 -7 16.27 3.24 0
 3 10 -6 58.53 4.69 0
 3 10 -3 5.55 2.57 0
 3 10 -2 127.27 6.08 0
 3 10 -1 164.87 7.16 0
 3 10 0 -0.24 2.24 0
 3 10 1 160.8 6.75 0
 3 10 3 9.84 3.13 0
 3 10 4 10.99 2.92 0
 3 10 5 82.35 5.32 0
 3 10 6 50.97 4.49 0
 3 10 7 9.57 2.91 0
 3 10 8 49.32 4.48 0
 3 10 10 3.24 2.31 0
 3 10 11 40 4.22 0
 3 11 -10 14.59 3.39 0
 3 11 -9 370.53 10.56 0
 3 11 -6 72.62 5.55 0
 3 11 -5 49.41 5.01 0
 3 11 -3 11.2 3.15 0
 3 11 -2 53.99 4.79 0
 3 11 0 19.05 3.48 0
 3 11 1 523.54 12.21 0
 3 11 2 66.61 5.02 0
 3 11 3 11.97 3.33 0
 3 11 4 15.61 3.34 0
 3 11 5 47.42 4.46 0
 3 11 6 71.07 5.45 0
 3 11 7 55.18 4.58 0
 3 11 8 70.42 5.12 0
 3 11 9 373.57 10.01 0
 3 11 10 11.68 2.99 0
 3 12 -11 42.84 4.65 0
 3 12 -10 2.6 2.85 0
 3 12 -9 26.65 4.23 0
 3 12 -8 1.81 3.29 0
 3 12 -7 93.51 6.18 0
 3 12 -6 4.97 3.13 0
 3 12 -5 138.18 7.37 0
 3 12 -4 145.43 7.27 0
 3 12 -2 88.59 5.97 0
 3 12 -1 18.31 4.22 0
 3 12 0 7.41 3 0
 3 12 1 18.14 3.76 0
 3 12 2 79.68 5.84 0
 3 12 3 40.97 5.17 0
 3 12 4 154.43 7.67 0
 3 12 5 127.65 6.88 0
 3 12 6 10.69 3.68 0
 3 12 7 97.48 5.93 0
 3 12 8 -2.17 2.53 0
 3 12 9 24.14 3.76 0
 3 12 10 4.06 3.27 0
 3 13 -10 17.04 3.81 0
 3 13 -9 128.08 7.13 0
 3 13 -7 9.4 3.77 0
 3 13 -5 109.09 6.7 0
 3 13 -3 2.46 3.85 0
 3 13 -2 82.64 6.44 0
 3 13 -1 113.88 7.02 0
 3 13 1 118 7.42 0
 3 13 2 76.7 6.2 0
 3 13 3 2.56 3.2 0
 3 13 4 41.48 5.16 0
 3 13 5 115.3 7.1 0
 3 13 6 27.22 4.4 0
 3 13 7 6.18 3.47 0
 3 13 8 68.86 5.44 0
 3 13 10 24.75 4.38 0
 3 14 -9 39.18 5.34 0
 3 14 -8 3.09 3.25 0
 3 14 -7 22.27 4.39 0
 3 14 -5 31.64 5.23 0
 3 14 -4 13.45 4.22 0
 3 14 -2 116.81 7.77 0
 3 14 -1 8.31 3.67 0
 3 14 0 4.46 3.97 0
 3 14 1 3.76 4.08 0
 3 14 3 50.07 5.45 0
 3 14 4 8.96 3.83 0
 3 14 5 35.16 5.49 0
 3 14 6 52.2 6.37 0
 3 14 7 30.79 4.61 0
 3 14 8 5.12 3.37 0
 3 14 9 47.93 5.86 0
 3 15 -5 9.01 4.56 0
 3 15 -3 26.91 5.29 0
 3 15 -2 3.9 4.31 0
 3 15 0 48.32 5.87 0
 3 15 1 25.5 5.07 0
 3 15 2 3.15 3.75 0
 3 15 4 14.75 4.43 0
 3 15 5 7.47 4.49 0
 3 15 6 15.35 4.53 0
 4 0 1 8.85 1.84 0
 4 1 2 29.46 2.58 0
 4 1 5 324.54 6.9 0
 4 1 6 507.72 8.33 0
 4 2 -8 79.06 3.85 0
 4 3 -10 94.69 4.21 0
 4 3 -8 1.35 2.2 0
 4 4 -10 9.62 2.11 0
 4 4 -7 25.89 3.21 0
 4 4 -4 289.1 7.17 0
 4 4 -3 141.35 5.29 0
 4 4 -2 120.99 4.82 0
 4 5 -11 122.81 5.04 0
 4 5 -10 6.6 2.46 0
 4 5 -9 125.41 5.14 0
 4 5 -8 56.58 4.1 0
 4 5 -7 28.65 3.19 0
 4 5 -6 3.13 1.99 0
 4 5 -5 3.06 1.93 0
 4 5 -4 243.83 6.95 0
 4 5 -3 31.64 3.06 0
 4 5 -2 149.47 5.5 0
 4 5 -1 221.91 6.49 0
 4 5 0 610.19 10.46 0
 4 5 1 228.6 6.65 0
 4 5 2 154.63 5.41 0
 4 5 3 25.99 2.75 0
 4 5 4 244.98 6.63 0
 4 5 5 4 1.97 0
 4 5 6 2.33 1.67 0
 4 5 7 27.5 3.03 0
 4 5 8 53.35 3.59 0
 4 5 9 126.25 4.69 0
 4 5 10 5.55 1.76 0
 4 5 11 113.43 4.33 0
 4 6 -11 123.82 5.26 0
 4 6 -10 216.13 6.75 0
 4 6 -8 21.48 3.27 0
 4 6 -6 209.5 6.81 0
 4 6 -4 17.46 3.03 0
 4 6 -3 31.88 3.24 0
 4 6 -2 392.55 8.98 0
 4 6 -1 51.46 4.05 0
 4 6 0 19.99 2.79 0
 4 6 1 56.41 3.84 0
 4 6 2 407.88 9.11 0
 4 6 3 24.46 2.95 0
 4 6 4 21.08 2.87 0
 4 6 5 31.98 3.37 0
 4 6 6 208.03 6.43 0
 4 6 7 70.42 4.18 0
 4 6 8 22.01 2.77 0
 4 6 10 217.29 6.22 0
 4 6 11 122.71 4.76 0
 4 7 -11 181.85 6.5 0
 4 7 -10 54.05 4.21 0
 4 7 -9 101.99 5.13 0
 4 7 -8 163.59 6.29 0
 4 7 -6 43.72 3.82 0
 4 7 -5 274.5 8.02 0
 4 7 -1 396.38 9.56 0
 4 7 5 287.59 7.88 0
 4 7 7 388.46 9.1 0
 4 7 8 166.82 6.13 0
 4 7 10 55.71 3.94 0
 4 7 11 177.23 5.8 0
 4 8 -10 85.15 5.17 0
 4 8 -9 20.5 3.34 0
 4 8 -8 3.69 2.56 0
 4 8 -7 141.56 6.48 0
 4 8 -6 46.01 4.49 0
 4 8 -5 77.12 5.02 0
 4 8 -4 17.16 3.22 0
 4 8 -3 19.19 3.22 0
 4 8 -2 86.73 4.99 0
 4 8 -1 24.4 3.47 0
 4 8 0 198.16 7.12 0
 4 8 1 27.44 3.54 0
 4 8 2 74.87 4.76 0
 4 8 3 15.63 3.01 0
 4 8 4 14.62 3.29 0
 4 8 5 76.39 5.05 0
 4 8 6 49.99 4.26 0
 4 8 7 131.76 5.83 0
 4 8 8 6.92 2.66 0
 4 8 9 20.65 3.06 0
 4 8 10 87.4 4.88 0
 4 8 11 31.4 3.64 0
 4 9 -11 39.27 4.51 0
 4 9 -10 125.96 6.09 0
 4 9 -9 6.71 2.79 0
 4 9 -8 224.48 8.09 0
 4 9 -7 70.63 5.16 0
 4 9 -6 10.8 3.18 0
 4 9 -4 124.11 6.56 0
 4 9 -3 11.49 3.21 0
 4 9 -2 9.23 3.2 0
 4 9 -1 5.72 2.58 0
 4 9 0 1.41 2.67 0
 4 9 1 7.83 2.86 0
 4 9 2 6.62 2.97 0
 4 9 3 10.44 2.86 0
 4 9 6 8.51 2.89 0
 4 9 8 222.67 7.82 0
 4 9 9 5.18 2.6 0
 4 9 10 120.76 5.78 0
 4 10 -10 38.24 4.71 0
 4 10 -8 111.8 6.66 0
 4 10 -7 58.55 5.55 0
 4 10 -5 41.04 5.04 0
 4 10 -4 82.78 6 0
 4 10 -3 54.38 5.03 0
 4 10 -1 10.57 3.2 0
 4 10 0 2.49 3.14 0
 4 10 1 10 3.26 0
 4 10 2 171.11 7.59 0
 4 10 3 54.43 4.68 0
 4 10 4 96.95 6.13 0
 4 10 5 42.96 4.73 0
 4 10 6 167 7.25 0
 4 10 7 57.76 5.07 0
 4 10 8 108.72 6.19 0
 4 10 9 19.22 3.56 0
 4 10 10 38.72 4.43 0
 4 11 -11 14.04 3.52 0
 4 11 -10 25.83 4 0
 4 11 -9 -2.67 2.62 0
 4 11 -7 55.46 5.89 0
 4 11 -4 146.42 7.57 0
 4 11 -3 20.78 4.23 0
 4 11 -2 21.59 3.98 0
 4 11 0 10.88 3.44 0
 4 11 1 115.16 6.61 0
 4 11 2 19.84 3.85 0
 4 11 3 19.94 4.09 0
 4 11 4 156.05 7.38 0
 4 11 7 52.44 5 0
 4 11 8 183.16 7.92 0
 4 11 9 1.69 2.63 0
 4 11 10 26.72 3.82 0
 4 12 -10 57.95 5.73 0
 4 12 -9 20.49 4.63 0
 4 12 -8 133 7.65 0
 4 12 -7 104.64 6.87 0
 4 12 -5 10.98 3.74 0
 4 12 -4 16.98 4.46 0
 4 12 -3 23.89 4.6 0
 4 12 -1 7.97 3.35 0
 4 12 1 5.16 3.58 0
 4 12 2 123.47 7.16 0
 4 12 3 15.65 4.01 0
 4 12 4 16.17 3.95 0
 4 12 5 6.27 3.39 0
 4 12 6 166.63 7.95 0
 4 12 7 107.47 7.09 0
 4 12 9 15.68 4.03 0
 4 13 -9 -0.74 3.04 0
 4 13 -8 6.41 3.52 0
 4 13 -5 61.42 6.41 0
 4 13 -4 34.24 5.55 0
 4 13 -3 17 5.05 0
 4 13 -2 46.84 5.61 0
 4 13 -1 108.36 7.26 0
 4 13 0 7 3.71 0
 4 13 1 106.91 7.16 0
 4 13 2 48.44 5.51 0
 4 13 3 13.85 4.28 0
 4 13 4 26.35 4.67 0
 4 13 5 67.83 5.96 0
 4 13 7 -1.16 3.76 0
 4 13 8 -0.24 3.08 0
 4 13 9 3.07 3.34 0
 4 14 -6 108.19 8.01 0
 4 14 -5 63.25 6.89 0
 4 14 -4 148.33 8.46 0
 4 14 -3 5.88 3.87 0
 4 14 -2 67.44 6.55 0
 4 14 -1 9.47 4.34 0
 4 14 0 25.04 5.19 0
 4 14 1 14.32 4.58 0
 4 14 2 72.48 7.04 0
 4 14 3 3.86 3.89 0
 4 14 5 61.33 7.1 0
 4 14 6 123.31 8.14 0
 5 1 -4 5.1 2.13 0
 5 1 -3 4.69 2.04 0
 5 1 0 17.98 2.81 0
 5 1 1 18.83 3.05 0
 5 1 2 104.34 4.8 0
 5 1 3 0.82 1.78 0
 5 2 -7 111.28 5.46 0
 5 2 -5 102.18 5.22 0
 5 2 -4 1050.08 14.53 0
 5 2 -3 266.11 7.49 0
 5 2 -2 28.85 3.1 0
 5 2 0 257.45 7.38 0
 5 2 1 72.39 4.47 0
 5 2 2 32.34 3.11 0
 5 2 3 257 7.17 0
 5 2 5 104.83 5.01 0
 5 2 6 27.74 3.05 0
 5 3 -8 82.4 4.7 0
 5 3 -7 86.55 5.03 0
 5 3 -6 23.58 3.24 0
 5 3 -5 13.86 2.78 0
 5 3 -4 32.52 3.76 0
 5 3 -3 412.58 9.51 0
 5 3 -2 560.79 10.91 0
 5 3 0 6.52 2.12 0
 5 3 1 54.44 3.71 0
 5 3 3 404.69 9.04 0
 5 3 4 37.74 3.74 0
 5 3 5 9.59 2.38 0
 5 3 7 80.1 4.44 0
 5 3 8 77.66 4.33 0
 5 4 -10 5.51 2.36 0
 5 4 -9 26.2 3.39 0
 5 4 -8 29.94 3.64 0
 5 4 -7 27.24 3.71 0
 5 4 -6 12.94 2.73 0
 5 4 -5 328.61 8.74 0
 5 4 -2 49.54 3.86 0
 5 4 -1 13.69 2.5 0
 5 4 0 425.07 9.49 0
 5 4 1 21.41 2.98 0
 5 4 2 51.82 4.1 0
 5 4 3 428.88 9.47 0
 5 4 4 84.65 4.88 0
 5 4 5 306.42 8.08 0
 5 4 6 13.84 2.85 0
 5 4 7 28.63 3.44 0
 5 4 8 36.95 3.75 0
 5 4 10 0.93 1.71 0
 5 5 -11 23.73 3.34 0
 5 5 -10 65.1 4.82 0
 5 5 -9 196.23 7.29 0
 5 5 -8 110.64 5.91 0
 5 5 -7 73.71 4.72 0
 5 5 -5 9.9 2.65 0
 5 5 -1 187.97 6.75 0
 5 5 0 85.87 4.81 0
 5 5 1 183.07 6.55 0
 5 5 4 102.66 5.09 0
 5 5 5 9.93 2.57 0
 5 5 6 17.13 2.81 0
 5 5 7 69.13 4.42 0
 5 5 8 114.65 5.33 0
 5 5 9 183.14 6.44 0
 5 5 10 62.77 4.23 0
 5 6 -10 10.15 3 0
 5 6 -9 18.23 3.64 0
 5 6 -7 4.83 2.97 0
 5 6 -6 233.92 8.03 0
 5 6 -4 153.54 6.45 0
 5 6 -2 166.76 6.63 0
 5 6 1 347.98 9.18 0
 5 6 2 152.78 6.54 0
 5 6 3 16.19 3.01 0
 5 6 4 146.05 6.1 0
 5 6 5 45.81 4.32 0
 5 6 6 217.83 7.22 0
 5 6 7 2.74 2.19 0
 5 6 8 25.52 3.65 0
 5 6 9 16.55 3.12 0
 5 6 10 14.91 2.66 0
 5 7 -12 -1.9 2.05 0
 5 7 -10 76.96 5.5 0
 5 7 -9 210.04 7.96 0
 5 7 -7 21.64 3.78 0
 5 7 -6 101.49 5.96 0
 5 7 -5 43.9 4.36 0
 5 7 -3 7.64 2.76 0
 5 7 -2 88.29 5.59 0
 5 7 0 1.99 2.54 0
 5 7 1 15.2 3.53 0
 5 7 2 95.28 5.56 0
 5 7 3 6.22 2.66 0
 5 7 4 24.24 3.52 0
 5 7 5 43.52 4.57 0
 5 7 6 117.55 5.68 0
 5 7 7 16.14 3.06 0
 5 7 9 221.97 7.49 0
 5 7 10 79.44 4.76 0
 5 8 -11 25.89 3.72 0
 5 8 -10 93.69 6.09 0
 5 8 -8 242.09 8.54 0
 5 8 -6 43.93 4.37 0
 5 8 -5 13.84 3.46 0
 5 8 -4 26.16 3.81 0
 5 8 -3 71.81 5.08 0
 5 8 -2 291.65 9.22 0
 5 8 -1 29.93 4.44 0
 5 8 0 114.3 6.15 0
 5 8 2 273.59 9.06 0
 5 8 3 74.47 5.25 0
 5 8 4 25.29 3.65 0
 5 8 5 13.46 3.18 0
 5 8 6 52.07 4.83 0
 5 8 8 267.48 8.58 0
 5 9 -9 245.01 9.13 0
 5 9 -8 2.98 2.92 0
 5 9 -7 23.44 3.97 0
 5 9 -5 8.75 3.53 0
 5 9 -3 313.61 9.97 0
 5 9 -2 81.36 5.88 0
 5 9 -1 73.34 5.76 0
 5 9 0 -1.31 2.82 0
 5 9 1 73.47 5.68 0
 5 9 2 98.61 6.2 0
 5 9 3 325.47 10 0
 5 9 4 25.71 4.09 0
 5 9 6 11.35 3.41 0
 5 9 7 27.71 3.9 0
 5 9 8 2.56 2.59 0
 5 9 9 250.26 8.55 0
 5 9 10 0.98 2.65 0
 5 10 -11 99.27 6.47 0
 5 10 -10 119.57 7.08 0
 5 10 -9 12.24 3.53 0
 5 10 -8 3.09 3.55 0
 5 10 -7 5.59 3.68 0
 5 10 -6 22.13 4.53 0
 5 10 -5 26.8 4.31 0
 5 10 -3 148.69 7.71 0
 5 10 -1 34.64 5.15 0
 5 10 0 2.92 3.25 0
 5 10 1 39.58 4.92 0
 5 10 2 32.2 4.75 0
 5 10 3 135.04 7.05 0
 5 10 5 29.78 4.81 0
 5 10 7 2 3.46 0
 5 10 8 -0.3 2.83 0
 5 10 9 10.45 3.2 0
 5 10 10 123.21 6.58 0
 5 11 -11 3.03 2.99 0
 5 11 -10 53.94 5.58 0
 5 11 -8 15.76 4.34 0
 5 11 -7 3.93 3.61 0
 5 11 -6 13.12 4.44 0
 5 11 -5 326.94 11.06 0
 5 11 -4 35.44 5.04 0
 5 11 -3 23.3 4.56 0
 5 11 -2 7.65 3.52 0
 5 11 -1 23.39 4.52 0
 5 11 0 21.57 4.53 0
 5 11 1 27.27 4.72 0
 5 11 2 9.59 4.23 0
 5 11 3 22.73 4.33 0
 5 11 6 10.5 3.64 0
 5 11 7 -0.44 3.26 0
 5 11 8 11.27 3.7 0
 5 11 9 143.59 7.44 0
 5 12 -9 -1.02 3.07 0
 5 12 -8 140.26 8.14 0
 5 12 -7 31.15 5.02 0
 5 12 -5 6.17 4.4 0
 5 12 -4 135.72 8.41 0
 5 12 -3 14.45 4.62 0
 5 12 -2 17.81 4.46 0
 5 12 0 215.58 9.51 0
 5 12 1 66.25 6.02 0
 5 12 4 140.34 8.1 0
 5 12 5 4.88 3.62 0
 5 12 6 19.05 4.53 0
 5 12 7 35.06 4.84 0
 5 12 8 136.5 7.74 0
 5 12 9 0.85 2.9 0
 5 13 -6 43.8 5.72 0
 5 13 -5 22.31 5.05 0
 5 13 -4 19.21 4.68 0
 5 13 -3 44.78 6.05 0
 5 13 -1 18.52 4.73 0
 5 13 0 -1.46 3.4 0
 5 13 1 16.71 4.51 0
 5 13 2 1.51 3.6 0
 5 13 4 10.84 4.18 0
 5 13 5 24.65 4.87 0
 5 13 6 44.62 5.81 0
 5 13 7 12.11 4.6 0
 6 2 -4 74.56 5.35 0
 6 2 -3 110 6.19 0
 6 2 -2 6.71 2.8 0
 6 2 -1 88.15 5.6 0
 6 2 2 4.71 2.51 0
 6 2 3 106.02 5.83 0
 6 2 4 76.68 4.95 0
 6 3 -7 11.19 3.28 0
 6 3 -5 50.24 4.5 0
 6 3 -3 9.18 2.94 0
 6 3 -2 74.37 4.99 0
 6 3 -1 89.33 5.56 0
 6 3 1 93.41 5.56 0
 6 3 2 75.43 4.97 0
 6 3 4 18.33 3.14 0
 6 3 5 46.77 4.53 0
 6 3 6 89.59 5.22 0
 6 4 -8 43.18 5.23 0
 6 4 -7 5.34 3.44 0
 6 4 -6 168.95 7.43 0
 6 4 -5 87.48 5.52 0
 6 4 -3 42.62 4.27 0
 6 4 -2 56.79 4.6 0
 6 4 2 58.08 4.72 0
 6 4 4 19.84 3.68 0
 6 4 5 81.93 5.03 0
 6 4 6 168.13 7.13 0
 6 4 7 1.6 2.64 0
 6 4 8 45.48 4.09 0
 6 5 -10 22.75 3.83 0
 6 5 -9 125.08 6.9 0
 6 5 -7 58.97 5.32 0
 6 5 -6 52.53 4.76 0
 6 5 -5 10.51 3.35 0
 6 5 -4 29.15 4.07 0
 6 5 -3 230.94 8.37 0
 6 5 -2 13.23 3.28 0
 6 5 0 449.59 11.36 0
 6 5 1 160.54 7.12 0
 6 5 2 13.69 3.2 0
 6 5 3 211.01 7.97 0
 6 5 4 26.23 3.81 0
 6 5 5 14.11 3.2 0
 6 5 6 55.4 4.98 0
 6 5 7 67.48 5.14 0
 6 5 8 86.74 5.38 0
 6 5 9 126.88 6.25 0
 6 5 10 29.73 3.54 0
 6 6 -11 18.04 3.56 0
 6 6 -9 141.01 7 0
 6 6 -8 76.52 6.03 0
 6 6 -6 90.36 6.17 0
 6 6 -5 10.74 3.35 0
 6 6 -4 6.23 3.06 0
 6 6 -3 1.69 2.8 0
 6 6 -2 100.34 5.79 0
 6 6 0 5.47 3.13 0
 6 6 1 113.69 6.71 0
 6 6 2 98.08 5.84 0
 6 6 3 0.59 2.88 0
 6 6 4 2.47 2.63 0
 6 6 5 7.69 3.48 0
 6 6 7 19.11 3.49 0
 6 6 8 65.87 5.1 0
 6 6 9 144.49 6.63 0
 6 6 10 121.8 5.9 0
 6 7 -11 115.23 6.65 0
 6 7 -10 6.45 3.11 0
 6 7 -9 6.58 3.22 0
 6 7 -8 165.35 8.02 0
 6 7 -7 221.88 9.05 0
 6 7 -6 22.45 4.04 0
 6 7 -3 42.1 4.81 0
 6 7 -1 230.02 8.71 0
 6 7 0 428.66 11.66 0
 6 7 1 237.9 8.87 0
 6 7 2 69.92 5.29 0
 6 7 4 243.54 9 0
 6 7 5 79.2 5.92 0
 6 7 6 22.41 3.79 0
 6 7 8 155.95 7.04 0
 6 7 9 3 3.18 0
 6 7 10 9.28 3.27 0
 6 8 -11 21.64 4.13 0
 6 8 -10 12.46 3.79 0
 6 8 -9 30.59 4.75 0
 6 8 -8 0.79 3.21 0
 6 8 -7 121.42 7.27 0
 6 8 -6 4.39 3.77 0
 6 8 -5 20.42 4.08 0
 6 8 -4 43.37 5.24 0
 6 8 -2 31.52 4.61 0
 6 8 2 31.62 4.35 0
 6 8 3 18.67 4.01 0
 6 8 4 45.55 4.83 0
 6 8 5 23.11 4.01 0
 6 8 6 5.56 3.5 0
 6 8 7 111.68 6.72 0
 6 8 8 -0.76 2.87 0
 6 8 9 40.98 5.02 0
 6 8 10 8.95 3.27 0
 6 9 -11 55.69 5.89 0
 6 9 -10 95.69 6.74 0
 6 9 -9 14.32 4.31 0
 6 9 -8 42.73 5.44 0
 6 9 -7 3.17 3.51 0
 6 9 -4 18.21 4.12 0
 6 9 -3 56.73 5.48 0
 6 9 -2 7.52 3.73 0
 6 9 -1 3.28 2.98 0
 6 9 0 5.88 3.6 0
 6 9 1 6.45 3.6 0
 6 9 2 7.58 3.45 0
 6 9 3 53.5 5.89 0
 6 9 4 22.25 4.32 0
 6 9 5 63.97 6.02 0
 6 9 6 8.93 3.76 0
 6 9 7 3.22 3.21 0
 6 9 8 37.72 5.04 0
 6 9 9 9.88 3.77 0
 6 10 -10 16.81 4.51 0
 6 10 -9 8.33 3.78 0
 6 10 -8 47.19 5.75 0
 6 10 -6 147.37 8.23 0
 6 10 -5 4.2 3.52 0
 6 10 -4 53.99 6.56 0
 6 10 -3 -0.13 3.28 0
 6 10 0 7.47 3.77 0
 6 10 1 14.41 4.26 0
 6 10 2 162.33 8.49 0
 6 10 3 1.81 3.17 0
 6 10 4 58.36 5.93 0
 6 10 5 5.49 3.39 0
 6 10 6 155.33 7.84 0
 6 10 8 48.25 5.97 0
 6 10 9 0.6 2.85 0
 6 11 -8 35.59 5.65 0
 6 11 -6 7.06 3.85 0
 6 11 -3 66.18 6.7 0
 6 11 -2 17 4.31 0
 6 11 -1 26.79 5.49 0
 6 11 0 134.88 8.37 0
 6 11 1 32.28 5.48 0
 6 11 2 15.17 4.92 0
 6 11 3 67.48 6.2 0
 6 11 4 109.78 7.52 0
 6 11 5 9.41 3.91 0
 6 11 6 6.75 3.61 0
 6 11 7 98.89 7.18 0
 6 11 8 32.65 5.12 0
 6 11 9 24.13 4.71 0
 6 12 -4 0.51 3.56 0
 6 12 -3 27.56 5.08 0
 6 12 -2 44.58 6.35 0
 6 12 -1 1.5 3.89 0
 6 12 1 11.56 4.32 0
 6 12 2 50.88 6.24 0
 6 12 4 2.05 3.61 0
 6 12 5 35.72 5.27 0
 7 3 -3 174.72 8.07 0
 7 3 -2 156.04 7.54 0
 7 3 1 -1.14 2.76 0
 7 3 2 151.66 7.53 0
 7 3 3 182.39 7.91 0
 7 4 -6 194.5 8.91 0
 7 4 -5 0.55 2.99 0
 7 4 -4 23.33 4.13 0
 7 4 -3 60.03 5.33 0
 7 4 -2 58.08 5.87 0
 7 4 -1 34.89 4.64 0
 7 4 0 4.77 3.26 0
 7 4 1 39.47 4.83 0
 7 4 2 64.12 5.96 0
 7 4 3 67.14 5.57 0
 7 4 5 4.1 3.38 0
 7 4 6 176.17 7.79 0
 7 5 -8 56.07 5.72 0
 7 5 -5 30.79 4.59 0
 7 5 -4 100.38 6.9 0
 7 5 -3 2.67 3.21 0
 7 5 -2 53.53 5.61 0
 7 5 -1 26.04 4.44 0
 7 5 0 189.36 8.68 0
 7 5 1 28.78 4.34 0
 7 5 2 52.3 5.62 0
 7 5 4 113.43 7.06 0
 7 5 6 63.33 5.91 0
 7 6 -8 3.2 3.48 0
 7 6 -7 24.4 4.55 0
 7 6 -5 125.34 7.37 0
 7 6 -4 14.55 3.96 0
 7 6 -3 189.44 8.63 0
 7 6 -2 56.4 5.86 0
 7 6 -1 80.17 6.19 0
 7 6 0 -2.9 2.95 0
 7 6 1 72.02 5.97 0
 7 6 2 68.05 6.02 0
 7 6 3 204.76 8.89 0
 7 6 4 12.45 3.93 0
 7 6 6 40.45 5.11 0
 7 6 7 23.18 4.07 0
 7 6 8 2.15 2.94 0
 7 6 9 9.13 3.59 0
 7 7 -10 14.93 3.91 0
 7 7 -9 36.58 5.41 0
 7 7 -8 6.12 3.74 0
 7 7 -7 6.56 3.85 0
 7 7 -6 0.67 3.42 0
 7 7 -5 37.37 5.6 0
 7 7 -4 9.08 3.99 0
 7 7 -3 77.8 6.85 0
 7 7 -2 94.98 6.92 0
 7 7 -1 58.43 6.39 0
 7 7 0 37.34 5.16 0
 7 7 1 50.08 6.21 0
 7 7 2 95.93 7.13 0
 7 7 3 82.29 6.55 0
 7 7 4 9.3 3.76 0
 7 7 5 44.16 5.27 0
 7 7 6 7.05 4.2 0
 7 7 7 5.52 3.48 0
 7 7 8 3.01 3.07 0
 7 7 9 31.22 4.53 0
 7 8 -10 69.66 6.54 0
 7 8 -9 4.54 3.57 0
 7 8 -8 0.52 3.33 0
 7 8 -7 54.64 6.56 0
 7 8 -6 0.74 4.06 0
 7 8 -4 55.3 6.66 0
 7 8 -3 50.87 6.23 0
 7 8 -2 61.46 6.43 0
 7 8 -1 94.24 7.24 0
 7 8 0 74.42 6.29 0
 7 8 1 106.36 7.26 0
 7 8 2 62.34 6.88 0
 7 8 3 48.53 5.74 0
 7 8 5 44.75 5.41 0
 7 8 6 2.11 3.37 0
 7 8 7 51.54 5.54 0
 7 8 8 4.17 3.19 0
 7 8 9 10.1 3.48 0
 7 9 -8 15.5 4.74 0
 7 9 -6 6.48 3.92 0
 7 9 -5 161.61 9.16 0
 7 9 -4 86.05 7.38 0
 7 9 -3 69.67 7 0
 7 9 -1 79.03 7.29 0
 7 9 1 77.8 7.16 0
 7 9 2 10.9 4.22 0
 7 9 3 75.28 6.79 0
 7 9 5 167.48 8.54 0
 7 9 6 3.99 3.7 0
 7 9 8 16.19 3.98 0
 7 9 9 23.14 4.28 0
 7 10 -5 37.25 5.7 0
 7 10 -4 35.09 5.54 0
 7 10 -3 64.26 6.82 0
 7 10 -2 38.37 6.31 0
 7 10 0 107.52 7.48 0
 7 10 1 53.34 6.31 0
 7 10 2 41.83 6.15 0
 7 10 3 73.52 6.86 0
 7 10 4 32.23 5.68 0
 7 10 5 29.98 5.78 0
 7 10 6 25.03 4.83 0
 8 5 -4 11.55 4.26 0
 8 5 -3 53.49 6.22 0
 8 5 -2 52.57 6.34 0
 8 5 0 5.26 3.78 0
 8 5 1 45.31 6.08 0
 8 5 2 36.52 5.4 0
 8 5 3 57.54 6.6 0
 8 6 -5 17.43 4.79 0
 8 6 -4 50.44 6.75 0
 8 6 -3 103.68 8.1 0
 8 6 -2 21.35 4.85 0
 8 6 -1 21.18 4.89 0
 8 6 0 1.01 4.42 0
 8 6 1 15.9 4.55 0
 8 6 2 17.15 4.51 0
 8 6 3 122.29 8.14 0
 8 6 4 44.44 6.35 0
 8 6 5 15.34 4.88 0
 8 6 6 5.69 3.56 0
 8 7 -6 73.54 7.3 0
 8 7 -5 3.96 4.01 0
 8 7 -2 5.74 4.13 0
 8 7 0 11.46 4.61 0
 8 7 1 6.95 4.41 0
 8 7 2 4.21 3.95 0
 8 7 3 63.24 7.23 0
 8 7 4 11.01 4.26 0
 8 7 5 7 3.91 0
 8 7 6 61.79 7.13 0
 8 7 7 2.4 3.47 0
 8 8 -1 86.6 8.01 0
 8 8 0 56.72 6.85 0
 8 8 2 194.6 10.19 0
 8 8 5 27.25 4.99 0
 -3 6 -4 331.71 3.24 0
 -2 3 -2 1197.53 6.05 0
 -2 5 -4 128.74 1.81 0
 -2 6 -5 280.13 2.52 0
 -1 0 1 1090.04 5.98 0
 -1 2 -1 3428.31 8.48 0
 -1 2 0 149.36 2.33 0
 -1 4 -7 381.62 3.28 0
 -1 4 -6 545.12 3.73 0
 -1 4 -5 110.9 1.7 0
 -1 5 -8 318.57 3.3 0
 -1 5 -7 512.14 4.17 0
 -1 5 -6 51.27 1.4 0
 -1 6 -8 417.31 4.09 0
 -1 6 -7 87.15 1.99 0
 -1 6 -6 82.57 2.11 0
 -1 7 -7 89.82 2.34 0
 -1 8 -7 42.09 1.85 0
 0 -1 3 13.57 0.79 0
 0 0 -4 2031.26 9.45 0
 0 0 -3 0.53 0.64 0
 0 0 2 65.36 1.31 0
 0 0 3 -0.32 0.52 0
 0 1 -7 212.22 4.03 0
 0 1 -6 276.15 4.13 0
 0 1 -5 2128.18 10.12 0
 0 1 -4 25.45 1.18 0
 0 2 -9 11.87 1.47 0
 0 2 -8 307.06 4.94 0
 0 2 -7 229.32 4.02 0
 0 2 -6 4.26 0.93 0
 0 2 -5 263.67 3.61 0
 0 3 -10 42.74 2.19 0
 0 3 -9 0.01 0.79 0
 0 3 -8 188.3 3.9 0
 0 3 -7 6.38 0.95 0
 0 4 -6 31.66 1.55 0
 0 5 -7 33.64 1.77 0
 0 5 -6 1507.07 10.35 0
 0 6 -7 417.14 6 0
 0 7 -7 335.12 5.79 0
 0 8 -8 118.1 3.77 0
 1 -1 -7 161.79 4.44 0
 1 -1 -6 375.44 6.1 0
 1 -1 -5 2297.73 13.83 0
 1 -1 -4 609.11 6.63 0
 1 -1 -3 9687.23 23.7 0
 1 -1 -2 196.5 3.12 0
 1 -1 -1 1023.52 6.03 0
 1 -1 0 1602.55 6.2 0
 1 -1 5 2357.01 8.09 0
 1 0 -9 301.73 6.54 0
 1 0 -8 227.97 5.27 0
 1 0 -7 438.36 6.85 0
 1 0 -6 37.95 2.11 0
 1 0 -5 1610.85 11.26 0
 1 0 -4 450.58 5.53 0
 1 0 -3 1244.23 8.2 0
 1 0 -2 806.27 5.88 0
 1 0 -1 1083.87 6.02 0
 1 1 -9 100.44 3.86 0
 1 1 -8 70.95 3.06 0
 1 1 -7 170.18 4.24 0
 1 1 -6 379.29 5.8 0
 1 1 -5 2340.15 13.28 0
 1 1 -4 617.85 6.27 0
 1 1 -3 9804.96 22.8 0
 1 1 -2 196.79 3.1 0
 1 2 -12 -1.46 1.72 0
 1 2 -9 99.63 3.7 0
 1 2 -8 100.47 3.56 0
 1 2 -6 935.28 9.06 0
 1 2 -5 121.16 3.14 0
 1 2 -4 1712.11 10.77 0
 1 3 -13 75.13 3.93 0
 1 3 -10 220.32 5.52 0
 1 3 -8 87.92 3.41 0
 1 3 -7 750.39 8.67 0
 1 3 -6 621.59 7.48 0
 1 3 -5 385 5.68 0
 1 4 -13 151.75 5.18 0
 1 4 -9 526.53 8.14 0
 1 4 -8 1039.67 10.77 0
 1 4 -7 393.34 6.43 0
 1 4 -6 562.33 7.44 0
 1 5 -13 23.92 2.44 0
 1 5 -9 264.97 5.85 0
 1 5 -8 321.4 6.17 0
 1 5 -7 534.04 7.82 0
 1 5 -6 49.53 2.68 0
 1 6 -12 34.73 2.73 0
 1 6 -7 92.36 3.66 0
 1 7 -11 12.87 1.99 0
 1 8 -10 150.46 4.93 0
 1 8 -9 34.09 2.7 0
 1 9 -8 82.56 3.9 0
 1 10 -9 79.8 3.97 0
 1 10 -8 8.59 2.11 0
 1 11 -8 38.76 3.15 0
 2 -2 -5 120.27 3.84 0
 2 -2 -4 1046.89 10.38 0
 2 -2 -3 300.75 5.26 0
 2 -2 -2 1763.64 11.5 0
 2 -2 -1 609.41 6.29 0
 2 -2 0 1149.93 7.64 0
 2 -2 1 599.82 4.91 0
 2 -2 2 1746.33 6.93 0
 2 -1 -10 529.6 10.17 0
 2 -1 -7 333.08 6.86 0
 2 -1 -6 461.55 7.59 0
 2 -1 -4 365.04 6.06 0
 2 -1 -3 825.81 8.33 0
 2 -1 -2 3112.63 14.86 0
 2 -1 -1 2620.93 12.53 0
 2 -1 0 285.49 3.78 0
 2 -1 1 2538.89 9.99 0
 2 -1 2 3121.8 9.98 0
 2 -1 6 473.22 3.7 0
 2 0 -10 47.3 3.52 0
 2 0 -6 800.56 9.77 0
 2 0 -5 59.85 2.85 0
 2 0 -4 1852.48 13.12 0
 2 0 -3 1618.52 11.4 0
 2 0 -2 186.06 3.77 0
 2 0 -1 3285.13 14.07 0
 2 0 0 204.52 3.38 0
 2 1 -12 118.87 5.36 0
 2 1 -10 498.39 9.38 0
 2 1 -7 331.39 6.74 0
 2 1 -6 464.4 7.43 0
 2 1 -5 520.36 7.48 0
 2 1 -4 357.58 5.83 0
 2 1 -3 832.2 8.39 0
 2 1 -2 3122.09 15.27 0
 2 2 -13 42.2 3.86 0
 2 2 -12 45.54 3.74 0
 2 2 -11 80.26 4.19 0
 2 2 -6 38.21 2.37 0
 2 2 -5 120.73 3.83 0
 2 2 -4 1043.01 10.13 0
 2 2 -3 286.92 5.2 0
 2 3 -13 246.45 7.32 0
 2 3 -12 362.7 8.65 0
 2 3 -11 163.55 5.71 0
 2 3 -10 78.31 3.92 0
 2 3 -7 617.81 9.08 0
 2 3 -5 344.11 6.36 0
 2 3 -4 1842.64 14.06 0
 2 4 -15 214.56 7.31 0
 2 4 -14 149.68 5.94 0
 2 4 -10 102.5 4.62 0
 2 4 -6 255.86 5.95 0
 2 5 -15 108.53 5.2 0
 2 5 -14 142.57 5.85 0
 2 5 -13 24.81 2.97 0
 2 5 -12 27.15 3.03 0
 2 5 -11 192.56 6.27 0
 2 5 -10 313.61 7.59 0
 2 6 -14 88.92 4.75 0
 2 6 -13 195.43 6.6 0
 2 6 -12 4.13 1.8 0
 2 6 -11 74.89 4.28 0
 2 6 -10 61.33 3.74 0
 2 6 -9 113.36 4.61 0
 2 6 -8 36.33 2.86 0
 2 7 -12 45.04 3.53 0
 2 7 -11 14.67 2.54 0
 2 7 -9 148.05 5.41 0
 2 7 -8 196.83 6.13 0
 2 7 -7 204.46 6.14 0
 2 8 -12 26.14 3.05 0
 2 8 -10 82.64 4.45 0
 2 8 -9 112.57 5.05 0
 2 8 -8 123.69 5.38 0
 2 9 -11 25.48 3.14 0
 2 9 -10 0.73 1.7 0
 2 9 -9 91.48 4.85 0
 2 9 -8 53.69 4.08 0
 2 10 -11 181.57 6.34 0
 2 10 -10 28.66 3.22 0
 2 10 -9 71.99 4.5 0
 2 10 -8 5.49 2.39 0
 2 11 -10 37.17 3.45 0
 2 11 -9 39.54 3.82 0
 2 11 -8 255.46 8.01 0
 2 12 -9 54.8 4.22 0
 2 13 -8 92.18 5.37 0
 3 -3 -7 742.12 11.72 0
 3 -3 -4 60.29 3.11 0
 3 -3 -3 756.53 9.5 0
 3 -3 -2 93.53 3.29 0
 3 -3 -1 533.05 7.15 0
 3 -3 0 1006.51 8.97 0
 3 -3 1 522.02 5.86 0
 3 -3 3 746.38 5.32 0
 3 -2 -10 59.23 4.22 0
 3 -2 -8 170.46 5.86 0
 3 -2 -4 675.88 9.44 0
 3 -2 -3 328.97 6.32 0
 3 -2 -2 583.02 7.78 0
 3 -2 1 91.95 2.62 0
 3 -2 2 593.04 5.68 0
 3 -2 3 315.31 3.71 0
 3 -2 4 645.94 4.48 0
 3 -2 5 492.65 2.97 0
 3 -1 -11 159.08 6.36 0
 3 -1 -10 90.38 4.72 0
 3 -1 -9 13.76 2.36 0
 3 -1 -8 260.1 7.09 0
 3 -1 -2 1728.37 13.2 0
 3 -1 0 227.35 4.32 0
 3 -1 1 113.8 2.91 0
 3 -1 2 1694.92 9.99 0
 3 -1 3 17.61 1.21 0
 3 -1 4 49.17 1.63 0
 3 0 -12 162.65 6.77 0
 3 0 -11 101.91 5.18 0
 3 0 -9 30.4 3.39 0
 3 0 -8 223.53 6.55 0
 3 0 -5 298.63 6.54 0
 3 0 -4 -0.43 0.88 0
 3 0 -2 1068.41 10.33 0
 3 0 -1 25.74 2.1 0
 3 0 0 -0.46 0.97 0
 3 0 1 27.72 1.73 0
 3 1 -12 88.81 5.26 0
 3 1 -11 157.49 6.17 0
 3 1 -10 90.77 4.72 0
 3 1 -9 14.9 2.6 0
 3 1 -8 247.95 6.85 0
 3 1 -5 417.6 7.59 0
 3 1 -4 48.07 2.73 0
 3 1 -3 15.9 1.7 0
 3 1 -2 1752.45 13.64 0
 3 1 -1 113.21 3.55 0
 3 2 -15 55.06 5.09 0
 3 2 -14 12.52 2.97 0
 3 2 -13 97.83 5.55 0
 3 2 -12 84.95 5.07 0
 3 2 -11 180.15 6.82 0
 3 2 -10 53.24 4.02 0
 3 2 -9 115.96 5.16 0
 3 2 -8 179.94 5.88 0
 3 2 -4 665.31 9.4 0
 3 2 -3 316.81 6.38 0
 3 3 -15 240.4 8.43 0
 3 3 -13 35.38 4.07 0
 3 3 -12 10.56 2.58 0
 3 3 -11 273.53 8.18 0
 3 3 -10 51.93 3.79 0
 3 3 -9 44.53 3.38 0
 3 3 -8 124.25 5.12 0
 3 3 -4 60.28 3.28 0
 3 4 -15 137.77 6.7 0
 3 4 -13 78.78 5.26 0
 3 4 -12 42.71 4.01 0
 3 4 -11 94.72 4.96 0
 3 4 -9 32.81 3.39 0
 3 4 -7 582.92 10.13 0
 3 5 -16 33.3 4.18 0
 3 5 -14 7.11 2.73 0
 3 5 -13 83.1 5.31 0
 3 5 -12 129.46 5.92 0
 3 5 -11 34 3.74 0
 3 5 -10 1.82 1.88 0
 3 5 -9 162.82 5.98 0
 3 5 -8 223.45 6.76 0
 3 5 -7 11.01 2.15 0
 3 6 -16 90.56 5.43 0
 3 6 -15 118.85 6.25 0
 3 6 -14 113.32 5.81 0
 3 6 -12 63.48 4.77 0
 3 6 -11 33.1 3.94 0
 3 6 -10 247.36 7.7 0
 3 6 -9 117.68 5.39 0
 3 6 -8 51.7 3.75 0
 3 6 -7 145.91 5.73 0
 3 6 -6 440.82 9.42 0
 3 7 -15 51.62 4.3 0
 3 7 -14 7.12 2.47 0
 3 7 -13 40.05 3.89 0
 3 7 -12 41.4 3.9 0
 3 7 -11 19.05 3.02 0
 3 7 -10 103.94 5.24 0
 3 7 -9 128.6 5.7 0
 3 7 -8 21.27 3.03 0
 3 7 -7 21.16 2.9 0
 3 8 -14 66.67 4.75 0
 3 8 -13 58.12 4.59 0
 3 8 -12 99.79 5.46 0
 3 8 -11 74.65 4.79 0
 3 8 -10 34.74 3.59 0
 3 8 -9 41.79 3.76 0
 3 8 -8 88.82 5.03 0
 3 8 -7 5.63 2.24 0
 3 9 -13 136.32 6.4 0
 3 9 -12 146.21 6.72 0
 3 9 -11 21.15 3.38 0
 3 9 -10 20.95 3.47 0
 3 9 -9 24.14 3.65 0
 3 9 -7 50.9 4.41 0
 3 10 -12 10.84 3.1 0
 3 10 -10 1.43 2.33 0
 3 10 -9 55.37 4.74 0
 3 10 -8 53.39 4.83 0
 3 11 -12 9.51 2.55 0
 3 11 -11 20.91 3.49 0
 3 11 -10 15.14 3.39 0
 3 11 -9 384.91 10.67 0
 3 11 -8 69.06 5.06 0
 3 12 -11 40.74 4.26 0
 3 12 -10 0.69 2.18 0
 3 13 -10 21.4 3.78 0
 3 13 -9 131.62 6.86 0
 3 13 -8 70.4 5.27 0
 3 14 -8 4.04 2.86 0
 3 14 -7 27.93 4.39 0
 3 15 -7 13.4 3.6 0
 4 -4 -5 651.35 11.13 0
 4 -4 0 1075.19 10.77 0
 4 -4 1 -0.8 0.92 0
 4 -3 -9 76.45 5.03 0
 4 -3 -8 0.04 1.64 0
 4 -3 -7 9.26 2.36 0
 4 -3 -6 76.99 4.25 0
 4 -3 -5 441.87 9.07 0
 4 -3 -2 22.7 2.19 0
 4 -3 0 23.5 2.02 0
 4 -3 1 455.32 6.59 0
 4 -3 2 26.29 1.76 0
 4 -3 3 85.45 2.47 0
 4 -3 4 54.14 1.71 0
 4 -2 -11 38.5 4.63 0
 4 -2 -10 279.45 8.71 0
 4 -2 -9 65.26 4.61 0
 4 -2 -8 81.13 4.67 0
 4 -2 -6 129.01 5.42 0
 4 -2 -2 29.27 2.29 0
 4 -2 -1 615.4 8.63 0
 4 -2 1 611.44 7.65 0
 4 -2 2 30.11 1.91 0
 4 -2 3 421.81 5.5 0
 4 -2 4 694.07 6.45 0
 4 -2 5 387.94 4.26 0
 4 -2 6 130.04 2.05 0
 4 -1 -12 91.85 5.69 0
 4 -1 -11 8.79 2.66 0
 4 -1 -10 51.31 4.22 0
 4 -1 -9 172.23 6.89 0
 4 -1 -7 130.24 5.39 0
 4 -1 -6 515.96 10 0
 4 -1 -2 27.74 2.46 0
 4 -1 -1 1073 11.39 0
 4 -1 0 59.5 2.77 0
 4 -1 1 1075.6 10.25 0
 4 -1 2 28.38 1.9 0
 4 -1 4 103.55 2.89 0
 4 -1 5 332.06 4.68 0
 4 -1 7 130 2.61 0
 4 -1 8 132.48 2.39 0
 4 0 -14 125.74 7.08 0
 4 0 -13 -0.49 2.34 0
 4 0 -12 2.69 2.38 0
 4 0 -11 31.29 3.77 0
 4 0 -10 179.26 7.09 0
 4 0 -9 1.32 2 0
 4 0 -8 15.23 2.96 0
 4 0 -6 45.63 3.34 0
 4 0 -2 8.12 1.63 0
 4 0 -1 6.63 1.54 0
 4 0 0 394.34 6.8 0
 4 0 1 7.32 1.52 0
 4 0 2 7.88 1.36 0
 4 1 -15 0.19 2.75 0
 4 1 -14 71.24 5.73 0
 4 1 -13 62.4 5.32 0
 4 1 -11 5.87 2.48 0
 4 1 -10 44.33 4.12 0
 4 1 -9 180.89 6.69 0
 4 1 -1 1050.6 11.81 0
 4 1 0 63.49 3.12 0
 4 2 -15 57.16 5.18 0
 4 2 -14 234.91 9.1 0
 4 2 -13 119.89 6.44 0
 4 2 -11 38.6 3.89 0
 4 2 -10 294.41 8.78 0
 4 2 -9 60.46 4.54 0
 4 2 -8 84.13 4.69 0
 4 2 -7 190.32 6.37 0
 4 2 -6 126.02 5.25 0
 4 2 -5 373.93 8.29 0
 4 3 -16 16.83 3.75 0
 4 3 -15 68.89 5.71 0
 4 3 -14 70.19 5.7 0
 4 3 -13 48.09 4.68 0
 4 3 -12 31.85 3.94 0
 4 3 -11 118.57 6.11 0
 4 3 -10 93 5.55 0
 4 3 -9 67.73 4.7 0
 4 3 -8 -0.02 1.89 0
 4 3 -7 10.97 2.55 0
 4 3 -5 435.32 9.22 0
 4 3 -4 58.81 3.73 0
 4 4 -16 5.28 2.92 0
 4 4 -15 13.96 3.41 0
 4 4 -14 39.56 4.87 0
 4 4 -13 67.92 5.18 0
 4 4 -12 38.61 3.96 0
 4 4 -11 22.35 3.64 0
 4 4 -10 11.18 2.75 0
 4 4 -8 145.93 6.02 0
 4 4 -7 27.95 3.32 0
 4 4 -5 665.09 11.6 0
 4 5 -17 38.19 4.75 0
 4 5 -16 17.59 3.71 0
 4 5 -15 -1.46 2.64 0
 4 5 -14 27.54 4.17 0
 4 5 -13 24.21 3.89 0
 4 5 -12 35.65 4.3 0
 4 5 -11 117.04 6.16 0
 4 5 -10 8.43 2.62 0
 4 5 -9 124.59 6.1 0
 4 5 -8 58.39 4.51 0
 4 5 -7 26.66 3.24 0
 4 5 -6 1.46 1.89 0
 4 5 -5 2.8 2.03 0
 4 6 -17 37.91 4.74 0
 4 6 -16 66.43 5.38 0
 4 6 -15 2.45 2.92 0
 4 6 -14 1.06 2.52 0
 4 6 -13 3.75 2.66 0
 4 6 -12 165.24 7.58 0
 4 6 -11 129.45 6.81 0
 4 6 -10 214.02 7.9 0
 4 6 -9 239.6 8.11 0
 4 6 -7 68.59 4.89 0
 4 6 -6 200.13 7.09 0
 4 6 -5 32.63 3.45 0
 4 7 -16 4.47 2.66 0
 4 7 -15 62.21 5.27 0
 4 7 -14 17.88 3.66 0
 4 7 -13 43.82 4.72 0
 4 7 -12 71.71 5.68 0
 4 7 -10 60.5 4.69 0
 4 7 -9 88.17 5.73 0
 4 7 -8 157.32 6.89 0
 4 7 -7 399.74 10.32 0
 4 7 -6 43.48 4.12 0
 4 8 -15 17.95 3.66 0
 4 8 -14 8.42 3.03 0
 4 8 -13 17 3.67 0
 4 8 -12 186.29 7.92 0
 4 8 -11 31.8 4.48 0
 4 8 -10 78.57 5.35 0
 4 8 -9 15.71 3.06 0
 4 8 -8 6.7 2.84 0
 4 9 -14 29.69 4.02 0
 4 9 -13 3.66 2.49 0
 4 9 -12 182.12 8.21 0
 4 9 -11 41.87 4.45 0
 4 9 -9 8.22 2.88 0
 4 9 -8 219.68 8.35 0
 4 9 -7 72.83 5.21 0
 4 10 -13 1.76 2.56 0
 4 10 -12 173.13 8.05 0
 4 10 -11 1.69 2.42 0
 4 10 -9 14.71 3.45 0
 4 10 -8 116.02 6.48 0
 4 10 -7 67.24 5.28 0
 4 11 -12 54.45 5.11 0
 4 11 -10 29.36 4.16 0
 4 11 -9 -0.33 2.58 0
 4 11 -8 175.73 8.28 0
 4 11 -7 45.04 5.51 0
 4 12 -11 34.04 4.7 0
 4 12 -10 49.31 5.06 0
 4 12 -9 19.15 4.1 0
 4 12 -7 104.44 6.94 0
 4 13 -9 3.55 2.85 0
 4 13 -8 4.21 3.4 0
 4 13 -7 1.12 3.18 0
 4 14 -7 24.88 4.41 0
 5 -4 -7 28.49 3.71 0
 5 -4 -5 313.68 8.54 0
 5 -4 -4 84.67 4.68 0
 5 -4 -3 443.52 9.24 0
 5 -4 -2 53.14 3.39 0
 5 -4 1 21.06 1.99 0
 5 -4 2 50.52 2.5 0
 5 -3 -10 560.76 13.45 0
 5 -3 -9 225.84 8.38 0
 5 -3 -7 69.58 4.78 0
 5 -3 -6 21.6 3.13 0
 5 -3 -5 12.2 2.42 0
 5 -3 -3 390.61 8.58 0
 5 -3 0 7.43 1.78 0
 5 -3 3 406.4 6.12 0
 5 -3 4 33.19 1.79 0
 5 -3 5 12.87 1.08 0
 5 -2 -11 7.07 3.21 0
 5 -2 -10 -0.4 3.06 0
 5 -2 -9 157.06 7.05 0
 5 -2 -5 98.26 4.89 0
 5 -2 -3 257.99 6.99 0
 5 -2 1 72 3.4 0
 5 -2 2 28.86 2.33 0
 5 -2 3 258.9 5.19 0
 5 -2 5 103.34 2.85 0
 5 -2 6 34.34 1.53 0
 5 -1 -13 33.98 4.74 0
 5 -1 -11 124.43 6.65 0
 5 -1 -10 52.39 4.61 0
 5 -1 -9 4.28 2.24 0
 5 -1 -8 6.47 2.64 0
 5 -1 -7 63.13 4.41 0
 5 -1 -6 45.56 3.73 0
 5 -1 -5 16.28 2.63 0
 5 -1 -4 5.73 2.13 0
 5 -1 -3 2 1.73 0
 5 -1 2 91.88 3.51 0
 5 -1 3 3.37 1.28 0
 5 -1 4 6.48 1.25 0
 5 -1 5 15.17 1.66 0
 5 -1 6 46.45 2.1 0
 5 -1 7 65.43 2.2 0
 5 0 -14 52.68 6.29 0
 5 0 -13 25.89 4.59 0
 5 0 -12 9.54 3.12 0
 5 0 -11 67.36 5.25 0
 5 0 -10 15.05 3.34 0
 5 0 -9 393.85 10.58 0
 5 0 -7 295.09 8.77 0
 5 0 -6 24.31 2.91 0
 5 0 -4 100.36 4.97 0
 5 0 -3 438.45 9.15 0
 5 0 -2 1.45 1.39 0
 5 0 2 2.75 1.38 0
 5 0 3 447.4 7.59 0
 5 0 5 38.93 2.42 0
 5 0 6 25.81 1.96 0
 5 0 8 79.36 2.78 0
 5 1 -15 20.24 4.75 0
 5 1 -14 1.5 3.04 0
 5 1 -13 44.67 5.43 0
 5 1 -12 194.96 8.38 0
 5 1 -10 54.38 4.61 0
 5 1 -9 7.76 2.39 0
 5 1 -8 7.2 2.27 0
 5 1 -7 66.91 4.5 0
 5 1 -6 40.18 3.65 0
 5 1 -5 16.94 2.69 0
 5 1 -4 7.29 2.02 0
 5 1 -3 4.04 1.7 0
 5 1 -2 93.7 4.36 0
 5 2 -16 5.43 3.5 0
 5 2 -15 19.19 4.04 0
 5 2 -14 38.48 5.26 0
 5 2 -13 1.26 2.68 0
 5 2 -12 64.91 5.22 0
 5 2 -11 5.06 2.96 0
 5 2 -10 -0.83 2.08 0
 5 2 -9 150.01 6.76 0
 5 2 -8 330.46 9.5 0
 5 2 -7 108.91 5.7 0
 5 2 -6 35.14 3.64 0
 5 2 -5 105.86 5.08 0
 5 2 -4 1038.8 14.68 0
 5 2 -2 31.05 2.98 0
 5 2 0 246.87 6.75 0
 5 3 -16 71.11 6.39 0
 5 3 -14 35.99 4.9 0
 5 3 -13 68.48 5.83 0
 5 3 -12 65.84 5.4 0
 5 3 -11 79.74 5.98 0
 5 3 -10 543.78 12.88 0
 5 3 -9 225.53 8.55 0
 5 3 -8 79.81 5.17 0
 5 3 -7 86.48 5.3 0
 5 3 -4 33.93 3.54 0
 5 3 -3 402.72 9.32 0
 5 3 -2 555.09 10.79 0
 5 3 -1 57.31 3.69 0
 5 4 -16 16.64 4.47 0
 5 4 -15 83.28 6.39 0
 5 4 -14 45.69 5.61 0
 5 4 -12 5.25 2.98 0
 5 4 -11 55.72 5.34 0
 5 4 -10 2.27 2.5 0
 5 4 -9 25.92 3.82 0
 5 4 -7 26.74 3.59 0
 5 4 -6 15.37 3.22 0
 5 4 -5 339.94 9.21 0
 5 4 -3 421.83 9.84 0
 5 4 -2 55.87 4.07 0
 5 5 -16 -0.53 3.42 0
 5 5 -15 49.11 5.87 0
 5 5 -14 25.18 4.27 0
 5 5 -13 8.34 3.43 0
 5 5 -12 26.63 4.78 0
 5 5 -11 22.61 3.82 0
 5 5 -10 63.86 5.16 0
 5 5 -9 188.91 8.05 0
 5 5 -8 99.57 5.62 0
 5 5 -7 64.78 4.8 0
 5 5 -6 15.87 3.19 0
 5 5 -5 11.1 2.48 0
 5 5 -4 103.13 5.51 0
 5 5 -3 41.53 3.64 0
 5 6 -15 12.71 3.6 0
 5 6 -14 55.46 5.35 0
 5 6 -13 20.31 3.99 0
 5 6 -12 21.8 4.15 0
 5 6 -11 5.4 3.27 0
 5 6 -10 16.19 3.46 0
 5 6 -9 16.63 3.41 0
 5 6 -8 28.85 3.97 0
 5 6 -7 5.45 2.84 0
 5 6 -6 226.54 8.16 0
 5 6 -5 52.21 4.21 0
 5 6 -4 140.82 6.61 0
 5 7 -15 73.07 6.41 0
 5 7 -13 133.75 7.83 0
 5 7 -12 0.52 2.92 0
 5 7 -11 131.17 7.61 0
 5 7 -8 36.67 4.14 0
 5 7 -7 14.96 3.45 0
 5 7 -5 44.37 4.32 0
 5 8 -14 62.18 5.65 0
 5 8 -13 43.15 5.37 0
 5 8 -12 51.36 5.7 0
 5 8 -11 26.03 4.24 0
 5 8 -9 50.7 5.08 0
 5 8 -8 244.42 9.5 0
 5 8 -7 50.84 5.16 0
 5 8 -6 51.23 4.85 0
 5 8 -5 17.69 3.67 0
 5 9 -13 54.01 6.01 0
 5 9 -12 1.07 2.91 0
 5 9 -11 62.87 6.03 0
 5 9 -10 0.61 2.6 0
 5 9 -9 236.89 9.39 0
 5 9 -8 1.49 2.67 0
 5 9 -7 23.75 4.32 0
 5 9 -6 12.88 3.33 0
 5 9 -5 13.64 3.43 0
 5 10 -12 5.68 3.22 0
 5 10 -11 105.28 7.02 0
 5 10 -10 123.25 7.2 0
 5 10 -9 5.24 2.97 0
 5 10 -8 0.98 2.89 0
 5 10 -6 21.25 3.96 0
 5 11 -10 54.28 6.08 0
 5 11 -9 132.33 7.94 0
 5 11 -8 13.97 3.97 0
 5 11 -7 3.63 3.06 0
 5 11 -6 13.87 4.25 0
 5 12 -8 134.13 8.13 0
 5 12 -7 33.87 4.91 0
 5 12 -6 19.85 4.46 0
 5 13 -6 44.69 5.99 0
 6 -4 -7 2.99 2.84 0
 6 -4 -6 162.17 7.04 0
 6 -4 -4 21.44 3.12 0
 6 -4 -3 44.89 4.01 0
 6 -4 -2 54.52 3.77 0
 6 -4 -1 82.36 4.18 0
 6 -4 0 422.58 8.47 0
 6 -3 -9 57.28 5.19 0
 6 -3 -7 14.97 3.39 0
 6 -3 -6 77.79 5.07 0
 6 -3 -4 18.96 2.95 0
 6 -3 -3 11.45 2.45 0
 6 -3 -2 80.25 4.42 0
 6 -3 -1 87.07 4.41 0
 6 -3 0 46.04 3.38 0
 6 -3 3 10.86 1.8 0
 6 -3 4 18.98 1.79 0
 6 -2 -12 8.48 3.4 0
 6 -2 -11 62.47 5.92 0
 6 -2 -10 14.69 3.83 0
 6 -2 -9 45.86 5.34 0
 6 -2 -8 10.2 3.14 0
 6 -2 -7 113.22 6.46 0
 6 -2 -6 75.52 5.45 0
 6 -2 -5 373.3 9.94 0
 6 -2 -4 76.83 4.7 0
 6 -2 -2 4.73 1.97 0
 6 -2 -1 89.25 4.43 0
 6 -2 0 142.8 5.21 0
 6 -2 4 77.15 3.23 0
 6 -2 5 384.99 6.15 0
 6 -1 -13 3.28 3.07 0
 6 -1 -12 7.8 3.91 0
 6 -1 -11 57.51 5.23 0
 6 -1 -10 67.75 6 0
 6 -1 -9 0.61 2.3 0
 6 -1 -8 134.1 6.76 0
 6 -1 -7 130.57 6.66 0
 6 -1 -6 243.5 8.56 0
 6 -1 -5 18.7 3.1 0
 6 -1 -4 56.94 4.44 0
 6 -1 -3 126.26 5.76 0
 6 -1 -2 146.21 6.01 0
 6 -1 -1 102.07 4.76 0
 6 -1 0 298.56 7.59 0
 6 -1 1 98.87 4.33 0
 6 -1 5 25.03 2.18 0
 6 -1 6 239.23 5.03 0
 6 0 -14 108.44 7.54 0
 6 0 -13 67.9 6.51 0
 6 0 -12 34.47 4.75 0
 6 0 -11 9.92 3.39 0
 6 0 -10 74.05 6.16 0
 6 0 -9 128.54 6.96 0
 6 0 -8 51.12 5.19 0
 6 0 -7 477.19 11.87 0
 6 0 -5 3.33 2.23 0
 6 0 -3 134.12 5.93 0
 6 0 -2 108.18 5.33 0
 6 0 -1 118.52 5.32 0
 6 0 0 -0.78 1.8 0
 6 0 1 126.51 4.92 0
 6 0 2 110.32 4.46 0
 6 0 7 461.7 7.22 0
 6 1 -15 3.62 3.82 0
 6 1 -14 93.9 7.3 0
 6 1 -13 5.36 3.57 0
 6 1 -12 13.48 4.33 0
 6 1 -11 56.83 5.64 0
 6 1 -10 69.75 5.65 0
 6 1 -9 0.61 2.4 0
 6 1 -8 130.51 7.01 0
 6 1 -7 127.01 6.53 0
 6 1 -6 234.6 8.37 0
 6 1 -5 24.31 3.75 0
 6 1 -2 143.45 5.89 0
 6 1 -1 95.68 4.79 0
 6 1 0 296.27 7.87 0
 6 1 1 100.66 4.76 0
 6 1 2 143.12 5.42 0
 6 1 3 128.53 5 0
 6 1 4 56.74 3.35 0
 6 1 5 20.49 2.48 0
 6 2 -15 8.16 3.93 0
 6 2 -14 37.49 5.66 0
 6 2 -13 405.03 13.04 0
 6 2 -12 10.64 3.79 0
 6 2 -11 68.06 6.22 0
 6 2 -10 20.85 4.12 0
 6 2 -8 6.97 2.94 0
 6 2 -7 105.95 5.98 0
 6 2 -6 82.02 5.2 0
 6 2 -4 71.4 4.93 0
 6 2 -3 112.6 5.55 0
 6 2 -2 2.91 2 0
 6 2 -1 91.79 4.99 0
 6 2 0 133.23 5.64 0
 6 2 1 92.34 4.65 0
 6 2 2 6.45 1.98 0
 6 2 3 110.1 4.99 0
 6 2 4 74.24 4.02 0
 6 3 -14 24.62 4.58 0
 6 3 -12 70.5 6.44 0
 6 3 -11 40.85 5.47 0
 6 3 -9 62.18 5.63 0
 6 3 -8 77.71 6 0
 6 3 -7 14.95 3.42 0
 6 3 -6 86.83 5.74 0
 6 3 -5 53.52 4.82 0
 6 3 -4 14.58 2.95 0
 6 3 -3 9.34 2.51 0
 6 3 -2 70.58 4.53 0
 6 3 -1 94.27 5.37 0
 6 3 0 38.51 3.51 0
 6 3 1 92.94 5.15 0
 6 4 -14 21.35 4.47 0
 6 4 -13 2.32 3.33 0
 6 4 -12 3.58 3.08 0
 6 4 -11 22.83 4.2 0
 6 4 -10 23.13 4.34 0
 6 4 -9 24.81 4.25 0
 6 4 -8 45.28 4.84 0
 6 4 -7 3.65 2.69 0
 6 4 -5 86.36 5.37 0
 6 4 -4 23.84 3.5 0
 6 4 -3 41.98 3.84 0
 6 4 -1 78.87 5 0
 6 4 0 416.98 10.27 0
 6 5 -14 13.76 4.46 0
 6 5 -13 27.62 4.65 0
 6 5 -12 142.24 8.16 0
 6 5 -11 19.16 4.63 0
 6 5 -10 28.84 4.42 0
 6 5 -9 121.7 7.1 0
 6 5 -8 80.61 6.08 0
 6 5 -7 61.18 5.53 0
 6 5 -6 53.05 4.96 0
 6 5 -5 12.34 3.13 0
 6 5 -4 25.52 3.78 0
 6 5 -3 216.71 8.3 0
 6 5 -2 9.64 3.17 0
 6 5 -1 160.88 7.04 0
 6 6 -13 51.32 6.31 0
 6 6 -12 75.59 6.49 0
 6 6 -11 16.34 4.15 0
 6 6 -10 121.13 7.35 0
 6 6 -9 143.13 7.9 0
 6 6 -8 77.49 6.15 0
 6 6 -7 10.47 3.11 0
 6 6 -5 14.41 3.24 0
 6 6 -4 4.75 2.4 0
 6 6 -3 5.22 2.5 0
 6 6 -2 92.04 5.68 0
 6 7 -12 7.23 3.61 0
 6 7 -11 114.41 7.81 0
 6 7 -10 7.57 3.38 0
 6 7 -9 6.42 3.2 0
 6 7 -8 166.28 8.47 0
 6 7 -6 19.44 3.89 0
 6 7 -5 82.38 5.94 0
 6 7 -4 226.4 8.88 0
 6 7 -3 38.75 4.54 0
 6 8 -11 15.91 3.93 0
 6 8 -10 6.5 3.67 0
 6 8 -9 30.04 4.63 0
 6 8 -8 3.18 2.99 0
 6 8 -7 113.9 7.31 0
 6 8 -4 36.74 4.81 0
 6 8 -3 21.76 4.15 0
 6 9 -10 95.29 7.37 0
 6 9 -9 9.52 3.45 0
 6 9 -7 3.88 3.48 0
 6 9 -6 10.76 3.6 0
 6 9 -5 56.12 5.48 0
 6 9 -4 19.03 4.11 0
 6 10 -9 6.44 3.61 0
 6 10 -8 43.6 5.55 0
 6 10 -7 12.85 4.5 0
 6 10 -6 146.9 8.56 0
 6 10 -5 8.69 3.7 0
 6 10 -4 46.79 6.01 0
 6 11 -7 97.43 7.12 0
 6 11 -6 9.63 3.83 0
 6 11 -5 9.57 3.84 0
 6 12 -4 1.09 3.31 0
 7 -4 -6 181.42 7.98 0
 7 -4 -5 2.49 2.47 0
 7 -4 -4 18.76 3.38 0
 7 -4 -2 66.47 4.79 0
 7 -4 -1 33 3.5 0
 7 -4 0 2.33 1.86 0
 7 -4 1 32.59 3.07 0
 7 -4 2 59.09 3.42 0
 7 -3 -8 49.45 5.07 0
 7 -3 -7 44.33 5.44 0
 7 -3 -6 128.95 6.84 0
 7 -3 -5 61.58 5.12 0
 7 -3 -4 53.56 4.89 0
 7 -3 -2 150.78 6.31 0
 7 -3 -1 3.17 2.16 0
 7 -3 1 0.77 1.66 0
 7 -3 2 147 5.11 0
 7 -2 -11 108.63 7.74 0
 7 -2 -10 12 3.86 0
 7 -2 -8 77.75 6.3 0
 7 -2 -7 24.75 4 0
 7 -2 -6 9.78 3.1 0
 7 -2 -5 95.38 6.04 0
 7 -2 -3 109.08 5.73 0
 7 -2 -2 44.82 4.02 0
 7 -2 -1 14.85 2.71 0
 7 -2 0 137.8 5.75 0
 7 -2 1 18.09 2.58 0
 7 -2 2 45.06 3.34 0
 7 -1 -13 24.33 5.7 0
 7 -1 -11 87.07 6.52 0
 7 -1 -10 42.71 5.44 0
 7 -1 -9 14.12 4.07 0
 7 -1 -8 175.86 8.68 0
 7 -1 -7 294.7 10.32 0
 7 -1 -5 22.05 3.62 0
 7 -1 -4 86.66 5.49 0
 7 -1 -3 77.59 5.43 0
 7 -1 -1 176.5 6.81 0
 7 -1 0 49.88 4.1 0
 7 -1 1 173.75 6.3 0
 7 -1 2 27.29 2.99 0
 7 -1 3 77.58 4.01 0
 7 -1 4 84.79 3.93 0
 7 0 -13 3.92 3.74 0
 7 0 -12 94.84 7.19 0
 7 0 -11 7.35 4 0
 7 0 -10 35.15 5.18 0
 7 0 -9 3.97 3.05 0
 7 0 -8 114.15 7.29 0
 7 0 -7 15.63 3.75 0
 7 0 -6 27.14 3.95 0
 7 0 -5 38.8 4.45 0
 7 0 -4 37.41 4.35 0
 7 0 -3 59.74 5.09 0
 7 0 -2 12.78 2.88 0
 7 0 -1 95.56 5.27 0
 7 0 1 92.17 4.89 0
 7 0 3 52.85 3.7 0
 7 0 4 33.71 2.91 0
 7 0 5 32.64 2.73 0
 7 1 -13 26.16 5.3 0
 7 1 -11 80.31 6.86 0
 7 1 -9 14.68 3.92 0
 7 1 -8 186.16 8.55 0
 7 1 -7 294.45 10.52 0
 7 1 -5 24.3 3.88 0
 7 1 -4 93.18 5.68 0
 7 1 -3 74.32 5.16 0
 7 1 -2 22.32 3.44 0
 7 1 0 48.73 4.03 0
 7 1 1 178.57 6.72 0
 7 1 2 30.42 3.56 0
 7 1 3 70.94 4.13 0
 7 1 4 85.1 4.4 0
 7 1 5 24.08 3.01 0
 7 1 6 47.47 3.24 0
 7 2 -12 20.15 4.33 0
 7 2 -10 9.45 4.54 0
 7 2 -9 34.11 4.85 0
 7 2 -8 65.78 6.17 0
 7 2 -7 29.64 4.39 0
 7 2 -6 12.62 3.7 0
 7 2 -5 98.93 6.17 0
 7 2 -4 49.22 4.58 0
 7 2 -3 95.74 5.96 0
 7 2 -2 45.29 4.67 0
 7 2 -1 14.43 3.13 0
 7 2 1 12.98 2.76 0
 7 2 2 37.22 3.59 0
 7 2 3 100.38 5.25 0
 7 2 4 43.6 3.85 0
 7 2 6 6.24 2.12 0
 7 3 -12 7.27 3.99 0
 7 3 -11 34.29 5.42 0
 7 3 -10 101.19 7.35 0
 7 3 -9 2.5 2.85 0
 7 3 -8 60.07 5.79 0
 7 3 -7 41.59 5.12 0
 7 3 -6 135.48 7.18 0
 7 3 -5 70.41 5.8 0
 7 3 -3 164.88 7.35 0
 7 3 -2 160.95 7.4 0
 7 3 -1 -0.35 2.28 0
 7 3 0 75.67 5.22 0
 7 3 1 -0.33 2.14 0
 7 3 2 148.82 6.62 0
 7 3 3 173.16 6.8 0
 7 3 4 58.17 4.43 0
 7 3 5 65.32 4.61 0
 7 3 6 121.56 5.62 0
 7 4 -12 170.9 9.05 0
 7 4 -11 53.42 6.14 0
 7 4 -10 55.24 6.22 0
 7 4 -9 24.05 4.57 0
 7 4 -8 1.43 3.67 0
 7 4 -6 188.12 8.48 0
 7 4 -5 4.77 3.16 0
 7 4 -4 21.56 3.81 0
 7 4 -3 71.61 5.68 0
 7 4 -2 54.89 4.77 0
 7 4 -1 39.4 4.3 0
 7 4 0 5.07 2.56 0
 7 4 1 28.6 3.75 0
 7 4 2 61.13 4.63 0
 7 4 3 73.57 5.18 0
 7 4 4 20.8 3.21 0
 7 5 -11 20.48 4.41 0
 7 5 -10 125.79 7.81 0
 7 5 -8 49.42 5.35 0
 7 5 -4 101.74 6.64 0
 7 5 -3 -1.32 2.33 0
 7 5 -2 52.67 5.22 0
 7 5 0 188.8 7.99 0
 7 5 1 22.92 3.72 0
 7 5 2 46.54 4.51 0
 7 6 -10 128.61 7.96 0
 7 6 -9 6.88 3.58 0
 7 6 -8 4.27 3.38 0
 7 6 -4 14.61 3.69 0
 7 6 -2 56.22 5.09 0
 7 6 0 2.24 3.1 0
 7 6 1 80.43 6.21 0
 7 7 -10 9.96 4.1 0
 7 7 -9 35.69 5.4 0
 7 7 -8 6.26 3.56 0
 7 7 -7 3.09 3.36 0
 7 7 -6 1.55 3.16 0
 7 7 -5 39.74 5.02 0
 7 7 -3 85.86 6.65 0
 7 7 -2 90.24 6.45 0
 7 8 -8 1.51 3.24 0
 7 8 -6 3.52 2.99 0
 7 8 -4 54.67 6.45 0
 7 8 -3 48.35 5.44 0
 7 8 -2 55.46 6.26 0
 7 8 -1 105 7.41 0
 7 9 -7 25.45 5.15 0
 7 9 -6 11.02 4.02 0
 7 9 -4 75.29 6.68 0
 7 9 -2 9.23 4.19 0
 7 9 -1 70.87 6.42 0
 7 10 -5 41.29 5.9 0
 7 10 -3 66.7 6.28 0
 7 10 -2 34.12 5.18 0
 8 -4 -4 32.26 4.67 0
 8 -4 -3 41.6 4.47 0
 8 -4 -2 4.42 2.45 0
 8 -4 -1 5.76 2.35 0
 8 -3 -8 51.96 5.89 0
 8 -3 -7 50.72 6.14 0
 8 -3 -6 39.49 5.26 0
 8 -3 -5 21.66 3.86 0
 8 -3 -4 116.88 6.78 0
 8 -3 -3 78.69 5.75 0
 8 -3 -2 75.56 5.04 0
 8 -3 -1 68.8 4.83 0
 8 -3 0 2.44 1.86 0
 8 -2 -10 19.75 4.83 0
 8 -2 -9 34.57 5.4 0
 8 -2 -8 3.83 3.31 0
 8 -2 -7 6.69 3.32 0
 8 -2 -6 6.66 3.24 0
 8 -2 -5 119.15 7.18 0
 8 -2 -4 57.46 5.25 0
 8 -2 -3 24.7 3.89 0
 8 -2 -2 71.16 5.33 0
 8 -2 -1 8.36 2.57 0
 8 -2 0 70.39 4.84 0
 8 -2 1 7.69 2.38 0
 8 -1 -10 25.71 4.97 0
 8 -1 -9 80.91 6.88 0
 8 -1 -8 16.8 4.01 0
 8 -1 -7 3.84 3.03 0
 8 -1 -6 61.79 6.04 0
 8 -1 -5 47.38 5.2 0
 8 -1 -4 57.83 5.47 0
 8 -1 -2 117.56 6.15 0
 8 -1 -1 40.96 4.13 0
 8 -1 0 60.57 4.77 0
 8 -1 1 41.17 3.76 0
 8 -1 2 124.53 5.63 0
 8 0 -10 3.19 3.66 0
 8 0 -8 49.59 5.74 0
 8 0 -7 7.12 3.33 0
 8 0 -6 21.65 4.34 0
 8 0 -5 94.22 6.57 0
 8 0 -3 -1.09 2.96 0
 8 0 -2 104.97 6.23 0
 8 0 -1 -2.09 1.97 0
 8 0 0 105.86 5.78 0
 8 0 1 1.52 2.03 0
 8 0 2 96.2 5.31 0
 8 0 3 0.48 1.75 0
 8 1 -10 24.31 4.81 0
 8 1 -9 82.38 6.68 0
 8 1 -8 10.03 3.6 0
 8 1 -7 2.55 3 0
 8 1 -6 58.59 6.03 0
 8 1 -5 50.59 5.35 0
 8 1 -4 55.19 5.18 0
 8 1 -3 45.74 5.48 0
 8 1 -2 122.09 6.86 0
 8 1 -1 42.44 4.62 0
 8 1 0 58.27 4.66 0
 8 1 1 39.54 4.35 0
 8 1 2 126.8 5.95 0
 8 1 4 58.32 4.09 0
 8 2 -10 16.65 4.42 0
 8 2 -9 34.12 5.14 0
 8 2 -8 0.46 3.4 0
 8 2 -7 5.07 3.32 0
 8 2 -6 -0.11 2.76 0
 8 2 -5 123.16 7.34 0
 8 2 -4 56.38 5.71 0
 8 2 -3 29.32 4.53 0
 8 2 -1 12.91 3.22 0
 8 2 0 73.76 5.47 0
 8 2 1 6.34 2.58 0
 8 2 2 66.26 4.88 0
 8 3 -9 10.47 3.93 0
 8 3 -8 59.12 6.58 0
 8 3 -6 30.17 4.63 0
 8 3 -5 18.03 4.03 0
 8 3 -4 116.96 7.09 0
 8 3 -2 71.32 5.57 0
 8 3 -1 82.44 6.12 0
 8 3 0 1.11 2.37 0
 8 3 1 71.4 5.37 0
 8 3 2 74.38 5.08 0
 8 3 3 73.21 5.07 0
 8 3 4 110.45 5.72 0
 8 3 5 14.88 2.91 0
 8 4 -9 7.03 4.06 0
 8 4 -8 77.29 6.83 0
 8 4 -7 73.09 6.73 0
 8 4 -6 20.54 4.54 0
 8 4 -5 129.38 7.77 0
 8 4 -4 28.48 4.52 0
 8 4 -3 45.09 5.13 0
 8 4 -2 2.25 2.82 0
 8 4 -1 -0.08 2.38 0
 8 4 0 3.9 2.82 0
 8 4 1 4.52 2.6 0
 8 4 2 8.08 3.04 0
 8 4 3 37.82 4.72 0
 8 4 4 30.7 3.98 0
 8 4 5 119.13 6.33 0
 8 5 -8 10.24 3.89 0
 8 5 -6 54.6 5.73 0
 8 5 -2 47.01 5.6 0
 8 5 -1 40.38 5.1 0
 8 5 0 5.49 3.51 0
 8 5 1 46.27 4.79 0
 8 5 2 38.87 4.9 0
 8 5 3 61.83 5.3 0
 8 5 4 9.9 2.99 0
 8 5 5 23.42 3.64 0
 8 5 6 50.53 4.79 0
 8 6 -7 30.78 5.41 0
 8 6 -6 6.74 3.45 0
 8 6 -3 115.8 7.3 0
 8 6 -2 20.19 4.22 0
 8 6 -1 13.46 3.65 0
 8 6 0 2.28 2.86 0
 8 6 1 20.8 4.38 0
 8 6 2 16.28 3.7 0
 8 6 4 51.65 5.67 0
 8 6 5 15.88 3.54 0
 8 6 6 3.79 2.91 0
 8 7 -5 7.97 3.69 0
 8 7 -4 9.93 4 0
 8 7 -3 58.76 6.1 0
 8 7 -2 3.09 3.19 0
 8 7 -1 5.16 3.43 0
 8 7 0 7.91 3.61 0
 8 7 1 2.08 3.48 0
 8 7 2 0.18 2.73 0
 8 7 3 61.29 5.94 0
 8 7 4 4.34 3.16 0
 8 7 5 6.76 3.22 0
 8 8 -2 192.27 9.8 0
 8 8 -1 92.26 7.3 0
 8 8 0 54.99 6.36 0
 8 8 1 83.51 6.6 0
 8 8 2 203.12 9.8 0
 9 -3 -6 27.82 4.74 0
 9 -3 -5 51.88 6.04 0
 9 -3 -4 -1.35 2.32 0
 9 -3 -3 6.68 3.05 0
 9 -2 -6 123.34 7.54 0
 9 -2 -5 5.19 3.04 0
 9 -2 -4 34.39 4.66 0
 9 -2 -3 44.46 5.33 0
 9 -2 -2 16.97 3.6 0
 9 -2 -1 92.91 5.91 0
 9 -1 -6 12.33 3.92 0
 9 -1 -5 111.11 7.34 0
 9 -1 -4 19.22 4.43 0
 9 -1 -2 177.5 8.04 0
 9 -1 -1 52.45 4.82 0
 9 0 -6 19.68 4.41 0
 9 0 -5 32.81 4.68 0
 9 0 -3 28.69 4.33 0
 9 0 -2 15.43 3.56 0
 9 0 -1 193.57 8.33 0
 9 0 0 0.46 2.55 0
 9 1 -6 7.66 3.74 0
 9 1 -5 110.75 7.47 0
 9 1 -4 16.27 4.13 0
 9 1 -3 71.22 6.26 0
 9 1 -2 181.53 8.3 0
 9 1 -1 47.21 5.17 0
 9 1 0 27.49 4.09 0
 9 1 1 55.43 4.96 0
 9 2 -5 9.01 3.68 0
 9 2 -4 39.6 5.2 0
 9 2 -3 38.54 5.21 0
 9 2 -2 20.78 4.08 0
 9 2 -1 90.35 6.17 0
 9 2 0 10.65 3.13 0
 9 3 -5 53.21 6.25 0
 9 3 -4 -0.67 2.83 0
 9 3 -3 -0.41 3.12 0
 9 3 -2 18.05 3.97 0
 9 3 -1 3.7 3.13 0
 9 3 1 4.74 2.64 0
 9 3 2 20.88 3.82 0
 9 3 3 -0.13 2.63 0
 9 4 -4 14.5 4.21 0
 9 4 -3 20.44 4.87 0
 9 4 -1 2.77 3.16 0
 9 4 1 4.76 2.67 0
 9 4 2 22.79 3.82 0
 9 4 3 24.01 3.78 0
 9 5 -2 34.56 5.36 0
 9 5 -1 8.54 3.57 0
 9 5 0 12.28 3.67 0
 9 5 1 10.65 3.47 0
 9 5 2 53.16 5.46 0
 9 5 3 29.94 4.24 0
 9 5 4 11.26 3.12 0
 -2 -14 -7 26.1 4.14 0
 -2 -14 -6 12.67 3.4 0
 -2 -13 -9 20.98 4.5 0
 -2 -13 -8 86.31 6.39 0
 -2 -13 -7 90.77 5.86 0
 -2 -13 -6 15.54 3.51 0
 -2 -13 -5 56.43 4.64 0
 -2 -13 -4 54.57 4.24 0
 -2 -13 -3 64.44 4.18 0
 -2 -12 -10 41.42 5.23 0
 -2 -12 -9 56.96 5.29 0
 -2 -12 -8 23.55 3.94 0
 -2 -12 -7 34.02 4.41 0
 -2 -12 -6 105.04 5.79 0
 -2 -12 -5 8.99 2.98 0
 -2 -12 -4 48.26 4.02 0
 -2 -12 -3 13.77 2.31 0
 -2 -12 -2 166.78 5.46 0
 -2 -11 -11 27.71 5.21 0
 -2 -11 -10 37.25 4.85 0
 -2 -11 -8 250.65 8.92 0
 -2 -11 -7 6.67 2.68 0
 -2 -11 -6 57.81 4.79 0
 -2 -11 -5 103.51 5.28 0
 -2 -11 -4 19.03 2.72 0
 -2 -11 -3 72.43 4.1 0
 -2 -10 -11 199.93 8.99 0
 -2 -10 -10 32.58 4.88 0
 -2 -10 -9 74.7 5.84 0
 -2 -10 -8 4.25 2.75 0
 -2 -10 -7 10.58 3.02 0
 -2 -10 -6 256.2 8.1 0
 -2 -10 -5 -1.61 1.67 0
 -2 -10 -3 40.3 3.15 0
 -2 -10 0 0.2 1.03 0
 -2 -9 -11 25.96 4.23 0
 -2 -9 -10 2 2.89 0
 -2 -9 -9 86.69 5.55 0
 -2 -9 -7 38.32 3.69 0
 -2 -9 -6 124.81 5.62 0
 -2 -9 -5 556.39 10.64 0
 -2 -9 -4 62.86 3.92 0
 -2 -9 -2 101.23 4.08 0
 -2 -9 -1 49.73 2.7 0
 -2 -8 -11 96.43 6.22 0
 -2 -8 -10 89.39 6.12 0
 -2 -8 -9 107.97 6.04 0
 -2 -8 -8 127.77 6.03 0
 -2 -8 -6 169.38 6.26 0
 -2 -8 -5 114.26 4.97 0
 -2 -8 -2 440.08 7.6 0
 -2 -8 -1 484.29 7.19 0
 -2 -8 0 9.55 1.35 0
 -2 -7 -10 7.26 2.6 0
 -2 -7 -8 189.9 7.04 0
 -2 -7 -6 38.3 3.2 0
 -2 -7 -3 49.95 3.07 0
 -2 -7 -2 170.82 4.62 0
 -2 -7 -1 351.26 5.9 0
 -2 -7 0 479.57 6.18 0
 -2 -6 -10 63.94 4.68 0
 -2 -6 -9 111.03 5.56 0
 -2 -6 -8 32.98 3.56 0
 -2 -6 -7 49.62 3.62 0
 -2 -6 -4 27.47 2.71 0
 -2 -6 -3 657.6 8.92 0
 -2 -6 -2 290.3 5.63 0
 -2 -6 -1 57.06 2.47 0
 -2 -5 -9 36.08 3.91 0
 -2 -5 -7 451.74 9.42 0
 -2 -5 -4 127.72 4.19 0
 -2 -5 -3 309.67 6.05 0
 -2 -4 -5 388.66 7.51 0
 -2 -4 -4 1019.05 11.16 0
 -1 -15 -9 104.27 7.11 0
 -1 -15 -8 19.16 4.02 0
 -1 -15 -7 26.22 4.02 0
 -1 -15 -6 87.48 6.03 0
 -1 -14 -9 71.23 5.99 0
 -1 -14 -8 82.99 6.37 0
 -1 -14 -7 13.12 3.8 0
 -1 -14 -6 55.51 5.16 0
 -1 -14 -5 9.33 2.76 0
 -1 -13 -12 68.81 6.87 0
 -1 -13 -11 6.81 3.65 0
 -1 -13 -10 27.2 5.15 0
 -1 -13 -9 74.52 5.97 0
 -1 -13 -8 115.23 6.99 0
 -1 -13 -7 19.06 3.87 0
 -1 -13 -6 7.59 3.04 0
 -1 -13 -5 140.16 6.67 0
 -1 -13 -4 80.49 5.01 0
 -1 -13 -2 87.24 4.42 0
 -1 -12 -13 120.48 8.42 0
 -1 -12 -12 79.72 7.08 0
 -1 -12 -11 27.52 4.61 0
 -1 -12 -10 21.84 4.27 0
 -1 -12 -9 40.87 5.16 0
 -1 -12 -8 45.62 4.7 0
 -1 -12 -7 74.29 5.66 0
 -1 -12 -6 11.2 3.11 0
 -1 -12 -5 4.88 2.49 0
 -1 -12 -4 47.49 4.09 0
 -1 -12 -3 12.15 2.52 0
 -1 -12 -2 48.41 3.58 0
 -1 -12 -1 5.64 1.81 0
 -1 -11 -14 96.64 8.01 0
 -1 -11 -13 38.48 5.84 0
 -1 -11 -12 3.64 4.01 0
 -1 -11 -10 147.15 7.62 0
 -1 -11 -9 10.29 3.25 0
 -1 -11 -8 34.06 4.51 0
 -1 -11 -7 41.57 4.19 0
 -1 -11 -6 78.7 5.21 0
 -1 -11 -5 84.82 5.1 0
 -1 -11 -4 115.05 5.37 0
 -1 -11 -2 77.61 3.97 0
 -1 -11 0 0.08 1.23 0
 -1 -11 1 7.24 1.49 0
 -1 -10 -14 49.12 6.14 0
 -1 -10 -13 55 6.15 0
 -1 -10 -12 31.17 5.02 0
 -1 -10 -11 160.15 7.98 0
 -1 -10 -10 81.38 5.83 0
 -1 -10 -9 78.77 5.8 0
 -1 -10 -8 11.79 3.25 0
 -1 -10 -7 2.44 2.31 0
 -1 -10 -6 130.16 6.08 0
 -1 -10 -5 252.81 7.53 0
 -1 -10 0 2.1 1.24 0
 -1 -10 1 179.64 4.32 0
 -1 -10 2 268.66 4.66 0
 -1 -9 -15 10.11 4.21 0
 -1 -9 -14 39.01 5.47 0
 -1 -9 -12 18.22 4.59 0
 -1 -9 -11 11.48 3.86 0
 -1 -9 -9 268.72 9 0
 -1 -9 -6 14.57 2.9 0
 -1 -9 -5 215.36 6.65 0
 -1 -9 -4 291.59 7.43 0
 -1 -9 -2 55.83 3.25 0
 -1 -9 -1 341.9 6.57 0
 -1 -9 0 967.62 10.07 0
 -1 -9 1 328.32 5.4 0
 -1 -9 2 57.45 2.17 0
 -1 -8 -14 15.84 4.27 0
 -1 -8 -13 30.13 4.86 0
 -1 -8 -12 69.45 6.12 0
 -1 -8 -11 22.82 4.18 0
 -1 -8 -10 150.71 7.24 0
 -1 -8 -9 32.35 4.1 0
 -1 -8 -8 47.62 4.3 0
 -1 -8 -7 42.72 3.62 0
 -1 -8 -6 27.28 3 0
 -1 -8 -5 201.66 6.3 0
 -1 -8 -2 203.43 5.18 0
 -1 -8 0 546.49 7.11 0
 -1 -8 1 41.72 2.06 0
 -1 -8 3 278.92 3.39 0
 -1 -7 -13 42.95 4.99 0
 -1 -7 -12 14.66 3.52 0
 -1 -7 -11 11.69 2.94 0
 -1 -7 -9 60.69 4.45 0
 -1 -7 -8 93.61 4.92 0
 -1 -7 -7 84.14 4.56 0
 -1 -7 -6 37.2 3.13 0
 -1 -7 -3 1.67 1.32 0
 -1 -7 -2 40.36 2.45 0
 -1 -7 -1 170.34 4.15 0
 -1 -7 0 133.61 3.37 0
 -1 -7 1 169.17 3.35 0
 -1 -7 2 40.52 1.54 0
 -1 -7 3 1.02 0.43 0
 -1 -6 -14 97.75 6.51 0
 -1 -6 -13 120.54 6.68 0
 -1 -6 -11 20.72 3.3 0
 -1 -6 -10 14.57 2.98 0
 -1 -6 -9 159.06 6.52 0
 -1 -6 -8 414.34 9.47 0
 -1 -6 -7 87.28 4.25 0
 -1 -6 -4 194.24 5.27 0
 -1 -6 -3 22.97 2.05 0
 -1 -6 -2 154.47 3.96 0
 -1 -6 -1 524.67 6.5 0
 -1 -6 0 332.05 4.7 0
 -1 -6 1 523.78 5.17 0
 -1 -6 3 21.31 0.74 0
 -1 -5 -14 36.76 4.87 0
 -1 -5 -13 22.49 3.79 0
 -1 -5 -11 434.69 10.67 0
 -1 -5 -10 26.64 3.29 0
 -1 -5 -9 253.47 7.51 0
 -1 -5 -8 311.18 7.79 0
 -1 -5 -5 86.95 3.74 0
 -1 -5 -4 183.48 4.81 0
 -1 -5 -3 1867.6 13.52 0
 -1 -5 -2 701.15 7.74 0
 -1 -5 -1 96.55 2.79 0
 -1 -5 0 383.33 4.58 0
 -1 -5 1 97.14 2.07 0
 -1 -5 2 687.52 4.12 0
 -1 -4 -13 151.66 7.1 0
 -1 -4 -12 109.92 5.87 0
 -1 -4 -11 13.2 2.77 0
 -1 -4 -9 537 10.37 0
 -1 -4 -6 570.15 9.01 0
 -1 -4 -5 108.67 3.92 0
 -1 -4 -4 64.81 2.83 0
 -1 -4 -3 225.59 4.68 0
 -1 -4 -2 1652.52 10.92 0
 -1 -4 -1 625.53 6.02 0
 -1 -4 0 704.66 5.54 0
 -1 -4 1 615.06 4.2 0
 -1 -3 -12 177.98 7.08 0
 -1 -3 -10 220.69 7.1 0
 -1 -3 -7 739.92 10.42 0
 -1 -3 -6 604.71 8.88 0
 -1 -3 -5 405.2 6.82 0
 -1 -3 -4 284.65 5.27 0
 -1 -3 -3 794.16 7.85 0
 -1 -3 -2 381.38 5.05 0
 -1 -3 -1 1078.82 7.2 0
 -1 -3 0 60.99 1.54 0
 -1 -3 1 1051.45 4.52 0
 -1 -2 -10 652.25 11.59 0
 -1 -2 -7 349.54 6.92 0
 -1 -2 -4 1699.47 11.94 0
 -1 -2 -3 485.58 5.89 0
 -1 -2 -2 3971.09 14.57 0
 -1 -2 -1 3312.7 11.47 0
 -1 -1 -8 76.42 3.69 0
 -1 -1 -6 371.3 6.5 0
 -1 -1 -5 2398.63 14.93 0
 -1 -1 -4 630.44 7.08 0
 0 -15 -9 3.83 3.33 0
 0 -15 -8 23.88 4.41 0
 0 -15 -7 5.28 2.96 0
 0 -15 -6 91.34 6.38 0
 0 -15 -5 5.32 3 0
 0 -15 -4 65.48 5.21 0
 0 -14 -10 8.66 3.79 0
 0 -14 -9 3.48 3.52 0
 0 -14 -7 8.69 3.22 0
 0 -14 -6 35.86 4.47 0
 0 -14 -4 108.14 5.89 0
 0 -14 -3 61.74 4.59 0
 0 -14 -2 109.19 5.39 0
 0 -13 -11 14.07 4.23 0
 0 -13 -10 118.41 7.88 0
 0 -13 -9 243.89 10.08 0
 0 -13 -8 21.33 4.5 0
 0 -13 -7 5.97 2.97 0
 0 -13 -6 10.45 3.16 0
 0 -13 -4 3.87 2.42 0
 0 -13 -3 0.27 1.85 0
 0 -13 -1 41.64 3.43 0
 0 -13 0 -0.1 1.5 0
 0 -12 -13 107.6 7.75 0
 0 -12 -12 1.27 3.39 0
 0 -12 -11 4.66 3.47 0
 0 -12 -10 3.88 3.54 0
 0 -12 -9 99.49 6.85 0
 0 -12 -7 682.71 14.57 0
 0 -12 -6 2.3 2.39 0
 0 -12 -5 6.05 2.44 0
 0 -12 -3 7.87 2.27 0
 0 -12 -2 78.65 4.43 0
 0 -12 0 0.93 1.32 0
 0 -11 -14 7.66 3.95 0
 0 -11 -13 56.77 5.95 0
 0 -11 -11 119.28 7.71 0
 0 -11 -10 123.03 7.44 0
 0 -11 -9 120.15 6.73 0
 0 -11 -8 10.15 3.13 0
 0 -11 -7 99.49 5.8 0
 0 -11 -6 24.76 3.39 0
 0 -11 -5 15.37 2.83 0
 0 -11 -4 1.14 1.88 0
 0 -11 -3 8.54 2.16 0
 0 -11 -2 136.98 5.38 0
 0 -11 -1 74.73 3.96 0
 0 -11 2 138.27 4.23 0
 0 -11 3 9.55 1.46 0
 0 -10 -14 16 4.97 0
 0 -10 -12 1.28 2.97 0
 0 -10 -10 10.84 3.41 0
 0 -10 -9 129.51 6.77 0
 0 -10 -8 2.23 2.38 0
 0 -10 -7 35.23 4.38 0
 0 -10 -6 340.76 9.15 0
 0 -10 -5 -0.84 1.83 0
 0 -10 -4 14.29 2.47 0
 0 -10 -3 30.81 3.14 0
 0 -10 1 62.05 3.17 0
 0 -10 2 277.32 5.64 0
 0 -10 3 29.6 2.01 0
 0 -10 4 17.94 1.6 0
 0 -10 5 -0.06 0.75 0
 0 -9 -16 32.54 5.56 0
 0 -9 -15 8.46 4.05 0
 0 -9 -13 33.82 4.97 0
 0 -9 -11 22.12 3.92 0
 0 -9 -10 35.34 4.66 0
 0 -9 -9 122.62 6.27 0
 0 -9 -7 26.33 3.45 0
 0 -9 -6 663.95 12.04 0
 0 -9 -4 71.72 3.93 0
 0 -9 -1 65.35 3.47 0
 0 -9 0 0.48 1.19 0
 0 -9 1 69.43 3.09 0
 0 -9 2 30.88 2.08 0
 0 -9 3 229.08 4.5 0
 0 -8 -16 16.8 4.78 0
 0 -8 -15 52.91 6.45 0
 0 -8 -14 31.25 4.79 0
 0 -8 -13 2.66 3.16 0
 0 -8 -11 60.18 5.25 0
 0 -8 -9 -0.37 2.52 0
 0 -8 -8 117.59 5.68 0
 0 -8 -7 29 3.75 0
 0 -8 -5 506.31 9.62 0
 0 -8 -2 796.16 10.35 0
 0 -8 -1 74.06 3.33 0
 0 -8 0 431.89 6.95 0
 0 -8 1 76.17 2.89 0
 0 -8 2 807.18 8.22 0
 0 -7 -17 -1.42 3.67 0
 0 -7 -16 54.18 6.67 0
 0 -7 -15 34.62 5.01 0
 0 -7 -12 3.31 2.72 0
 0 -7 -11 4.29 2.74 0
 0 -7 -10 342.27 9.66 0
 0 -7 -9 18.37 3.36 0
 0 -7 -8 290.91 8.16 0
 0 -7 -7 343.11 8.35 0
 0 -7 -6 285.49 7.3 0
 0 -7 -3 70.89 3.37 0
 0 -7 -2 2.05 1.25 0
 0 -7 -1 419.95 6.74 0
 0 -7 0 0.3 0.96 0
 0 -7 1 421.89 5.86 0
 0 -6 -17 4.19 3.77 0
 0 -6 -16 4.93 4.23 0
 0 -6 -15 16.95 3.96 0
 0 -6 -13 26.36 4.37 0
 0 -6 -12 143.35 6.91 0
 0 -6 -11 19.12 3.31 0
 0 -6 -9 1.91 1.95 0
 0 -6 -8 135.55 5.52 0
 0 -6 -7 400.05 8.56 0
 0 -6 -4 93.99 3.79 0
 0 -6 -3 241.35 5.37 0
 0 -6 -2 67.53 2.81 0
 0 -6 -1 1004.84 9.49 0
 0 -6 0 8.04 1.19 0
 0 -5 -16 19.06 4.47 0
 0 -5 -15 19.48 3.93 0
 0 -5 -14 302.12 10.23 0
 0 -5 -13 412.04 11.4 0
 0 -5 -12 116.46 6.07 0
 0 -5 -11 680.89 13.23 0
 0 -5 -10 44.89 4.09 0
 0 -5 -9 401.89 9.26 0
 0 -5 -5 1321.45 13.05 0
 0 -5 -4 82.18 3.35 0
 0 -5 -3 181.36 4.45 0
 0 -5 -2 531.7 6.83 0
 0 -5 -1 749.54 7.5 0
 0 -4 -16 3.9 3.27 0
 0 -4 -13 40.75 4.49 0
 0 -4 -12 354.34 9.77 0
 0 -4 -11 127.49 5.79 0
 0 -4 -10 148.22 5.85 0
 0 -4 -9 129.29 5.24 0
 0 -4 -6 32.41 2.46 0
 0 -4 -5 449.32 7.26 0
 0 -4 -4 742.37 8.73 0
 0 -4 -2 693.45 7.17 0
 0 -4 -1 279.51 4.24 0
 0 -3 -15 32.35 4.51 0
 0 -3 -14 16.84 3.3 0
 0 -3 -13 397.66 10.46 0
 0 -3 -12 0.95 2 0
 0 -3 -11 397.56 9.34 0
 0 -3 -10 46.44 3.54 0
 0 -3 -7 6.46 1.58 0
 0 -3 -6 58.77 2.82 0
 0 -3 -5 1690.4 13.08 0
 0 -3 -4 1255.28 10.47 0
 0 -3 -3 2753.13 14.01 0
 0 -3 -2 650.19 6.21 0
 0 -3 -1 1168.72 7.4 0
 0 -2 -14 192.88 7.66 0
 0 -2 -13 135.12 6.12 0
 0 -2 -11 169.36 6.07 0
 0 -2 -8 303.13 6.73 0
 0 -2 -7 226.66 5.45 0
 0 -2 -6 5.41 1.48 0
 0 -2 -4 1423.8 10.21 0
 0 -2 -3 991 7.66 0
 0 -2 -2 431.54 4.54 0
 0 -2 -1 506.83 4.2 0
 0 -1 -12 3.45 2.09 0
 0 -1 -11 7.46 2.13 0
 0 -1 -9 38.66 2.9 0
 0 -1 -8 16.16 1.9 0
 0 -1 -7 211.39 5.01 0
 0 -1 -6 288.6 5.54 0
 0 -1 -5 2228.06 13.17 0
 0 -1 -4 26.03 1.59 0
 0 -1 -2 609.7 4.67 0
 0 -1 -1 741.64 4.09 0
 0 -1 2 640.66 3.64 0
 0 -1 3 12.84 0.93 0
 0 0 -9 2.07 1.37 0
 0 0 -8 4633.55 23.08 0
 0 0 -7 0.29 1.07 0
 0 0 -6 292.92 5.15 0
 0 0 -5 0.3 1.2 0
 0 0 -4 2025.9 10.38 0
 0 0 -3 -0.36 0.65 0
 0 0 -2 65.45 1.46 0
 0 0 2 68.89 1.44 0
 0 1 -7 206.82 4.46 0
 0 1 -6 279.4 4.79 0
 0 1 -5 2165.51 11.35 0
 0 1 -4 25.67 1.31 0
 0 1 1 737.81 4.09 0
 0 1 2 604.26 4.64 0
 1 -16 -6 31.26 4.7 0
 1 -16 -5 3.41 2.8 0
 1 -15 -8 16.02 4.31 0
 1 -15 -7 35.79 4.97 0
 1 -15 -6 82.74 6.03 0
 1 -15 -5 36.91 4.79 0
 1 -15 -4 43.45 4.73 0
 1 -15 -3 12.95 3.42 0
 1 -15 -2 32.35 3.96 0
 1 -14 -10 52.23 6 0
 1 -14 -9 71.74 6.28 0
 1 -14 -8 78.8 6.34 0
 1 -14 -6 56.67 5.17 0
 1 -14 -4 23.32 4.26 0
 1 -14 -3 113.26 6 0
 1 -14 -2 4.34 2.5 0
 1 -14 -1 39.13 3.63 0
 1 -14 0 1.36 1.93 0
 1 -13 -12 62.76 7.42 0
 1 -13 -11 8.11 3.81 0
 1 -13 -10 26.03 4.77 0
 1 -13 -9 77.12 6.68 0
 1 -13 -7 20.79 4.26 0
 1 -13 -6 10.13 3.23 0
 1 -13 -5 156.59 7.28 0
 1 -13 -4 87.26 5.65 0
 1 -13 -3 28.01 3.92 0
 1 -13 -1 125.48 5.62 0
 1 -13 0 20.1 2.91 0
 1 -13 1 129.66 5.3 0
 1 -13 2 76.06 4.11 0
 1 -12 -13 117.1 8.54 0
 1 -12 -12 76.53 6.66 0
 1 -12 -11 22.62 4.95 0
 1 -12 -10 31.63 4.83 0
 1 -12 -9 48.59 5.86 0
 1 -12 -8 41.29 5.27 0
 1 -12 -7 64.43 5.15 0
 1 -12 -6 9.54 3.01 0
 1 -12 -5 4.42 2.84 0
 1 -12 -4 41.05 4.33 0
 1 -12 -2 50.81 3.94 0
 1 -12 -1 3.89 1.91 0
 1 -12 0 156.24 5.78 0
 1 -12 1 7.62 1.92 0
 1 -12 2 50.05 3.35 0
 1 -12 3 11.77 2.08 0
 1 -11 -14 88.04 7.57 0
 1 -11 -13 41.05 5.83 0
 1 -11 -12 6.5 4.15 0
 1 -11 -10 144.05 8.03 0
 1 -11 -9 9.5 3.24 0
 1 -11 -8 43.74 5.27 0
 1 -11 -7 44.76 4.5 0
 1 -11 -6 88.87 5.69 0
 1 -11 -4 118.78 5.86 0
 1 -11 -3 27.69 3.41 0
 1 -11 -2 78.25 4.69 0
 1 -11 -1 7.57 2.09 0
 1 -11 0 -1.04 1.71 0
 1 -11 1 4.97 1.74 0
 1 -10 -15 8.27 4.49 0
 1 -10 -14 48.68 5.92 0
 1 -10 -9 84.23 6.04 0
 1 -10 -8 8.31 2.85 0
 1 -10 -7 7.46 2.6 0
 1 -10 -6 124.21 6.13 0
 1 -10 -5 251.96 8.01 0
 1 -10 -4 123.54 5.52 0
 1 -10 -3 518.01 10.33 0
 1 -10 -2 273.05 7.35 0
 1 -10 -1 182.89 5.9 0
 1 -9 -16 6.3 3.98 0
 1 -9 -15 11.69 4.15 0
 1 -9 -14 44.46 6.03 0
 1 -9 -12 21.61 4.02 0
 1 -9 -11 7.86 3.24 0
 1 -9 -10 9.54 3.08 0
 1 -9 -8 85.06 5.52 0
 1 -9 -7 22.97 3.48 0
 1 -9 -6 13.11 2.81 0
 1 -9 -5 212.73 7.05 0
 1 -9 -4 289.31 7.87 0
 1 -9 -3 475.81 9.53 0
 1 -9 -2 52.41 3.34 0
 1 -8 -17 7.78 4.18 0
 1 -8 -14 14.7 4.13 0
 1 -8 -13 35.8 4.99 0
 1 -8 -12 66.44 6.02 0
 1 -8 -11 24.97 4.21 0
 1 -8 -10 151.13 7.16 0
 1 -8 -9 36.36 4.17 0
 1 -8 -8 50.51 4.28 0
 1 -8 -7 46.89 4.03 0
 1 -8 -6 25.6 2.82 0
 1 -8 -5 207.73 6.66 0
 1 -8 -4 10.4 2.08 0
 1 -7 -16 115.93 7.88 0
 1 -7 -15 96.78 7.16 0
 1 -7 -14 29.52 4.91 0
 1 -7 -13 46.39 5.19 0
 1 -7 -12 15.99 3.63 0
 1 -7 -11 14.51 3.15 0
 1 -7 -10 21.94 3.26 0
 1 -7 -9 63.38 4.37 0
 1 -7 -8 95.62 4.92 0
 1 -7 -7 85.53 4.73 0
 1 -7 -6 35.28 3.02 0
 1 -6 -18 1.97 3.55 0
 1 -6 -16 132.52 7.83 0
 1 -6 -14 112.63 6.79 0
 1 -6 -13 126.88 6.79 0
 1 -6 -12 28 3.98 0
 1 -6 -10 15.68 2.88 0
 1 -6 -9 160.85 6.24 0
 1 -6 -8 417.21 9.42 0
 1 -6 -7 91.72 4.42 0
 1 -6 -4 194.16 5.46 0
 1 -6 -3 19.85 2.04 0
 1 -5 -18 26.15 4.8 0
 1 -5 -17 51.22 5.47 0
 1 -5 -16 73.43 6.04 0
 1 -5 -15 176.65 8.21 0
 1 -5 -14 30.91 4.33 0
 1 -5 -13 23.26 3.96 0
 1 -5 -12 103.88 6.11 0
 1 -5 -11 420.71 10.32 0
 1 -5 -10 22.38 3.13 0
 1 -5 -9 258.12 7.44 0
 1 -5 -5 85.57 3.73 0
 1 -5 -4 183.4 4.87 0
 1 -4 -18 46.56 5.78 0
 1 -4 -17 226.62 9.74 0
 1 -4 -16 216.69 9.28 0
 1 -4 -15 28.89 4.34 0
 1 -4 -14 358.53 10.57 0
 1 -4 -13 156.12 6.97 0
 1 -4 -12 114.13 5.93 0
 1 -4 -11 11.44 2.77 0
 1 -4 -10 365.88 8.81 0
 1 -4 -9 524.59 9.96 0
 1 -4 -6 566.02 8.93 0
 1 -4 -5 114.21 3.95 0
 1 -3 -17 54.28 5.73 0
 1 -3 -16 6.95 3.62 0
 1 -3 -15 35.01 4.52 0
 1 -3 -14 21.9 3.68 0
 1 -3 -13 76.61 4.89 0
 1 -3 -12 179.82 6.94 0
 1 -3 -11 199.34 6.67 0
 1 -3 -7 733.55 10.06 0
 1 -3 -6 638.24 8.97 0
 1 -3 -5 410.15 6.7 0
 1 -3 -4 282.9 5.23 0
 1 -2 -16 16.9 3.46 0
 1 -2 -15 11.56 3.06 0
 1 -2 -13 63.8 4.77 0
 1 -2 -12 -0.88 1.88 0
 1 -2 -11 239.31 7.06 0
 1 -2 -8 92.22 3.78 0
 1 -2 -7 347.38 6.6 0
 1 -2 -6 926.08 9.99 0
 1 -2 -5 128.62 3.71 0
 1 -2 -4 1731.23 11.65 0
 1 -1 -14 13.74 2.86 0
 1 -1 -13 84.48 4.68 0
 1 -1 -12 25.36 3.21 0
 1 -1 -9 100.21 4.01 0
 1 -1 -8 76.59 3.44 0
 1 -1 -6 384.35 6.05 0
 1 -1 -5 2310.04 13.37 0
 1 -1 -4 617.38 6.36 0
 1 0 -14 9.67 2.54 0
 1 0 -9 311.99 6.45 0
 1 0 -8 227.85 5.09 0
 1 0 -7 446.68 6.54 0
 1 0 -6 38.63 1.99 0
 1 0 -5 1547.67 9.9 0
 1 0 -4 444.35 4.86 0
 1 1 -10 150.8 4.6 0
 1 1 -9 108.54 3.77 0
 1 1 -8 74.75 2.84 0
 1 1 -7 161.53 3.67 0
 1 1 -6 379.06 5.06 0
 1 1 -5 2303 10.75 0
 1 2 -9 102.69 3.39 0
 1 2 -8 99.16 2.97 0
 1 2 -7 335.82 4.8 0
 1 2 -4 1682.55 6.48 0
 1 3 0 61.26 1.53 0
 2 -16 -5 35.21 4.94 0
 2 -16 -4 22.93 3.97 0
 2 -15 -7 30.23 4.86 0
 2 -15 -6 177.75 8.67 0
 2 -15 -5 62.14 5.61 0
 2 -15 -4 44.75 4.85 0
 2 -15 -3 41.6 4.94 0
 2 -15 -2 66.77 5.37 0
 2 -15 -1 45.92 4.46 0
 2 -14 -9 24.66 4.81 0
 2 -14 -8 60.48 5.83 0
 2 -14 -7 25.91 4.51 0
 2 -14 -6 11.93 3.71 0
 2 -14 -5 57.3 5.58 0
 2 -14 -4 24.47 4.35 0
 2 -14 -3 114.97 6.71 0
 2 -14 -1 3.19 2.52 0
 2 -14 0 -1.59 1.98 0
 2 -14 1 -1.04 2.14 0
 2 -13 -11 65.72 6.33 0
 2 -13 -10 178.33 9.47 0
 2 -13 -9 24.46 4.58 0
 2 -13 -8 78.52 6.73 0
 2 -13 -7 92.18 6.66 0
 2 -13 -6 19.49 3.92 0
 2 -13 -5 50.33 5.63 0
 2 -13 -4 47.76 4.89 0
 2 -13 -3 63.17 4.88 0
 2 -13 -2 25.36 3.67 0
 2 -13 -1 3.09 2.64 0
 2 -13 0 47.61 4.32 0
 2 -13 1 4.15 2.46 0
 2 -13 3 65.6 4.01 0
 2 -12 -12 35.32 5.49 0
 2 -12 -11 6.28 3.6 0
 2 -12 -10 34.37 5.46 0
 2 -12 -9 52.52 5.32 0
 2 -12 -8 19.38 3.99 0
 2 -12 -7 42.53 5.05 0
 2 -12 -6 101.5 6.24 0
 2 -12 -4 48.63 4.42 0
 2 -12 -3 16.4 3.45 0
 2 -12 -2 171.67 6.86 0
 2 -12 -1 105.86 5.68 0
 2 -12 0 15.92 2.78 0
 2 -11 -13 6.39 3.75 0
 2 -11 -12 83.07 7.11 0
 2 -11 -11 27 5.21 0
 2 -11 -9 39.89 4.89 0
 2 -11 -8 237.35 9.11 0
 2 -11 -7 8.31 3.33 0
 2 -11 -4 18.3 3.21 0
 2 -11 -3 81.07 4.91 0
 2 -11 -1 89.61 5.07 0
 2 -10 -14 12.35 4.21 0
 2 -10 -13 12.72 4.18 0
 2 -10 -12 80.35 6.47 0
 2 -10 -11 195.77 8.98 0
 2 -10 -10 29.11 4.44 0
 2 -10 -8 5.34 2.86 0
 2 -10 -7 11.23 2.98 0
 2 -10 -6 259.85 8.67 0
 2 -10 -5 0.29 2.04 0
 2 -10 -4 30.72 3.38 0
 2 -10 -3 42.08 3.82 0
 2 -9 -15 48.06 6.51 0
 2 -9 -14 12.51 4.38 0
 2 -9 -13 11.62 3.86 0
 2 -9 -12 18.98 4.05 0
 2 -9 -11 33.62 4.58 0
 2 -9 -9 94.28 5.89 0
 2 -9 -7 40.39 4.41 0
 2 -9 -6 130.49 6.08 0
 2 -9 -5 535.18 11.43 0
 2 -9 -4 60.91 4.06 0
 2 -8 -16 129.08 8.48 0
 2 -8 -15 14.75 4.17 0
 2 -8 -14 11.21 3.77 0
 2 -8 -12 23.83 4.46 0
 2 -8 -11 106.53 6.51 0
 2 -8 -10 88.61 5.73 0
 2 -8 -9 111.66 6.25 0
 2 -8 -8 118.69 6.02 0
 2 -8 -7 260.49 8.29 0
 2 -8 -6 165.68 6.39 0
 2 -8 -5 118.88 5.51 0
 2 -8 -4 158.87 5.93 0
 2 -7 -17 66.12 6.91 0
 2 -7 -16 43.1 6.22 0
 2 -7 -14 1.2 2.85 0
 2 -7 -13 68.92 6.03 0
 2 -7 -12 43.02 5.02 0
 2 -7 -11 14.61 3.27 0
 2 -7 -6 38.5 3.55 0
 2 -7 -5 32.84 3.11 0
 2 -6 -18 116.82 8.24 0
 2 -6 -17 33.6 5.53 0
 2 -6 -16 83.52 6.46 0
 2 -6 -15 10.83 4.01 0
 2 -6 -12 2.28 2.65 0
 2 -6 -10 69.77 4.77 0
 2 -6 -9 108.07 5.51 0
 2 -6 -7 45.61 3.46 0
 2 -6 -6 471.51 9.5 0
 2 -5 -18 46.25 5.97 0
 2 -5 -17 1.3 3.28 0
 2 -5 -16 21.63 4.2 0
 2 -5 -15 103.19 7.04 0
 2 -5 -14 160.51 7.55 0
 2 -5 -13 29.1 4.52 0
 2 -5 -12 32.05 3.95 0
 2 -5 -11 190.4 7.16 0
 2 -5 -10 315.87 8.73 0
 2 -5 -8 290.91 7.76 0
 2 -4 -19 -1.38 2.96 0
 2 -4 -17 48.08 5.46 0
 2 -4 -16 55.07 5.63 0
 2 -4 -15 208.28 8.6 0
 2 -4 -14 155.8 7.36 0
 2 -4 -13 3.07 2.88 0
 2 -4 -12 345.51 9.5 0
 2 -4 -11 11.81 2.6 0
 2 -4 -10 95.79 4.83 0
 2 -4 -9 1.15 2.1 0
 2 -4 -8 226.34 6.57 0
 2 -3 -18 42.01 5.38 0
 2 -3 -17 12.64 3.6 0
 2 -3 -16 8.48 3.16 0
 2 -3 -14 40.3 4.05 0
 2 -3 -13 253.99 8.25 0
 2 -3 -12 354.07 9.26 0
 2 -3 -11 159.47 6.2 0
 2 -3 -10 81.77 4.28 0
 2 -3 -6 190.07 5.11 0
 2 -2 -18 278.4 9.9 0
 2 -2 -17 54.45 5.24 0
 2 -2 -16 19.96 3.69 0
 2 -2 -15 60.17 4.65 0
 2 -2 -14 39.03 4.21 0
 2 -2 -13 37.17 3.93 0
 2 -2 -12 46.59 4.09 0
 2 -2 -11 79.05 4.51 0
 2 -2 -10 315.93 7.49 0
 2 -2 -7 71.73 3.57 0
 2 -2 -6 36.36 2.33 0
 2 -1 -17 165.68 7.56 0
 2 -1 -16 3.34 2.39 0
 2 -1 -15 58.25 4.63 0
 2 -1 -14 136.25 6.11 0
 2 -1 -13 33.99 3.52 0
 2 -1 -8 179.32 5 0
 2 -1 -7 332.29 6.26 0
 2 -1 -6 463.74 6.92 0
 2 0 -14 76.14 4.56 0
 2 0 -12 222.54 6.47 0
 2 0 -9 519.4 8.05 0
 2 0 -8 2.2 1.3 0
 2 0 -7 412.33 6.38 0
 2 0 -6 783.95 8.18 0
 2 1 -14 135.58 5.31 0
 2 1 -13 34.78 2.92 0
 2 1 -9 118.05 3.74 0
 2 1 -8 182.68 4.22 0
 2 1 -7 324.04 5.19 0
 2 1 -6 478.66 5.86 0
 2 1 -5 525.14 5.59 0
 2 2 -11 82.93 3.37 0
 2 2 -10 329.06 5.96 0
 2 2 -9 146.47 3.77 0
 2 3 -9 94.06 2.73 0
 2 3 -8 11.64 1.11 0
 2 3 -7 625.8 5.32 0
 2 3 -6 191.25 2.56 0
 2 3 -4 1786.06 5.66 0
 2 4 -2 17.09 0.73 0
 3 -16 -3 62.37 5.92 0
 3 -16 -2 45.2 5.37 0
 3 -15 -6 16.67 4.15 0
 3 -15 -5 9.16 3.75 0
 3 -15 -4 13.43 3.85 0
 3 -15 -3 23.58 4.27 0
 3 -15 -2 -0.8 2.44 0
 3 -15 0 53.66 5.15 0
 3 -14 -8 5.82 3.89 0
 3 -14 -7 20.39 4.31 0
 3 -14 -6 42.18 5.48 0
 3 -14 -5 36.87 5.27 0
 3 -14 -4 10.92 3.47 0
 3 -14 -3 38.62 4.74 0
 3 -14 -2 124.99 6.97 0
 3 -14 -1 2.78 2.71 0
 3 -14 0 7.07 2.82 0
 3 -14 1 3.79 2.51 0
 3 -14 2 127.88 6.42 0
 3 -13 -10 15.82 4.47 0
 3 -13 -9 135.66 8.55 0
 3 -13 -8 69.25 6.4 0
 3 -13 -7 14.32 4.17 0
 3 -13 -6 27.47 4.79 0
 3 -13 -5 107.17 6.83 0
 3 -13 -3 5.9 3.12 0
 3 -13 -2 80.4 5.53 0
 3 -13 -1 110.07 6.48 0
 3 -12 -11 40.4 5.71 0
 3 -12 -10 3.6 3.45 0
 3 -12 -9 25.76 4.6 0
 3 -12 -8 2.46 3.43 0
 3 -12 -6 12.38 3.6 0
 3 -12 -5 130.7 7.13 0
 3 -12 -4 145.8 7.61 0
 3 -12 -3 46.65 4.84 0
 3 -12 -2 81.11 5.3 0
 3 -11 -13 55.97 6.2 0
 3 -11 -12 15.56 4.24 0
 3 -11 -11 26.84 4.78 0
 3 -11 -10 10.09 3.68 0
 3 -11 -9 377.29 12.02 0
 3 -11 -7 60.04 5.44 0
 3 -11 -6 67.82 5.5 0
 3 -11 -5 46.54 4.79 0
 3 -11 -4 13.25 3.18 0
 3 -11 -3 12.05 3.13 0
 3 -10 -14 11.53 4.33 0
 3 -10 -12 10.78 3.95 0
 3 -10 -11 35.11 5.48 0
 3 -10 -10 3.29 3.29 0
 3 -10 -9 45.87 5.52 0
 3 -10 -8 55.51 5.03 0
 3 -10 -7 11.17 3.13 0
 3 -10 -6 42.62 4.93 0
 3 -10 -5 77.41 5.69 0
 3 -10 -4 7.31 2.64 0
 3 -9 -15 33.6 5.91 0
 3 -9 -14 23.88 4.76 0
 3 -9 -13 142.01 8.07 0
 3 -9 -12 152.29 8.53 0
 3 -9 -11 20.21 4.22 0
 3 -9 -9 28.19 4.39 0
 3 -9 -8 23.07 3.84 0
 3 -9 -7 41.91 4.27 0
 3 -9 -6 108.07 6.06 0
 3 -9 -5 52.64 4.3 0
 3 -8 -15 80.79 6.64 0
 3 -8 -14 64.22 6.41 0
 3 -8 -13 66.51 6.03 0
 3 -8 -12 94.2 6.68 0
 3 -8 -9 34.06 4.25 0
 3 -8 -8 91.18 5.8 0
 3 -8 -7 7.26 2.4 0
 3 -8 -6 199.18 7.23 0
 3 -7 -16 14.49 4.48 0
 3 -7 -15 42.71 5.56 0
 3 -7 -14 4.3 3.44 0
 3 -7 -13 36.34 4.88 0
 3 -7 -12 30.64 4.44 0
 3 -7 -11 27.28 4.44 0
 3 -7 -10 94.43 5.75 0
 3 -7 -8 24.15 3.45 0
 3 -7 -7 17.43 2.98 0
 3 -6 -17 5.09 3.72 0
 3 -6 -16 95.75 7.02 0
 3 -6 -15 125.03 7.5 0
 3 -6 -14 113.97 7.23 0
 3 -6 -13 88.31 5.95 0
 3 -6 -11 37.73 4.63 0
 3 -6 -9 114.77 5.96 0
 3 -6 -8 52.59 4.15 0
 3 -6 -7 142.24 5.9 0
 3 -5 -18 17.43 4.49 0
 3 -5 -16 30.03 5.06 0
 3 -5 -15 50.04 5.16 0
 3 -5 -14 5.72 2.94 0
 3 -5 -13 80.28 5.81 0
 3 -5 -12 133.12 6.77 0
 3 -5 -11 34.11 4.04 0
 3 -5 -10 6.06 2.31 0
 3 -5 -9 164.86 6.65 0
 3 -5 -8 237.11 7.46 0
 3 -5 -7 9.9 2.48 0
 3 -4 -18 9.77 3.78 0
 3 -4 -16 19.52 3.84 0
 3 -4 -14 23.73 3.77 0
 3 -4 -13 78.81 5.17 0
 3 -4 -12 41.35 4 0
 3 -4 -11 93.41 5.42 0
 3 -4 -9 38.64 3.73 0
 3 -4 -8 236.18 7.03 0
 3 -4 -7 591.5 10.53 0
 3 -3 -19 10.42 3.64 0
 3 -3 -18 75.41 6.22 0
 3 -3 -17 49.14 5.31 0
 3 -3 -16 35.68 4.74 0
 3 -3 -15 237.31 8.86 0
 3 -3 -14 16.1 3.6 0
 3 -3 -13 36.24 4.31 0
 3 -3 -12 14.15 2.86 0
 3 -3 -11 270.8 8.04 0
 3 -3 -10 52 3.74 0
 3 -3 -9 51.57 3.62 0
 3 -3 -8 122.28 4.93 0
 3 -2 -18 33.32 4.39 0
 3 -2 -17 0.62 2.31 0
 3 -2 -16 56.5 4.69 0
 3 -2 -15 57.35 4.59 0
 3 -2 -14 12.49 2.88 0
 3 -2 -13 99.58 5.47 0
 3 -2 -12 75.05 4.43 0
 3 -2 -11 176.79 6.26 0
 3 -2 -10 59.98 3.92 0
 3 -2 -9 113.12 4.69 0
 3 -1 -17 20.48 3.51 0
 3 -1 -16 41.39 4.21 0
 3 -1 -14 69.35 4.67 0
 3 -1 -13 16.8 2.92 0
 3 -1 -12 88.73 4.66 0
 3 -1 -11 154.29 5.52 0
 3 -1 -10 89.59 4.31 0
 3 -1 -7 1381.92 13.19 0
 3 0 -15 2.29 1.63 0
 3 0 -14 109.8 5.14 0
 3 0 -13 34.85 3.17 0
 3 0 -12 151.71 5.48 0
 3 0 -11 98.08 4.32 0
 3 0 -8 221.52 5.39 0
 3 0 -7 111.57 3.71 0
 3 1 -13 16.77 2.48 0
 3 1 -10 97.97 3.73 0
 3 1 -9 11.37 1.76 0
 3 1 -8 247.75 5.23 0
 3 1 -7 1400.07 11.46 0
 3 2 -11 188.67 4.84 0
 3 3 -10 51.91 2.15 0
 3 3 -9 47.04 1.98 0
 3 3 -8 125.18 2.82 0
 3 3 -7 738.65 6.22 0
 3 3 -6 459.07 4.72 0
 3 5 -3 66.02 1.34 0
 4 -15 -3 86.23 6.89 0
 4 -15 -2 13.5 3.85 0
 4 -15 -1 96.83 6.8 0
 4 -15 0 0.22 2.73 0
 4 -15 1 103.2 6.71 0
 4 -14 -4 154.86 8.52 0
 4 -14 -3 4.34 3.25 0
 4 -14 -1 17.26 4.11 0
 4 -14 0 31 4.84 0
 4 -13 -8 0.52 3.4 0
 4 -13 -7 1.21 3.77 0
 4 -13 -6 48.46 5.55 0
 4 -13 -5 64.11 6.44 0
 4 -13 -4 25.11 4.41 0
 4 -13 -2 39.98 4.59 0
 4 -12 -10 50.54 6.44 0
 4 -12 -9 22.88 5.15 0
 4 -12 -8 143.86 8.64 0
 4 -12 -6 169.02 8.49 0
 4 -12 -5 5.38 3.36 0
 4 -12 -4 12.54 3.8 0
 4 -11 -11 10.96 4.86 0
 4 -11 -10 36.64 5.71 0
 4 -11 -9 5.19 3.87 0
 4 -11 -8 176.17 9.15 0
 4 -11 -7 48.38 5.9 0
 4 -11 -5 6.19 3.24 0
 4 -10 -13 3.54 4.26 0
 4 -10 -12 167.69 9.09 0
 4 -10 -11 5.29 3.68 0
 4 -10 -10 37.48 5.36 0
 4 -10 -9 15.68 4.32 0
 4 -10 -8 102.55 6.9 0
 4 -10 -7 60.39 5.39 0
 4 -10 -6 163.93 7.9 0
 4 -9 -14 33.47 5.47 0
 4 -9 -13 4.63 3.82 0
 4 -9 -12 190.24 9.18 0
 4 -9 -11 37.56 5.55 0
 4 -9 -10 124.96 7.37 0
 4 -9 -9 9.63 3.33 0
 4 -9 -7 70.43 5.49 0
 4 -9 -6 11.12 3.08 0
 4 -8 -15 13.62 4.55 0
 4 -8 -14 8.24 3.72 0
 4 -8 -13 14.33 4.54 0
 4 -8 -12 191.33 8.89 0
 4 -8 -11 32.6 5.06 0
 4 -8 -10 80.78 5.99 0
 4 -8 -9 20.55 3.86 0
 4 -8 -8 8.08 3.34 0
 4 -8 -7 130.58 6.75 0
 4 -7 -15 66.57 6.65 0
 4 -7 -14 22.94 4.45 0
 4 -7 -13 49.04 5.26 0
 4 -7 -12 76.62 6.34 0
 4 -7 -11 167.49 8.27 0
 4 -7 -10 61.12 5.4 0
 4 -7 -9 92.64 5.84 0
 4 -6 -16 73.07 6.69 0
 4 -6 -14 4.15 3.18 0
 4 -6 -13 6.15 3.16 0
 4 -6 -11 129.15 6.81 0
 4 -6 -9 241.87 8.5 0
 4 -5 -17 30.91 4.88 0
 4 -5 -16 17.38 3.98 0
 4 -5 -15 1.58 2.93 0
 4 -5 -14 26.66 4.13 0
 4 -5 -13 27.51 4.22 0
 4 -5 -12 33.96 4.25 0
 4 -5 -11 118.23 6.31 0
 4 -5 -10 8.09 3.08 0
 4 -5 -9 120.15 5.96 0
 4 -5 -8 53.94 4.55 0
 4 -4 -17 26.6 4.51 0
 4 -4 -16 7.47 3.37 0
 4 -4 -15 17.66 3.74 0
 4 -4 -14 28.88 4.14 0
 4 -4 -13 60.13 5.11 0
 4 -4 -12 40.37 4.75 0
 4 -4 -11 17.86 3.2 0
 4 -4 -10 10.98 2.84 0
 4 -4 -9 45.64 4.28 0
 4 -3 -17 15.28 3.63 0
 4 -3 -16 15.72 3.51 0
 4 -3 -15 78.8 5.78 0
 4 -3 -14 62.81 5.18 0
 4 -3 -13 40.91 3.99 0
 4 -3 -12 34.26 4.15 0
 4 -3 -11 117.15 5.87 0
 4 -3 -10 104.04 5.44 0
 4 -3 -9 75.74 4.64 0
 4 -3 -8 1.97 1.84 0
 4 -2 -17 63.54 5.13 0
 4 -2 -16 13.13 3.25 0
 4 -2 -14 222.84 7.95 0
 4 -2 -13 114.31 5.85 0
 4 -2 -12 187.09 6.84 0
 4 -2 -11 37.06 3.49 0
 4 -2 -10 275.01 7.74 0
 4 -2 -9 61.39 3.89 0
 4 -2 -8 74.14 4.19 0
 4 -1 -15 7.45 2.44 0
 4 -1 -14 64.59 4.31 0
 4 -1 -13 61.77 4.17 0
 4 -1 -12 95.19 4.75 0
 4 -1 -11 5.52 1.95 0
 4 -1 -10 42.15 3.48 0
 4 -1 -9 165 5.65 0
 4 0 -13 0.23 1.73 0
 4 0 -12 1.77 1.75 0
 4 0 -11 30.34 2.82 0
 4 0 -10 172.64 5.43 0
 4 1 -11 5.43 1.52 0
 4 2 -7 183.65 4.22 0
 4 3 -8 1.19 0.64 0
 4 3 -7 13.99 1.29 0
 4 4 -6 51.08 1.63 0
 5 -14 -2 -1.58 2.89 0
 5 -13 -6 41.65 6.12 0
 5 -13 -4 13.5 4.15 0
 5 -13 -3 45.96 5.64 0
 5 -12 -8 127 8.29 0
 5 -12 -7 28.33 5.16 0
 5 -12 -6 16.46 4.58 0
 5 -12 -5 3.78 3.56 0
 5 -12 -4 135.92 8.04 0
 5 -11 -9 142.3 8.51 0
 5 -11 -8 10.93 3.94 0
 5 -11 -7 2.16 3.33 0
 5 -11 -6 12.59 3.89 0
 5 -10 -11 88.73 7.65 0
 5 -10 -10 126.51 7.94 0
 5 -10 -9 11.51 3.87 0
 5 -10 -8 -0.03 3.68 0
 5 -10 -7 -1.97 2.87 0
 5 -9 -12 -2.3 3.36 0
 5 -9 -11 65.47 5.97 0
 5 -9 -10 3.53 3.87 0
 5 -9 -9 243.85 10.03 0
 5 -9 -8 5.31 3.82 0
 5 -9 -7 30.23 4.49 0
 5 -8 -13 39 5.43 0
 5 -8 -11 21.58 4.44 0
 5 -8 -10 88.37 6.61 0
 5 -8 -9 52.36 6 0
 5 -7 -14 144.21 8.32 0
 5 -7 -13 132.06 8.05 0
 5 -7 -11 127.24 7.58 0
 5 -7 -10 81.88 6 0
 5 -7 -9 208.98 8.65 0
 5 -6 -14 56.64 5.63 0
 5 -6 -13 16.57 3.81 0
 5 -6 -12 21.38 4.04 0
 5 -6 -11 8.76 3.21 0
 5 -6 -10 18.86 3.78 0
 5 -5 -16 -0.74 3.21 0
 5 -5 -15 59.44 5.94 0
 5 -5 -14 22.9 4 0
 5 -5 -13 4.68 2.95 0
 5 -5 -12 27.94 4.33 0
 5 -5 -11 22.64 4.17 0
 5 -5 -10 67.45 5.43 0
 5 -5 -9 188.01 7.62 0
 5 -4 -16 10.52 3.68 0
 5 -4 -15 93.85 6.45 0
 5 -4 -14 45.99 4.67 0
 5 -4 -13 25.38 4.28 0
 5 -4 -12 5.39 2.72 0
 5 -4 -11 43.99 4.75 0
 5 -4 -9 25.77 3.66 0
 5 -3 -16 61.49 5.4 0
 5 -3 -15 31.28 4.29 0
 5 -3 -14 24.48 3.77 0
 5 -3 -13 71.63 5.41 0
 5 -3 -12 59.26 4.81 0
 5 -3 -11 88.93 5.23 0
 5 -3 -10 527.55 11.55 0
 5 -3 -9 222.69 7.42 0
 5 -2 -15 20.89 3.32 0
 5 -2 -14 34.95 3.76 0
 5 -2 -13 -0.56 2.03 0
 5 -2 -11 6.67 2.41 0
 5 -2 -10 1.65 2.02 0
 5 -2 -9 152.44 6.09 0
 5 -1 -14 0.78 1.86 0
 5 -1 -13 42.18 3.84 0
 5 -1 -12 189.69 6.65 0
 5 -1 -11 116.53 5.39 0
 5 -1 -10 57.28 3.79 0
 5 -1 -9 6.71 2.04 0
 5 0 -12 12.36 2.12 0
 5 0 -11 61.88 3.81 0
 5 0 -10 15.81 2.36 0
 5 1 -10 58.54 3.27 0
 5 1 -9 4.37 1.6 0
 6 -11 -7 84.57 7.48 0
 6 -11 -6 4.85 3.53 0
 6 -10 -9 3.49 4.05 0
 6 -10 -8 52.55 5.77 0
 6 -10 -7 10.64 3.86 0
 6 -9 -10 98.39 7.32 0
 6 -9 -9 6.76 4.11 0
 6 -9 -8 44.31 5.56 0
 6 -8 -11 9.37 3.79 0
 6 -8 -10 6.04 4 0
 6 -8 -9 39.7 5.29 0
 6 -8 -8 0.86 2.88 0
 6 -7 -12 12.11 3.87 0
 6 -7 -11 122.01 7.53 0
 6 -7 -10 9.64 3.69 0
 6 -7 -9 5.44 3.47 0
 6 -6 -13 53.25 6.36 0
 6 -6 -12 86 6.79 0
 6 -6 -11 26.39 4.67 0
 6 -6 -10 113.08 7.1 0
 6 -6 -9 133.69 7.25 0
 6 -5 -14 19.3 4.38 0
 6 -5 -13 28.86 4.5 0
 6 -5 -12 137.6 7.46 0
 6 -5 -10 28.27 4.69 0
 6 -5 -9 121.96 6.94 0
 6 -4 -15 3.57 3.11 0
 6 -4 -14 21.52 3.92 0
 6 -4 -13 -1.3 2.56 0
 6 -4 -12 4.39 2.77 0
 6 -4 -11 33.86 4.56 0
 6 -4 -10 22.1 3.6 0
 6 -4 -9 30.39 4.44 0
 6 -3 -14 22.7 3.89 0
 6 -3 -12 71.71 5.42 0
 6 -3 -11 37.68 4.4 0
 6 -3 -10 49.14 4.49 0
 6 -3 -9 60.28 4.84 0
 6 -2 -12 6.77 2.51 0
 6 -2 -11 67.14 4.93 0
 6 -2 -10 12.9 3.15 0
 6 -2 -9 41.06 4.07 0
 6 -1 -12 10.83 2.5 0
 6 -1 -10 67.49 4.53 0
 6 -1 -9 -0.02 1.71 0
 6 0 -10 64.81 4.02 0
 6 0 -9 123.77 5.21 0
 6 1 -9 -1.14 1.14 0
 7 -8 -9 7.92 4.15 0
 7 -8 -8 -0.07 3.21 0
 7 -7 -10 7.9 4.12 0
 7 -7 -9 27.5 4.79 0
 7 -6 -11 27.45 4.82 0
 7 -6 -10 114.45 7.54 0
 7 -6 -9 11.79 3.79 0
 7 -5 -12 39.06 5.45 0
 7 -5 -11 15.73 3.91 0
 7 -4 -12 179.64 8.53 0
 7 -4 -11 51.94 5.06 0
 7 -4 -10 49.43 5.34 0
 7 -4 -9 24.97 4.05 0
 7 -3 -12 8.85 2.99 0
 7 -3 -11 41.52 5.14 0
 7 -3 -10 114.39 6.63 0
 7 -2 -10 18.62 3.35 0
 7 -1 -10 36.99 3.72 0
 7 -1 -9 13.98 3.04 0
 8 -5 -9 63.81 6.33 0
 8 -4 -10 111.94 7.21 0
 8 -4 -9 6.14 3.15 0
 8 -3 -10 65.02 5.62 0
 8 -2 -9 29.62 4.17 0
 -7 9 0 1.69 1.89 0
 -7 9 1 71.53 4.86 0
 -7 10 -3 68.42 5.71 0
 -7 10 -2 36.55 4.74 0
 -7 10 -1 54.39 4.89 0
 -7 10 0 108.71 6.08 0
 -7 11 -3 2.76 2.8 0
 -7 11 -1 169.54 7.73 0
 -6 8 2 26.47 3.07 0
 -6 8 3 16.1 2.41 0
 -6 9 0 2.82 2.07 0
 -6 9 1 -0.03 1.67 0
 -6 9 2 9.62 2.22 0
 -6 10 -9 3.16 3.09 0
 -6 10 -5 10.27 3.19 0
 -6 10 -4 50.37 5.09 0
 -6 10 -3 1.63 2.59 0
 -6 10 -2 157.34 7.3 0
 -6 10 0 5.66 2.48 0
 -6 10 1 7.28 2.37 0
 -6 10 2 149.78 6.11 0
 -6 11 -6 7.57 3.66 0
 -6 11 -5 11.43 3.45 0
 -6 11 -4 108.71 7.03 0
 -6 11 -3 61.12 5.58 0
 -6 11 -2 11.19 3.14 0
 -6 11 -1 36.79 4.36 0
 -6 11 0 150.43 6.7 0
 -6 11 1 33.2 3.98 0
 -6 12 -5 36.47 5.45 0
 -6 12 -4 1.86 2.77 0
 -6 12 -3 22.98 4.13 0
 -6 12 -2 52.25 4.79 0
 -6 12 -1 7.38 2.79 0
 -6 13 -2 46.2 5.36 0
 -6 13 -1 11.89 3.38 0
 -5 6 5 48.54 2.43 0
 -5 7 3 4.99 1.47 0
 -5 7 5 40.19 2.33 0
 -5 8 1 29.73 2.99 0
 -5 8 2 282.12 7.32 0
 -5 8 3 71.54 3.83 0
 -5 8 4 27 2.43 0
 -5 9 -1 66.69 4.45 0
 -5 9 0 1.23 1.86 0
 -5 9 1 77.87 4.52 0
 -5 9 2 91.09 4.58 0
 -5 9 3 317.3 7.55 0
 -5 9 4 29.69 2.65 0
 -5 10 -11 89.83 7.08 0
 -5 10 -10 123.9 7.43 0
 -5 10 -9 6.28 3.47 0
 -5 10 -8 5.37 2.97 0
 -5 10 -7 3.8 2.77 0
 -5 10 -6 14.81 3.35 0
 -5 10 -5 34.48 4.73 0
 -5 10 -3 143.64 7.16 0
 -5 10 -1 36.59 4.33 0
 -5 10 0 2.96 2.46 0
 -5 10 2 31.07 3.36 0
 -5 10 3 143.43 5.51 0
 -5 11 -10 47.81 5.97 0
 -5 11 -9 135.18 7.91 0
 -5 11 -7 4.03 3.39 0
 -5 11 -6 11.59 3.41 0
 -5 11 -5 331 11.11 0
 -5 11 -3 20.38 3.7 0
 -5 11 -2 6.88 2.84 0
 -5 11 0 17.21 3.11 0
 -5 11 1 20.17 3.28 0
 -5 11 2 3.62 1.96 0
 -5 11 3 22.6 2.81 0
 -5 12 -8 140.1 8.08 0
 -5 12 -7 36.35 5.12 0
 -5 12 -6 14.07 3.84 0
 -5 12 -5 5.14 3.01 0
 -5 12 -4 138.42 7.33 0
 -5 12 0 211.45 8.2 0
 -5 12 1 61.18 4.75 0
 -5 12 2 10.68 2.64 0
 -5 13 -6 51.21 6.08 0
 -5 13 -5 25.3 4.52 0
 -5 13 -4 12.74 3.84 0
 -5 13 -3 43.51 5.13 0
 -5 13 -2 1 2.4 0
 -5 13 -1 10.4 3.02 0
 -5 13 0 1.05 2.37 0
 -5 13 1 11.98 2.77 0
 -5 14 -3 101.85 6.86 0
 -5 14 -2 -0.65 2.52 0
 -5 14 -1 103.29 6.64 0
 -5 14 0 78.2 5.51 0
 -4 4 6 53.02 1.54 0
 -4 5 5 4.09 0.86 0
 -4 5 6 1.77 0.61 0
 -4 6 4 21.12 1.82 0
 -4 6 5 32.44 1.86 0
 -4 6 6 202.79 3.63 0
 -4 7 4 145.27 4.22 0
 -4 7 5 275.88 5.29 0
 -4 7 6 49.88 2.16 0
 -4 8 -15 16.76 4.19 0
 -4 8 -14 9.39 3.36 0
 -4 8 0 194.02 6.17 0
 -4 8 1 23 2.79 0
 -4 8 5 71.66 3.11 0
 -4 9 -14 28.57 5.19 0
 -4 9 -13 5.41 3.08 0
 -4 9 -11 49.16 5.01 0
 -4 9 -10 129.83 7.03 0
 -4 9 -4 121.77 5.84 0
 -4 9 -3 10.35 2.39 0
 -4 9 -2 9.25 2.67 0
 -4 9 -1 7.31 2.34 0
 -4 9 0 3.75 1.99 0
 -4 9 1 7.75 2.28 0
 -4 9 2 7.76 1.85 0
 -4 9 3 11.48 2.19 0
 -4 9 4 119.35 4.46 0
 -4 10 -13 2.51 3.11 0
 -4 10 -12 159.46 8.48 0
 -4 10 -11 1.56 2.75 0
 -4 10 -10 32.07 4.85 0
 -4 10 -9 19.22 3.81 0
 -4 10 -8 115.28 7.09 0
 -4 10 -7 55.67 5.37 0
 -4 10 -5 44.22 4.88 0
 -4 10 -4 102.63 5.8 0
 -4 10 0 0.13 1.62 0
 -4 10 1 9.86 2.36 0
 -4 10 2 170.58 6.07 0
 -4 10 3 51.75 3.68 0
 -4 10 4 80.87 4.08 0
 -4 10 5 44.3 3.01 0
 -4 11 -11 8.87 3.46 0
 -4 11 -10 26.31 4.71 0
 -4 11 -9 2 2.87 0
 -4 11 -7 44.33 4.73 0
 -4 11 -6 76.82 6 0
 -4 11 -5 4.07 2.57 0
 -4 11 -4 148.6 7.1 0
 -4 11 -3 20.57 3.36 0
 -4 11 -2 17.64 3.38 0
 -4 11 -1 119.7 6.24 0
 -4 11 0 4.46 2.15 0
 -4 11 1 120.92 5.84 0
 -4 11 2 16.8 2.63 0
 -4 11 3 15.59 2.54 0
 -4 11 4 139.03 5.33 0
 -4 12 -10 62.96 6.26 0
 -4 12 -9 18.92 4.24 0
 -4 12 -8 135.27 7.92 0
 -4 12 -6 156.78 7.94 0
 -4 12 -5 4.08 2.96 0
 -4 12 -4 10.26 3.27 0
 -4 12 -3 21.15 4.01 0
 -4 12 -2 114.96 6.31 0
 -4 12 -1 5.78 2.44 0
 -4 12 0 27.2 3.84 0
 -4 12 1 5.69 2.37 0
 -4 12 2 116.11 5.83 0
 -4 12 3 20.29 3.14 0
 -4 12 4 13.76 2.47 0
 -4 13 -8 2.84 3.41 0
 -4 13 -7 0.49 2.88 0
 -4 13 -6 45.83 5.28 0
 -4 13 -5 65.27 5.73 0
 -4 13 -4 25.25 4.3 0
 -4 13 -3 13.78 3.34 0
 -4 13 0 7.5 2.69 0
 -4 13 1 94.93 5.88 0
 -4 13 2 44.63 4.11 0
 -4 13 3 14.7 2.95 0
 -4 14 -6 112.06 7.68 0
 -4 14 -5 61.39 5.72 0
 -4 14 -4 138.58 7.71 0
 -4 14 -3 3.28 2.94 0
 -4 14 -2 79.37 5.89 0
 -4 14 -1 14.11 3.43 0
 -4 14 0 29.72 4.13 0
 -4 14 1 17.85 3.39 0
 -4 14 2 66.65 4.96 0
 -4 15 -2 14.65 3.67 0
 -4 15 0 0.27 2.59 0
 -4 15 1 103.57 6.37 0
 -3 1 6 615.56 3.47 0
 -3 4 6 32.88 0.91 0
 -3 5 -18 19.68 3.46 0
 -3 5 -17 11.24 2.8 0
 -3 5 4 193.56 3.85 0
 -3 5 5 373.29 4.65 0
 -3 5 6 14.16 0.93 0
 -3 6 -17 5.02 2.87 0
 -3 6 -16 98.66 6.07 0
 -3 6 2 790.7 9.38 0
 -3 6 4 335.99 5.48 0
 -3 6 5 292.77 4.73 0
 -3 6 6 437.97 5.12 0
 -3 7 -15 50.22 5.23 0
 -3 7 -14 8.12 3.14 0
 -3 7 2 202.04 5.21 0
 -3 7 3 103.66 3.71 0
 -3 7 4 14.02 1.61 0
 -3 7 5 39.3 2.18 0
 -3 7 6 53.02 2.23 0
 -3 7 7 18.43 1.29 0
 -3 8 -16 0.1 2.57 0
 -3 8 -15 74.8 5.79 0
 -3 8 -14 71.37 5.94 0
 -3 8 -13 68.82 5.73 0
 -3 8 -12 91.82 6.18 0
 -3 8 -11 67.82 5.3 0
 -3 8 -3 33.41 3.05 0
 -3 8 0 21.42 2.76 0
 -3 8 4 285.01 6.09 0
 -3 8 5 90.43 3.39 0
 -3 8 6 201.35 4.57 0
 -3 8 7 8.18 1.18 0
 -3 9 -15 36.15 4.97 0
 -3 9 -14 22.83 4.09 0
 -3 9 -13 131.6 7.59 0
 -3 9 -12 142.5 7.88 0
 -3 9 -11 16.28 3.86 0
 -3 9 -10 21.59 3.71 0
 -3 9 -8 18.56 3.35 0
 -3 9 -7 42.85 3.98 0
 -3 9 -6 123.86 6.04 0
 -3 9 -5 46.44 4 0
 -3 9 -4 351.33 9.49 0
 -3 9 -3 45.66 4.05 0
 -3 9 -2 37.25 3.3 0
 -3 9 -1 28.39 3.08 0
 -3 9 0 132.21 5.3 0
 -3 9 1 22.7 2.63 0
 -3 9 2 32.25 2.92 0
 -3 9 3 38.08 3.03 0
 -3 9 6 107.87 3.83 0
 -3 10 -13 14.38 3.98 0
 -3 10 -11 36.18 5.19 0
 -3 10 -10 3.35 2.8 0
 -3 10 -9 55.33 5.21 0
 -3 10 -7 17.24 3.27 0
 -3 10 -6 48.01 4.73 0
 -3 10 -5 85.34 5.38 0
 -3 10 -4 8.55 2.48 0
 -3 10 -3 7.62 2.59 0
 -3 10 -2 125.84 5.76 0
 -3 10 -1 171.94 6.38 0
 -3 10 0 -1.38 1.65 0
 -3 10 1 160.17 6.05 0
 -3 10 3 8.3 2.13 0
 -3 10 4 7.8 1.82 0
 -3 10 5 72.39 3.64 0
 -3 11 -13 58.59 5.86 0
 -3 11 -11 26.88 4.88 0
 -3 11 -10 14.96 3.52 0
 -3 11 -9 363.57 11.7 0
 -3 11 -8 67.6 5.87 0
 -3 11 -6 70.45 5.22 0
 -3 11 -5 50.54 4.62 0
 -3 11 -4 15.49 3.12 0
 -3 11 -3 14.08 2.94 0
 -3 11 -2 62.49 4.82 0
 -3 11 -1 515.46 11.51 0
 -3 11 0 11.09 2.53 0
 -3 11 1 528.67 11.06 0
 -3 11 2 65.06 4.36 0
 -3 11 3 14.22 2.66 0
 -3 11 4 13.97 2.52 0
 -3 11 5 50.86 3.37 0
 -3 12 -11 36.18 5.15 0
 -3 12 -10 7.95 3.26 0
 -3 12 -9 22.81 4.45 0
 -3 12 -8 0.2 2.57 0
 -3 12 -7 94.54 6.33 0
 -3 12 -6 7.42 3.05 0
 -3 12 -3 46.9 4.77 0
 -3 12 -2 89.12 5.52 0
 -3 12 -1 12.62 2.85 0
 -3 12 0 8.69 2.8 0
 -3 12 1 13.85 2.85 0
 -3 12 2 86.1 5.21 0
 -3 12 3 45.93 4.03 0
 -3 12 4 152.72 6.02 0
 -3 12 5 117.5 5.24 0
 -3 13 -10 21.39 4.34 0
 -3 13 -9 127.93 7.96 0
 -3 13 -7 11.93 3.44 0
 -3 13 -6 24.57 4.58 0
 -3 13 -5 112.45 6.88 0
 -3 13 -4 32.66 4.38 0
 -3 13 -3 4.62 3.12 0
 -3 13 -2 82.05 5.67 0
 -3 13 -1 99.9 6.03 0
 -3 13 1 111.85 6.19 0
 -3 13 2 85.42 5.45 0
 -3 13 3 4.66 2.28 0
 -3 13 4 34.96 3.82 0
 -3 14 -7 31.54 4.88 0
 -3 14 -6 53.94 6.14 0
 -3 14 -5 34.42 4.86 0
 -3 14 -4 10.25 3.43 0
 -3 14 -3 37.52 5.03 0
 -3 14 -2 122.73 7.14 0
 -3 14 -1 7.28 2.82 0
 -3 14 0 2.24 2.68 0
 -3 14 1 3.1 2.43 0
 -3 14 2 122.84 6.59 0
 -3 14 3 40.58 4.25 0
 -3 14 4 10.37 2.66 0
 -3 15 -5 9.47 3.5 0
 -3 15 -4 17.06 4.05 0
 -3 15 -3 21.35 4.67 0
 -3 15 -2 4.39 3.02 0
 -3 15 -1 32.54 4.72 0
 -3 15 0 45.39 5.08 0
 -3 15 1 29.33 4.13 0
 -3 15 2 2.37 2.36 0
 -3 15 3 24.43 3.8 0
 -3 16 0 160.28 8.26 0
 -3 16 1 19.76 4.02 0
 -3 16 2 38.31 4.88 0
 -2 0 4 1859.54 7.39 0
 -2 0 5 59.67 1.28 0
 -2 1 4 373.53 2.77 0
 -2 4 -17 51.74 4.3 0
 -2 4 3 711.86 6.3 0
 -2 4 4 1016.78 6.76 0
 -2 4 5 396.68 3.78 0
 -2 5 -16 24.08 3.66 0
 -2 5 -15 107.68 5.73 0
 -2 5 1 446.56 6.24 0
 -2 5 2 313.19 5.18 0
 -2 5 3 293.84 4.62 0
 -2 5 4 125.03 2.91 0
 -2 5 5 329.83 4.29 0
 -2 5 6 20.92 1.13 0
 -2 6 -17 35.41 4.42 0
 -2 6 -15 12.3 2.9 0
 -2 6 -14 77.45 5.18 0
 -2 6 0 376.43 6.71 0
 -2 6 1 53.87 2.61 0
 -2 6 2 299.11 5.49 0
 -2 6 3 664.41 7.83 0
 -2 6 4 25.43 1.67 0
 -2 6 5 282.77 4.69 0
 -2 6 6 468.95 5.62 0
 -2 7 -18 8.58 3.15 0
 -2 7 -17 61.48 4.91 0
 -2 7 -14 0.51 2.74 0
 -2 7 -13 69.01 5.12 0
 -2 7 -12 46.02 4.44 0
 -2 7 -11 12.77 2.72 0
 -2 7 -10 7.85 2.32 0
 -2 7 1 356.28 6.82 0
 -2 7 2 172.74 4.67 0
 -2 7 3 50.38 2.63 0
 -2 7 5 33.1 2.06 0
 -2 8 -17 14.07 3.24 0
 -2 8 -16 126.28 6.81 0
 -2 8 -15 20.2 3.66 0
 -2 8 -14 8.62 2.91 0
 -2 8 -13 29.02 3.94 0
 -2 8 -12 25.92 3.95 0
 -2 8 -11 95.45 5.87 0
 -2 8 -8 126.45 6.01 0
 -2 8 -6 176.54 6.46 0
 -2 8 -5 119.91 5.49 0
 -2 8 -2 427.75 8.86 0
 -2 8 -1 461.94 8.88 0
 -2 8 4 158.4 4.68 0
 -2 8 5 123.17 4.02 0
 -2 8 6 159.5 4.34 0
 -2 9 -16 43.56 5.18 0
 -2 9 -14 7.72 2.92 0
 -2 9 -13 12.32 3.42 0
 -2 9 -12 18.68 3.82 0
 -2 9 -11 21.03 3.67 0
 -2 9 -10 2.9 2.4 0
 -2 9 -8 57.33 4.38 0
 -2 9 -7 44.04 3.76 0
 -2 9 -6 127.11 6.01 0
 -2 9 -5 539.36 11.29 0
 -2 9 -4 56.72 3.93 0
 -2 9 -2 100.62 4.9 0
 -2 9 -1 45.37 3.28 0
 -2 9 0 193.66 6.17 0
 -2 9 1 49.39 3.3 0
 -2 9 2 94.45 4.18 0
 -2 10 -15 16.91 3.65 0
 -2 10 -14 16.73 3.81 0
 -2 10 -13 10.59 3.27 0
 -2 10 -12 85.71 5.93 0
 -2 10 -11 190.11 8.27 0
 -2 10 -10 34.37 4.47 0
 -2 10 -8 2.91 2.1 0
 -2 10 -7 11.89 3.04 0
 -2 10 -6 256.95 8.43 0
 -2 10 -5 -0.8 2.41 0
 -2 10 -4 32.82 3.8 0
 -2 10 -3 35.15 3.37 0
 -2 10 -2 254.8 7.73 0
 -2 10 -1 48.93 3.66 0
 -2 10 0 1.77 1.74 0
 -2 10 1 48.75 3.53 0
 -2 10 4 30.84 2.87 0
 -2 10 5 -0.23 1.17 0
 -2 11 -14 3.86 2.97 0
 -2 11 -12 80.54 6.33 0
 -2 11 -11 31.38 4.47 0
 -2 11 -10 35.24 4.91 0
 -2 11 -9 37.25 4.51 0
 -2 11 -6 68.23 4.99 0
 -2 11 -5 107.45 6.04 0
 -2 11 -4 18.32 3.15 0
 -2 11 -3 87.01 5.19 0
 -2 11 -1 88.81 5.05 0
 -2 11 0 207.09 7.26 0
 -2 11 1 91.76 4.97 0
 -2 11 2 40.98 3.6 0
 -2 11 3 78.74 4.65 0
 -2 11 4 23.15 2.83 0
 -2 11 5 97.89 4.72 0
 -2 11 6 61.77 3.85 0
 -2 12 -12 45.04 5.54 0
 -2 12 -11 8.59 3.59 0
 -2 12 -10 45.15 5.12 0
 -2 12 -8 19.32 3.77 0
 -2 12 -7 43.87 5.21 0
 -2 12 -5 12.96 3.17 0
 -2 12 -4 55.48 4.88 0
 -2 12 -3 20.04 3.41 0
 -2 12 -2 170.51 7.25 0
 -2 12 -1 107.4 5.75 0
 -2 12 0 18.31 3.24 0
 -2 12 1 106.61 5.88 0
 -2 12 2 182.08 7.17 0
 -2 12 3 15.41 2.89 0
 -2 12 4 42.69 3.82 0
 -2 12 5 10.52 2.37 0
 -2 12 6 100.25 5.07 0
 -2 13 -11 77.9 6.95 0
 -2 13 -9 21.64 4.19 0
 -2 13 -7 88.75 6.26 0
 -2 13 -6 19.74 4.08 0
 -2 13 -5 48.77 5.32 0
 -2 13 -4 49.39 5.48 0
 -2 13 -3 61.53 5.14 0
 -2 13 -2 27.07 4.21 0
 -2 13 -1 2.71 2.6 0
 -2 13 1 -0.42 2.07 0
 -2 13 3 59.02 4.86 0
 -2 13 4 51.43 4.43 0
 -2 13 5 45.32 4.11 0
 -2 14 -8 63.45 6.43 0
 -2 14 -7 26.89 4.4 0
 -2 14 -6 10.37 3.75 0
 -2 14 -5 45.23 5.63 0
 -2 14 -4 22.84 4.14 0
 -2 14 -2 80.99 6.3 0
 -2 14 -1 -2.68 2.15 0
 -2 14 0 1.71 2.97 0
 -2 14 1 0.18 2.24 0
 -2 14 2 87.48 5.85 0
 -2 14 3 108.11 6.28 0
 -2 14 4 24.78 3.93 0
 -2 14 5 56.23 4.55 0
 -2 15 -6 163.96 8.72 0
 -2 15 -5 59.35 5.8 0
 -2 15 -3 34.05 5.03 0
 -2 15 -2 63.55 5.75 0
 -2 15 -1 45.37 5.45 0
 -2 15 0 108.37 6.8 0
 -2 15 1 45.81 5.47 0
 -2 15 2 66.56 5.74 0
 -2 15 3 44.77 5.11 0
 -2 15 4 41.92 4.78 0
 -2 16 -2 -2.67 3.03 0
 -2 16 -1 112.21 7.68 0
 -2 16 0 0.26 2.96 0
 -2 16 1 122.44 7.23 0
 -2 16 2 1.28 2.6 0
 -2 16 3 20.31 3.86 0
 -1 -1 1 1023.82 5.75 0
 -1 -1 3 9614.6 16.88 0
 -1 2 2 3853.25 9.45 0
 -1 3 -15 39.72 3.13 0
 -1 3 1 1090.9 7.09 0
 -1 4 -16 201.79 6.79 0
 -1 4 -15 33.29 3.37 0
 -1 4 -14 372.5 8.84 0
 -1 4 0 704.62 7.12 0
 -1 4 1 630.02 6.4 0
 -1 4 2 1646.7 9.71 0
 -1 4 3 217.14 3.46 0
 -1 4 4 65.88 1.9 0
 -1 5 -16 82.39 4.87 0
 -1 5 -15 181.07 6.78 0
 -1 5 -14 32.77 3.56 0
 -1 5 -12 114.81 5.34 0
 -1 5 -11 444.21 9.18 0
 -1 5 -3 1882.88 14.16 0
 -1 5 -2 693.6 8.54 0
 -1 5 -1 93.71 3.24 0
 -1 5 0 394.95 5.98 0
 -1 5 1 99.07 3.01 0
 -1 5 2 721.21 7.49 0
 -1 5 3 1863.39 11.57 0
 -1 5 4 187.21 3.65 0
 -1 5 5 83.81 2.46 0
 -1 6 -17 54.09 4.15 0
 -1 6 -16 119.74 6.01 0
 -1 6 -15 33.03 3.64 0
 -1 6 -14 103.42 5.34 0
 -1 6 -12 29.61 3.57 0
 -1 6 -11 12.68 2.48 0
 -1 6 -10 11.51 2.31 0
 -1 6 -9 160.82 5.84 0
 -1 6 -8 423.21 8.84 0
 -1 6 -7 85.78 4.12 0
 -1 6 -1 544.31 8 0
 -1 6 0 336.12 6.09 0
 -1 6 1 546.07 7.51 0
 -1 6 2 151.9 4.02 0
 -1 6 3 18.69 1.68 0
 -1 6 4 207.27 4.38 0
 -1 6 5 70.65 2.7 0
 -1 7 -17 17.15 3.01 0
 -1 7 -16 114.07 6.17 0
 -1 7 -15 102.67 5.79 0
 -1 7 -14 23.35 3.52 0
 -1 7 -12 15.45 2.98 0
 -1 7 -11 14.3 2.77 0
 -1 7 -10 22.06 3.21 0
 -1 7 -9 62.57 4.02 0
 -1 7 -8 91.85 4.8 0
 -1 7 -7 95.13 4.74 0
 -1 7 -6 34.84 2.93 0
 -1 7 1 172.34 4.83 0
 -1 7 2 43.41 2.64 0
 -1 7 3 0.99 1.05 0
 -1 7 4 828.72 9.71 0
 -1 7 5 524.55 7.68 0
 -1 8 -17 8.93 3.08 0
 -1 8 -16 81.43 5.7 0
 -1 8 -15 39.25 4.78 0
 -1 8 -14 11.95 3.1 0
 -1 8 -13 26.29 3.63 0
 -1 8 -12 70.74 4.75 0
 -1 8 -10 165.73 6.76 0
 -1 8 -9 40.49 3.53 0
 -1 8 -8 48.59 3.86 0
 -1 8 -7 46.02 3.56 0
 -1 8 -6 25.07 3.06 0
 -1 8 -4 7.44 1.83 0
 -1 8 -3 276.86 7.02 0
 -1 8 4 7.17 1.53 0
 -1 8 5 215.06 5.53 0
 -1 9 -17 2.2 2.58 0
 -1 9 -16 10.41 3.09 0
 -1 9 -15 12.92 3.43 0
 -1 9 -14 37.84 4.58 0
 -1 9 -13 27.52 4.17 0
 -1 9 -12 14.75 3.3 0
 -1 9 -11 11.68 3.04 0
 -1 9 -10 5.22 2.28 0
 -1 9 -9 270.7 8.68 0
 -1 9 -8 77.7 4.94 0
 -1 9 -7 22.3 3.12 0
 -1 9 -6 13.02 2.64 0
 -1 9 -4 297.59 8.16 0
 -1 9 -3 486.46 9.97 0
 -1 9 -2 59.4 3.63 0
 -1 9 -1 312.55 7.82 0
 -1 9 2 55.57 3.49 0
 -1 10 -16 31.76 4.43 0
 -1 10 -15 12.1 3.75 0
 -1 10 -14 55.37 5.07 0
 -1 10 -13 57.56 5.24 0
 -1 10 -12 30.49 4.21 0
 -1 10 -10 89.05 5.99 0
 -1 10 -9 79.13 5.47 0
 -1 10 -7 3.45 2.34 0
 -1 10 -5 248.5 7.99 0
 -1 10 -4 129.4 5.88 0
 -1 10 -3 537.7 11.21 0
 -1 10 -1 178 6.38 0
 -1 10 0 0.45 1.55 0
 -1 10 2 272.78 7.49 0
 -1 10 3 521.28 10.16 0
 -1 10 4 121.69 5.07 0
 -1 10 5 262.52 7.19 0
 -1 11 -13 38.67 4.87 0
 -1 11 -11 19.47 4.2 0
 -1 11 -10 145.83 7.36 0
 -1 11 -9 9.67 2.96 0
 -1 11 -8 34.36 4.04 0
 -1 11 -7 47.34 4.42 0
 -1 11 -6 81.09 5.28 0
 -1 11 -5 85.59 5.32 0
 -1 11 -4 123.25 6.14 0
 -1 11 -3 26.79 3.5 0
 -1 11 -2 88.49 5.28 0
 -1 11 -1 6.67 2.52 0
 -1 11 0 -0.46 1.7 0
 -1 11 1 5.52 2.13 0
 -1 11 2 77.67 4.53 0
 -1 11 4 113.64 5.22 0
 -1 11 5 83.26 4.69 0
 -1 12 -13 107.38 7.37 0
 -1 12 -12 74.87 6.47 0
 -1 12 -10 26.7 4.73 0
 -1 12 -9 45.03 5.44 0
 -1 12 -7 63.47 5.18 0
 -1 12 -6 10.54 3.04 0
 -1 12 -5 7.93 2.94 0
 -1 12 -4 41.85 4.82 0
 -1 12 -3 15.94 3.14 0
 -1 12 -2 53.74 4.81 0
 -1 12 -1 2.62 2.17 0
 -1 12 0 152.97 6.99 0
 -1 12 1 4.18 2.21 0
 -1 12 2 52.96 4.5 0
 -1 12 3 11.86 2.68 0
 -1 12 5 6.89 2.25 0
 -1 13 -11 8.31 3.35 0
 -1 13 -8 125.29 7.43 0
 -1 13 -7 17.14 3.84 0
 -1 13 -6 3.95 2.9 0
 -1 13 -5 140.82 7.53 0
 -1 13 -4 88.68 5.91 0
 -1 13 -3 27.73 4.12 0
 -1 13 -2 87.98 5.74 0
 -1 13 -1 138.74 6.99 0
 -1 13 0 21.99 3.65 0
 -1 13 1 127.87 6.56 0
 -1 13 3 29.2 4.01 0
 -1 13 4 91.34 5.85 0
 -1 14 -9 72.45 6.26 0
 -1 14 -8 80.5 6.62 0
 -1 14 -7 13.62 4.25 0
 -1 14 -6 49.94 5.65 0
 -1 14 -4 17.13 3.84 0
 -1 14 -3 108.15 7.1 0
 -1 14 -2 9.15 3.16 0
 -1 14 -1 32.06 4.38 0
 -1 14 0 1.75 2.83 0
 -1 14 1 37.62 4.56 0
 -1 14 2 9.97 3.16 0
 -1 15 -6 94.41 7.45 0
 -1 15 -5 38.3 5.45 0
 -1 15 -3 7.15 3.3 0
 -1 15 -1 69.96 6.24 0
 -1 15 0 1.45 3.14 0
 -1 15 1 71.51 5.8 0
 -1 15 2 43.32 5.07 0
 -1 15 3 7.94 3.08 0
 -1 16 -4 0.97 3.26 0
 -1 16 -3 17.8 4.15 0
 -1 16 -2 4.41 3.47 0
 -1 16 0 23.89 4.75 0
 -1 16 1 141.22 7.97 0
 -1 16 2 7.28 3.44 0
 0 -2 -3 1002.9 5.75 0
 0 -2 -2 437.85 3.68 0
 0 -2 -1 538.16 4.03 0
 0 -2 0 4760.52 12.23 0
 0 -1 0 0.17 0.28 0
 0 2 -2 447.41 4.51 0
 0 2 0 4659.49 12.21 0
 0 2 1 516.44 4.02 0
 0 2 2 420.55 3.75 0
 0 3 -14 20.47 2.21 0
 0 3 -13 399.03 7.8 0
 0 3 -10 44.17 2.59 0
 0 3 -9 1.44 1.1 0
 0 3 -5 1607.93 11.19 0
 0 3 -4 1224.59 9.55 0
 0 3 -3 2703.87 13.5 0
 0 3 -2 662.02 6.39 0
 0 3 -1 1201.04 8.11 0
 0 3 0 1 0.73 0
 0 3 1 1146.24 7.44 0
 0 4 -15 -0.6 1.03 0
 0 4 -14 57.45 3.48 0
 0 4 -13 40.81 3 0
 0 4 -12 343.32 7.58 0
 0 4 -8 199.63 5.15 0
 0 4 -7 1.77 1.14 0
 0 4 -5 456.53 6.92 0
 0 4 -2 668.56 7.29 0
 0 4 -1 294.29 4.82 0
 0 4 1 286.94 4.54 0
 0 4 2 669.15 6.71 0
 0 5 -15 18.86 2.57 0
 0 5 -14 292.2 7.68 0
 0 5 -13 424.37 9 0
 0 5 -11 701.07 11.14 0
 0 5 -10 50.01 3.34 0
 0 5 -6 1518.69 13.89 0
 0 5 -5 1349.34 12.65 0
 0 5 -4 80.52 3.11 0
 0 5 -3 179.01 4.46 0
 0 5 -2 524.25 7.29 0
 0 5 -1 765.55 8.61 0
 0 5 1 753.4 8.14 0
 0 5 2 524.72 6.79 0
 0 5 3 186.22 4.14 0
 0 6 -15 16.85 2.73 0
 0 6 -14 83.81 4.61 0
 0 6 -11 19.61 2.54 0
 0 6 -9 1.71 1.68 0
 0 6 -8 127.04 4.84 0
 0 6 -4 87.67 3.54 0
 0 6 -3 237.46 5.54 0
 0 6 -2 72.73 3.19 0
 0 6 -1 1016.86 10.92 0
 0 6 0 8.5 1.48 0
 0 6 1 1012.18 10.54 0
 0 6 2 69.77 2.9 0
 0 6 3 232.73 5.11 0
 0 6 4 88.88 3.27 0
 0 7 -16 61.41 4.37 0
 0 7 -14 109.69 5.54 0
 0 7 -13 246.16 7.92 0
 0 7 -12 4.47 2.02 0
 0 7 -9 18.93 2.62 0
 0 7 -8 287.43 7.49 0
 0 7 -7 314.07 7.63 0
 0 7 0 0.46 1.16 0
 0 7 1 411.34 7.57 0
 0 7 2 3.48 1.3 0
 0 7 3 72.78 3.4 0
 0 7 4 99.14 3.92 0
 0 8 -16 16.87 3.25 0
 0 8 -15 51.51 4.59 0
 0 8 -14 31.12 3.97 0
 0 8 -13 5.36 2.3 0
 0 8 -12 6.32 2.33 0
 0 8 -11 57.71 4.27 0
 0 8 -10 12.89 2.79 0
 0 8 -9 -1.01 1.55 0
 0 8 -8 116.37 5.34 0
 0 8 -7 27.09 3.28 0
 0 8 -6 393.06 8.99 0
 0 8 -5 536.71 10.28 0
 0 8 -4 170.82 5.7 0
 0 8 -3 453.74 9.04 0
 0 9 -16 34.21 4.24 0
 0 9 -15 6.66 2.64 0
 0 9 -14 61.05 5.07 0
 0 9 -13 34.38 4.12 0
 0 9 -12 27.5 3.79 0
 0 9 -11 21.75 3.49 0
 0 9 -10 27.14 3.54 0
 0 9 -9 122.67 6.16 0
 0 9 -8 2.76 2.13 0
 0 9 -6 666.68 12.47 0
 0 9 -5 67.62 4.27 0
 0 9 -3 231.77 6.97 0
 0 9 -2 29.02 2.91 0
 0 9 -1 60.62 3.87 0
 0 9 0 0.72 1.44 0
 0 9 1 69.01 3.98 0
 0 9 2 31.24 2.81 0
 0 9 4 70.65 4.02 0
 0 10 -16 15.75 3.66 0
 0 10 -15 29.49 4.43 0
 0 10 -14 20.5 3.64 0
 0 10 -13 76.55 5.64 0
 0 10 -12 1.02 2.34 0
 0 10 -11 1.23 2.18 0
 0 10 -10 10.67 2.87 0
 0 10 -9 140.19 6.87 0
 0 10 -8 0.16 2.07 0
 0 10 -7 31.13 3.43 0
 0 10 -6 351.87 9.65 0
 0 10 -5 1.02 1.69 0
 0 10 -4 20.36 3.07 0
 0 10 -3 27.02 2.97 0
 0 10 -1 60.41 4.22 0
 0 10 1 56.2 3.96 0
 0 10 3 27.71 3.1 0
 0 10 4 17.35 2.94 0
 0 11 -15 -1.51 2.29 0
 0 11 -14 9.23 3.59 0
 0 11 -12 3.63 2.72 0
 0 11 -11 112.72 6.56 0
 0 11 -9 121.17 6.83 0
 0 11 -7 88.67 5.63 0
 0 11 -6 18.02 3.33 0
 0 11 -5 15.57 2.95 0
 0 11 -4 -0.29 1.72 0
 0 11 -3 11.49 2.66 0
 0 11 -2 143.63 6.54 0
 0 11 0 0.31 2.04 0
 0 11 1 77.92 5.12 0
 0 11 3 11.79 2.95 0
 0 11 4 1.03 1.94 0
 0 12 -13 103.08 7.09 0
 0 12 -12 0.34 3.17 0
 0 12 -11 10.36 3.41 0
 0 12 -10 0.44 2.66 0
 0 12 -9 94.24 6.61 0
 0 12 -8 36.46 4.59 0
 0 12 -6 7.05 2.91 0
 0 12 -5 9.41 2.7 0
 0 12 -4 2.88 2.32 0
 0 12 -3 12.01 3.46 0
 0 12 -2 84.3 5.62 0
 0 12 -1 340.95 10.15 0
 0 12 0 2.92 2.35 0
 0 12 1 353.12 10.2 0
 0 12 2 90.81 5.45 0
 0 12 3 7.43 2.66 0
 0 13 -12 135.58 8.27 0
 0 13 -11 14.6 3.83 0
 0 13 -10 126.66 7.85 0
 0 13 -8 17.98 3.99 0
 0 13 -7 9.52 3.21 0
 0 13 -6 6.31 3.28 0
 0 13 -5 98.52 6.53 0
 0 13 -4 1.16 2.36 0
 0 13 -3 -1.13 2.37 0
 0 13 -2 4.26 2.73 0
 0 13 -1 43.14 4.49 0
 0 13 0 3.15 2.65 0
 0 13 1 44.76 4.43 0
 0 13 2 0.1 2.17 0
 0 13 3 0.09 2.23 0
 0 14 -10 4.08 3.69 0
 0 14 -9 0.73 3.73 0
 0 14 -8 107.02 7.49 0
 0 14 -7 9.47 3.43 0
 0 14 -5 54.21 5.68 0
 0 14 -4 108.29 7.1 0
 0 14 -3 62.99 5.58 0
 0 14 -1 95.84 6.62 0
 0 14 0 1.88 2.44 0
 0 14 1 92.62 6.44 0
 0 14 2 112.14 6.85 0
 0 15 -7 -0.96 3.19 0
 0 15 -6 84.99 7.08 0
 0 15 -5 8.91 4.01 0
 0 15 -4 61.64 6.27 0
 0 15 -3 51.6 5.42 0
 0 15 -2 145.33 8.31 0
 0 15 -1 0.95 3.2 0
 0 15 0 -2.23 3.22 0
 0 15 1 2.81 3.08 0
 0 16 -3 21.96 4.59 0
 0 16 -2 -2.25 2.74 0
 0 16 -1 0.47 3.05 0
 0 16 0 11.47 3.83 0
 0 16 1 -0.79 3.27 0
 1 -4 -8 1020.23 5.21 0
 1 -4 -7 380.04 3.5 0
 1 -1 -11 226.65 2.48 0
 1 -1 -10 155.14 2.07 0
 1 -1 -9 102.3 1.59 0
 1 -1 -8 74.38 1.24 0
 1 0 -11 0.56 0.45 0
 1 0 -10 38.65 1.43 0
 1 0 -9 305.25 3.61 0
 1 0 -8 223.21 2.9 0
 1 0 -7 437.07 3.71 0
 1 0 -6 36.33 1.03 0
 1 0 -5 1515.55 5.53 0
 1 1 -12 31.93 1.63 0
 1 2 -10 654.69 7.5 0
 1 2 -8 99.78 2.82 0
 1 2 -6 928.76 7.6 0
 1 2 -5 122.75 2.73 0
 1 2 -4 1706.52 9.51 0
 1 2 -3 496.91 5.09 0
 1 2 -2 3951.52 13.83 0
 1 2 -1 3349.24 12.81 0
 1 2 0 150.93 2.94 0
 1 3 -12 174.06 4.64 0
 1 3 -11 193.82 4.77 0
 1 3 -10 215 4.88 0
 1 3 -9 355.5 6.01 0
 1 3 -8 86.36 2.96 0
 1 3 -7 731.27 8.06 0
 1 3 -6 627.31 7.19 0
 1 3 -5 402.37 5.66 0
 1 3 -4 286.9 4.71 0
 1 3 -3 809.18 7.53 0
 1 3 -2 384.86 5.12 0
 1 3 -1 1062.39 8.44 0
 1 3 0 62.32 2.25 0
 1 4 -13 145.42 4.77 0
 1 4 -9 536.97 8.15 0
 1 4 -8 1066.92 11.13 0
 1 4 -7 404.39 6.69 0
 1 4 -6 561 7.63 0
 1 4 -5 112.02 3.45 0
 1 4 -4 66.49 2.8 0
 1 4 -3 223.37 4.6 0
 1 4 -2 1658.42 11.94 0
 1 4 -1 625.7 7.4 0
 1 4 1 617.2 7.46 0
 1 5 -14 34.6 2.69 0
 1 5 -13 19.19 2.36 0
 1 5 -12 117.51 4.67 0
 1 5 -11 428.05 8.37 0
 1 5 -7 527.24 8.37 0
 1 5 -5 83.6 3.32 0
 1 5 -4 186.61 4.73 0
 1 5 -3 1882.67 14.43 0
 1 5 -2 676 8.57 0
 1 5 -1 98.83 3.39 0
 1 5 0 392.99 6.64 0
 1 5 1 96.95 3.42 0
 1 5 2 701.54 8.9 0
 1 6 -14 98.56 4.78 0
 1 6 -13 122.85 5.19 0
 1 6 -12 33.86 3.08 0
 1 6 -11 18.59 2.67 0
 1 6 -10 15.73 2.37 0
 1 6 -9 160.72 5.5 0
 1 6 -4 192.83 5.28 0
 1 6 -3 21.82 2.02 0
 1 6 -2 148.57 4.58 0
 1 6 -1 529.47 8.31 0
 1 6 0 345.87 6.73 0
 1 6 1 538.53 8.33 0
 1 6 2 145.33 4.54 0
 1 7 -14 22.16 2.98 0
 1 7 -13 46.95 3.85 0
 1 7 -12 10.28 2.42 0
 1 7 -11 13.67 2.65 0
 1 7 -9 60.62 3.82 0
 1 7 -6 39.47 3.24 0
 1 8 -15 35.77 3.84 0
 1 8 -14 13.29 2.68 0
 1 8 -12 67.9 4.85 0
 1 8 -10 149.32 6.21 0
 1 8 -9 34.62 3.43 0
 1 8 -8 44.64 3.79 0
 1 8 -6 23.75 2.96 0
 1 8 -5 200.83 6.38 0
 1 8 -3 295.76 7.66 0
 1 8 -2 204.08 6.22 0
 1 8 -1 41.78 3.1 0
 1 9 -15 12.45 3.13 0
 1 9 -14 39.32 4.04 0
 1 9 -10 6.76 2.67 0
 1 9 -9 264.42 8.5 0
 1 9 -8 76.44 4.77 0
 1 9 -7 24.88 3.16 0
 1 9 -6 15.74 2.63 0
 1 9 -4 309.4 8.46 0
 1 9 -3 461.45 10.12 0
 1 9 -2 62.39 4.13 0
 1 9 -1 325.09 8.45 0
 1 9 0 939.51 13.97 0
 1 9 1 315.41 8.27 0
 1 9 2 56.4 3.97 0
 1 10 -15 8.64 3.15 0
 1 10 -14 44.78 4.5 0
 1 10 -13 54.27 4.96 0
 1 10 -12 34.48 4.28 0
 1 10 -11 161.05 7.5 0
 1 10 -10 83.2 5.42 0
 1 10 -9 83.13 5.33 0
 1 10 -8 8.5 2.55 0
 1 10 -7 5.44 2.73 0
 1 10 -6 121.45 6.09 0
 1 10 -4 127.08 6 0
 1 10 -3 527.76 11.6 0
 1 10 -2 276.7 8.44 0
 1 10 -1 175.16 6.62 0
 1 10 0 -1.43 1.72 0
 1 10 1 177.39 6.78 0
 1 10 2 276.2 8.3 0
 1 11 -15 21.11 4.01 0
 1 11 -14 102.75 6.72 0
 1 11 -13 35.85 4.45 0
 1 11 -12 5.62 2.79 0
 1 11 -11 20.72 3.83 0
 1 11 -10 148.46 7.51 0
 1 11 -8 42.67 4.9 0
 1 11 -7 39.12 4.19 0
 1 11 -6 82.86 5.62 0
 1 11 -5 78.92 5.34 0
 1 11 -2 85.12 5.58 0
 1 11 -1 3.18 2.03 0
 1 11 0 0.53 1.84 0
 1 11 1 6.39 2.39 0
 1 11 2 78.45 5.09 0
 1 12 -13 121.24 7.51 0
 1 12 -12 75.65 6.39 0
 1 12 -11 28.1 4.54 0
 1 12 -10 32.42 4.55 0
 1 12 -9 49.84 5.75 0
 1 12 -8 39.61 4.72 0
 1 12 -7 70.08 5.81 0
 1 12 -6 10.2 3.16 0
 1 12 -5 10.36 3.22 0
 1 12 -3 13.97 3.12 0
 1 12 -2 45.4 4.56 0
 1 12 -1 4.18 2.67 0
 1 12 1 3.97 2.75 0
 1 12 2 52.01 4.85 0
 1 13 -12 65.4 5.95 0
 1 13 -11 9.57 4.08 0
 1 13 -10 26.18 4.52 0
 1 13 -9 77.94 6.4 0
 1 13 -8 112.53 7.53 0
 1 13 -7 22.63 4.22 0
 1 13 -6 5.85 3.46 0
 1 13 -5 143.53 7.81 0
 1 13 -4 83.84 6.27 0
 1 13 -3 31.98 4.26 0
 1 13 -2 75.14 5.99 0
 1 13 0 25.76 4.16 0
 1 13 1 135.99 7.58 0
 1 14 -10 49.67 6.18 0
 1 14 -9 67.5 6.31 0
 1 14 -8 82.43 6.65 0
 1 14 -6 57.32 5.73 0
 1 14 -4 13.61 3.62 0
 1 14 -3 116.93 7.42 0
 1 14 -2 9.56 3.46 0
 1 14 -1 35.71 4.83 0
 1 14 0 5.55 3.05 0
 1 15 -7 32.87 5.23 0
 1 15 -6 96.31 7.7 0
 1 15 -5 37.49 5.57 0
 1 15 -3 7.38 3.69 0
 1 15 -2 34.89 5.2 0
 1 15 0 4.65 3.27 0
 1 16 -3 20.97 4.91 0
 1 16 -2 6.32 3.87 0
 2 1 -10 520.15 4.95 0
 2 1 -9 120.2 2.48 0
 2 1 -8 184.44 3.03 0
 2 1 -7 336.57 4.1 0
 2 2 -11 78.54 2.52 0
 2 2 -10 320.36 4.93 0
 2 2 -6 39.94 1.85 0
 2 2 -5 123.05 3.03 0
 2 2 -4 1044.8 8.69 0
 2 3 -10 80.72 3.02 0
 2 3 -8 11.12 1.38 0
 2 3 -7 623.75 7.64 0
 2 3 -5 328.73 5.46 0
 2 3 -4 1799.65 12.57 0
 2 4 -9 1.83 1.06 0
 2 4 -7 106.95 3.71 0
 2 4 -6 265.88 5.57 0
 2 4 -5 400.64 6.68 0
 2 4 -4 1024.95 10.57 0
 2 4 -3 714.95 8.85 0
 2 4 -2 17.69 1.71 0
 2 5 -12 24.96 2.5 0
 2 5 -6 22.57 2.37 0
 2 5 -5 335.48 6.81 0
 2 5 -4 125.13 4.29 0
 2 5 -3 300.71 6.3 0
 2 5 -2 303.73 6.48 0
 2 6 -13 206.64 6.3 0
 2 6 -12 5.83 1.95 0
 2 6 -11 81.87 4.2 0
 2 6 -10 62.17 3.73 0
 2 6 -9 109.12 4.58 0
 2 6 -8 36.74 3.04 0
 2 6 -1 52.1 3.42 0
 2 7 -13 66.72 4.28 0
 2 7 -12 40.8 3.58 0
 2 7 -11 13.68 2.56 0
 2 7 -9 153.58 5.77 0
 2 7 -8 195.88 6.37 0
 2 7 -7 206.4 6.46 0
 2 7 -6 33.9 3.1 0
 2 7 -5 32.26 2.92 0
 2 8 -14 8.46 2.12 0
 2 8 -13 34.84 3.95 0
 2 8 -12 23.06 3.2 0
 2 8 -10 86.57 4.93 0
 2 8 -9 105.25 5.24 0
 2 8 -8 123.09 5.68 0
 2 8 -7 262.89 7.77 0
 2 8 -4 165.23 6.09 0
 2 8 -3 128.97 5.42 0
 2 8 0 9.59 2.56 0
 2 9 -14 12.19 2.82 0
 2 9 -13 10.77 2.91 0
 2 9 -11 26.98 3.73 0
 2 9 -10 3.4 2.45 0
 2 9 -8 54.89 4.62 0
 2 9 -7 40.39 3.75 0
 2 9 -6 134.34 5.97 0
 2 9 -5 531.15 11.41 0
 2 9 -3 230.88 7.59 0
 2 9 -2 99.16 5.3 0
 2 9 -1 51.98 3.99 0
 2 9 0 187.96 6.91 0
 2 10 -14 14.66 3.18 0
 2 10 -13 9.95 2.9 0
 2 10 -10 33.4 4.16 0
 2 10 -9 76.63 5.29 0
 2 10 -8 1.62 2.24 0
 2 10 -7 13.56 3.25 0
 2 10 -6 256.16 8.73 0
 2 10 -5 -1.87 2.15 0
 2 10 -1 55.6 4.64 0
 2 11 -13 5.9 3.1 0
 2 11 -12 80.21 6.15 0
 2 11 -10 38.04 4.71 0
 2 11 -9 44.22 5.35 0
 2 11 -8 260.02 9.51 0
 2 11 -7 6.02 2.7 0
 2 11 -6 63.08 5.03 0
 2 11 -5 100.29 5.95 0
 2 11 -4 24.74 3.67 0
 2 11 -3 81.03 5.49 0
 2 11 -2 45.09 4.48 0
 2 11 -1 100.31 5.93 0
 2 11 0 216.04 8.27 0
 2 12 -12 40.51 5.39 0
 2 12 -11 11.82 3.54 0
 2 12 -9 49.47 5.51 0
 2 12 -7 41.8 4.96 0
 2 12 -6 105.32 6.65 0
 2 12 -5 10.02 3.22 0
 2 12 -4 47.77 4.66 0
 2 12 -3 17.48 3.56 0
 2 12 -2 164.56 7.83 0
 2 12 -1 96.31 6.3 0
 2 13 -11 72.32 6.42 0
 2 13 -10 191.19 9.55 0
 2 13 -9 27.38 4.91 0
 2 13 -7 100.65 6.89 0
 2 13 -6 19.45 4.14 0
 2 13 -5 49.45 5.87 0
 2 13 -4 55.84 5.91 0
 2 13 -2 28.24 4.64 0
 2 14 -9 22.01 5.19 0
 2 14 -8 64.4 6.49 0
 2 14 -7 29.12 4.94 0
 2 14 -6 8.09 3.75 0
 2 14 -5 61.9 6.54 0
 2 14 -3 119.26 7.76 0
 2 15 -6 181.19 9.7 0
 2 15 -5 60.39 7.06 0
 2 15 -4 31.93 5.46 0
 3 5 -11 36.68 2.85 0
 3 6 -12 68.37 3.87 0
 3 6 -11 37.21 3.15 0
 3 6 -10 240.9 6.95 0
 3 6 -9 109.15 4.8 0
 3 6 -8 49.22 3.55 0
 3 6 -7 144.11 5.39 0
 3 6 -6 428.9 9.04 0
 3 7 -12 37.42 3.29 0
 3 7 -11 21.23 2.85 0
 3 7 -10 99.64 5.11 0
 3 7 -9 127.11 5.64 0
 3 7 -8 21.88 3.02 0
 3 7 -7 21.15 2.97 0
 3 7 -6 54.12 3.87 0
 3 7 -5 42.61 3.75 0
 3 7 -4 14.83 2.46 0
 3 8 -12 95.83 5.42 0
 3 8 -11 61.4 4.41 0
 3 8 -10 36.45 4.22 0
 3 8 -9 39.33 3.99 0
 3 8 -8 81.83 5.17 0
 3 8 -7 8.58 2.35 0
 3 8 -4 283.7 8.55 0
 3 9 -13 134.63 6.59 0
 3 9 -10 26.74 3.63 0
 3 9 -9 24.71 3.56 0
 3 9 -8 22.03 3.4 0
 3 9 -7 49.1 4.69 0
 3 9 -6 113.1 5.98 0
 3 9 -5 46.67 4.08 0
 3 10 -13 22.26 3.92 0
 3 10 -12 8.95 3.19 0
 3 10 -10 4.41 3.17 0
 3 10 -9 45.45 4.81 0
 3 10 -7 16.93 3.39 0
 3 10 -6 56.78 5.03 0
 3 10 -5 84.91 5.78 0
 3 10 -4 7.82 2.73 0
 3 11 -12 14.63 3.8 0
 3 11 -11 22.05 3.9 0
 3 11 -10 16.97 4.15 0
 3 11 -8 74.08 6.14 0
 3 11 -6 71.83 5.87 0
 3 11 -5 52.57 5.64 0
 3 12 -11 47.57 5.87 0
 3 12 -10 3.99 3.07 0
 3 12 -8 -0.04 2.72 0
 3 12 -7 98.51 6.93 0
 3 12 -6 4.51 3.08 0
 -1 0 1 1065.18 6.2 0
 -1 1 -1 1033.43 5.57 0
 -1 1 0 1650.08 7.48 0
 -1 2 -2 4071.15 10.87 0
 -1 2 -1 3309.6 10.64 0
 -1 3 -3 820.13 5.01 0
 -1 4 -4 69.86 1.57 0
 -1 5 -5 88.67 1.7 0
 -1 6 -6 83.53 1.48 0
 0 -1 6 273.7 2.91 0
 0 0 4 2025.23 7.7 0
 0 6 -6 666.15 4.48 0
 0 7 -7 328.04 2.65 0
 1 -2 -2 3991.43 14.85 0
 1 -2 -1 3333.23 12.66 0
 1 -2 0 150.9 2.61 0
 1 -2 1 3309.52 10.62 0
 1 -2 2 3896.08 10.37 0
 1 -1 -4 614.15 6.16 0
 1 -1 -3 9750.12 22.38 0
 1 -1 -2 191.19 3.07 0
 1 -1 -1 1038.47 6.43 0
 1 -1 0 1602.69 7.33 0
 1 -1 1 1008.83 5.55 0
 1 -1 2 198.01 2.42 0
 1 0 -5 1533.11 9.27 0
 1 0 -4 445.24 4.75 0
 1 0 -3 1264.76 7.46 0
 1 0 -2 814.87 5.69 0
 1 0 -1 1052.25 6.12 0
 1 1 -6 366.89 4.44 0
 1 1 -5 2322.53 10.58 0
 1 1 -4 620.04 5.27 0
 1 1 -3 9578.78 19.62 0
 1 3 -8 85.1 1.94 0
 1 3 -7 724.24 5.49 0
 1 3 -6 624.41 5.21 0
 1 4 -8 1019.07 5.79 0
 1 4 -7 387.79 3.95 0
 1 4 -6 559.39 5.15 0
 1 5 -8 329.1 3.22 0
 1 5 -7 531.11 4.87 0
 1 6 -8 413.87 3.76 0
 1 6 -7 94.73 2.32 0
 2 -4 -2 16.1 1.87 0
 2 -4 0 141.5 3.74 0
 2 -4 1 27.78 1.78 0
 2 -4 2 18.32 1.43 0
 2 -4 3 698.45 6.63 0
 2 -4 4 1014.45 7.4 0
 2 -3 -4 1859.79 14.12 0
 2 -3 -3 411.71 6.52 0
 2 -3 -2 1201.73 10.59 0
 2 -3 -1 1058.34 9.55 0
 2 -3 0 29.38 2 0
 2 -3 1 1079.93 8.82 0
 2 -3 2 1229.33 9 0
 2 -3 3 401.19 4.89 0
 2 -3 4 1788.83 9.63 0
 2 -3 5 327.07 3.9 0
 2 -3 6 195.09 2.79 0
 2 -3 7 617.22 4.31 0
 2 -3 8 10.1 0.6 0
 2 -2 -6 37.02 2.33 0
 2 -2 -5 128.75 3.85 0
 2 -2 -4 1002.72 9.92 0
 2 -2 -3 293.73 5.26 0
 2 -2 -2 1818.02 12.39 0
 2 -2 -1 621.51 7.05 0
 2 -2 0 1165.11 9.11 0
 2 -2 1 599.09 6.37 0
 2 -2 2 1740.11 10.32 0
 2 -2 3 303.15 4.32 0
 2 -2 4 1011.94 7.46 0
 2 -2 6 39.53 1.54 0
 2 -2 7 76.01 2.04 0
 2 -2 8 232.45 3.27 0
 2 -2 9 150.2 2.55 0
 2 -2 10 319.04 3.27 0
 2 -1 -7 334.6 6.19 0
 2 -1 -6 482.02 7.12 0
 2 -1 -5 528.85 7.13 0
 2 -1 -4 367.11 5.93 0
 2 -1 -3 816.1 8.29 0
 2 -1 -2 3134.38 15.48 0
 2 -1 -1 2637.49 13.87 0
 2 -1 0 284.16 4.62 0
 2 -1 1 2563 12.88 0
 2 -1 2 3171.34 14.1 0
 2 0 -8 2.08 1.2 0
 2 0 -7 414.13 6.49 0
 2 0 -6 783.02 8.62 0
 2 0 -5 57.77 2.59 0
 2 0 -4 1903.06 12.54 0
 2 0 -3 1634.4 11.35 0
 2 0 -1 3358.44 15.28 0
 2 1 -9 120.05 3.67 0
 2 1 -8 176.06 4.19 0
 2 1 -7 336.07 5.65 0
 2 1 -6 471.09 6.5 0
 2 1 -5 531.46 6.83 0
 2 1 -4 361.79 5.54 0
 2 1 -3 839.06 8.22 0
 2 1 -2 3142.89 15.43 0
 2 2 -9 145.94 3.76 0
 2 2 -8 232.41 4.67 0
 2 2 -7 74.28 2.75 0
 2 2 -6 39.01 2.1 0
 2 2 -5 123.64 3.32 0
 2 2 -4 1035.75 9.14 0
 2 3 -8 10.26 1.29 0
 2 3 -7 630.99 7.31 0
 2 3 -6 200.36 4.19 0
 2 3 -5 328.92 5.35 0
 2 4 -10 97.35 2.74 0
 2 4 -7 110.59 3.24 0
 2 4 -6 261.69 4.88 0
 2 5 -9 37.04 1.85 0
 2 6 -9 113.34 2.94 0
 2 7 -8 197.78 4.32 0
 3 -5 -1 6.49 1.66 0
 3 -5 0 803.39 10.18 0
 3 -5 1 10.49 1.68 0
 3 -5 3 66.64 2.85 0
 3 -5 5 366 5.58 0
 3 -5 6 14.23 1.44 0
 3 -4 -2 131.05 4.36 0
 3 -4 -1 1019.12 11.31 0
 3 -4 0 38.34 2.42 0
 3 -4 1 1019.6 10.62 0
 3 -4 2 129.43 3.91 0
 3 -4 3 60.16 2.73 0
 3 -4 4 487.69 6.72 0
 3 -4 5 49.27 2.27 0
 3 -4 6 34.6 1.89 0
 3 -4 7 588.48 6.12 0
 3 -4 8 234.1 3.52 0
 3 -3 -3 750.04 10.01 0
 3 -3 -2 91.19 3.77 0
 3 -3 -1 536.38 8.1 0
 3 -3 0 1009.73 10.78 0
 3 -3 1 523.93 7.58 0
 3 -3 2 91.84 3.32 0
 3 -3 3 752.62 8.47 0
 3 -3 4 60.19 2.57 0
 3 -3 5 179.93 4 0
 3 -3 6 455.99 6 0
 3 -3 7 753.3 7.43 0
 3 -3 8 126.33 2.96 0
 3 -3 9 49.17 1.82 0
 3 -3 10 50.88 1.57 0
 3 -2 -5 499.37 8.48 0
 3 -2 -4 670.43 9.49 0
 3 -2 -3 312.04 6.44 0
 3 -2 -2 589.88 8.41 0
 3 -2 -1 93 3.42 0
 3 -2 0 566.96 7.93 0
 3 -2 2 599.9 7.84 0
 3 -2 3 316.12 5.62 0
 3 -2 4 682.37 8.04 0
 3 -2 5 504.47 6.84 0
 3 -2 6 131.3 3.47 0
 3 -2 7 23.78 1.8 0
 3 -2 8 172.21 3.82 0
 3 -2 9 115.25 3.11 0
 3 -2 10 58.32 2.21 0
 3 -2 11 184.41 3.46 0
 3 -1 -6 611.21 9.3 0
 3 -1 -5 431.98 7.66 0
 3 -1 -3 17.75 2.12 0
 3 -1 -2 1754.9 14.16 0
 3 -1 -1 118.77 3.88 0
 3 -1 0 224.46 5.2 0
 3 -1 1 118.54 3.77 0
 3 -1 2 1710.75 13.15 0
 3 0 -7 109.11 4.18 0
 3 0 -5 297.91 6.31 0
 3 0 -4 0.31 1.52 0
 3 0 -3 204.64 5.06 0
 3 0 -2 1094.67 11.2 0
 3 0 -1 25.49 2.09 0
 3 1 -8 236.27 5.86 0
 3 1 -7 1419.69 13.66 0
 3 1 -6 618.38 8.91 0
 3 1 -5 415.32 7.32 0
 3 1 -4 51.63 2.77 0
 3 1 -3 18.17 1.87 0
 3 1 -2 1739.15 14.17 0
 3 2 -8 175.74 4.95 0
 3 2 -7 20.43 2.29 0
 3 2 -6 125.21 4.12 0
 3 2 -5 513.26 8.08 0
 3 2 -4 668.46 9.05 0
 3 2 -3 323.11 6.43 0
 3 3 -9 48.4 2.86 0
 3 3 -8 136.94 4.4 0
 3 3 -7 747.42 9.77 0
 3 3 -6 452.31 7.73 0
 3 3 -5 183.23 4.91 0
 3 3 -4 59.97 3.19 0
 3 4 -10 141.38 4.32 0
 3 4 -9 36.71 2.53 0
 3 4 -8 240.78 5.69 0
 3 4 -7 601.33 8.89 0
 3 4 -6 35.15 2.67 0
 3 4 -5 57.19 3.05 0
 3 5 -9 163.45 4.62 0
 3 5 -8 228.8 5.61 0
 3 5 -7 12.74 1.92 0
 3 5 -6 17.34 2.49 0
 3 6 -8 45.93 2.87 0
 4 -6 -3 30.6 3.1 0
 4 -6 -2 388.35 8.78 0
 4 -6 -1 54.6 3.58 0
 4 -6 0 20.02 2.52 0
 4 -6 5 31.05 2.32 0
 4 -6 6 191.69 4.72 0
 4 -5 -5 3.17 1.82 0
 4 -5 -4 253.72 7.29 0
 4 -5 -3 30.12 2.98 0
 4 -5 -2 148.48 5.38 0
 4 -5 4 251.27 5.88 0
 4 -5 5 5.03 1.43 0
 4 -5 6 2.48 1.22 0
 4 -5 7 26.38 1.98 0
 4 -5 8 54.13 2.39 0
 4 -4 -7 26.16 3.38 0
 4 -4 -6 49.68 3.95 0
 4 -4 -5 656.92 11.45 0
 4 -4 -4 293.74 7.59 0
 4 -4 -3 140.25 5.4 0
 4 -4 3 137.36 4.56 0
 4 -4 5 682.4 9.19 0
 4 -4 6 55.65 2.76 0
 4 -4 7 23.14 1.98 0
 4 -4 8 146.47 3.89 0
 4 -3 -8 -0.66 1.73 0
 4 -3 -7 11.09 2.63 0
 4 -3 -4 54.76 3.58 0
 4 -3 2 25.44 2.62 0
 4 -3 3 94.08 4 0
 4 -3 5 452.88 7.74 0
 4 -3 6 80.7 3.4 0
 4 -3 7 9.77 1.59 0
 4 -3 8 0.88 1.25 0
 4 -3 9 70.7 2.88 0
 4 -3 10 98.81 3.09 0
 4 -2 -10 285.23 8 0
 4 -2 -7 182.23 6.18 0
 4 -2 -5 368.06 8.31 0
 4 -2 1 595.38 9.38 0
 4 -2 2 30.67 2.81 0
 4 -2 4 696.76 9.85 0
 4 -2 6 132.16 4.37 0
 4 -2 7 185.22 5.01 0
 4 -2 8 84.3 3.52 0
 4 -2 9 64.43 3.08 0
 4 -2 10 283.85 5.7 0
 4 -1 -10 42.49 3.68 0
 4 -1 -9 174.84 6.15 0
 4 -1 -8 128.04 5.36 0
 4 -1 -7 127.6 5.29 0
 4 -1 -6 514.4 9.86 0
 4 -1 0 60.16 3.36 0
 4 -1 1 1064.9 12.49 0
 4 -1 2 29.96 2.47 0
 4 -1 3 173.55 5.2 0
 4 -1 4 110.48 4.32 0
 4 -1 5 329.7 6.97 0
 4 -1 6 527.66 8.79 0
 4 -1 10 46.78 2.92 0
 4 -1 11 6.2 1.71 0
 4 0 -11 31.99 3.24 0
 4 0 -10 172.86 6.17 0
 4 0 -9 1.92 1.77 0
 4 0 -8 19.23 2.69 0
 4 0 -7 158.23 5.72 0
 4 0 -6 42.59 3.16 0
 4 0 1 6.99 1.79 0
 4 0 2 8.86 1.9 0
 4 1 -12 96.22 4.64 0
 4 1 -11 7.58 2.05 0
 4 1 -10 45.2 3.61 0
 4 1 -9 178.2 6.06 0
 4 1 -7 133.54 5.18 0
 4 2 -12 175.33 5.86 0
 4 2 -11 36.76 3.29 0
 4 2 -9 62.64 3.87 0
 4 2 -8 85.32 4.16 0
 4 2 -7 175.77 5.78 0
 4 3 -12 34.79 2.9 0
 4 3 -11 117.65 4.83 0
 4 3 -7 9.23 2.07 0
 4 4 -11 22.04 2.73 0
 4 4 -10 9.61 2.05 0
 4 4 -9 45.85 3.43 0
 4 4 -8 145.31 5.38 0
 4 4 -7 22.14 2.9 0
 4 4 -6 47.86 3.33 0
 4 5 -10 6.83 1.94 0
 4 5 -9 126.94 4.82 0
 4 5 -8 58.28 3.72 0
 4 5 -7 22.4 2.89 0
 4 5 -6 0.59 1.57 0
 4 5 -5 3.97 2.08 0
 4 6 -9 227.64 6.46 0
 4 6 -8 22.75 2.86 0
 4 6 -7 67.99 4.04 0
 4 6 -6 203.31 6.65 0
 4 7 -9 98.36 4.4 0
 4 7 -8 164.74 5.86 0
 4 7 -7 408.39 9.06 0
 4 8 -8 4.39 1.71 0
 4 8 -7 135.04 5.6 0
 4 9 -7 67.63 4.25 0
 5 -7 -1 16.37 3.2 0
 5 -7 0 2.67 2.09 0
 5 -7 1 17.01 2.74 0
 5 -7 2 83.71 4.44 0
 5 -7 3 5.64 1.96 0
 5 -7 4 20.55 2.57 0
 5 -7 5 44.01 3.16 0
 5 -6 -2 155.86 6.26 0
 5 -6 -1 332.44 8.85 0
 5 -6 0 84.62 4.92 0
 5 -6 1 346.59 8.58 0
 5 -6 2 157.29 5.77 0
 5 -6 3 12.44 2.31 0
 5 -6 4 154.06 5.35 0
 5 -6 5 53.28 3.52 0
 5 -5 -7 69.45 5.15 0
 5 -5 -6 16.27 3.25 0
 5 -5 -5 10.06 2.66 0
 5 -5 -4 106.95 5.42 0
 5 -5 -3 51.53 3.96 0
 5 -5 -2 177.59 6.51 0
 5 -5 -1 189.54 6.78 0
 5 -5 1 193.13 6.38 0
 5 -5 2 170.7 5.89 0
 5 -5 3 41.82 3.46 0
 5 -5 4 95.1 4.35 0
 5 -5 5 8.99 1.92 0
 5 -4 -8 36.34 3.9 0
 5 -4 -7 22.83 3.44 0
 5 -4 -6 15.94 3.2 0
 5 -4 -5 319.04 8.92 0
 5 -4 -4 79.47 5.03 0
 5 -4 -3 430.56 10.02 0
 5 -4 -2 52.46 3.92 0
 5 -4 -1 22.07 3.05 0
 5 -4 0 430.54 9.59 0
 5 -4 1 18.57 2.8 0
 5 -4 2 46.45 3.45 0
 5 -4 3 417.77 8.9 0
 5 -4 4 84.96 4.14 0
 5 -3 -8 82.92 5.15 0
 5 -3 -7 73.71 4.77 0
 5 -3 -6 21.21 3.18 0
 5 -3 -5 13.69 2.6 0
 5 -3 -4 27.84 3.3 0
 5 -3 -3 414 9.72 0
 5 -3 -2 577.09 11.25 0
 5 -3 -1 62.99 4.04 0
 5 -3 0 7.5 2.09 0
 5 -3 1 53.59 3.54 0
 5 -3 2 547.28 10.25 0
 5 -3 4 34.33 2.99 0
 5 -2 -10 2.26 2.46 0
 5 -2 -8 334.03 9.33 0
 5 -2 -7 112.03 5.74 0
 5 -2 -6 31.82 3.48 0
 5 -2 -4 1055.28 15.22 0
 5 -2 -3 247.91 7.44 0
 5 -2 -2 29.46 3.2 0
 5 -2 -1 69.07 4.13 0
 5 -2 0 260.04 7.39 0
 5 -2 1 71.84 4.37 0
 5 -2 2 28.66 3.37 0
 5 -2 3 260.07 7.11 0
 5 -2 4 1006.63 13.77 0
 5 -2 5 105.25 4.77 0
 5 -2 6 29.63 2.77 0
 5 -1 -11 119.83 5.93 0
 5 -1 -9 4.04 2.3 0
 5 -1 -8 8.32 2.86 0
 5 -1 -7 62.61 4.26 0
 5 -1 -6 47.75 4.02 0
 5 -1 -5 15.65 2.71 0
 5 -1 -4 5.87 2.29 0
 5 -1 -3 2.2 1.97 0
 5 -1 -2 100.82 5.11 0
 5 -1 -1 20.09 2.73 0
 5 -1 1 14.57 2.43 0
 5 -1 2 93.12 4.69 0
 5 -1 3 3.95 1.86 0
 5 -1 4 4.72 1.85 0
 5 -1 5 17.26 2.44 0
 5 -1 6 42.15 3.28 0
 5 -1 7 59.74 3.92 0
 5 -1 9 6.48 1.99 0
 5 -1 10 53.92 3.55 0
 5 -1 11 119.72 4.65 0
 5 0 -12 9.71 2.75 0
 5 0 -10 19.1 3.39 0
 5 0 -9 389.17 9.78 0
 5 0 -8 79.11 5.02 0
 5 0 -7 303.1 8.57 0
 5 0 -6 23.17 3.21 0
 5 0 -5 42.49 3.65 0
 5 0 -2 1.28 1.72 0
 5 0 -1 64.41 4.11 0
 5 0 2 -0.28 1.63 0
 5 0 3 406.86 9.12 0
 5 0 5 42.52 3.59 0
 5 0 12 8.26 2.1 0
 5 1 -12 202.95 7.38 0
 5 1 -11 117.14 5.82 0
 5 1 -10 49.7 3.99 0
 5 1 -8 9.01 2.59 0
 5 1 -6 41.89 3.52 0
 5 1 -5 15.01 2.77 0
 5 1 -4 4.39 2.31 0
 5 1 -3 1.39 1.77 0
 5 1 -1 12.95 2.72 0
 5 1 0 16.44 2.86 0
 5 1 1 19.7 2.89 0
 5 2 -13 0.96 1.8 0
 5 2 -12 60.48 4.35 0
 5 2 -11 3.95 2.33 0
 5 2 -10 2.05 2.08 0
 5 2 -9 162.05 6.36 0
 5 2 -8 337.18 9 0
 5 2 -7 115.74 5.46 0
 5 2 -5 101.1 5.35 0
 5 2 -4 1024.64 15.05 0
 5 2 -3 258.86 7.63 0
 5 2 -1 74.09 4.62 0
 5 3 -12 65.47 4.35 0
 5 3 -11 88.83 4.95 0
 5 3 -10 538.58 11.22 0
 5 3 -9 225.59 7.47 0
 5 3 -8 86.18 4.92 0
 5 3 -7 82.86 4.74 0
 5 3 -6 25.36 3.3 0
 5 3 -4 33.67 3.61 0
 5 3 -3 395.96 9.57 0
 5 3 -2 566.44 11.36 0
 5 4 -12 6.25 1.92 0
 5 4 -10 2.25 2.25 0
 5 4 -8 30.48 3.62 0
 5 4 -6 14.97 2.76 0
 5 4 -5 314.28 8.75 0
 5 4 -4 87.47 5.22 0
 5 4 -3 428.73 10.19 0
 5 5 -10 66.81 4.21 0
 5 5 -8 106.08 5.5 0
 5 5 -5 12.3 2.74 0
 5 5 -4 106.95 5.51 0
 5 6 -10 12.3 2.64 0
 5 6 -9 18.27 2.86 0
 5 6 -8 23.58 3.48 0
 5 6 -7 7.39 2.83 0
 5 6 -6 231.06 7.86 0
 5 7 -9 213.55 7.25 0
 5 7 -8 39.79 3.94 0
 5 7 -7 16.84 3.06 0
 5 7 -6 101.14 5.76 0
 5 7 -5 48.42 4.34 0
 5 8 -9 48.43 3.8 0
 5 8 -8 234.48 7.93 0
 5 8 -7 51.13 4.23 0
 5 8 -6 50.07 4.7 0
 5 9 -8 6.27 2.27 0
 5 9 -7 26.28 3.85 0
 5 9 -6 15.82 3.16 0
 5 10 -7 2.77 2.52 0
 6 -7 -2 76.41 5.6 0
 6 -7 -1 231.45 8.43 0
 6 -7 0 429.42 10.78 0
 6 -7 1 231.26 8.09 0
 6 -7 2 76.74 4.78 0
 6 -7 3 32.03 3.82 0
 6 -7 4 231.92 7.45 0
 6 -7 5 84.5 4.68 0
 6 -7 6 15.81 2.65 0
 6 -6 -5 9.95 3.21 0
 6 -6 -4 3.6 2.87 0
 6 -6 -3 2.44 2.6 0
 6 -6 -2 104.69 6.19 0
 6 -6 -1 114.69 6.12 0
 6 -6 0 8.36 2.65 0
 6 -6 1 113.45 5.92 0
 6 -6 2 96.49 5.32 0
 6 -6 3 1.35 2.44 0
 6 -6 4 3.97 2.43 0
 6 -6 5 8.65 2.19 0
 6 -6 6 98.79 4.68 0
 6 -6 7 14.37 2.44 0
 6 -5 -7 67.01 5.25 0
 6 -5 -4 25.67 4.02 0
 6 -5 -3 218.23 8.07 0
 6 -5 -2 11.91 2.92 0
 6 -5 -1 151.15 6.82 0
 6 -5 1 150.42 6.65 0
 6 -5 2 5.39 2.78 0
 6 -5 3 220.82 7.34 0
 6 -5 4 28.39 3.38 0
 6 -5 5 13.32 2.56 0
 6 -5 6 47.73 3.79 0
 6 -5 7 59.09 3.88 0
 6 -5 8 83.15 4.19 0
 6 -4 -9 38.52 4.76 0
 6 -4 -8 46.05 5.3 0
 6 -4 -7 5.9 2.85 0
 6 -4 -6 163.5 7.7 0
 6 -4 -5 77.72 5.2 0
 6 -4 -4 22.82 3.44 0
 6 -4 -3 46.16 4.23 0
 6 -4 -2 58.13 4.49 0
 6 -4 -1 85.99 5.2 0
 6 -4 0 408.63 10.35 0
 6 -4 1 83.27 5.19 0
 6 -4 2 50.88 4.28 0
 6 -4 3 43.97 4.15 0
 6 -4 4 19.87 3 0
 6 -4 5 82.06 4.83 0
 6 -4 6 172.48 6.3 0
 6 -4 7 4.61 1.97 0
 6 -4 8 48.12 3.55 0
 6 -3 -9 58.91 5.52 0
 6 -3 -8 72.54 5.81 0
 6 -3 -7 16.99 3.47 0
 6 -3 -6 88.68 5.62 0
 6 -3 -5 54.77 4.7 0
 6 -3 -4 17.38 3.29 0
 6 -3 -3 12.46 2.88 0
 6 -3 -2 82.16 5.31 0
 6 -3 0 40.94 3.73 0
 6 -3 2 70.72 4.55 0
 6 -3 3 8.98 2.44 0
 6 -3 4 16.17 2.87 0
 6 -3 5 52.57 4.06 0
 6 -3 6 83.93 4.89 0
 6 -3 7 12.51 2.57 0
 6 -3 8 76.37 4.36 0
 6 -3 9 67.26 4.03 0
 6 -2 -11 58.65 5.61 0
 6 -2 -10 16.88 3.53 0
 6 -2 -9 43.11 4.41 0
 6 -2 -8 11.06 3.17 0
 6 -2 -7 101.78 6.17 0
 6 -2 -6 76.17 5.26 0
 6 -2 -5 366.62 10.26 0
 6 -2 -3 114.24 5.92 0
 6 -2 -2 5.58 2.65 0
 6 -2 0 138.84 6.45 0
 6 -2 2 6.04 2.39 0
 6 -2 3 108.28 5.37 0
 6 -2 4 76.26 4.66 0
 6 -2 5 374.25 9.35 0
 6 -2 7 107.41 5.34 0
 6 -2 8 7.23 2.19 0
 6 -2 9 40.89 3.63 0
 6 -1 -12 6.95 2.99 0
 6 -1 -11 63.53 5.54 0
 6 -1 -10 68.21 5.32 0
 6 -1 -9 -0.53 2.31 0
 6 -1 -8 131.9 6.62 0
 6 -1 -7 126.72 6.68 0
 6 -1 -6 239.78 8.68 0
 6 -1 -5 22.04 3.67 0
 6 -1 -4 58.97 4.55 0
 6 -1 -3 138.46 6.37 0
 6 -1 -2 139.63 6.55 0
 6 -1 -1 98.98 5.61 0
 6 -1 0 301.47 8.88 0
 6 -1 1 98.53 5.39 0
 6 -1 2 143.53 6.53 0
 6 -1 3 138.65 6.17 0
 6 -1 4 64.66 4.44 0
 6 -1 6 227.84 7.67 0
 6 -1 7 132.74 5.79 0
 6 -1 8 130.62 5.73 0
 6 -1 9 3.15 2.25 0
 6 -1 10 71.73 4.53 0
 6 0 -12 31.68 4.52 0
 6 0 -11 5.72 3.04 0
 6 0 -10 70.96 5.47 0
 6 0 -9 124.71 6.49 0
 6 0 -8 51.25 4.85 0
 6 0 -7 466.86 11.58 0
 6 0 -6 0.84 2.67 0
 6 0 -5 2.99 2.34 0
 6 0 -4 44.28 4.19 0
 6 0 -3 141.12 6.73 0
 6 0 -2 113.37 5.85 0
 6 0 -1 127.55 6.37 0
 6 0 0 -0.61 1.85 0
 6 0 1 120.05 5.92 0
 6 0 2 113.67 5.71 0
 6 0 3 127.16 6.2 0
 6 0 4 45.38 4.13 0
 6 0 5 2.59 2.16 0
 6 0 6 -1.32 2.42 0
 6 0 7 470.44 10.75 0
 6 0 8 48.92 4.06 0
 6 0 9 117.96 5.77 0
 6 0 10 66.1 4.58 0
 6 0 11 12.14 2.61 0
 6 1 -13 3.26 2.53 0
 6 1 -12 13.46 3.25 0
 6 1 -11 53.3 4.98 0
 6 1 -10 74.84 5.61 0
 6 1 -9 2.75 2.89 0
 6 1 -8 135.01 6.8 0
 6 1 -7 137.94 6.57 0
 6 1 -6 237.8 8.53 0
 6 1 -5 26.01 3.75 0
 6 1 -4 57.81 4.41 0
 6 1 -3 135.41 6.41 0
 6 1 0 296.01 9.06 0
 6 1 2 140.42 6.49 0
 6 1 4 57.23 4.61 0
 6 1 5 24.8 3.57 0
 6 1 6 243.42 8.23 0
 6 1 10 74.65 4.92 0
 6 1 11 57.31 4.46 0
 6 1 12 12.21 2.89 0
 6 2 -13 384.97 10.33 0
 6 2 -12 8.83 2.99 0
 6 2 -10 19.16 3.86 0
 6 2 -9 43.56 4.64 0
 6 2 -8 9.42 3.03 0
 6 2 -7 101.9 6.03 0
 6 2 -6 79.44 5.21 0
 6 2 -5 374.45 10.47 0
 6 2 -4 73.47 5.02 0
 6 2 -2 4.51 2.43 0
 6 2 0 134.32 6.22 0
 6 2 1 86.72 5.32 0
 6 2 2 3.78 2.2 0
 6 3 -13 26.04 3.41 0
 6 3 -12 60.42 4.67 0
 6 3 -11 46.14 4.63 0
 6 3 -8 81.76 5.53 0
 6 3 -7 13.81 3.12 0
 6 3 -6 76.69 5.53 0
 6 3 -5 52.13 4.54 0
 6 3 -4 11.93 3.36 0
 6 3 -3 9.36 2.84 0
 6 3 -2 77 5.34 0
 6 3 -1 82.07 5.3 0
 6 4 -12 4.24 2.13 0
 6 4 -10 21.54 3.51 0
 6 4 -9 30.07 4.2 0
 6 4 -8 38.2 4.54 0
 6 4 -7 4.89 2.64 0
 6 4 -6 174.19 7.61 0
 6 4 -5 81.52 5.78 0
 6 4 -3 41.12 4.17 0
 6 4 -2 54.36 4.6 0
 6 4 -1 85.53 5.55 0
 6 5 -11 18.56 3.14 0
 6 5 -8 88.26 5.87 0
 6 5 -7 62.54 5.32 0
 6 5 -6 57.02 5.29 0
 6 5 -5 13.2 3.15 0
 6 5 -3 220.77 8.43 0
 6 6 -10 120.14 6.23 0
 6 6 -9 146.33 6.79 0
 6 6 -8 66.99 5.46 0
 6 6 -7 14.31 3.3 0
 6 6 -6 97.53 5.96 0
 6 6 -5 11.04 3.15 0
 6 6 -4 5.24 2.77 0
 6 6 -3 2.24 3.05 0
 6 7 -10 8.6 2.57 0
 6 7 -9 5.37 2.59 0
 6 7 -8 162.11 7.53 0
 6 7 -7 202.13 8.13 0
 6 7 -6 18.58 3.57 0
 6 7 -5 80.08 5.83 0
 6 7 -4 233.41 9.15 0
 6 8 -9 37.24 4.21 0
 6 8 -8 1.79 2.54 0
 6 8 -7 117.99 6.84 0
 6 8 -6 8.57 3.29 0
 6 8 -5 15.81 3.78 0
 6 8 -4 41.08 4.6 0
 6 9 -8 41.49 4.67 0
 6 9 -7 0.92 2.5 0
 6 9 -6 10.21 3.25 0
 6 9 -5 62.02 5.77 0
 6 10 -7 10.58 3.39 0
 6 10 -6 140.44 7.45 0
 6 10 -5 11.17 3.8 0
 6 11 -6 2.46 3.11 0
 6 12 -5 38.75 5.21 0
 7 -7 -2 101.3 6.56 0
 7 -7 -1 54.68 5.47 0
 7 -7 1 62.19 5 0
 7 -7 2 92.84 5.99 0
 7 -7 3 72.95 5.36 0
 7 -7 4 6.65 2.59 0
 7 -7 5 40.78 4.03 0
 7 -6 -6 49.37 5.96 0
 7 -6 -5 131.01 7.59 0
 7 -6 -4 14.01 3.68 0
 7 -6 -3 203.05 8.95 0
 7 -6 -2 56.74 5.51 0
 7 -6 -1 77.66 5.76 0
 7 -6 0 3 2.76 0
 7 -6 1 70.03 5.59 0
 7 -6 2 58.67 4.81 0
 7 -6 3 189.07 7.59 0
 7 -6 5 124.92 6.12 0
 7 -6 6 45.11 3.85 0
 7 -5 -8 47.69 5.65 0
 7 -5 -7 51.43 5.92 0
 7 -5 -6 69.61 6.29 0
 7 -5 -5 36.46 5.19 0
 7 -5 -4 108.37 6.86 0
 7 -5 -3 2.36 2.78 0
 7 -5 -2 52.35 5.28 0
 7 -5 0 188.23 7.95 0
 7 -5 1 30.91 4.09 0
 7 -5 2 54.03 5.13 0
 7 -5 4 112.83 6.12 0
 7 -5 5 34.84 4.18 0
 7 -5 6 69.96 4.86 0
 7 -5 7 55.77 4.27 0
 7 -4 -9 21.39 4.54 0
 7 -4 -7 113.14 7.17 0
 7 -4 -6 191.5 9.03 0
 7 -4 -5 4.73 3.09 0
 7 -4 -4 25.36 4.33 0
 7 -4 -3 71.19 5.93 0
 7 -4 -2 59.95 5.19 0
 7 -4 0 1.54 2.47 0
 7 -4 1 38.48 4.71 0
 7 -4 3 68.23 5.28 0
 7 -4 4 22.38 3.57 0
 7 -4 5 1.78 2.53 0
 7 -4 6 180.24 7.14 0
 7 -4 7 102.05 5.62 0
 7 -4 8 3.91 2.29 0
 7 -3 -10 116.86 7.18 0
 7 -3 -9 2.36 3.05 0
 7 -3 -8 54.57 5.82 0
 7 -3 -7 40.91 4.63 0
 7 -3 -5 69.29 5.58 0
 7 -3 -4 59.27 5.24 0
 7 -3 -3 177.73 8 0
 7 -3 -2 153.64 7.48 0
 7 -3 -1 2.03 2.9 0
 7 -3 0 71.07 5.3 0
 7 -3 1 3.51 2.79 0
 7 -3 2 159.17 7.46 0
 7 -3 3 167.32 7.47 0
 7 -3 4 61.44 4.73 0
 7 -3 5 70.16 5.08 0
 7 -3 6 123.35 6.28 0
 7 -3 7 38.11 3.87 0
 7 -3 8 59.61 4.57 0
 7 -2 -11 106.17 6.93 0
 7 -2 -10 19.77 4.11 0
 7 -2 -8 78.2 6.01 0
 7 -2 -7 25.17 4.25 0
 7 -2 -5 108.72 6.57 0
 7 -2 -4 43 4.95 0
 7 -2 -3 101.85 6.66 0
 7 -2 -2 40 4.95 0
 7 -2 -1 14.01 3.36 0
 7 -2 0 141.24 6.95 0
 7 -2 1 10.98 3.33 0
 7 -2 2 45.54 4.84 0
 7 -2 3 104.1 6.18 0
 7 -2 5 100.77 5.71 0
 7 -2 6 8.71 2.81 0
 7 -2 8 73.95 5.08 0
 7 -2 9 33.44 3.65 0
 7 -1 -12 17.16 4.42 0
 7 -1 -11 85.32 6.39 0
 7 -1 -10 42.24 5.12 0
 7 -1 -9 19.13 4.25 0
 7 -1 -8 177.04 8.5 0
 7 -1 -6 49.51 5 0
 7 -1 -5 21.53 3.98 0
 7 -1 -4 81.84 5.9 0
 7 -1 -3 70.56 5.78 0
 7 -1 -2 25.91 4.1 0
 7 -1 -1 180.26 8.08 0
 7 -1 0 52.19 5.13 0
 7 -1 1 185.77 7.76 0
 7 -1 2 23.92 4.27 0
 7 -1 3 76.51 5.67 0
 7 -1 4 82.74 5.85 0
 7 -1 5 19.26 3.62 0
 7 -1 6 54.93 5.04 0
 7 -1 7 304.85 9.53 0
 7 -1 8 178.23 7.5 0
 7 -1 9 14.37 3.1 0
 7 -1 10 33.99 4.25 0
 7 0 -13 -0.5 2.66 0
 7 0 -12 99.88 6.62 0
 7 0 -11 7.65 3.63 0
 7 0 -9 4.92 3.64 0
 7 0 -8 109.95 7.07 0
 7 0 -7 18.98 3.9 0
 7 0 -6 28.21 4.29 0
 7 0 -5 39.7 5.38 0
 7 0 -2 20.74 3.61 0
 7 0 -1 92.84 5.94 0
 7 0 1 95.15 6.28 0
 7 0 2 13.54 3.21 0
 7 0 3 52.05 5.11 0
 7 0 4 31.4 4.45 0
 7 0 5 35.51 4.29 0
 7 0 6 28.33 3.93 0
 7 0 7 14.65 3.3 0
 7 0 8 103.86 5.94 0
 7 0 9 4.87 2.81 0
 7 0 10 38.7 4.47 0
 7 1 -13 29.86 4.42 0
 7 1 -12 14.21 3.95 0
 7 1 -11 80.77 6.2 0
 7 1 -10 35.28 4.59 0
 7 1 -7 303.92 10.36 0
 7 1 -6 51.77 5.11 0
 7 1 -5 23.67 3.99 0
 7 1 -2 24.25 3.84 0
 7 1 -1 177.73 7.81 0
 7 1 0 56.51 5.07 0
 7 1 1 182.63 8.11 0
 7 1 2 29.43 4.25 0
 7 1 3 78.56 5.92 0
 7 1 4 82.14 5.77 0
 7 1 6 50.24 5.1 0
 7 1 8 182.41 8.01 0
 7 1 9 17.35 3.74 0
 7 1 10 33.62 4.13 0
 7 1 11 76.77 5.33 0
 7 2 -13 17.56 3.93 0
 7 2 -12 16.41 3.99 0
 7 2 -11 118.28 7.15 0
 7 2 -10 14.69 4 0
 7 2 -9 32.98 4.93 0
 7 2 -8 71.09 5.81 0
 7 2 -7 34.54 4.69 0
 7 2 -6 6.31 3.44 0
 7 2 -4 53.17 4.99 0
 7 2 -3 97.97 6.28 0
 7 2 -2 45.82 5.33 0
 7 2 -1 19.23 3.94 0
 7 2 0 144.55 7.62 0
 7 2 1 14.8 3.92 0
 7 2 4 49.06 5.31 0
 7 2 5 100.03 6.61 0
 7 2 6 7.08 3.57 0
 7 2 7 30.03 4.45 0
 7 2 8 67.06 5.49 0
 7 2 10 16.46 3.93 0
 7 3 -13 32 4.45 0
 7 3 -12 5.4 2.91 0
 7 3 -11 32.56 4.44 0
 7 3 -10 112.11 6.7 0
 7 3 -9 1.44 2.8 0
 7 3 -7 40.4 4.77 0
 7 3 -5 72.86 6.14 0
 7 3 -4 61.46 5.73 0
 7 3 -3 157.96 7.76 0
 7 3 -2 147.98 7.87 0
 7 3 -1 0.97 2.42 0
 7 3 0 70.14 5.48 0
 7 3 1 0.26 2.64 0
 7 3 2 151.5 7.93 0
 7 3 3 167.71 8.07 0
 7 3 4 60.31 5.68 0
 7 3 12 9.08 3.37 0
 7 4 -12 181.93 8.05 0
 7 4 -11 64.68 5.36 0
 7 4 -10 61.61 5.62 0
 7 4 -8 3.68 2.91 0
 7 4 -7 105.77 6.91 0
 7 4 -6 196.09 8.57 0
 7 4 -5 4.8 3.16 0
 7 4 -4 22.47 4.06 0
 7 4 -3 65.92 5.57 0
 7 4 -2 66.08 5.82 0
 7 4 -1 40.82 4.94 0
 7 4 0 4.38 3.14 0
 7 4 1 34.62 4.68 0
 7 4 2 62.64 5.97 0
 7 5 -11 20.05 3.96 0
 7 5 -10 130.87 7.21 0
 7 5 -8 41.76 5.13 0
 7 5 -7 66.75 5.52 0
 7 5 -6 76.03 6.3 0
 7 5 -5 35.85 4.96 0
 7 5 -4 110.61 7.13 0
 7 5 -3 2.85 3.23 0
 7 5 -2 59.37 5.55 0
 7 5 0 180.7 8.83 0
 7 6 -10 123.3 6.89 0
 7 6 -9 7.6 3.18 0
 7 6 -8 5.29 3.1 0
 7 6 -7 22.93 4.08 0
 7 6 -6 50.73 6.17 0
 7 6 -5 123.65 7.35 0
 7 6 -4 16.1 3.89 0
 7 6 -3 203.74 9.18 0
 7 6 -2 61.72 6.48 0
 7 7 -10 14.61 3.66 0
 7 7 -9 29.67 4.55 0
 7 7 -8 5.67 3.02 0
 7 7 -7 5.98 3.26 0
 7 7 -6 2.5 3.44 0
 7 7 -5 46.15 5.61 0
 7 7 -3 72.43 6.62 0
 7 7 -2 97.64 7.33 0
 7 8 -8 0.81 2.74 0
 7 8 -7 50.62 5.79 0
 7 8 -6 2.5 3.02 0
 7 8 -4 59.67 6.23 0
 7 8 -3 49.05 5.63 0
 7 8 -2 62.08 6.3 0
 7 9 -8 14.67 3.68 0
 7 9 -6 5.06 3.23 0
 7 9 -5 164.6 8.75 0
 7 9 -4 76.76 6.93 0
 7 9 -3 75.35 6.93 0
 7 10 -7 75.24 6.35 0
 7 10 -6 30.4 4.92 0
 7 10 -5 28.63 4.6 0
 7 10 -4 42.54 5.67 0
 7 10 -3 60.4 6.06 0
 7 11 -3 -0.94 3.57 0
 8 -7 -2 9.4 3.68 0
 8 -7 -1 7.26 3.45 0
 8 -7 0 11.54 3.94 0
 8 -7 1 8.55 3.34 0
 8 -7 2 6.08 3.56 0
 8 -7 3 52.77 5.3 0
 8 -7 4 6.43 2.83 0
 8 -6 -6 3.2 3.42 0
 8 -6 -5 18.76 4.87 0
 8 -6 -3 106.99 7.62 0
 8 -6 -1 13.68 4 0
 8 -6 0 7.63 3.74 0
 8 -6 1 13.85 3.52 0
 8 -6 2 15.69 3.95 0
 8 -6 3 111.17 6.73 0
 8 -6 4 48.67 4.99 0
 8 -6 5 20.99 3.7 0
 8 -5 -7 81.09 7.03 0
 8 -5 -6 55.93 6.61 0
 8 -5 -4 14.29 4.08 0
 8 -5 -3 66.13 6.06 0
 8 -5 -2 43.71 5.58 0
 8 -5 0 3.16 3.11 0
 8 -5 1 42.75 5.31 0
 8 -5 3 61.46 5.21 0
 8 -5 4 10.97 3.16 0
 8 -5 5 22.04 3.7 0
 8 -5 6 53.96 4.96 0
 8 -4 -9 11.47 4.1 0
 8 -4 -8 88.45 6.99 0
 8 -4 -7 72.24 6.83 0
 8 -4 -6 16.74 4.62 0
 8 -4 -5 124.22 8.11 0
 8 -4 -4 26.25 4.62 0
 8 -4 -3 34.66 4.87 0
 8 -4 -2 5.37 3.9 0
 8 -4 -1 2.99 3.22 0
 8 -4 0 6.99 3.22 0
 8 -4 1 5.2 3.12 0
 8 -4 3 40.49 4.77 0
 8 -4 4 24.36 4.35 0
 8 -4 5 128.9 7.16 0
 8 -4 6 24.11 3.91 0
 8 -4 7 70.23 5.41 0
 8 -3 -9 8.16 3.73 0
 8 -3 -7 49.08 5.83 0
 8 -3 -6 33.29 5.01 0
 8 -3 -5 13.53 4.04 0
 8 -3 -3 75.06 6.17 0
 8 -3 0 6.34 3.73 0
 8 -3 1 79.16 6.48 0
 8 -3 3 79.47 5.9 0
 8 -3 4 108.81 6.87 0
 8 -3 5 17.42 3.73 0
 8 -3 6 30.36 4.29 0
 8 -3 7 53.54 5.05 0
 8 -2 -10 21.46 4.95 0
 8 -2 -9 33.52 5.18 0
 8 -2 -8 2.33 3.5 0
 8 -2 -7 9.5 3.92 0
 8 -2 -6 3.77 3.57 0
 8 -2 -5 121.68 7.59 0
 8 -2 -4 60.35 5.77 0
 8 -2 -3 25.93 4.52 0
 8 -2 -2 70.13 6.45 0
 8 -2 -1 10.47 3.61 0
 8 -2 0 68 6.18 0
 8 -2 1 10.68 3.52 0
 8 -2 3 35.97 4.69 0
 8 -2 4 53.18 5.6 0
 8 -2 5 126.08 7.08 0
 8 -2 6 0.64 2.63 0
 8 -2 7 6.06 2.97 0
 8 -2 8 -1.82 2.17 0
 8 -1 -10 19.57 4.54 0
 8 -1 -9 83.38 6.62 0
 8 -1 -8 12.32 3.98 0
 8 -1 -7 4.14 3.71 0
 8 -1 -6 66.47 6 0
 8 -1 -5 50.73 6.24 0
 8 -1 -4 57.51 6.27 0
 8 -1 -3 53.62 6.29 0
 8 -1 -2 120.96 7.77 0
 8 -1 0 60.65 5.68 0
 8 -1 1 45.57 5.51 0
 8 -1 2 120.72 7.41 0
 8 -1 3 48.64 5.43 0
 8 -1 4 60.25 5.33 0
 8 -1 5 47.33 5.56 0
 8 -1 6 59 5.62 0
 8 -1 7 1.47 2.85 0
 8 -1 9 75.06 5.73 0
 8 0 -10 9.13 3.79 0
 8 0 -9 25.1 4.64 0
 8 0 -8 53.26 6.23 0
 8 0 -7 4.72 3.66 0
 8 0 -6 27.61 4.8 0
 8 0 -5 105.71 7.37 0
 8 0 -4 493.53 13.92 0
 8 0 -3 -0.11 3.12 0
 8 0 -1 3.05 3.16 0
 8 0 0 109.24 7.32 0
 8 0 1 2.23 2.98 0
 8 0 2 95.1 7.04 0
 8 0 3 2.31 3.62 0
 8 0 4 475.63 13.31 0
 8 0 5 96.43 6.73 0
 8 0 6 23.51 4.29 0
 8 0 7 4.94 3.19 0
 8 0 8 53.24 5.25 0
 8 0 9 22.06 4.45 0
 8 1 -10 19.97 4.75 0
 8 1 -8 12.08 4.11 0
 8 1 -7 0.27 3.39 0
 8 1 -5 52.13 5.42 0
 8 1 -4 64.19 6.34 0
 8 1 -3 52.59 6.32 0
 8 1 -2 115.8 7.77 0
 8 1 -1 45.34 5.82 0
 8 1 0 60.53 5.9 0
 8 1 2 124 7.53 0
 8 1 3 49.58 5.97 0
 8 1 5 54.37 5.68 0
 8 1 6 62.37 6.03 0
 8 1 7 0.4 3.41 0
 8 1 8 10.72 3.97 0
 8 1 9 80.21 5.93 0
 8 1 10 25.65 4.45 0
 8 2 -10 15.37 4.26 0
 8 2 -9 36.51 5.25 0
 8 2 -7 4.82 3.64 0
 8 2 -5 122.7 7.67 0
 8 2 -4 56.95 6.27 0
 8 2 -3 20.25 4.5 0
 8 2 -2 70.28 6.31 0
 8 2 -1 7.46 3.59 0
 8 2 0 79.33 6.97 0
 8 2 2 66.85 6.57 0
 8 2 4 60.82 6.03 0
 8 2 5 110.52 7.57 0
 8 2 6 0.88 2.94 0
 8 2 8 0.46 2.98 0
 8 2 9 32.23 4.92 0
 8 2 10 17.39 4.3 0
 8 3 -10 79.81 6.57 0
 8 3 -9 9.9 4.33 0
 8 3 -8 53.92 6.24 0
 8 3 -7 52.16 6.22 0
 8 3 -6 37.15 5.13 0
 8 3 -4 109.02 7.15 0
 8 3 -3 79.28 6.9 0
 8 3 -2 76.36 6.75 0
 8 3 0 2.69 3.83 0
 8 3 1 70.14 6.42 0
 8 3 5 16.3 4.53 0
 8 3 6 39.32 5.28 0
 8 3 7 43.24 5.81 0
 8 3 8 53.28 6.51 0
 8 3 9 7.95 4.09 0
 8 3 10 72.5 6.04 0
 8 3 11 109.78 7.2 0
 8 4 -10 113.96 7.52 0
 8 4 -9 8.97 4.07 0
 8 4 -8 86.56 6.75 0
 8 4 -7 70.59 6.14 0
 8 4 -6 22.23 4.53 0
 8 4 -5 139.07 8.13 0
 8 4 -3 37.66 5.5 0
 8 4 -2 0.75 3.23 0
 8 4 -1 2.41 3.78 0
 8 4 0 5.47 3.74 0
 8 4 1 1.89 3.24 0
 8 4 3 37.7 5.66 0
 8 4 4 26.17 4.9 0
 8 4 5 121.48 8.28 0
 8 4 6 18.77 4.48 0
 8 4 8 81.77 7.28 0
 8 4 9 11.58 4.45 0
 8 4 10 104.09 7.22 0
 8 5 -9 58.58 6.11 0
 8 5 -8 7.85 3.52 0
 8 5 -7 67.79 6.21 0
 8 5 -5 17.37 4.24 0
 8 5 -3 61.16 6.86 0
 8 5 -2 42.23 5.95 0
 8 5 -1 44.06 5.79 0
 8 5 0 4.13 3.99 0
 8 5 2 44.95 5.85 0
 8 5 3 60.18 6.1 0
 8 5 4 12.66 4.08 0
 8 5 5 24.52 4.99 0
 8 5 6 58.41 7.23 0
 8 5 7 75.14 6.64 0
 8 6 -8 2.99 3.61 0
 8 6 -7 31.18 5.14 0
 8 6 -6 2.1 3.17 0
 8 6 -5 22.15 4.53 0
 8 6 -4 54.06 6.72 0
 8 6 -3 103.68 7.73 0
 8 6 -2 18.53 4.94 0
 8 6 -1 16.5 4.56 0
 8 6 2 13.69 4.65 0
 8 6 3 114.98 7.88 0
 8 7 -7 3.53 4.04 0
 8 7 -6 59.4 6.95 0
 8 7 -4 7.6 4.45 0
 8 7 -3 53.83 6.3 0
 8 7 -2 7.11 3.95 0
 8 7 1 6.57 3.86 0
 8 7 2 4.97 4.3 0
 8 8 -4 6.61 3.97 0
 8 8 -2 199.83 10.28 0
 8 8 1 86.79 7.94 0
 9 -5 -1 14 4.21 0
 9 -5 0 11.16 3.89 0
 9 -5 1 10.96 4.14 0
 9 -5 2 39.5 5.22 0
 9 -5 3 22.31 4.47 0
 9 -5 4 12.8 3.79 0
 9 -5 5 29.9 4.34 0
 9 -4 -3 20.62 5 0
 9 -4 -2 22.97 4.8 0
 9 -4 -1 1.73 3.34 0
 9 -4 0 71.86 6.37 0
 9 -4 1 3.13 3.23 0
 9 -4 2 11.18 4 0
 9 -4 3 22.49 4.24 0
 9 -4 5 -0.33 2.63 0
 9 -3 -4 0.97 3.73 0
 9 -3 -3 1.53 3.92 0
 9 -3 -2 18.05 4.37 0
 9 -3 -1 3.86 3.33 0
 9 -3 0 21.24 4.52 0
 9 -3 1 2.85 3.35 0
 9 -3 2 21.58 4.45 0
 9 -3 3 1.13 3.7 0
 9 -3 4 1.36 3.14 0
 9 -3 5 47.2 5.86 0
 9 -3 6 30.41 4.84 0
 9 -2 -5 7.15 4.03 0
 9 -2 -3 39.98 5.63 0
 9 -2 -2 18.08 4.9 0
 9 -2 -1 95.4 7.32 0
 9 -2 0 7.37 3.72 0
 9 -2 1 99.47 7.25 0
 9 -2 3 40.01 5.57 0
 9 -2 4 36.75 5.1 0
 9 -2 5 11.39 3.85 0
 9 -2 6 117.54 7.37 0
 9 -2 7 21.56 4.12 0
 9 -1 -4 14.47 4.96 0
 9 -1 -3 61.78 6.8 0
 9 -1 -2 168.12 9.08 0
 9 -1 -1 58.87 6.94 0
 9 -1 0 22.75 4.71 0
 9 -1 1 48.4 5.69 0
 9 -1 2 170.62 8.88 0
 9 -1 3 70.16 6.78 0
 9 -1 4 16.54 4.24 0
 9 -1 5 98.83 7.3 0
 9 -1 6 8.33 3.56 0
 9 -1 7 5.31 3.59 0
 9 0 -5 42.34 6.32 0
 9 0 -4 40.18 6.22 0
 9 0 -3 42.52 6.28 0
 9 0 -1 189.6 9.59 0
 9 0 0 0.1 3.36 0
 9 0 3 30.4 5.44 0
 9 0 4 46.71 5.72 0
 9 0 5 36 5.54 0
 9 0 6 18.7 4.26 0
 9 0 7 20.05 4.71 0
 9 1 -5 107.49 8.21 0
 9 1 -4 22.77 5.41 0
 9 1 -1 51.45 6.01 0
 9 1 0 26.44 5.44 0
 9 1 1 54.32 6.25 0
 9 1 2 176 9.15 0
 9 1 3 68.69 6.63 0
 9 1 4 21.78 5.03 0
 9 1 5 116.22 7.63 0
 9 1 6 8.17 4.32 0
 9 1 7 0.36 3.73 0
 9 2 -5 12.53 4.41 0
 9 2 -4 39.41 5.69 0
 9 2 -3 36.71 5.6 0
 9 2 -2 13.11 4.36 0
 9 2 -1 80.64 6.78 0
 9 2 0 14.27 5.13 0
 9 2 2 16.54 4.33 0
 9 2 3 48.51 6.06 0
 9 2 4 29.79 5.15 0
 9 2 5 14.8 4.69 0
 9 2 6 117.13 8.23 0
 9 3 -3 3.19 3.78 0
 9 3 -1 3.07 4.25 0
 9 3 0 22.76 4.95 0
 9 3 2 22.02 4.96 0
 9 3 3 4.8 3.98 0
 9 3 4 4.69 3.94 0
 9 4 -2 18.57 4.79 0
 9 4 -1 3.87 3.91 0
 9 4 1 2.77 3.55 0
 9 4 2 19.79 4.96 0
 9 4 3 20.34 5.42 0
 -5 14 -2 1.44 2.11 0
 -5 14 -1 95.12 5.38 0
 -4 13 -1 101.31 5.19 0
 -4 13 0 5.7 2.07 0
 -4 13 1 100.6 4.8 0
 -4 14 -6 106.26 6.46 0
 -4 14 -5 60.83 5.23 0
 -4 14 -4 145.83 7.03 0
 -4 14 -3 3.01 2.09 0
 -4 14 -2 64.61 4.78 0
 -4 14 -1 17.65 2.99 0
 -4 14 0 30.36 3.65 0
 -4 15 -3 101.09 5.98 0
 -4 15 -2 15.73 3.33 0
 -4 15 -1 89.82 5.38 0
 -3 5 -18 19.99 3.23 0
 -3 6 -18 32.54 3.77 0
 -3 7 -17 21.3 3.48 0
 -3 8 -16 2.94 2.31 0
 -3 9 -15 33.35 4.19 0
 -3 9 5 51.26 2.22 0
 -3 10 -14 11.33 3.32 0
 -3 10 5 74.13 2.81 0
 -3 11 -13 54.31 5.28 0
 -3 11 -12 13.88 3.42 0
 -3 11 2 54.22 3.08 0
 -3 11 3 12.32 1.78 0
 -3 11 4 15.08 1.83 0
 -3 12 -10 7.33 2.91 0
 -3 12 -9 24.18 3.76 0
 -3 12 -1 16.49 2.71 0
 -3 12 0 6.37 1.88 0
 -3 12 1 12.66 2.22 0
 -3 12 2 80.11 3.94 0
 -3 12 3 42.58 2.94 0
 -3 13 -9 130.89 6.89 0
 -3 13 -8 64.11 5.24 0
 -3 13 -7 12.04 3.06 0
 -3 13 -6 26.8 3.85 0
 -3 13 -4 43.84 4.3 0
 -3 13 -3 3.07 2.03 0
 -3 13 -2 79.01 4.74 0
 -3 13 -1 108.46 5.22 0
 -3 13 0 45.13 3.76 0
 -3 13 1 111.81 5 0
 -3 13 2 82.34 4.19 0
 -3 14 -8 3.06 2.73 0
 -3 14 -7 22.71 4.17 0
 -3 14 -6 45.6 4.86 0
 -3 14 -5 28.24 4.02 0
 -3 14 -4 12.35 2.92 0
 -3 14 -3 41.57 4.29 0
 -3 14 -2 120.77 6.02 0
 -3 14 -1 8.94 2.82 0
 -3 14 0 4.62 2.14 0
 -3 14 1 3.8 1.97 0
 -3 15 -5 7.65 3.17 0
 -3 15 -4 14.4 3.15 0
 -3 15 -3 26.49 3.78 0
 -3 15 -2 1.41 2.32 0
 -3 15 -1 26.85 3.43 0
 -3 16 -2 50.03 4.51 0
 -3 16 -1 16.13 3.21 0
 -2 3 6 196.46 2.02 0
 -2 4 6 260.61 2.09 0
 -2 5 -17 0.84 1.67 0
 -2 5 -16 26.26 3.4 0
 -2 5 6 22.08 0.67 0
 -2 6 -18 121.26 5.86 0
 -2 6 -16 84.29 5.08 0
 -2 7 -18 13.03 2.98 0
 -2 7 -17 63.15 4.64 0
 -2 7 -16 38.83 3.95 0
 -2 7 -15 66.42 4.81 0
 -2 7 5 34.09 1.45 0
 -2 7 6 37.42 1.24 0
 -2 8 -17 13.41 3.14 0
 -2 8 -16 132.94 6.55 0
 -2 8 -15 17.64 3.44 0
 -2 8 -14 5.79 2.42 0
 -2 8 4 166.09 3.62 0
 -2 8 5 123.25 2.85 0
 -2 8 6 173.33 2.9 0
 -2 9 -16 41.82 4.84 0
 -2 9 -15 48.66 4.44 0
 -2 9 -14 7.64 2.62 0
 -2 9 -13 14.28 2.98 0
 -2 9 -12 24.86 3.45 0
 -2 9 3 227.63 4.84 0
 -2 9 4 59.49 2.47 0
 -2 9 6 134.04 2.85 0
 -2 10 -15 18.25 3.76 0
 -2 10 -14 11.3 3.19 0
 -2 10 -13 9.73 2.93 0
 -2 10 -12 80.17 5.59 0
 -2 10 -10 27.59 3.45 0
 -2 10 1 51.6 2.98 0
 -2 10 5 -0.52 0.74 0
 -2 11 -14 9.58 3.13 0
 -2 11 -13 8.64 2.98 0
 -2 11 -12 77.18 5.77 0
 -2 11 -11 22.63 3.64 0
 -2 11 -10 35.47 4.02 0
 -2 11 -9 36.12 3.7 0
 -2 11 -8 238.45 8.03 0
 -2 11 -7 6.45 2.63 0
 -2 11 -6 70 4.44 0
 -2 11 -5 99.06 4.96 0
 -2 11 -4 19.07 2.81 0
 -2 11 -3 81.41 4.48 0
 -2 11 -2 44.67 3.54 0
 -2 11 -1 93.17 4.48 0
 -2 11 0 210.67 6.07 0
 -2 11 1 89.06 4 0
 -2 11 2 39.34 2.77 0
 -2 11 3 76.87 3.34 0
 -2 12 -12 37.71 4.93 0
 -2 12 -11 8.33 2.93 0
 -2 12 -10 37.51 4.57 0
 -2 12 -9 52.58 4.9 0
 -2 12 -8 20.55 3.63 0
 -2 12 -7 45.82 4.01 0
 -2 12 -6 96.79 5.38 0
 -2 12 -5 12.12 2.66 0
 -2 12 -4 47 3.82 0
 -2 12 -3 17.02 2.76 0
 -2 12 -2 170.65 6.35 0
 -2 12 -1 98.29 4.71 0
 -2 12 0 19.87 2.64 0
 -2 12 1 102.29 4.45 0
 -2 12 2 166.18 5.33 0
 -2 12 3 14.06 2.06 0
 -2 12 4 44.76 2.76 0
 -2 13 -11 72.75 5.93 0
 -2 13 -10 169.51 8.09 0
 -2 13 -9 19.43 3.63 0
 -2 13 -8 79.84 5.51 0
 -2 13 -7 97.9 6.09 0
 -2 13 -6 14.12 3.35 0
 -2 13 -5 55.25 4.64 0
 -2 13 -4 49.59 4.13 0
 -2 13 -3 68.32 4.78 0
 -2 13 -2 29.75 3.7 0
 -2 13 -1 2.93 1.9 0
 -2 13 0 56.58 3.77 0
 -2 13 1 1.01 1.56 0
 -2 13 2 24.03 2.85 0
 -2 13 3 61.29 3.44 0
 -2 14 -9 19.84 3.72 0
 -2 14 -8 54.37 5.35 0
 -2 14 -7 20.93 3.71 0
 -2 14 -6 7.38 2.75 0
 -2 14 -5 55.02 4.97 0
 -2 14 -4 25.91 3.69 0
 -2 14 -3 124.83 6.29 0
 -2 14 -2 87.77 5.23 0
 -2 14 -1 1.97 2.01 0
 -2 14 0 0.6 1.71 0
 -2 14 1 -0.46 1.72 0
 -2 14 2 85.1 4.44 0
 -2 15 -6 181.93 7.97 0
 -2 15 -5 59.41 5.02 0
 -2 15 -4 42.94 4.83 0
 -2 15 -3 47.47 4.67 0
 -2 15 -2 64.6 4.92 0
 -2 15 -1 46.52 4.27 0
 -2 15 0 101.23 5.4 0
 -2 15 1 48.82 3.95 0
 -2 16 -4 23.42 4.24 0
 -2 16 -2 0.59 2.24 0
 -2 16 -1 107.42 5.91 0
 -1 0 2 820.95 4.5 0
 -1 0 3 1293.44 5.72 0
 -1 1 3 9732.45 13 0
 -1 2 -15 11.46 1.64 0
 -1 3 -15 41.78 2.98 0
 -1 4 -16 205.63 6.38 0
 -1 4 -15 31.47 2.96 0
 -1 4 -14 358.95 7.87 0
 -1 4 4 65.15 1.23 0
 -1 5 -17 60.52 4 0
 -1 5 -16 74.52 4.45 0
 -1 5 -15 162.7 6.05 0
 -1 5 -14 29.47 3.18 0
 -1 5 4 181.89 2.48 0
 -1 5 5 85.31 1.38 0
 -1 6 -17 50.21 4.13 0
 -1 6 -16 126.87 5.84 0
 -1 6 -15 39.09 3.69 0
 -1 6 -14 104.69 5.07 0
 -1 6 -13 131.22 5.56 0
 -1 6 3 21.88 1.25 0
 -1 6 4 205.91 3.14 0
 -1 6 5 73.32 1.69 0
 -1 6 6 82.5 1.26 0
 -1 7 -18 32.93 3.96 0
 -1 7 -16 112.43 5.65 0
 -1 7 -15 92.96 5.35 0
 -1 7 -14 27.87 3.4 0
 -1 7 -13 43.23 3.77 0
 -1 7 -12 15.47 2.62 0
 -1 7 -11 11.92 2.26 0
 -1 7 2 42.59 1.94 0
 -1 7 3 0.05 0.72 0
 -1 7 4 810.45 6.96 0
 -1 7 5 502.14 4.94 0
 -1 7 6 36.72 1.24 0
 -1 8 -17 11.23 2.88 0
 -1 8 -16 79.85 5.48 0
 -1 8 -15 39.41 3.84 0
 -1 8 -14 16.76 2.96 0
 -1 8 -12 73.42 4.52 0
 -1 8 -11 23.89 3.09 0
 -1 8 -10 157.43 5.95 0
 -1 8 1 41.91 2.31 0
 -1 8 2 221.18 4.7 0
 -1 8 3 299.44 5.11 0
 -1 8 4 9.53 1.15 0
 -1 8 5 211.77 3.7 0
 -1 8 6 22.97 1.24 0
 -1 9 -16 9.55 2.98 0
 -1 9 -15 11.99 2.93 0
 -1 9 -14 37.23 3.91 0
 -1 9 -13 30.81 3.73 0
 -1 9 -12 16.96 3.16 0
 -1 9 -11 10.07 2.55 0
 -1 9 -10 7.56 2.63 0
 -1 9 -8 82.7 4.6 0
 -1 9 -7 23.99 2.64 0
 -1 9 -6 16.48 2.56 0
 -1 9 -5 210.76 6.16 0
 -1 9 -4 294.93 7.07 0
 -1 9 -3 484.09 8.7 0
 -1 9 -2 58.52 3.18 0
 -1 9 3 474.54 6.89 0
 -1 9 5 219.09 4.16 0
 -1 9 6 16.42 1.24 0
 -1 10 -15 12.23 3.21 0
 -1 10 -14 54.62 4.7 0
 -1 10 -13 57.26 5.02 0
 -1 10 -12 32.44 3.9 0
 -1 10 -11 161.3 7.07 0
 -1 10 -10 91.94 5.55 0
 -1 10 -9 77.1 4.95 0
 -1 10 -8 9.65 2.69 0
 -1 10 -7 5.04 1.88 0
 -1 10 -6 126.46 5.46 0
 -1 10 -4 133.13 5.21 0
 -1 10 -3 524.78 9.72 0
 -1 10 -2 269.84 6.87 0
 -1 10 -1 172.4 5.33 0
 -1 10 0 1.49 1.19 0
 -1 10 1 183.78 5.18 0
 -1 10 4 119.18 3.64 0
 -1 10 5 264.24 4.95 0
 -1 10 6 130.71 3.28 0
 -1 11 -14 87.01 6.23 0
 -1 11 -13 45.6 4.66 0
 -1 11 -12 5.25 2.69 0
 -1 11 -11 19.28 3.37 0
 -1 11 -10 143.23 6.69 0
 -1 11 -9 12.2 2.86 0
 -1 11 -8 40.39 4.2 0
 -1 11 -7 40.8 3.64 0
 -1 11 -6 85.4 4.78 0
 -1 11 -5 84.51 4.62 0
 -1 11 -3 28.14 2.87 0
 -1 11 -2 82.63 4.34 0
 -1 11 -1 6.29 1.82 0
 -1 11 0 0.64 1.29 0
 -1 11 1 4.82 1.66 0
 -1 11 2 77.56 3.64 0
 -1 11 3 25.68 2.24 0
 -1 12 -13 127.33 7.23 0
 -1 12 -12 78.91 5.61 0
 -1 12 -11 24.86 3.85 0
 -1 12 -10 28.47 3.98 0
 -1 12 -9 42.42 4.24 0
 -1 12 -8 39.63 4.59 0
 -1 12 -7 62.71 4.87 0
 -1 12 -6 6.7 2.44 0
 -1 12 -5 6.61 2.5 0
 -1 12 -4 48.62 3.84 0
 -1 12 -3 16.22 2.69 0
 -1 12 -2 45.98 3.54 0
 -1 12 -1 3.07 1.96 0
 -1 12 0 157.52 5.75 0
 -1 12 1 6.39 1.79 0
 -1 12 2 46.74 3.14 0
 -1 12 3 8.08 1.7 0
 -1 12 4 42.37 2.69 0
 -1 13 -11 11.38 3.55 0
 -1 13 -10 25.56 3.77 0
 -1 13 -9 74.53 5.44 0
 -1 13 -8 125.05 6.79 0
 -1 13 -7 19.48 3.71 0
 -1 13 -6 8.46 2.95 0
 -1 13 -5 148.31 6.57 0
 -1 13 -4 86.68 5.3 0
 -1 13 -3 27.59 3.56 0
 -1 13 -2 82.12 4.98 0
 -1 13 -1 132.84 5.64 0
 -1 13 0 25.56 2.99 0
 -1 13 1 131.32 5.38 0
 -1 13 2 82.17 4.21 0
 -1 13 3 27.49 2.71 0
 -1 13 4 84.97 3.89 0
 -1 14 -10 47.29 5.37 0
 -1 14 -9 69.9 5.57 0
 -1 14 -8 68.9 5.4 0
 -1 14 -7 10.85 3.1 0
 -1 14 -6 53.1 4.84 0
 -1 14 -5 8.62 2.8 0
 -1 14 -4 19.63 3.24 0
 -1 14 -3 121 6.23 0
 -1 14 -2 8.13 2.47 0
 -1 14 -1 39.04 3.96 0
 -1 14 0 0.39 1.94 0
 -1 14 1 38 3.56 0
 -1 14 2 8.97 2.25 0
 -1 14 3 114.59 4.88 0
 -1 15 -7 33.7 4.34 0
 -1 15 -6 96.19 6.07 0
 -1 15 -5 41.69 4.98 0
 -1 15 -3 5.9 2.48 0
 -1 15 -2 39.45 4.23 0
 -1 15 -1 72.17 4.92 0
 -1 15 0 4.77 2.29 0
 -1 15 1 65.84 4.3 0
 -1 16 -5 0.16 2.32 0
 -1 16 -4 0.8 2.39 0
 -1 16 -3 19.01 3.41 0
 -1 16 -2 10.02 2.85 0
 -1 16 -1 141.11 6.54 0
 -1 16 0 28.37 3.69 0
 0 -3 -4 1280.59 4.37 0
 0 -2 -11 167.17 2.17 0
 0 -2 -10 130.97 1.92 0
 0 -2 -9 15.95 0.71 0
 0 -2 -2 443.58 2.49 0
 0 -1 -12 2.12 0.51 0
 0 -1 -11 8.11 0.88 0
 0 -1 -10 15.23 0.99 0
 0 1 -12 2.48 1 0
 0 1 -11 7.98 1.14 0
 0 2 -10 121.74 3.45 0
 0 2 1 509.52 3.07 0
 0 3 -15 37.68 2.6 0
 0 3 -14 22.4 2.27 0
 0 3 -13 411.6 7.59 0
 0 3 -12 0.54 1.17 0
 0 3 0 -0.56 0.5 0
 0 3 1 1188.08 6.09 0
 0 3 2 650.94 4.15 0
 0 3 3 2696.14 7.71 0
 0 4 -16 5.12 1.48 0
 0 4 -15 -0.18 1.46 0
 0 4 -14 59.95 3.49 0
 0 4 -13 40.48 2.83 0
 0 4 -11 121.2 4.31 0
 0 4 0 354.12 4.25 0
 0 4 1 284.24 3.59 0
 0 4 2 678.23 5.17 0
 0 4 3 370.99 3.56 0
 0 4 4 708.69 4.57 0
 0 5 -16 17.2 2.62 0
 0 5 -15 20.39 2.61 0
 0 5 -13 415.31 8.8 0
 0 5 -12 114.7 4.78 0
 0 5 -11 681.81 10.45 0
 0 5 -10 47.61 2.94 0
 0 5 -3 193.22 4.11 0
 0 5 -2 521.96 6.38 0
 0 5 0 -0.31 0.64 0
 0 5 1 747.79 6.68 0
 0 5 2 522.61 5.26 0
 0 5 3 186.02 3.02 0
 0 5 4 82.25 1.92 0
 0 6 -17 5.5 1.94 0
 0 6 -16 4.41 2.04 0
 0 6 -15 12.51 2.62 0
 0 6 -14 88.61 4.66 0
 0 6 -13 19.55 2.73 0
 0 6 -12 142.85 5.39 0
 0 6 -11 19.32 2.45 0
 0 6 -10 131.94 5 0
 0 6 -9 1.06 1.26 0
 0 6 -8 127.33 4.47 0
 0 6 -4 86.88 3.25 0
 0 6 -2 67.71 2.63 0
 0 6 -1 1003.74 9.31 0
 0 6 0 8.18 1.16 0
 0 6 1 1009.65 8.63 0
 0 6 2 70.78 2.29 0
 0 6 4 91.28 2.28 0
 0 6 5 0.7 0.51 0
 0 7 -17 3.71 2.25 0
 0 7 -16 63.22 4.6 0
 0 7 -15 36.23 3.95 0
 0 7 -14 101.85 5.23 0
 0 7 -13 240.71 7.45 0
 0 7 -12 6.41 2.17 0
 0 7 -11 3.61 1.9 0
 0 7 -10 341.63 8.2 0
 0 7 -8 282.71 6.97 0
 0 7 -6 283.04 6.54 0
 0 7 -5 124.16 4.28 0
 0 7 -2 2.92 1.19 0
 0 7 -1 424.25 6.68 0
 0 7 0 0.39 0.93 0
 0 7 1 417.5 6.2 0
 0 7 2 5.04 1.03 0
 0 7 3 71 2.5 0
 0 7 4 95.13 2.72 0
 0 7 5 135.19 3 0
 0 8 -17 -2.21 1.78 0
 0 8 -16 22.96 3.42 0
 0 8 -15 52.42 4.58 0
 0 8 -14 29.79 3.85 0
 0 8 -13 5.27 2.29 0
 0 8 -12 5.99 2.25 0
 0 8 -11 63.59 4.37 0
 0 8 -10 15.86 2.7 0
 0 8 -9 0.82 1.48 0
 0 8 -8 113.52 4.93 0
 0 8 -7 20.8 2.34 0
 0 8 -5 517.75 9.06 0
 0 8 -4 173.69 5.22 0
 0 8 1 73.76 3.07 0
 0 8 3 446.14 6.43 0
 0 8 4 168.15 3.85 0
 0 8 5 536.53 6.46 0
 0 8 6 403.34 5.12 0
 0 9 -17 3.54 2.45 0
 0 9 -16 35.94 4.4 0
 0 9 -15 12.52 2.9 0
 0 9 -14 74.48 5.12 0
 0 9 -13 35.12 4.05 0
 0 9 -12 22.98 3.33 0
 0 9 -11 25.2 3.53 0
 0 9 -10 30.59 3.81 0
 0 9 -9 116.15 5.43 0
 0 9 -8 3.3 1.65 0
 0 9 -7 28.68 3.3 0
 0 9 -6 687.42 11.48 0
 0 9 -5 59.32 3.63 0
 0 9 -4 71.45 3.62 0
 0 9 -2 29 2.67 0
 0 9 3 234.69 5.09 0
 0 9 5 62.58 2.55 0
 0 9 6 656.22 7.17 0
 0 10 -16 17.82 3.8 0
 0 10 -15 40.97 5.03 0
 0 10 -14 20.67 3.48 0
 0 10 -13 73.26 5.18 0
 0 10 -11 2.42 2.33 0
 0 10 -10 8.86 2.51 0
 0 10 -8 2.19 1.76 0
 0 10 -7 33.09 3.23 0
 0 10 -6 364.11 8.88 0
 0 10 -5 -0.6 1.36 0
 0 10 -4 21.12 2.58 0
 0 10 -3 30.04 2.75 0
 0 10 -1 59.49 3.37 0
 0 10 0 269.79 6.57 0
 0 10 1 57.01 3.3 0
 0 10 5 0.38 1 0
 0 10 6 360.92 5.84 0
 0 11 -14 2.59 2.74 0
 0 11 -12 0.26 2.33 0
 0 11 -11 109.15 6.06 0
 0 11 -10 118.04 6.17 0
 0 11 -9 124.34 6.22 0
 0 11 -8 9.6 2.42 0
 0 11 -7 89.16 5.18 0
 0 11 -6 21.49 3 0
 0 11 -5 16.7 2.67 0
 0 11 -4 -0.3 1.35 0
 0 11 -3 11.24 2.19 0
 0 11 -2 141.08 5.4 0
 0 11 -1 76.03 4 0
 0 11 0 2.45 1.54 0
 0 11 1 75.04 3.77 0
 0 11 2 133.86 4.77 0
 0 11 3 9.71 1.67 0
 0 11 4 0.63 1.02 0
 0 11 6 21.08 1.88 0
 0 12 -13 107.04 6.92 0
 0 12 -12 1.89 2.54 0
 0 12 -11 8.76 2.98 0
 0 12 -10 -0.66 2.38 0
 0 12 -9 100.71 5.94 0
 0 12 -8 40.25 4.73 0
 0 12 -7 667.14 13.69 0
 0 12 -6 3.43 2.39 0
 0 12 -5 6.55 2.32 0
 0 12 -4 2.23 2.3 0
 0 12 -2 87.21 4.7 0
 0 12 -1 346.56 8.6 0
 0 12 0 3.08 1.76 0
 0 12 1 346.01 8.07 0
 0 12 2 79.96 3.95 0
 0 12 3 9.71 1.94 0
 0 12 4 -0.18 1.15 0
 0 12 5 5.49 1.51 0
 0 13 -12 132.06 7.56 0
 0 13 -10 126.62 6.98 0
 0 13 -9 250 9.41 0
 0 13 -8 18.53 3.57 0
 0 13 -7 9.01 2.84 0
 0 13 -6 8.63 2.65 0
 0 13 -5 101.64 5.94 0
 0 13 -4 -0.23 2.04 0
 0 13 -3 3.34 2.27 0
 0 13 -2 4.26 2.12 0
 0 13 -1 39.44 3.86 0
 0 13 0 1.24 1.75 0
 0 13 1 41.52 3.62 0
 0 13 2 2.55 1.61 0
 0 13 3 0.58 1.41 0
 0 13 4 4.06 1.79 0
 0 14 -10 12 3.63 0
 0 14 -9 0.8 2.58 0
 0 14 -8 112.55 6.64 0
 0 14 -7 11.61 3.18 0
 0 14 -5 52.54 4.96 0
 0 14 -4 106.97 6.18 0
 0 14 -3 60.74 4.92 0
 0 14 0 1.28 1.82 0
 0 14 1 88.17 4.98 0
 0 14 2 101.88 5.08 0
 0 14 3 60.21 4.01 0
 0 15 -7 0.24 2.77 0
 0 15 -6 95.13 6.05 0
 0 15 -5 8.66 3.17 0
 0 15 -4 67.18 5.4 0
 0 15 -3 50.38 4.77 0
 0 15 -2 147.74 6.86 0
 0 15 -1 0.17 2.24 0
 0 15 0 0.65 1.91 0
 0 15 1 3.93 2.36 0
 0 15 2 164.11 6.49 0
 0 16 -5 34.95 5.13 0
 0 16 -4 130.85 7.17 0
 0 16 -3 18.73 3.83 0
 0 16 -2 -0.26 2.11 0
 0 16 -1 -0.42 2.02 0
 0 16 0 13.73 2.86 0
 0 16 1 -1.37 1.92 0
 1 -1 -10 157.08 2.52 0
 1 -1 -9 102.19 1.97 0
 1 -1 -8 74.54 1.62 0
 1 -1 -7 163.87 2.19 0
 1 -1 -6 373.2 3.08 0
 1 -1 -5 2291.41 7.02 0
 1 0 -12 96.7 2.58 0
 1 0 -11 0.62 0.61 0
 1 0 -2 817.54 4.66 0
 1 1 -12 25.95 1.73 0
 1 1 -10 148.09 3.46 0
 1 1 -9 105.57 2.86 0
 1 1 -8 70.53 2.28 0
 1 1 -7 170.91 3.25 0
 1 1 -6 369.95 4.49 0
 1 1 -5 2298.38 10.45 0
 1 1 -4 624.6 5.17 0
 1 1 -3 9742.86 19.21 0
 1 1 -1 1034.05 5.92 0
 1 1 0 1621.56 7.22 0
 1 2 -10 655.07 7.92 0
 1 2 -9 104.37 3.22 0
 1 2 -8 95.89 2.93 0
 1 2 -7 343.69 5.08 0
 1 2 -6 929.98 7.94 0
 1 2 -5 122.25 2.83 0
 1 2 -4 1699.11 9.73 0
 1 2 -3 496.04 5.03 0
 1 2 -2 3941.48 13.39 0
 1 2 -1 3310.79 11.83 0
 1 2 1 3373.74 11.62 0
 1 3 -14 18.9 2.18 0
 1 3 -13 76.54 3.45 0
 1 3 -12 169.11 4.76 0
 1 3 -9 343.91 6.11 0
 1 3 -8 85.33 3.04 0
 1 3 -7 743.59 8.19 0
 1 3 -6 640.03 7.35 0
 1 3 -5 395.52 5.58 0
 1 3 -4 286.1 4.52 0
 1 3 -3 810.9 7.27 0
 1 3 -2 375.1 4.74 0
 1 3 -1 1075.83 7.66 0
 1 3 0 62.3 1.89 0
 1 3 1 1101.98 7.44 0
 1 3 2 378.22 4.32 0
 1 4 -15 30.86 2.6 0
 1 4 -14 370.02 7.91 0
 1 4 -13 153.34 5.05 0
 1 4 -12 111.8 4.26 0
 1 4 -11 9.6 1.73 0
 1 4 -7 390.69 6.57 0
 1 4 -6 552.69 7.47 0
 1 4 -5 110.47 3.29 0
 1 4 -4 71.39 2.62 0
 1 4 -3 221.89 4.27 0
 1 4 -2 1582.5 10.72 0
 1 4 -1 625.42 6.54 0
 1 4 0 725.05 6.82 0
 1 4 1 631.52 6.27 0
 1 4 2 1676.41 10.07 0
 1 4 3 215.69 3.57 0
 1 5 -16 81.5 4.31 0
 1 5 -15 169.52 5.95 0
 1 5 -14 33.15 3.05 0
 1 5 -13 19.1 2.59 0
 1 5 -12 111.72 4.54 0
 1 5 -11 440.32 8.55 0
 1 5 -10 21.66 2.29 0
 1 5 -9 267.88 6.3 0
 1 5 -5 83.71 3.28 0
 1 5 -4 191.66 4.53 0
 1 5 -3 1821.31 13.1 0
 1 5 -2 688.34 7.84 0
 1 5 0 397.04 5.61 0
 1 5 1 100.04 2.91 0
 1 5 2 701.61 7.06 0
 1 6 -17 53.68 3.89 0
 1 6 -16 124.38 5.66 0
 1 6 -15 31.78 3.14 0
 1 6 -12 31.55 2.96 0
 1 6 -11 13.2 2.34 0
 1 6 -10 12.31 2.28 0
 1 6 -9 161.14 5.34 0
 1 6 -8 417.33 8.06 0
 1 6 -7 89.56 3.76 0
 1 6 -3 21.7 1.88 0
 1 6 0 339.1 5.7 0
 1 6 1 524.35 6.79 0
 1 6 2 153.23 3.67 0
 1 6 3 22.87 1.69 0
 1 7 -17 26.11 3.33 0
 1 7 -15 95.34 5.24 0
 1 7 -14 25.12 3.17 0
 1 7 -13 44.57 3.88 0
 1 7 -12 11.25 2.56 0
 1 7 -11 13.28 2.61 0
 1 7 -10 19.36 2.69 0
 1 7 -9 59.15 3.73 0
 1 7 -8 91.8 4.24 0
 1 7 -6 38.35 2.78 0
 1 7 -1 163.66 4.49 0
 1 7 0 132.55 4.03 0
 1 7 2 39.57 2.31 0
 1 7 3 1.32 0.98 0
 1 7 4 838.93 8.82 0
 1 8 -17 6.74 2.44 0
 1 8 -16 77.45 5.11 0
 1 8 -15 46.26 4.33 0
 1 8 -14 10.68 2.52 0
 1 8 -13 31.27 3.75 0
 1 8 -12 65.92 4.45 0
 1 8 -11 20.39 3.21 0
 1 8 -10 167.51 6.4 0
 1 8 -8 47.18 3.53 0
 1 8 -7 43.22 3.34 0
 1 8 -6 19.97 2.49 0
 1 8 -5 209.89 6 0
 1 8 -4 9.85 1.67 0
 1 8 -3 282.49 6.59 0
 1 8 2 207.67 5.03 0
 1 8 4 8.43 1.45 0
 1 8 5 211.54 4.6 0
 1 9 -17 4.77 2.43 0
 1 9 -16 10.48 3.29 0
 1 9 -15 12.29 3.33 0
 1 9 -14 42.13 4.17 0
 1 9 -13 26.81 3.77 0
 1 9 -12 20.6 3.22 0
 1 9 -11 13.44 2.84 0
 1 9 -10 4.54 2.11 0
 1 9 -9 269.17 8.09 0
 1 9 -8 79.36 4.46 0
 1 9 -7 21.28 2.65 0
 1 9 -6 14.95 2.45 0
 1 9 -5 216.95 6.59 0
 1 9 -4 300.26 7.54 0
 1 9 -3 465.86 8.92 0
 1 9 -2 54.07 3.48 0
 1 9 0 915.57 11.58 0
 1 9 5 229.3 5.2 0
 1 10 -15 7.69 2.99 0
 1 10 -14 54.4 4.71 0
 1 10 -12 33.87 4.25 0
 1 10 -11 177.15 7.48 0
 1 10 -10 88.91 5.52 0
 1 10 -9 81.8 4.98 0
 1 10 -8 13.55 2.51 0
 1 10 -7 6.35 2.3 0
 1 10 -6 136.57 5.69 0
 1 10 -5 261.61 7.61 0
 1 10 -4 122.22 5.29 0
 1 10 -3 512.61 10.09 0
 1 10 -2 262.65 7.02 0
 1 10 -1 176.51 5.73 0
 1 10 0 0.98 1.34 0
 1 10 1 168.43 5.25 0
 1 10 2 271.43 6.5 0
 1 11 -13 43.91 4.67 0
 1 11 -12 0.79 2.28 0
 1 11 -11 21.48 3.55 0
 1 11 -10 143.57 6.86 0
 1 11 -9 10.07 2.65 0
 1 11 -8 32.56 3.64 0
 1 11 -5 83.06 5.01 0
 1 11 -4 114.55 5.44 0
 1 11 -3 28.04 3.48 0
 1 11 -2 79.97 4.36 0
 1 11 -1 5.53 1.83 0
 1 11 0 1.11 1.61 0
 1 11 1 3.7 1.8 0
 1 11 2 86.86 4.17 0
 1 11 3 27.27 2.91 0
 1 11 4 119.65 4.64 0
 1 11 5 81.96 3.71 0
 1 12 -13 119.25 6.88 0
 1 12 -11 31.1 4.31 0
 1 12 -10 23.89 4.07 0
 1 12 -9 45.76 4.27 0
 1 12 -8 44.3 4.45 0
 1 12 -7 61.17 4.61 0
 1 12 -6 11.98 2.69 0
 1 12 -4 49.64 4.36 0
 1 12 -3 13.97 2.71 0
 1 12 -2 45.3 3.84 0
 1 12 -1 8.41 2.24 0
 1 12 0 145.55 5.86 0
 1 12 1 6.66 2.17 0
 1 12 2 52.64 3.52 0
 1 12 4 50 3.48 0
 1 12 5 7.24 1.75 0
 1 13 -10 24.24 4.03 0
 1 13 -9 74.81 5.44 0
 1 13 -8 115.58 6.52 0
 1 13 -7 20.65 3.59 0
 1 13 -6 8.99 2.91 0
 1 13 -4 85.78 5.27 0
 1 13 -3 26.69 3.51 0
 1 13 -2 84.35 5.25 0
 1 13 -1 133.89 6.17 0
 1 13 0 22.36 3.03 0
 1 13 1 122.69 5.62 0
 1 13 2 82.82 4.73 0
 1 13 4 78.91 4.29 0
 1 13 5 141.9 5.18 0
 1 14 -10 43.6 5.07 0
 1 14 -9 73.96 5.99 0
 1 14 -8 82.92 5.99 0
 1 14 -7 11.67 3.53 0
 1 14 -6 54.52 5.17 0
 1 14 -5 12.92 3.39 0
 1 14 -4 21.51 3.57 0
 1 14 -3 128.56 6.66 0
 1 14 -2 8.62 2.61 0
 1 14 -1 44.37 4.27 0
 1 14 0 1.16 1.94 0
 1 14 2 9.43 2.48 0
 1 14 3 120.92 5.57 0
 1 15 -7 29.94 4.41 0
 1 15 -6 86.49 6.22 0
 1 15 -4 47.77 4.94 0
 1 15 -3 6.86 2.74 0
 1 15 -2 45.67 4.91 0
 1 15 0 0.73 2.57 0
 1 15 1 75.65 5.13 0
 1 15 2 44.76 4.2 0
 1 16 -4 3.22 2.82 0
 1 16 -3 20.53 3.85 0
 1 16 -2 10.19 3.15 0
 1 16 0 19.22 3.52 0
 2 0 -11 0.88 0.71 0
 2 0 -7 408.04 5.09 0
 2 0 -6 802.32 6.89 0
 2 0 -5 59.43 1.96 0
 2 1 -11 18.87 1.66 0
 2 1 -10 530.74 6.99 0
 2 1 -9 126.11 3.37 0
 2 1 -8 182.94 3.96 0
 2 1 -7 344.67 5.19 0
 2 1 -6 483.62 6.03 0
 2 1 -5 533.42 6.17 0
 2 1 -4 369.88 5.1 0
 2 1 -3 816.85 7.29 0
 2 2 -9 156.87 4.12 0
 2 2 -8 232.17 4.82 0
 2 2 -6 41.78 2.04 0
 2 2 -5 122.57 3.24 0
 2 2 -4 1051.3 9.15 0
 2 2 -1 609.72 6.6 0
 2 3 -14 40.62 2.68 0
 2 3 -13 245.55 6.01 0
 2 3 -12 368.61 7.19 0
 2 3 -8 10.13 1.57 0
 2 3 -7 639.41 8.21 0
 2 3 -6 199.95 4.54 0
 2 3 -5 329.86 5.63 0
 2 3 -4 1804.22 12.7 0
 2 3 -3 395.15 5.95 0
 2 3 -2 1204.24 10.12 0
 2 3 -1 1090.95 9.57 0
 2 3 0 28.2 1.73 0
 2 4 -14 150.45 5.3 0
 2 4 -13 0.91 1.49 0
 2 4 -11 13.62 2.2 0
 2 4 -10 96.79 3.97 0
 2 4 -5 390.1 6.53 0
 2 4 -4 1015.91 10.26 0
 2 4 -2 16.54 1.54 0
 2 4 -1 28.18 1.86 0
 2 4 1 28.12 2.04 0
 2 5 -15 102.41 4.75 0
 2 5 -14 143.54 5.51 0
 2 5 -13 26.95 2.85 0
 2 5 -12 31.47 3.12 0
 2 5 -10 310.46 7.23 0
 2 5 -8 285.1 6.61 0
 2 5 -3 300.06 5.89 0
 2 5 -2 306.53 5.89 0
 2 5 -1 458.22 7.02 0
 2 5 0 27.27 1.98 0
 2 5 1 476.64 7.05 0
 2 5 2 286.2 5.37 0
 2 6 -16 86.06 4.8 0
 2 6 -15 10.98 2.4 0
 2 6 -14 85.63 4.67 0
 2 6 -13 196.59 6.64 0
 2 6 -12 7.49 2.05 0
 2 6 -11 83.13 4.44 0
 2 6 -10 58.48 3.61 0
 2 6 -9 114.31 4.82 0
 2 6 -8 37.67 2.85 0
 2 6 -7 47.32 2.93 0
 2 6 -6 469.03 8.42 0
 2 6 -1 53.36 2.85 0
 2 7 -17 66.72 4.73 0
 2 7 -16 44.06 4.17 0
 2 7 -15 68.5 4.81 0
 2 7 -14 1.86 2.26 0
 2 7 -13 65.96 4.35 0
 2 7 -12 46.93 3.89 0
 2 7 -11 14.84 2.74 0
 2 7 -8 197.97 6.22 0
 2 7 -7 211.53 6.35 0
 2 7 -6 34.12 2.73 0
 2 7 -5 35.36 2.81 0
 2 7 -4 414.39 8.04 0
 2 7 2 155.43 4.65 0
 2 8 -16 139.76 6.73 0
 2 8 -15 19.2 3.52 0
 2 8 -14 8.76 2.88 0
 2 8 -13 33.86 3.93 0
 2 8 -12 26.73 3.53 0
 2 8 -11 94.01 5.04 0
 2 8 -9 113.34 5.25 0
 2 8 -8 124.81 5.52 0
 2 8 -6 165.59 5.8 0
 2 8 -5 122.42 4.92 0
 2 8 -3 131.51 4.8 0
 2 8 -1 490.88 8.84 0
 2 8 0 8.85 1.77 0
 2 9 -16 52.57 4.97 0
 2 9 -15 49.99 4.8 0
 2 9 -14 12.45 2.99 0
 2 9 -13 12.47 3.02 0
 2 9 -12 19.71 3.47 0
 2 9 -11 21.96 3.4 0
 2 9 -10 3.27 2.12 0
 2 9 -9 89.58 5.13 0
 2 9 -8 54.61 4.28 0
 2 9 -7 35.81 3.44 0
 2 9 -6 133.12 5.54 0
 2 9 -5 531.5 10.47 0
 2 9 -4 56.85 3.6 0
 2 9 -3 223.24 6.63 0
 2 9 -2 98.07 4.4 0
 2 9 -1 54.2 3.61 0
 2 9 0 187.69 5.89 0
 2 9 2 104.44 4.54 0
 2 9 3 239.31 6.23 0
 2 10 -15 15.84 3.62 0
 2 10 -14 13.44 3.19 0
 2 10 -13 9.93 3.17 0
 2 10 -12 91.93 5.98 0
 2 10 -11 187.81 7.75 0
 2 10 -10 31.06 3.66 0
 2 10 -9 81.99 5.4 0
 2 10 -8 3.23 2.35 0
 2 10 -7 15.77 2.93 0
 2 10 -6 256.12 7.93 0
 2 10 -5 -1.94 1.32 0
 2 10 -3 46.35 3.63 0
 2 10 -2 261.78 7.4 0
 2 10 -1 53.49 3.57 0
 2 10 0 0.78 1.48 0
 2 10 1 49.97 3.46 0
 2 10 2 273.14 7.29 0
 2 10 3 41.71 3.1 0
 2 10 4 32.77 2.87 0
 2 11 -14 3.42 2.67 0
 2 11 -13 6.67 3.38 0
 2 11 -12 83.73 6.08 0
 2 11 -11 31.97 4.12 0
 2 11 -10 38.64 4.78 0
 2 11 -9 36.01 3.84 0
 2 11 -8 252.59 8.63 0
 2 11 -7 4.68 2.2 0
 2 11 -6 69.22 4.96 0
 2 11 -4 22.2 3.08 0
 2 11 -3 75.71 4.85 0
 2 11 -2 40.49 3.65 0
 2 11 0 210.21 6.91 0
 2 11 1 87.57 4.7 0
 2 11 2 41.91 3.41 0
 2 11 3 86.01 4.43 0
 2 11 4 17.39 2.44 0
 2 12 -12 37.71 4.54 0
 2 12 -11 10.52 3.14 0
 2 12 -10 42.93 4.66 0
 2 12 -8 19.37 3.87 0
 2 12 -7 36.11 4.54 0
 2 12 -6 106.23 5.95 0
 2 12 -5 12.22 2.85 0
 2 12 -4 49.1 4.36 0
 2 12 -3 14.34 2.8 0
 2 12 -2 181.99 7.17 0
 2 12 -1 102.98 5.53 0
 2 12 0 17.45 2.84 0
 2 12 1 109.72 5.36 0
 2 12 3 17.97 2.68 0
 2 13 -11 63.15 5.47 0
 2 13 -10 181.52 8.63 0
 2 13 -9 30.13 4.4 0
 2 13 -8 80.1 5.68 0
 2 13 -7 94.41 6.31 0
 2 13 -6 18.04 3.5 0
 2 13 -1 1.77 2.09 0
 2 13 0 55.29 4.55 0
 2 13 1 0.58 1.94 0
 2 13 2 25.31 3.49 0
 2 13 3 68.81 4.42 0
 2 14 -9 22.64 4.23 0
 2 14 -8 57.91 5.38 0
 2 14 -7 25.43 4.11 0
 2 14 -6 10.75 3.25 0
 2 14 -5 49.8 5.26 0
 2 14 -4 23.33 3.97 0
 2 14 -3 115.19 6.63 0
 2 14 -2 91.51 5.83 0
 2 14 -1 0.44 2.11 0
 2 14 0 -1.58 2.07 0
 2 14 1 -2.13 1.81 0
 2 14 2 94.05 5.43 0
 2 14 3 105.25 5.54 0
 2 15 -6 173.02 8.44 0
 2 15 -5 64.01 5.87 0
 2 15 -4 49.9 5.78 0
 2 15 -3 38.85 4.65 0
 2 15 -2 69.72 5.73 0
 2 15 -1 54.54 5.1 0
 2 15 0 111.16 6.56 0
 2 15 1 41.82 4.38 0
 2 15 2 68.28 4.8 0
 2 16 -3 19.39 3.83 0
 2 16 -2 -0.44 2.93 0
 2 16 -1 125.69 7.24 0
 2 16 0 4.43 2.8 0
 2 16 1 124.87 6.75 0
 2 16 2 -2.09 1.83 0
 3 2 -8 179.88 4.81 0
 3 2 -7 22.34 1.94 0
 3 2 -6 131.16 4.01 0
 3 2 -5 519.46 7.58 0
 3 2 -4 657.71 8.38 0
 3 3 -13 35.97 2.88 0
 3 3 -12 11.69 1.99 0
 3 3 -11 278.16 6.74 0
 3 3 -10 51.59 3.24 0
 3 3 -5 188.44 5.02 0
 3 3 -4 63.64 3.01 0
 3 4 -14 26.69 2.74 0
 3 4 -13 82.34 4.33 0
 3 4 -12 38.23 3.03 0
 3 4 -11 98.23 4.41 0
 3 4 -10 145.95 5.31 0
 3 4 -9 36.85 2.83 0
 3 4 -8 235.46 6.23 0
 3 4 -1 991.67 11.08 0
 3 5 -15 49.79 3.8 0
 3 5 -14 7.8 2.35 0
 3 5 -13 76.47 4.4 0
 3 5 -12 134.65 5.49 0
 3 5 -10 1.95 1.65 0
 3 5 -9 162.64 5.61 0
 3 5 -8 223.78 6.35 0
 3 5 -7 8.75 2.03 0
 3 5 -6 14.61 2.08 0
 3 6 -15 125.29 5.93 0
 3 6 -14 120.85 5.74 0
 3 6 -13 87.42 5.11 0
 3 6 -12 75.61 4.8 0
 3 6 -11 36.48 3.64 0
 3 6 -10 249.89 7.37 0
 3 6 -9 116.68 5.22 0
 3 6 -8 47.63 3.62 0
 3 6 -7 148.15 5.43 0
 3 6 -6 450.14 9.08 0
 3 6 -5 289.74 7.19 0
 3 6 -4 329.78 7.62 0
 3 7 -16 11.02 2.86 0
 3 7 -15 50.55 4.54 0
 3 7 -13 41.54 4.08 0
 3 7 -12 36.32 4.05 0
 3 7 -11 21.77 3.13 0
 3 7 -10 101.71 5.2 0
 3 7 -9 135.02 5.73 0
 3 7 -7 17.58 2.59 0
 3 7 -6 57.19 3.72 0
 3 7 -5 39.75 3.13 0
 3 7 -4 18.84 2.56 0
 3 7 -3 102.25 4.52 0
 3 7 -2 208.66 6.26 0
 3 7 -1 345.4 7.85 0
 3 7 0 46.05 3.12 0
 3 7 1 327.15 7.41 0
 3 8 -16 4.46 2.37 0
 3 8 -15 85.4 5.66 0
 3 8 -14 78.39 5.66 0
 3 8 -13 67.34 5.2 0
 3 8 -11 60.8 4.86 0
 3 8 -10 34.91 3.57 0
 3 8 -9 33.47 3.84 0
 3 8 -8 83.92 4.94 0
 3 8 -7 8.3 2.23 0
 3 8 -6 199.65 6.88 0
 3 8 -5 86.29 4.76 0
 3 8 -4 272.02 7.6 0
 3 8 -3 36.34 3.47 0
 3 8 -2 238.19 7.15 0
 3 8 -1 297.08 7.7 0
 3 8 0 18.68 2.52 0
 3 8 1 298.12 7.41 0
 3 9 -15 28.36 4.15 0
 3 9 -14 25.78 4.26 0
 3 9 -13 128.75 6.91 0
 3 9 -12 138.85 7.04 0
 3 9 -11 18.35 3.7 0
 3 9 -10 19.38 3.22 0
 3 9 -8 19.3 3.13 0
 3 9 -7 44.55 3.88 0
 3 9 -6 109.48 5.62 0
 3 9 -4 343.48 8.98 0
 3 9 -3 43.15 3.71 0
 3 9 -2 39.37 3.36 0
 3 9 -1 20.38 2.95 0
 3 9 0 123.8 5.3 0
 3 10 -14 10.73 3.25 0
 3 10 -12 11.06 3.3 0
 3 10 -11 37.19 4.24 0
 3 10 -10 3.54 2.88 0
 3 10 -9 57.84 4.87 0
 3 10 -8 57.76 4.7 0
 3 10 -7 15.07 3.29 0
 3 10 -6 52.39 4.34 0
 3 10 -5 81.42 4.92 0
 3 10 -4 3.58 2.15 0
 3 10 -3 5.05 2.46 0
 3 10 -2 129.43 6.02 0
 3 10 -1 160.44 6.56 0
 3 10 0 1.74 1.81 0
 3 10 1 156.45 6.06 0
 3 10 2 119.91 5.44 0
 3 11 -13 57.55 5.65 0
 3 11 -12 9.01 3.34 0
 3 11 -11 28.27 4.26 0
 3 11 -10 14.85 3.56 0
 3 11 -9 368.72 11.03 0
 3 11 -8 72.46 5.16 0
 3 11 -7 53.68 4.97 0
 3 11 -6 76 5.13 0
 3 11 -5 54.29 4.55 0
 3 11 -4 13.04 2.9 0
 3 11 -3 12.99 2.84 0
 3 11 -2 60.3 4.47 0
 3 11 -1 537.1 11.8 0
 3 11 0 12.59 2.81 0
 3 11 1 525.32 11.31 0
 3 11 2 54.29 4.26 0
 3 12 -11 39.12 5.05 0
 3 12 -10 2.69 3 0
 3 12 -9 29.14 4.32 0
 3 12 -8 1.98 2.43 0
 3 12 -7 101.59 6.49 0
 3 12 -6 4.3 2.83 0
 3 12 -5 134.23 6.82 0
 3 12 -4 160.57 7.36 0
 3 12 -2 88.72 5.54 0
 3 12 -1 19.54 3.41 0
 3 12 0 11.53 2.83 0
 3 12 1 13.26 2.8 0
 3 12 2 87.83 5.02 0
 3 13 -10 25.24 4.79 0
 3 13 -9 120.04 7.52 0
 3 13 -8 75.56 6.38 0
 3 13 -6 29.99 4.51 0
 3 13 -5 115.36 6.73 0
 3 13 -4 39.59 4.64 0
 3 13 -3 -1.58 2.5 0
 3 13 -1 109.99 6.21 0
 3 13 0 41.45 4.42 0
 3 13 1 116.92 6.14 0
 3 14 -7 29.18 4.72 0
 3 14 -6 47.94 5.48 0
 3 14 -5 30.01 4.95 0
 3 14 -4 11.49 3.9 0
 3 14 -3 46.59 4.83 0
 3 14 -2 127.97 7.33 0
 3 14 -1 4.8 2.85 0
 3 14 0 4.01 3.04 0
 3 14 1 5.43 2.57 0
 3 15 -5 14.7 4.21 0
 3 15 -4 12.65 4 0
 3 15 -3 19.58 4.26 0
 3 15 -2 0.56 2.57 0
 3 15 -1 30.62 4.42 0
 3 15 0 48.02 5.01 0
 4 4 -12 44.33 3.53 0
 4 4 -10 9.53 2.11 0
 4 4 -9 47.2 3.54 0
 4 4 -7 25.08 2.93 0
 4 4 -6 55.24 3.68 0
 4 5 -14 26.59 3.19 0
 4 5 -13 22.73 3.37 0
 4 5 -12 34.64 3.69 0
 4 5 -11 118.06 5.58 0
 4 5 -10 9.92 2.34 0
 4 5 -9 136.16 5.65 0
 4 5 -8 52.72 3.7 0
 4 5 -7 26.13 3.06 0
 4 5 -6 2.08 1.84 0
 4 5 -5 4.9 1.74 0
 4 5 -4 242.86 6.87 0
 4 6 -15 -0.44 1.83 0
 4 6 -13 5.94 2.54 0
 4 6 -11 131.27 6.14 0
 4 6 -10 215.25 7.53 0
 4 6 -9 250.52 7.83 0
 4 6 -8 21.37 2.98 0
 4 6 -7 74.07 4.39 0
 4 6 -6 193.8 6.83 0
 4 6 -5 28.18 3.04 0
 4 6 -4 20.25 2.5 0
 4 7 -14 23.63 3.82 0
 4 7 -13 45.53 4.32 0
 4 7 -12 76.31 5.1 0
 4 7 -11 174.98 7.41 0
 4 7 -10 55.5 4.43 0
 4 7 -9 91.38 5.26 0
 4 7 -8 172.32 6.85 0
 4 7 -7 423.21 10.36 0
 4 7 -6 47.5 3.78 0
 4 7 -5 293.4 8.4 0
 4 7 -4 148.47 6.19 0
 4 7 -3 368.9 9.03 0
 4 7 -2 144.31 5.73 0
 4 8 -15 12.56 2.98 0
 4 8 -13 18.4 3.47 0
 4 8 -12 193.19 8.19 0
 4 8 -11 28.95 4.16 0
 4 8 -10 84.43 5.61 0
 4 8 -8 4.4 2.39 0
 4 8 -7 139.01 6.6 0
 4 8 -6 42.69 3.73 0
 4 8 -4 17.33 2.99 0
 4 8 -3 21.17 2.81 0
 4 8 -2 83.33 4.68 0
 4 9 -14 27.66 4.19 0
 4 9 -10 129.74 6.84 0
 4 9 -9 9.96 2.92 0
 4 9 -7 64.72 4.92 0
 4 9 -6 8.56 2.57 0
 4 9 -4 127.08 6.14 0
 4 9 -3 14.27 3.04 0
 4 9 -1 8.01 2.49 0
 4 10 -13 3.62 2.92 0
 4 10 -12 168.9 8.15 0
 4 10 -10 35.11 4.68 0
 4 10 -9 16.32 3.67 0
 4 10 -8 115.78 6.58 0
 4 10 -7 68.28 5.44 0
 4 10 -6 149.31 7.16 0
 4 10 -5 46.49 4.47 0
 4 10 -4 86.85 5.41 0
 4 10 -3 60.54 5.01 0
 4 10 -1 10.05 2.62 0
 4 11 -12 58.89 6.12 0
 4 11 -11 13 3.89 0
 4 11 -10 26.65 4.45 0
 4 11 -9 -0.28 2.49 0
 4 11 -8 185.98 8.64 0
 4 11 -7 50.5 5.48 0
 4 11 -6 76.44 5.77 0
 4 11 -5 1.1 2.63 0
 4 11 -4 144.35 7.01 0
 4 11 -3 22.15 3.95 0
 4 11 -2 15.35 3.07 0
 4 11 -1 110.87 6.12 0
 4 12 -10 51.66 5.47 0
 4 12 -9 19.67 4.12 0
 4 12 -7 107.14 7.11 0
 4 12 -6 157.79 7.98 0
 4 12 -5 8.84 3.22 0
 4 12 -4 14.65 3.33 0
 4 12 -3 27.25 3.98 0
 4 12 -2 114.63 6.62 0
 4 12 -1 2.65 2.88 0
 4 13 -8 4.89 3.11 0
 4 13 -7 -2.51 2.76 0
 4 13 -6 50.06 5.52 0
 4 13 -4 29.57 4.7 0
 4 13 -3 19.49 3.76 0
 4 13 -2 37.76 4.89 0
 4 14 -5 64.51 6.03 0
 4 14 -4 147.65 7.98 0
 4 14 -3 3.38 2.76 0
 4 14 -2 73.81 6.17 0
 5 8 -9 43.28 4.48 0
 5 9 -11 68.05 5.74 0
 5 9 -10 -0.39 2.58 0
 5 9 -9 225.13 9.08 0
 5 9 -8 2.57 2.71 0
 5 9 -7 26.54 3.91 0
 5 10 -11 100.73 6.94 0
 5 10 -10 114.42 6.97 0
 5 10 -9 9.87 3.19 0
 5 10 -8 2.42 2.71 0
 5 10 -7 -0.9 3.04 0
 5 11 -10 55.84 6.08 0
 5 11 -9 130.33 7.48 0
 5 11 -8 15.42 3.82 0
 5 11 -7 5.68 3.43 0
 5 12 -8 125.36 7.85 0
 5 12 -7 31.23 4.59 0
 0 -1 3 13.01 0.68 0
 0 0 2 66.69 1.25 0
 0 1 1 737.33 3.54 0
 0 1 2 609.94 4.03 0
 0 2 1 527.44 3.62 0
 0 3 -1 1220.11 4.38 0
 0 3 0 0.61 0.46 0
 0 4 -1 288.28 2.63 0
 0 5 -2 527.61 3.31 0
 0 7 -3 70.14 1.22 0
 0 8 -3 449.35 3.31 0
 1 -5 -5 84.44 3.05 0
 1 -5 -4 182.41 4.22 0
 1 -5 -3 1873.86 12.02 0
 1 -5 -2 694.65 6.82 0
 1 -5 -1 100.34 2.47 0
 1 -5 0 392.91 4.28 0
 1 -5 1 99.74 1.98 0
 1 -4 -6 553.9 7.61 0
 1 -4 -4 67.74 2.61 0
 1 -4 -2 1651.6 9.79 0
 1 -4 -1 620.54 5.54 0
 1 -4 0 704.22 5.26 0
 1 -4 1 608.29 4.23 0
 1 -4 2 1618.96 5.71 0
 1 -4 6 574.53 2.91 0
 1 -4 7 388.28 3 0
 1 -3 -7 720.2 8.8 0
 1 -3 -6 624.38 7.72 0
 1 -3 -5 392.53 5.79 0
 1 -3 -3 794.97 6.94 0
 1 -3 -2 377.73 4.51 0
 1 -3 -1 1110.32 6.81 0
 1 -3 0 63.05 1.6 0
 1 -3 2 366.88 2.68 0
 1 -2 -7 344.78 5.92 0
 1 -2 -6 908.78 8.74 0
 1 -2 -5 126.39 3.28 0
 1 -2 -4 1745.65 10.51 0
 1 -2 -3 493.24 5.25 0
 1 -2 -2 3928.08 13.19 0
 1 -2 -1 3309.39 10.77 0
 1 -2 0 150.56 2.22 0
 1 -1 -8 75.92 2.93 0
 1 -1 -7 169.33 3.93 0
 1 -1 -6 384.31 5.44 0
 1 -1 -5 2299.13 12.21 0
 1 -1 -4 635.26 6.03 0
 1 -1 -3 9733.74 21.26 0
 1 -1 -2 196.62 2.87 0
 1 -1 -1 1014.54 5.76 0
 1 0 -9 312.23 5.73 0
 1 0 -8 223.99 4.57 0
 1 0 -7 455.58 6.04 0
 1 0 -6 38.52 1.9 0
 1 0 -5 1559.98 9.49 0
 1 0 -4 450.66 4.81 0
 1 0 -3 1264.5 7.19 0
 1 0 -2 820.31 5.37 0
 1 1 -9 101.34 3.22 0
 1 1 -8 73.09 2.59 0
 1 1 -7 158.54 3.43 0
 1 1 -6 389.55 4.9 0
 1 1 -5 2301.23 10.8 0
 1 1 -4 628.47 5.24 0
 1 1 -3 9646.15 18.94 0
 1 2 -9 108.13 3.12 0
 1 2 -8 95.73 2.68 0
 1 2 -7 350.66 4.64 0
 1 2 -6 927.94 6.96 0
 1 2 -5 126.2 2.52 0
 1 2 -4 1706.85 8.09 0
 1 3 -9 353.47 4.99 0
 1 3 -8 84.03 2.39 0
 1 3 -7 717.18 6.08 0
 1 4 -5 110.48 2.01 0
 1 5 -8 317.66 3.46 0
 1 5 -7 521.7 4.17 0
 1 5 -6 51.89 1.31 0
 1 5 -5 87.31 1.71 0
 1 6 -7 86.89 1.33 0
 1 6 -6 84.01 1.39 0
 1 6 -5 72.25 1.45 0
 1 7 -5 514 3.35 0
 2 -8 -1 466.21 6.53 0
 2 -7 -6 36.25 2.78 0
 2 -7 -5 37.47 2.85 0
 2 -7 -3 46.79 2.7 0
 2 -7 -1 358.02 5.63 0
 2 -7 0 489.01 6.01 0
 2 -7 1 364.1 4.79 0
 2 -7 2 162.75 2.95 0
 2 -7 3 46.62 1.44 0
 2 -6 -8 36.17 2.92 0
 2 -6 -7 50.43 3.11 0
 2 -6 -6 459.16 8.01 0
 2 -6 -3 643.68 8.11 0
 2 -6 -2 291.52 5.22 0
 2 -6 -1 50.39 2.27 0
 2 -6 0 370.25 5.06 0
 2 -6 1 49.67 1.82 0
 2 -6 2 285.73 3.72 0
 2 -6 3 654.02 4.99 0
 2 -6 4 26.49 0.96 0
 2 -5 -9 33.81 3.19 0
 2 -5 -8 276.15 6.62 0
 2 -5 -3 293.64 5.32 0
 2 -5 -2 293.72 5.05 0
 2 -5 0 32.14 1.62 0
 2 -5 1 451.48 5 0
 2 -5 2 298.05 3.81 0
 2 -5 3 306.09 3.54 0
 2 -5 4 124.06 2.15 0
 2 -5 5 333.62 3.22 0
 2 -4 -10 97.06 4.54 0
 2 -4 -9 -1.48 1.7 0
 2 -4 -8 218.32 5.88 0
 2 -4 -5 401.72 6.6 0
 2 -4 -4 1032.21 9.93 0
 2 -4 -3 712.41 7.88 0
 2 -4 -2 15.85 1.42 0
 2 -4 -1 26.91 1.69 0
 2 -4 0 146.82 3.12 0
 2 -4 1 25.19 1.44 0
 2 -4 2 17.62 1.12 0
 2 -3 -11 163.22 5.55 0
 2 -3 -10 84.18 3.97 0
 2 -3 -9 93.94 4.18 0
 2 -3 -6 188.67 4.64 0
 2 -3 -4 1766.86 12.45 0
 2 -3 -3 404.88 5.75 0
 2 -3 -2 1211.97 9.27 0
 2 -3 -1 1038.83 8.16 0
 2 -3 0 28.16 1.55 0
 2 -2 -11 76.29 3.84 0
 2 -2 -10 321.14 7.07 0
 2 -2 -9 144.61 4.6 0
 2 -2 -6 37.95 2.26 0
 2 -2 -5 122.53 3.45 0
 2 -2 -3 288.06 4.65 0
 2 -2 -2 1815.9 11.08 0
 2 -1 -12 119.99 4.78 0
 2 -1 -11 24.14 2.94 0
 2 -1 -10 514.26 8.54 0
 2 -1 -7 335.26 5.99 0
 2 -1 -6 474.38 6.81 0
 2 -1 -4 356.98 5.35 0
 2 -1 -3 823.86 7.75 0
 2 -1 -2 3169.47 14.05 0
 2 0 -12 239.18 6.34 0
 2 0 -11 1.64 1.54 0
 2 0 -8 2.18 1.19 0
 2 0 -7 427.81 6.54 0
 2 0 -6 797.61 8.41 0
 2 0 -5 59.12 2.34 0
 2 0 -3 1556.14 10.09 0
 2 1 -12 112.15 4.27 0
 2 1 -11 21.1 2.45 0
 2 1 -8 179.17 4.4 0
 2 1 -6 482.01 6.37 0
 2 1 -5 535.98 6.39 0
 2 1 -4 367.01 5.2 0
 2 2 -9 145.98 4.01 0
 2 2 -8 232.47 4.74 0
 2 2 -7 74.51 2.75 0
 2 2 -6 37.56 1.96 0
 2 2 -5 126.34 3.15 0
 2 3 -10 79.43 3.12 0
 2 3 -9 94.08 3.13 0
 2 3 -8 10.53 1.45 0
 2 3 -7 642.77 7.08 0
 2 3 -6 197.56 3.92 0
 2 3 -5 329.75 4.84 0
 2 4 -11 12.77 1.61 0
 2 4 -10 97.86 3.1 0
 2 4 -9 0.73 0.84 0
 2 4 -8 214.26 4.18 0
 2 4 -7 108.47 2.9 0
 2 4 -6 267.33 4.41 0
 2 4 -5 389.15 5.11 0
 2 5 -6 22.22 1.45 0
 2 6 -9 114.74 2.68 0
 2 6 -8 36.39 1.62 0
 2 7 -7 217.15 3.43 0
 2 7 -6 38.38 1.66 0
 3 -9 -5 46.18 3.23 0
 3 -9 -2 36.46 2.71 0
 3 -9 1 24.37 1.9 0
 3 -9 2 37.07 1.91 0
 3 -8 -8 91.76 4.91 0
 3 -8 -7 6.73 2.46 0
 3 -8 -6 206.27 6.35 0
 3 -8 -5 87.53 4.07 0
 3 -8 -4 278.91 6.62 0
 3 -8 -3 41.1 2.87 0
 3 -8 0 20.52 1.86 0
 3 -8 1 294.67 5.15 0
 3 -8 2 235.18 4.27 0
 3 -8 3 34.66 1.69 0
 3 -8 4 286.34 3.75 0
 3 -7 -10 95.52 5.07 0
 3 -7 -9 128.25 5.51 0
 3 -7 -8 28.62 3.37 0
 3 -7 -6 55.26 3.44 0
 3 -7 -5 37.29 2.76 0
 3 -7 -1 325.83 6.04 0
 3 -7 1 342.54 5.45 0
 3 -7 2 212.48 4.12 0
 3 -7 3 106.92 2.77 0
 3 -7 4 17.3 1.25 0
 3 -7 5 41.47 1.51 0
 3 -7 6 50.77 1.36 0
 3 -6 -11 38.58 4.05 0
 3 -6 -10 238.89 7.29 0
 3 -6 -7 139.28 5.11 0
 3 -6 -5 277.78 6.42 0
 3 -6 -2 708.31 8.91 0
 3 -6 0 60.87 2.63 0
 3 -6 1 288.43 5.05 0
 3 -6 2 772.15 7.67 0
 3 -6 3 258.66 4.3 0
 3 -6 4 342.81 4.64 0
 3 -6 5 285.3 4.03 0
 3 -6 6 443.06 4.78 0
 3 -6 7 146.24 2.67 0
 3 -6 8 50.57 1.53 0
 3 -5 -12 127.88 5.98 0
 3 -5 -11 39.84 3.61 0
 3 -5 -10 3.43 2.18 0
 3 -5 -9 172.38 5.95 0
 3 -5 -8 221.12 6.36 0
 3 -5 -7 9.87 2.04 0
 3 -5 -6 14.23 2.1 0
 3 -5 -2 81.48 3.1 0
 3 -5 -1 8.96 1.49 0
 3 -5 0 811.59 8.6 0
 3 -5 1 8.76 1.44 0
 3 -5 2 80.63 2.75 0
 3 -5 4 186.41 3.65 0
 3 -4 -12 39.61 4.2 0
 3 -4 -11 96.48 5.04 0
 3 -4 -10 150.95 5.59 0
 3 -4 -9 36.18 3 0
 3 -4 -8 241.62 6.48 0
 3 -4 -7 617.36 9.79 0
 3 -4 -6 38.29 2.74 0
 3 -4 -3 57.95 2.76 0
 3 -4 -2 133.08 3.82 0
 3 -4 -1 993.83 9.74 0
 3 -4 0 35.86 2.1 0
 3 -3 -12 16.9 2.89 0
 3 -3 -11 272.61 7.42 0
 3 -3 -10 53.1 3.7 0
 3 -3 -9 50.21 3.26 0
 3 -3 -8 128.69 4.69 0
 3 -3 -4 62.74 2.93 0
 3 -3 -3 788.3 9.11 0
 3 -3 -2 91.35 3.15 0
 3 -3 0 1003.03 9.24 0
 3 -2 -13 100.59 5.02 0
 3 -2 -12 75.67 4.68 0
 3 -2 -11 183.3 6.15 0
 3 -2 -10 62.05 3.64 0
 3 -2 -9 120.2 4.57 0
 3 -2 -8 169.35 5.13 0
 3 -2 -4 690.93 8.72 0
 3 -2 -2 604.99 7.71 0
 3 -1 -14 64.3 4.52 0
 3 -1 -13 15.1 2.99 0
 3 -1 -11 148.75 5.4 0
 3 -1 -10 88.95 4.25 0
 3 -1 -9 12.5 2.05 0
 3 -1 -8 252.64 6.06 0
 3 -1 -5 433.46 7.11 0
 3 -1 -4 46.55 2.48 0
 3 -1 -3 18.04 1.79 0
 3 0 -13 36.75 3.61 0
 3 0 -12 152.36 5.52 0
 3 0 -11 99.3 4.33 0
 3 0 -9 26.6 2.29 0
 3 0 -4 0.12 1.15 0
 3 1 -14 60.63 3.96 0
 3 1 -13 16.98 2.55 0
 3 1 -12 83.6 4.15 0
 3 1 -11 165.12 5.31 0
 3 1 -10 87.14 3.8 0
 3 1 -9 14.95 2.12 0
 3 1 -6 623.89 8.44 0
 3 1 -5 427.86 6.93 0
 3 2 -14 9.7 2.17 0
 3 2 -13 101.16 4.52 0
 3 2 -12 88.4 4.12 0
 3 2 -11 195.99 5.54 0
 3 2 -10 57.32 3.22 0
 3 2 -7 19.68 2.07 0
 3 2 -5 509.09 7.37 0
 3 3 -14 18.89 2.49 0
 3 3 -13 36.31 2.99 0
 3 3 -12 17.25 2.39 0
 3 3 -11 267.34 6.05 0
 3 3 -10 51.31 2.96 0
 3 3 -7 736.3 8.99 0
 3 3 -6 450.01 7.02 0
 3 4 -13 85.48 3.7 0
 3 4 -12 38.97 2.58 0
 3 4 -11 92.94 3.57 0
 3 4 -7 591.65 7.99 0
 3 4 -6 34.87 2.12 0
 3 5 -11 33.31 2.32 0
 3 5 -6 14.72 1.54 0
 3 6 -8 49.96 2.41 0
 3 6 -7 146.37 3.95 0
 3 6 -6 428.91 6.47 0
 3 7 -7 20.45 1.69 0
 4 -10 -6 157.27 6.07 0
 4 -10 -4 100.14 4.84 0
 4 -10 -3 57.63 3.81 0
 4 -10 -2 171.22 5.44 0
 4 -10 -1 10.55 2 0
 4 -10 0 0.28 1.25 0
 4 -10 1 5.35 1.42 0
 4 -9 -9 4.54 2.59 0
 4 -9 -8 220.8 7.48 0
 4 -9 -7 66.6 4.52 0
 4 -9 -6 9.93 2.71 0
 4 -9 -5 9.35 2.31 0
 4 -9 -4 124.98 5.13 0
 4 -9 -3 12.5 2.18 0
 4 -9 -2 5.41 1.96 0
 4 -9 -1 6.51 1.82 0
 4 -9 0 1.37 1.46 0
 4 -9 3 11.53 1.35 0
 4 -8 -8 4.88 2.23 0
 4 -8 -7 133.79 5.66 0
 4 -8 -6 42.78 3.53 0
 4 -8 -5 76.77 4.29 0
 4 -8 -4 20.58 2.57 0
 4 -8 -3 16.81 2.27 0
 4 -8 -2 75.75 3.61 0
 4 -8 -1 26.77 2.61 0
 4 -8 3 16.8 1.7 0
 4 -8 4 20.47 1.65 0
 4 -8 5 70.73 2.38 0
 4 -7 -11 171.5 7.44 0
 4 -7 -10 59.88 4.5 0
 4 -7 -9 99.15 5.52 0
 4 -7 -8 161.81 6.29 0
 4 -7 -7 394.63 9.12 0
 4 -7 -6 46.62 3.71 0
 4 -7 -4 139.93 5.16 0
 4 -7 -3 372.09 7.7 0
 4 -7 -2 141.01 4.76 0
 4 -7 2 137.27 3.95 0
 4 -7 4 145.68 3.73 0
 4 -7 5 277.6 4.79 0
 4 -7 6 49.23 2.11 0
 4 -6 -12 158.38 7.28 0
 4 -6 -10 210.31 7.36 0
 4 -6 -9 240.12 7.55 0
 4 -6 -7 74.75 4.45 0
 4 -6 -6 203.82 6.33 0
 4 -6 -5 34.14 2.82 0
 4 -6 -4 19.17 2.42 0
 4 -6 -3 27.04 2.75 0
 4 -6 -2 382.2 7.49 0
 4 -6 2 396.99 6.69 0
 4 -6 3 31.65 2.08 0
 4 -6 4 21.63 1.99 0
 4 -6 5 34.18 2.12 0
 4 -6 6 209.1 4.38 0
 4 -6 7 72.89 2.6 0
 4 -5 -13 28.88 4.01 0
 4 -5 -12 25.43 3.59 0
 4 -5 -11 112.25 5.55 0
 4 -5 -9 127.3 5.58 0
 4 -5 -7 26.05 3.01 0
 4 -5 -6 -0.17 1.67 0
 4 -5 -5 2.86 1.6 0
 4 -5 -4 248.79 6.34 0
 4 -5 -3 26.85 2.48 0
 4 -5 2 157 4.32 0
 4 -5 3 31.18 2.28 0
 4 -4 -13 53.15 4.95 0
 4 -4 -12 40.33 4.46 0
 4 -4 -11 20.05 3.13 0
 4 -4 -10 13.4 2.75 0
 4 -4 -9 50.89 3.99 0
 4 -4 -8 159.87 5.71 0
 4 -4 -7 26.37 2.82 0
 4 -4 -5 634.31 10.17 0
 4 -4 -4 288.24 6.67 0
 4 -3 -14 63.85 4.84 0
 4 -3 -13 42.04 4.57 0
 4 -3 -11 122.44 5.7 0
 4 -3 -9 71.79 4.42 0
 4 -3 -8 -0.18 1.47 0
 4 -3 -6 80.61 3.86 0
 4 -3 -5 445.5 8.33 0
 4 -3 -4 59.96 3.23 0
 4 -2 -15 53.34 4.44 0
 4 -2 -14 232.31 8.12 0
 4 -2 -13 123.89 6.04 0
 4 -2 -12 187.85 6.75 0
 4 -2 -11 39.86 3.82 0
 4 -2 -10 278 7.7 0
 4 -2 -9 60.36 3.93 0
 4 -2 -8 80.74 4.29 0
 4 -2 -6 127.87 4.72 0
 4 -1 -15 9.34 2.79 0
 4 -1 -14 70.02 4.64 0
 4 -1 -12 103.22 5.22 0
 4 -1 -11 5.5 2.1 0
 4 -1 -10 44.87 3.44 0
 4 -1 -9 171.04 5.74 0
 4 -1 -8 132.75 5.08 0
 4 -1 -7 133.42 4.84 0
 4 -1 -5 328.14 7.16 0
 4 0 -15 324.58 8.88 0
 4 0 -14 117.89 5.55 0
 4 0 -13 -0.42 1.86 0
 4 0 -12 1.71 2.11 0
 4 0 -11 33.45 3.48 0
 4 0 -9 1.19 1.64 0
 4 0 -8 14.05 2.3 0
 4 0 -7 155.11 5.17 0
 4 0 -6 42.22 3.13 0
 4 1 -15 1.5 2.62 0
 4 1 -14 75.74 4.68 0
 4 1 -12 94.39 4.77 0
 4 1 -11 5.47 1.85 0
 4 1 -10 47.41 3.32 0
 4 1 -9 178.75 5.61 0
 4 1 -8 132.5 4.81 0
 4 1 -7 136.64 4.77 0
 4 2 -15 50.2 4.16 0
 4 2 -14 229.85 7.03 0
 4 2 -13 113.44 5.03 0
 4 2 -11 37.28 3.34 0
 4 2 -10 277.68 7.04 0
 4 2 -9 68.38 3.65 0
 4 2 -8 79.46 3.84 0
 4 2 -7 182.89 5.41 0
 4 3 -15 85.39 4.45 0
 4 3 -14 64.93 3.94 0
 4 3 -13 42.63 3.22 0
 4 3 -12 35.66 3.11 0
 4 3 -11 128.25 4.97 0
 4 3 -10 91.82 4.08 0
 4 3 -9 71.19 3.75 0
 4 3 -8 0.83 1.41 0
 4 3 -7 9.81 1.83 0
 4 3 -6 72.94 3.56 0
 4 4 -13 58.26 3.54 0
 4 4 -12 43.42 3.2 0
 4 4 -11 19.09 2.33 0
 4 4 -10 9.97 2.02 0
 4 4 -9 46.42 3.13 0
 4 4 -8 152.35 4.92 0
 4 5 -12 33.4 2.58 0
 4 5 -11 126.13 4.52 0
 4 5 -10 7.98 1.68 0
 4 5 -9 128.39 4.51 0
 4 5 -8 50.26 2.94 0
 4 5 -7 22.59 2.45 0
 4 6 -10 213.6 5.45 0
 4 6 -9 227.96 5.64 0
 4 6 -8 19.85 2.42 0
 4 6 -7 75.25 3.56 0
 4 7 -8 158.28 4.7 0
 4 7 -7 395.99 7.31 0
 4 8 -7 129.53 4.18 0
 5 -11 -6 12.45 2.86 0
 5 -11 -5 321.31 8.87 0
 5 -11 -4 41.9 4.02 0
 5 -11 -3 23.46 3.16 0
 5 -11 -2 6.86 2.07 0
 5 -11 -1 26.89 3.09 0
 5 -10 -8 3.6 2.95 0
 5 -10 -7 2.74 2.77 0
 5 -10 -6 17.92 3.17 0
 5 -10 -5 34.06 4.25 0
 5 -10 -4 76.15 4.5 0
 5 -10 -3 142.47 5.64 0
 5 -10 -2 31.89 3.12 0
 5 -10 -1 32.18 2.92 0
 5 -10 0 3.45 1.65 0
 5 -10 1 32.4 2.63 0
 5 -9 -10 4.95 3.25 0
 5 -9 -9 238.37 8.77 0
 5 -9 -8 2.63 2.59 0
 5 -9 -7 26.39 3.75 0
 5 -9 -6 14.31 3.15 0
 5 -9 -5 14.34 3.14 0
 5 -9 -4 28.46 3.27 0
 5 -9 -3 326.26 8.08 0
 5 -9 -2 89.76 4.55 0
 5 -9 -1 76.97 4 0
 5 -9 0 -1.05 1.27 0
 5 -9 1 76.7 3.55 0
 5 -9 2 85.07 3.62 0
 5 -8 -12 44.4 5.43 0
 5 -8 -11 27.14 4.28 0
 5 -8 -10 92.98 5.74 0
 5 -8 -9 49.58 4.97 0
 5 -8 -8 248.28 8.43 0
 5 -8 -7 53.35 4.22 0
 5 -8 -6 47.32 3.93 0
 5 -8 -5 13.28 2.71 0
 5 -8 -4 30 3.73 0
 5 -8 -3 63.53 4.17 0
 5 -8 -2 273.71 7.25 0
 5 -8 -1 22.71 2.68 0
 5 -8 0 104.85 4.28 0
 5 -8 1 29.01 2.69 0
 5 -8 2 267.94 6.14 0
 5 -8 3 66.17 3.22 0
 5 -7 -13 124.48 7.22 0
 5 -7 -12 3.03 2.74 0
 5 -7 -11 133.89 6.78 0
 5 -7 -10 74.93 5.7 0
 5 -7 -9 215.82 7.81 0
 5 -7 -8 38.77 4.48 0
 5 -7 -6 121.33 5.75 0
 5 -7 -5 46.55 3.67 0
 5 -7 -4 19.17 2.98 0
 5 -7 -3 6.75 2.06 0
 5 -7 -2 87.17 4.36 0
 5 -7 0 3.42 1.69 0
 5 -7 1 15.05 2.12 0
 5 -7 2 87.84 3.71 0
 5 -7 3 4.66 1.46 0
 5 -7 4 20.47 2.17 0
 5 -6 -14 54.33 5.73 0
 5 -6 -13 17.87 3.7 0
 5 -6 -12 18.24 3.51 0
 5 -6 -10 16.89 3.48 0
 5 -6 -9 21.76 3.63 0
 5 -6 -8 21.8 3.2 0
 5 -6 -7 7.09 2.25 0
 5 -6 -6 213.64 7.01 0
 5 -6 -5 45.32 3.86 0
 5 -6 -4 146.32 5.7 0
 5 -6 -3 15.31 2.45 0
 5 -6 -2 153.59 5.35 0
 5 -6 -1 360.17 7.95 0
 5 -6 0 89.05 4.13 0
 5 -6 1 360.15 7.48 0
 5 -6 2 157.98 5.13 0
 5 -6 3 12.74 1.95 0
 5 -6 4 143.83 4.7 0
 5 -5 -14 25.33 4.37 0
 5 -5 -13 4.1 3.11 0
 5 -5 -11 24.13 3.75 0
 5 -5 -10 64.35 4.8 0
 5 -5 -9 185.5 7.12 0
 5 -5 -8 109.58 5.46 0
 5 -5 -7 74.11 4.47 0
 5 -5 -6 19.2 2.81 0
 5 -5 -5 9.15 2.23 0
 5 -5 -4 98.92 4.59 0
 5 -5 -1 196.31 6.02 0
 5 -5 0 91.59 4.24 0
 5 -5 1 198.17 5.78 0
 5 -5 2 178.88 5.37 0
 5 -5 3 46.56 2.97 0
 5 -4 -15 86.23 6.51 0
 5 -4 -14 50.37 5.19 0
 5 -4 -12 11.3 3.11 0
 5 -4 -11 52.52 4.68 0
 5 -4 -10 3.84 2.3 0
 5 -4 -9 27.97 3.45 0
 5 -4 -8 32.02 3.37 0
 5 -4 -7 25.46 3.27 0
 5 -4 -5 328.23 8.17 0
 5 -4 -4 91.12 4.36 0
 5 -4 -3 439.73 8.95 0
 5 -4 -2 46.29 3.29 0
 5 -4 -1 21.72 2.76 0
 5 -4 0 426.99 8.35 0
 5 -4 1 14.11 2.1 0
 5 -3 -14 27.92 4.3 0
 5 -3 -13 69.34 5.08 0
 5 -3 -11 80.6 4.97 0
 5 -3 -10 551.29 11.71 0
 5 -3 -9 226.78 7.41 0
 5 -3 -8 83.33 4.77 0
 5 -3 -7 83.54 4.55 0
 5 -3 -6 20.31 2.79 0
 5 -3 -4 32.49 2.96 0
 5 -3 -2 576.73 10.05 0
 5 -3 -1 58.08 3.49 0
 5 -2 -16 10.09 3.39 0
 5 -2 -13 -2.91 1.99 0
 5 -2 -12 62.2 4.93 0
 5 -2 -11 4.16 2.3 0
 5 -2 -10 5.7 2.35 0
 5 -2 -9 160.18 6.31 0
 5 -2 -8 352.99 8.88 0
 5 -2 -7 106.89 5.12 0
 5 -2 -6 36.79 3.55 0
 5 -2 -5 106.08 4.89 0
 5 -2 -4 1022.34 13.76 0
 5 -2 -3 265.83 7.06 0
 5 -2 -2 28.62 2.63 0
 5 -1 -16 22.1 3.92 0
 5 -1 -15 19.79 3.49 0
 5 -1 -14 -0.24 2.4 0
 5 -1 -13 34.75 4.27 0
 5 -1 -12 198.55 7.4 0
 5 -1 -10 52.62 4.27 0
 5 -1 -9 6.08 2.36 0
 5 -1 -8 5.47 2.41 0
 5 -1 -7 62.27 4.04 0
 5 -1 -6 48.16 3.47 0
 5 -1 -5 18.93 2.65 0
 5 -1 -3 1.74 1.52 0
 5 0 -14 59.28 4.52 0
 5 0 -13 26.27 3.5 0
 5 0 -12 12.92 2.73 0
 5 0 -11 67.79 4.64 0
 5 0 -10 16.91 3.12 0
 5 0 -9 393.62 9.22 0
 5 0 -8 76.13 4.24 0
 5 0 -7 298.29 7.8 0
 5 0 -6 27.9 2.81 0
 5 0 -4 97.73 4.33 0
 5 1 -15 17.84 3.41 0
 5 1 -14 3.25 2.31 0
 5 1 -13 40.27 3.9 0
 5 1 -12 202.33 7.17 0
 5 1 -11 115.33 5.35 0
 5 1 -10 51.44 4.15 0
 5 1 -9 6.53 2.15 0
 5 1 -8 7.37 2.35 0
 5 1 -7 63.24 4 0
 5 1 -6 42.13 3.29 0
 5 1 -5 15.88 2.41 0
 5 2 -16 6.86 2.94 0
 5 2 -14 37.1 4.07 0
 5 2 -13 1.62 1.94 0
 5 2 -12 62.05 4.49 0
 5 2 -11 5.47 2.27 0
 5 2 -10 0.44 1.76 0
 5 2 -9 156.03 5.89 0
 5 2 -8 342.81 8.34 0
 5 2 -6 35.76 3.49 0
 5 2 -5 100.97 4.66 0
 5 3 -15 30.6 3.68 0
 5 3 -14 36.59 3.74 0
 5 3 -13 63.72 4.37 0
 5 3 -12 64.57 4.32 0
 5 3 -10 558.66 10.59 0
 5 3 -9 225.49 6.87 0
 5 3 -8 81.76 4.43 0
 5 3 -7 80 4.52 0
 5 3 -6 24.8 2.7 0
 5 4 -14 48.41 3.65 0
 5 4 -13 29.5 3.49 0
 5 4 -12 11.16 2.51 0
 5 4 -11 49.9 3.59 0
 5 4 -10 2.54 1.78 0
 5 4 -9 22.76 3.09 0
 5 4 -8 35.52 3.1 0
 5 4 -7 30.03 3.12 0
 5 4 -6 11.7 2.25 0
 5 5 -12 22.83 2.96 0
 5 5 -11 24.89 2.98 0
 5 5 -10 60.84 3.9 0
 5 5 -8 111.17 4.86 0
 5 6 -11 9.55 1.93 0
 5 6 -10 15.69 2.44 0
 5 6 -9 19.77 2.66 0
 5 6 -8 26.59 3.03 0
 5 6 -7 5.36 2.11 0
 5 7 -9 199.24 5.89 0
 5 7 -8 40.8 3.23 0
 5 7 -7 16.3 2.44 0
 5 8 -7 57.35 3.57 0
 6 -11 -7 89.12 6.02 0
 6 -11 -6 4.95 2.7 0
 6 -11 -5 12.82 3.05 0
 6 -11 -4 100.24 5.58 0
 6 -11 -3 57.91 4.45 0
 6 -11 -2 13.68 2.86 0
 6 -10 -9 0.55 2.68 0
 6 -10 -8 49.55 4.85 0
 6 -10 -6 168.74 7.41 0
 6 -10 -5 5.31 2.58 0
 6 -10 -4 53.99 4.49 0
 6 -10 -3 4.9 2.3 0
 6 -10 -2 148.77 6.04 0
 6 -10 -1 12.31 2.63 0
 6 -10 0 10.12 2.3 0
 6 -9 -10 101.19 6.38 0
 6 -9 -9 12.83 3.38 0
 6 -9 -8 32.82 4.19 0
 6 -9 -7 3.86 2.63 0
 6 -9 -6 11.81 2.98 0
 6 -9 -5 57.31 4.44 0
 6 -9 -4 23.74 3.32 0
 6 -9 -3 56.95 4.49 0
 6 -9 -2 9.31 2.4 0
 6 -9 -1 1.97 2.07 0
 6 -9 0 4.36 1.91 0
 6 -9 1 2.7 1.7 0
 6 -9 2 9.49 1.98 0
 6 -8 -10 8.54 3.83 0
 6 -8 -9 41.79 4.78 0
 6 -8 -8 -0.53 2.35 0
 6 -8 -7 119.65 6.47 0
 6 -8 -5 17.57 3.21 0
 6 -8 -4 34.81 4.17 0
 6 -8 -3 18 2.94 0
 6 -8 -1 129.21 5.61 0
 6 -8 0 9.2 2.45 0
 6 -8 1 132.87 5.22 0
 6 -8 2 32.61 3.1 0
 6 -8 3 15.95 2.35 0
 6 -8 4 38.64 3.01 0
 6 -7 -12 8.41 3.81 0
 6 -7 -10 12.96 3.51 0
 6 -7 -9 0.67 2.69 0
 6 -7 -8 153.01 6.98 0
 6 -7 -7 208.44 7.98 0
 6 -7 -5 82.96 5.05 0
 6 -7 -4 253.34 8.09 0
 6 -7 -3 34.06 3.4 0
 6 -7 -2 80.72 4.63 0
 6 -7 -1 231.22 7.15 0
 6 -7 0 443.56 9.43 0
 6 -7 1 241.6 6.93 0
 6 -7 2 77.62 4.19 0
 6 -7 3 33.26 2.83 0
 6 -7 4 225.01 6.27 0
 6 -7 5 87.69 4.02 0
 6 -6 -13 39.74 5.46 0
 6 -6 -12 83.88 6.35 0
 6 -6 -11 26.85 4.16 0
 6 -6 -10 119.37 6.44 0
 6 -6 -9 143.76 7.16 0
 6 -6 -8 77.43 5.57 0
 6 -6 -7 19.06 3.29 0
 6 -6 -6 96.27 5.41 0
 6 -6 -5 10.84 2.99 0
 6 -6 -4 4.67 2.28 0
 6 -6 -3 1.31 1.98 0
 6 -6 -2 98.63 5.04 0
 6 -6 -1 120.21 5.3 0
 6 -6 0 8.01 2.16 0
 6 -6 1 117.75 5.22 0
 6 -6 2 100.32 4.78 0
 6 -6 4 2.83 1.66 0
 6 -6 5 8.93 2.1 0
 6 -6 6 98.15 4.31 0
 6 -6 7 14.52 2.28 0
 6 -5 -13 40.43 5.05 0
 6 -5 -12 143.31 7.19 0
 6 -5 -11 17.17 3.65 0
 6 -5 -10 30.3 4.06 0
 6 -5 -9 125.62 6.39 0
 6 -5 -8 96.2 5.62 0
 6 -5 -7 70.59 4.83 0
 6 -5 -5 15.9 3.1 0
 6 -5 -4 20.17 3.29 0
 6 -5 -3 224.24 7.32 0
 6 -5 -2 12.46 2.48 0
 6 -5 -1 160.32 6 0
 6 -5 2 7.85 2.08 0
 6 -5 3 219.36 6.56 0
 6 -4 -14 24.78 4.49 0
 6 -4 -13 -0.68 2.61 0
 6 -4 -12 2.39 3.37 0
 6 -4 -11 33.96 4.65 0
 6 -4 -10 19.7 3.5 0
 6 -4 -9 35.14 3.96 0
 6 -4 -8 50.97 4.32 0
 6 -4 -7 6.97 2.63 0
 6 -4 -6 168.09 6.87 0
 6 -4 -4 21.61 3.05 0
 6 -4 -3 42.59 3.66 0
 6 -4 -2 60.37 4.08 0
 6 -4 -1 78.17 4.45 0
 6 -4 0 423.45 9.33 0
 6 -4 1 86.98 4.38 0
 6 -3 -14 28.14 4.3 0
 6 -3 -13 23.68 4.19 0
 6 -3 -12 62.55 5.4 0
 6 -3 -11 44.14 4.47 0
 6 -3 -10 46.47 4.72 0
 6 -3 -9 60.06 4.59 0
 6 -3 -8 76.61 4.94 0
 6 -3 -7 19.2 3.4 0
 6 -3 -5 48.78 3.98 0
 6 -3 -3 7.79 2.28 0
 6 -3 -2 82.7 4.87 0
 6 -3 -1 92.98 4.86 0
 6 -3 0 40.38 3.39 0
 6 -2 -15 11.73 3.48 0
 6 -2 -14 45.79 5.3 0
 6 -2 -11 69.32 5.23 0
 6 -2 -10 15.3 3.17 0
 6 -2 -9 45.32 4.45 0
 6 -2 -8 12.69 2.72 0
 6 -2 -7 100.73 5.57 0
 6 -2 -6 77.7 4.8 0
 6 -2 -5 360.56 9.17 0
 6 -2 -4 68.66 4.71 0
 6 -2 -3 108.86 5.16 0
 6 -2 -2 3.88 2.06 0
 6 -1 -15 3.83 3.43 0
 6 -1 -14 97.7 6.11 0
 6 -1 -13 4.93 2.76 0
 6 -1 -12 11.74 3.12 0
 6 -1 -10 78.52 5.11 0
 6 -1 -9 0.98 2.11 0
 6 -1 -8 132.09 6.2 0
 6 -1 -7 121.17 6.01 0
 6 -1 -6 236.51 7.77 0
 6 -1 -5 24.67 3.26 0
 6 -1 -4 63.58 4.29 0
 6 -1 -3 128.47 5.54 0
 6 0 -15 144.84 7.23 0
 6 0 -14 108.56 6.34 0
 6 0 -13 79.07 5.59 0
 6 0 -12 36.85 4.38 0
 6 0 -11 6.58 2.71 0
 6 0 -10 79.17 5.15 0
 6 0 -9 123.97 6.04 0
 6 0 -8 49.11 4.04 0
 6 0 -7 447.46 10.38 0
 6 0 -6 0.28 1.9 0
 6 0 -4 50.31 3.84 0
 6 1 -15 3.96 2.7 0
 6 1 -14 98.58 5.94 0
 6 1 -12 7.53 2.86 0
 6 1 -11 58.18 4.61 0
 6 1 -10 71.35 4.74 0
 6 1 -7 131.43 6.23 0
 6 1 -5 24.83 3.13 0
 6 1 -4 63.01 4.11 0
 6 2 -15 11.33 3.06 0
 6 2 -14 36.95 3.86 0
 6 2 -13 394.13 10.27 0
 6 2 -12 8.47 2.83 0
 6 2 -11 66.4 4.59 0
 6 2 -10 18.7 3.51 0
 6 2 -9 40.21 3.78 0
 6 2 -8 6.31 2.4 0
 6 2 -7 98.76 5.49 0
 6 2 -6 81.67 4.84 0
 6 2 -5 373.29 9.28 0
 6 3 -15 4.84 2.54 0
 6 3 -14 23.67 3.61 0
 6 3 -13 21.32 3.31 0
 6 3 -12 66.59 4.81 0
 6 3 -11 39.06 3.84 0
 6 3 -9 61.19 4.62 0
 6 3 -8 85.07 4.91 0
 6 3 -7 13.7 3.13 0
 6 3 -6 89.2 4.97 0
 6 4 -14 22.29 3.4 0
 6 4 -13 0.31 2.01 0
 6 4 -12 3.93 2.19 0
 6 4 -11 25.42 3.42 0
 6 4 -9 32.86 4.08 0
 6 4 -8 42.93 3.76 0
 6 4 -7 2.7 2.1 0
 6 4 -6 162.77 6.49 0
 6 5 -13 28.28 3.43 0
 6 5 -12 141.86 5.84 0
 6 5 -11 16.87 2.76 0
 6 5 -10 26.07 3.18 0
 6 5 -9 117.04 5.51 0
 6 5 -6 50.22 3.94 0
 6 6 -11 21.18 2.87 0
 6 6 -10 118.45 5.43 0
 6 6 -6 94.62 5.17 0
 6 7 -9 3.64 2.08 0
 6 7 -8 163.32 6.36 0
 6 7 -7 212.9 7.05 0
 6 8 -8 2.31 1.88 0
 6 8 -7 126.89 5.67 0
 6 9 -6 11.69 2.56 0
 7 -11 -5 4.28 2.78 0
 7 -11 -4 25.1 3.56 0
 7 -10 -6 27.88 4.02 0
 7 -10 -5 39.81 4.97 0
 7 -10 -4 34.32 4.07 0
 7 -10 -2 38.37 3.94 0
 7 -10 -1 54.72 4.21 0
 7 -9 -8 18.61 4.08 0
 7 -9 -7 27.51 4.39 0
 7 -9 -6 5.81 3.3 0
 7 -9 -4 83.94 5.29 0
 7 -9 -3 82.62 5.37 0
 7 -9 -2 9.7 2.9 0
 7 -9 -1 71.51 4.79 0
 7 -9 0 3.62 2.09 0
 7 -9 1 69.68 4.39 0
 7 -8 -9 12.48 3.62 0
 7 -8 -8 3 2.97 0
 7 -8 -7 51.49 5.26 0
 7 -8 -6 0.61 2.65 0
 7 -8 -5 46.92 4.64 0
 7 -8 -3 51.1 4.64 0
 7 -8 -2 57.73 4.81 0
 7 -8 -1 105.22 5.63 0
 7 -8 1 98.65 5.21 0
 7 -8 2 62.38 4.25 0
 7 -8 3 53.82 3.91 0
 7 -7 -10 9.66 3.55 0
 7 -7 -9 27.37 4.52 0
 7 -7 -8 7.28 3.1 0
 7 -7 -7 4.57 2.96 0
 7 -7 -6 1.66 2.55 0
 7 -7 -5 49.32 4.47 0
 7 -7 -4 4.43 2.68 0
 7 -7 -3 88.22 5.66 0
 7 -7 -2 96.37 5.68 0
 7 -7 -1 58 4.64 0
 7 -7 0 41.3 4.14 0
 7 -7 1 54.29 4.25 0
 7 -7 2 93.01 4.93 0
 7 -7 3 75.36 4.51 0
 7 -7 4 8.25 2.28 0
 7 -6 -10 117.99 6.84 0
 7 -6 -9 9.62 3.41 0
 7 -6 -8 3.44 3.12 0
 7 -6 -7 20.81 3.74 0
 7 -6 -6 47.06 5.02 0
 7 -6 -5 131.39 6.55 0
 7 -6 -4 12.49 3.34 0
 7 -6 -3 201.27 7.54 0
 7 -6 -2 57.2 4.63 0
 7 -6 -1 75.32 5.1 0
 7 -6 0 2.01 2.17 0
 7 -6 1 73.15 4.84 0
 7 -6 2 61.35 4.53 0
 7 -6 3 205.64 7.13 0
 7 -6 4 13.51 2.56 0
 7 -6 5 123.57 5.53 0
 7 -6 6 47.49 3.83 0
 7 -5 -11 16.67 3.85 0
 7 -5 -10 130.21 7.01 0
 7 -5 -9 27.22 4.13 0
 7 -5 -8 49.8 5.18 0
 7 -5 -7 53.82 5.16 0
 7 -5 -6 65.14 5.04 0
 7 -5 -5 42.84 4.21 0
 7 -5 -4 109.83 6.1 0
 7 -5 -3 0.14 2.18 0
 7 -5 -1 23.92 3.4 0
 7 -5 0 185.53 7.18 0
 7 -5 1 33.18 4.03 0
 7 -5 2 56.93 4.21 0
 7 -5 3 -1.03 1.78 0
 7 -5 4 107.8 5.26 0
 7 -5 5 43.11 3.87 0
 7 -4 -12 171.65 8.43 0
 7 -4 -11 53.07 5.69 0
 7 -4 -10 46.44 5.05 0
 7 -4 -9 30.65 4.39 0
 7 -4 -8 2.65 2.59 0
 7 -4 -7 113.66 6.48 0
 7 -4 -6 186 7.78 0
 7 -4 -5 4.16 2.7 0
 7 -4 -4 22.03 3.65 0
 7 -4 -3 63.5 4.65 0
 7 -4 -2 62.46 4.59 0
 7 -4 -1 29.58 3.97 0
 7 -4 0 3.22 2.23 0
 7 -4 1 35.12 4.28 0
 7 -4 2 55.94 4.18 0
 7 -3 -12 4.74 3.14 0
 7 -3 -11 42.42 4.68 0
 7 -3 -10 116.6 6.66 0
 7 -3 -9 6.7 3.42 0
 7 -3 -8 50.91 4.89 0
 7 -3 -7 38.17 4.44 0
 7 -3 -6 126.14 6.37 0
 7 -3 -5 67.46 4.86 0
 7 -3 -4 61.21 4.6 0
 7 -3 -3 178.79 7.18 0
 7 -3 -2 143.25 6.47 0
 7 -3 -1 1.82 2.19 0
 7 -3 0 73.7 5.08 0
 7 -3 1 1.46 2.09 0
 7 -2 -13 14.92 4.06 0
 7 -2 -11 119.07 6.78 0
 7 -2 -10 14.59 3.85 0
 7 -2 -9 32.92 4.19 0
 7 -2 -8 73.54 5.45 0
 7 -2 -7 30.26 4.28 0
 7 -2 -6 11.36 2.81 0
 7 -2 -5 99.56 5.75 0
 7 -2 -4 44.03 4.4 0
 7 -2 -3 104.11 6.03 0
 7 -2 -1 12.58 3.04 0
 7 -1 -11 81.87 5.66 0
 7 -1 -10 43.98 5.01 0
 7 -1 -9 16.29 3.44 0
 7 -1 -7 311.45 9.57 0
 7 -1 -6 53.54 4.98 0
 7 -1 -5 27.34 3.8 0
 7 -1 -4 92.73 5.83 0
 7 -1 -3 78.4 5.23 0
 7 -1 -2 24.43 3.37 0
 7 0 -13 2.57 3.32 0
 7 0 -12 96.73 6.12 0
 7 0 -10 30.18 4.3 0
 7 0 -9 5.53 2.84 0
 7 0 -8 115.49 6.24 0
 7 0 -7 14.57 3.43 0
 7 0 -5 35.43 4.18 0
 7 0 -4 38.42 4.16 0
 7 0 -3 57.88 4.77 0
 7 1 -13 28.21 4.41 0
 7 1 -12 13.35 3.67 0
 7 1 -11 79.77 5.81 0
 7 1 -10 38.64 4.44 0
 7 1 -8 179.16 7.49 0
 7 1 -7 310.14 9.7 0
 7 1 -6 56.25 5.01 0
 7 1 -5 19.55 3.41 0
 7 1 -4 84.62 5.23 0
 7 2 -13 16.01 3.81 0
 7 2 -12 18.29 3.76 0
 7 2 -11 116.35 6.63 0
 7 2 -10 13.19 3.4 0
 7 2 -9 35.42 4.48 0
 7 2 -8 71.78 5.53 0
 7 2 -7 30.48 4.22 0
 7 2 -6 9.53 3.45 0
 7 2 -5 92.42 5.64 0
 7 2 -4 52.19 4.3 0
 7 3 -13 31.24 4.09 0
 7 3 -12 10.15 3.24 0
 7 3 -11 35.67 4.42 0
 7 3 -10 110.66 6.25 0
 7 3 -9 5.16 2.69 0
 7 3 -8 60.79 4.7 0
 7 3 -6 134.59 6.59 0
 7 3 -5 66.59 4.82 0
 7 4 -12 175.12 7.4 0
 7 4 -11 58.12 4.81 0
 7 4 -10 52.09 4.83 0
 7 4 -9 25.72 3.76 0
 7 4 -8 2.04 2.46 0
 7 4 -6 184.97 7.74 0
 7 4 -5 2.17 2.65 0
 7 5 -12 47.33 4.36 0
 7 5 -11 22.15 3.74 0
 7 5 -9 24.86 3.76 0
 7 5 -8 48.63 4.41 0
 7 5 -7 62.58 5.1 0
 7 5 -6 66.9 5.13 0
 7 6 -11 20.68 3.39 0
 7 6 -9 10.33 2.79 0
 7 6 -7 26.62 3.74 0
 7 6 -6 46.13 4.63 0
 7 7 -9 34.83 4.2 0
 7 7 -8 5.66 2.71 0
 7 7 -7 5.99 2.55 0
 7 7 -6 4.35 2.6 0
 7 8 -8 0.79 1.89 0
 7 8 -7 60.28 4.68 0
 7 8 -6 2.56 2.48 0
 7 9 -6 3.02 2.19 0
 8 -9 -3 39.85 4.96 0
 8 -9 -2 -0.95 2.11 0
 8 -9 -1 69.45 5.15 0
 8 -8 -5 27.75 4.22 0
 8 -8 -4 10.65 3.44 0
 8 -8 -3 43.97 5.16 0
 8 -8 0 64.83 4.81 0
 8 -8 1 83.35 5.29 0
 8 -7 -6 60.98 5.77 0
 8 -7 -5 5.14 2.97 0
 8 -7 -4 7.36 3.04 0
 8 -7 -3 57.77 5.16 0
 8 -7 -2 4.68 2.82 0
 8 -7 -1 3.52 2.73 0
 8 -7 0 4.88 2.66 0
 8 -7 1 2.84 2.31 0
 8 -7 2 3.82 2.4 0
 8 -7 3 56.92 4.53 0
 8 -6 -7 38.88 5.02 0
 8 -6 -6 2.08 2.84 0
 8 -6 -5 22.16 4.41 0
 8 -6 -4 44.43 5.27 0
 8 -6 -3 113.99 6.38 0
 8 -6 -2 16.43 3.33 0
 8 -6 -1 18.72 3.42 0
 8 -6 0 3.38 2.49 0
 8 -6 1 18.58 3.35 0
 8 -6 2 15.44 3.47 0
 8 -6 3 114.7 5.77 0
 8 -6 4 49.17 4.41 0
 8 -5 -8 14.31 4.06 0
 8 -5 -7 75.16 5.68 0
 8 -5 -6 64.62 5.84 0
 8 -5 -5 27.63 4.2 0
 8 -5 -4 13.88 3.85 0
 8 -5 -3 58.26 5.02 0
 8 -5 -2 41.85 4.44 0
 8 -5 -1 47.7 4.82 0
 8 -5 0 4.15 3.08 0
 8 -5 1 46.93 4.75 0
 8 -5 2 46.23 4.65 0
 8 -5 3 69.14 4.95 0
 8 -5 4 15.89 3.41 0
 8 -5 5 21.44 3.33 0
 8 -5 6 54.42 4.42 0
 8 -4 -8 81.48 6.23 0
 8 -4 -7 71.48 5.55 0
 8 -4 -6 19.93 3.82 0
 8 -4 -5 125.39 7.11 0
 8 -4 -4 24.86 3.9 0
 8 -4 -3 37.74 4.87 0
 8 -4 -2 3.21 2.61 0
 8 -4 -1 4.44 3.09 0
 8 -4 0 4.17 2.9 0
 8 -4 1 2.64 2.59 0
 8 -4 2 3.39 2.61 0
 8 -4 3 42.09 4.58 0
 8 -4 4 20.73 3.6 0
 8 -4 5 127.77 6.24 0
 8 -3 -9 11.07 3.48 0
 8 -3 -8 51.71 5.04 0
 8 -3 -7 50.08 5.35 0
 8 -3 -6 38.68 4.76 0
 8 -3 -5 20.46 4.13 0
 8 -3 -4 109.84 6.59 0
 8 -3 -3 71.81 5.42 0
 8 -3 -2 78.85 5.99 0
 8 -3 -1 83.33 5.67 0
 8 -3 0 4.16 3.26 0
 8 -3 1 72.77 5.48 0
 8 -3 2 80.69 5.4 0
 8 -2 -10 19.79 4.05 0
 8 -2 -8 2.61 3.58 0
 8 -2 -7 2.19 3.01 0
 8 -2 -6 5.26 3.25 0
 8 -2 -5 114.82 6.92 0
 8 -2 -3 25.39 4.09 0
 8 -2 -2 64.05 5.18 0
 8 -2 -1 7.77 3.37 0
 8 -2 0 72.97 5.16 0
 8 -1 -9 88.27 6.49 0
 8 -1 -8 12.74 3.63 0
 8 -1 -7 -0.13 2.57 0
 8 -1 -6 64.69 5.3 0
 8 -1 -5 53.45 4.96 0
 8 -1 -4 62.25 5.24 0
 8 -1 -2 127.28 6.7 0
 8 -1 -1 42.28 4.84 0
 8 0 -10 5.1 3.11 0
 8 0 -9 24.05 4.5 0
 8 0 -8 43.61 5.43 0
 8 0 -7 4.55 2.85 0
 8 0 -6 24.12 4.32 0
 8 0 -5 99.24 6.79 0
 8 0 -4 496.1 12.97 0
 8 0 -3 1.34 2.91 0
 8 0 -2 99.5 6.36 0
 8 1 -9 77.38 5.74 0
 8 1 -8 11.03 3.55 0
 8 1 -7 2.42 2.73 0
 8 1 -6 66.69 5.75 0
 8 1 -5 48.72 5.33 0
 8 1 -3 47.73 4.62 0
 8 2 -10 19.27 3.94 0
 8 2 -9 39.87 5.21 0
 8 2 -8 -1.74 2.43 0
 8 2 -7 8.32 3.36 0
 8 2 -6 5.37 2.94 0
 8 2 -5 124.23 7.21 0
 8 2 -3 33.38 4.39 0
 8 3 -10 74.84 5.96 0
 8 3 -9 14.09 3.82 0
 8 3 -8 52.64 5.33 0
 8 3 -7 54.17 5.04 0
 8 3 -5 17.46 3.65 0
 8 4 -9 10.98 3.84 0
 8 4 -8 66.13 5.72 0
 8 4 -7 71.21 5.68 0
 8 4 -6 22.58 4.01 0
 8 4 -5 130.13 7.37 0
 8 5 -9 60.54 5.04 0
 8 5 -6 59.18 5.48 0
 8 5 -5 22.82 4.21 0
 8 6 -8 1.41 2.98 0
 8 6 -7 37.49 4.96 0
 8 6 -6 8.54 3.38 0
 8 6 -5 21.05 3.83 0
 8 7 -7 4.3 3.13 0
 8 7 -6 62.76 5.61 0
 8 7 -5 9.04 3.57 0
 8 8 -6 93.63 6.3 0
 9 -6 0 41.58 5.16 0
 9 -6 1 14.98 3.37 0
 9 -6 2 58.83 5.33 0
 9 -6 3 2.55 2.6 0
 9 -5 -1 9.47 3.31 0
 9 -5 1 14.26 3.82 0
 9 -5 2 40.56 4.85 0
 9 -5 3 28.67 4.48 0
 9 -5 4 12.37 3.36 0
 9 -5 5 26.73 3.94 0
 9 -4 -3 25.51 4.35 0
 9 -4 0 71.49 6.07 0
 9 -4 1 5.21 3.29 0
 9 -4 2 16.6 3.72 0
 9 -4 3 18.7 3.81 0
 9 -4 4 16.36 3.48 0
 9 -4 5 -0.93 2.73 0
 9 -4 6 65.02 5.41 0
 9 -3 -4 -0.92 2.81 0
 9 -3 -3 6.23 3.6 0
 9 -3 -2 21.22 4.3 0
 9 -3 -1 2.4 3 0
 9 -3 1 3.48 2.97 0
 9 -3 2 25.04 4.2 0
 9 -3 3 -0.49 2.92 0
 9 -3 4 1.57 2.61 0
 9 -3 5 48 5.37 0
 9 -2 -5 7 3.48 0
 9 -2 -4 35.94 4.97 0
 9 -2 -3 45.73 5.59 0
 9 -2 -2 17.46 4.28 0
 9 -2 0 10.2 3.47 0
 9 -2 1 87.29 6.37 0
 9 -2 3 37.77 4.71 0
 9 -1 -5 113.76 7.39 0
 9 -1 -4 18.99 4.16 0
 9 -1 -3 61.25 5.74 0
 9 -1 -2 183.02 8.83 0
 9 -1 -1 57.37 5.95 0
 9 -1 1 47.35 5 0
 9 0 -5 36.88 5.13 0
 9 0 -4 43.72 5.76 0
 9 0 -3 42.41 5.46 0
 9 0 -2 18.41 3.99 0
 9 0 -1 183.09 8.73 0
 9 0 0 -1.1 2.78 0
 9 1 -5 108.58 7.4 0
 9 1 -4 21.06 4.68 0
 9 1 -3 79.67 6.57 0
 9 1 -2 170.59 8.25 0
 9 1 -1 49.78 5.61 0
 9 2 -5 11.82 4.18 0
 9 2 -4 39.29 5.5 0
 9 2 -3 35.92 4.94 0
 9 2 -2 16.28 3.93 0
 9 3 -4 0.85 2.99 0
 9 3 -3 -1.83 2.98 0
 -7 -2 -13 16.64 3.19 0
 -7 -1 -13 33.05 3.89 0
 -7 -1 -12 16.17 3.03 0
 -7 -1 -11 84.75 4.69 0
 -7 -1 -10 36.39 3.52 0
 -7 0 -13 -1.73 1.83 0
 -7 0 -12 101.42 5.5 0
 -7 0 -11 13.05 2.63 0
 -7 0 -10 35.2 3.42 0
 -7 0 -9 3.72 1.93 0
 -7 0 -7 14.84 2.07 0
 -7 0 -6 32.39 2.4 0
 -7 0 -5 37.47 2.44 0
 -7 1 -13 24.73 3.29 0
 -7 1 -12 16.6 2.95 0
 -7 1 -11 90.15 4.84 0
 -7 1 -10 34.68 3.41 0
 -7 1 -9 16.52 2.49 0
 -7 1 -8 178.25 5.59 0
 -7 1 -7 297.44 6.76 0
 -7 1 -6 53.2 2.9 0
 -7 1 -5 24.03 2.01 0
 -7 2 -13 16.8 3.01 0
 -7 2 -12 21.19 3.24 0
 -7 2 -11 117.78 5.26 0
 -7 2 -10 13.91 2.41 0
 -7 2 -9 26.76 2.88 0
 -7 2 -8 69.64 3.59 0
 -7 2 -7 28.06 2.47 0
 -7 2 -6 7 1.43 0
 -7 3 -12 7.53 2.41 0
 -7 3 -11 32.3 3.16 0
 -7 3 -10 103.08 4.73 0
 -7 3 -9 4.18 1.81 0
 -7 3 -8 62.24 3.47 0
 -7 3 -7 43.9 2.89 0
 -7 4 -13 41.88 4.13 0
 -7 4 -12 173.64 6.64 0
 -7 4 -10 55.93 3.86 0
 -7 4 -9 25.84 2.95 0
 -7 4 -8 2.04 1.46 0
 -7 4 -7 99.28 4.02 0
 -7 5 -12 44.99 3.79 0
 -7 5 -11 13.51 2.58 0
 -7 5 -10 124.39 5.24 0
 -7 5 -9 23.46 2.91 0
 -7 6 -12 50.61 3.89 0
 -7 6 -11 28.64 3.49 0
 -6 -1 -15 3.82 2.46 0
 -6 -1 -13 6.84 2.84 0
 -6 0 -15 151.32 6.95 0
 -6 0 -14 116.04 6.17 0
 -6 0 -13 73.73 5.05 0
 -6 0 -12 33.38 3.5 0
 -6 0 -11 6.92 2.11 0
 -6 0 -10 71.99 4.27 0
 -6 0 -2 114.44 2.91 0
 -6 0 -1 123.11 2.59 0
 -6 0 0 1.67 0.43 0
 -6 1 -15 3.47 2.38 0
 -6 1 -13 3.05 2.07 0
 -6 1 -12 11.64 2.54 0
 -6 1 -11 62.02 4.3 0
 -6 1 -10 73.51 4.29 0
 -6 1 -9 -0.35 1.38 0
 -6 1 -8 136.97 5 0
 -6 1 -7 135.45 4.62 0
 -6 1 -5 21.88 1.89 0
 -6 1 -2 146.85 3.09 0
 -6 1 -1 100.48 2.12 0
 -6 2 -15 9.91 2.72 0
 -6 2 -14 41.54 4.28 0
 -6 2 -13 405.17 10.25 0
 -6 2 -12 9.03 2.6 0
 -6 2 -11 62.69 4.31 0
 -6 2 -10 20.05 2.73 0
 -6 2 -9 45.33 3.42 0
 -6 2 -8 10.81 1.96 0
 -6 2 -7 105.02 4.05 0
 -6 2 -6 76.69 3.35 0
 -6 2 -3 108.38 2.95 0
 -6 2 -2 3.85 0.79 0
 -6 2 -1 89.36 1.89 0
 -6 3 -15 4.05 2.39 0
 -6 3 -14 25.41 3.43 0
 -6 3 -13 25.74 3.42 0
 -6 3 -12 71.56 4.66 0
 -6 3 -11 42.96 3.54 0
 -6 3 -10 45.18 3.7 0
 -6 3 -9 64.97 3.85 0
 -6 3 -8 74.97 3.67 0
 -6 3 -7 18.93 2.34 0
 -6 3 -6 81.3 3.41 0
 -6 3 -5 48.01 2.53 0
 -6 3 -3 10.11 1.16 0
 -6 3 -2 80.82 2.23 0
 -6 4 -14 23.03 3.59 0
 -6 4 -13 1.79 2.05 0
 -6 4 -12 4.06 2.05 0
 -6 4 -11 29.78 3.07 0
 -6 4 -10 25.74 2.84 0
 -6 4 -9 36.36 3.18 0
 -6 4 -8 42.3 3.08 0
 -6 4 -7 4.51 1.62 0
 -6 4 -6 161.22 4.72 0
 -6 4 -5 78.96 3.13 0
 -6 4 -3 43.28 1.99 0
 -6 4 -2 59.88 2.05 0
 -6 5 -14 15.54 2.87 0
 -6 5 -13 37.52 4.25 0
 -6 5 -11 14.86 2.6 0
 -6 5 -10 27.97 3.22 0
 -6 5 -9 123.46 5.1 0
 -6 5 -8 90.25 4.23 0
 -6 5 -7 62.71 3.3 0
 -6 5 -6 53.3 3 0
 -6 5 -5 12.82 1.73 0
 -6 6 -14 38.74 4.35 0
 -6 6 -13 47.87 4.29 0
 -6 6 -12 78.82 4.85 0
 -6 6 -11 23.16 3.24 0
 -6 6 -10 112.97 5.09 0
 -6 6 -9 150.91 5.5 0
 -6 6 -8 68.3 3.84 0
 -6 6 -7 14.16 2.13 0
 -6 6 -6 94.31 3.83 0
 -6 6 -5 11.45 1.66 0
 -6 6 -4 3.65 1.29 0
 -6 7 -12 8.12 2.36 0
 -6 7 -11 118.35 5.61 0
 -6 7 -10 3.93 1.96 0
 -6 7 -9 4.15 1.99 0
 -6 7 -8 155.83 5.43 0
 -6 7 -7 201.48 5.89 0
 -6 7 -6 18.82 2.24 0
 -6 7 -5 87 3.69 0
 -6 8 -11 13.98 2.94 0
 -6 8 -10 9.93 2.58 0
 -6 8 -9 40.69 3.42 0
 -6 8 -8 2.44 1.87 0
 -6 8 -7 107.62 4.64 0
 -6 8 -6 8.65 1.89 0
 -6 8 -5 19.99 2.3 0
 -6 9 -10 91.9 5.12 0
 -6 9 -9 10.52 2.3 0
 -6 9 -8 39.96 3.25 0
 -6 9 -7 4.8 1.75 0
 -6 10 -9 3.62 1.89 0
 -5 -2 -16 6.83 2.73 0
 -5 -1 -15 17.42 3.31 0
 -5 -1 2 94.82 1.42 0
 -5 0 -16 18.76 3.34 0
 -5 0 -15 165.93 7.13 0
 -5 0 -14 57.36 4.63 0
 -5 0 -13 29.39 3.74 0
 -5 0 1 68.84 1.16 0
 -5 0 1 68.77 1.15 0
 -5 1 -16 24.43 3.76 0
 -5 1 -15 20.96 3.44 0
 -5 1 -13 33.6 3.46 0
 -5 1 -12 191.43 6.84 0
 -5 1 -10 55.86 3.57 0
 -5 1 -8 7.07 1.69 0
 -5 1 -4 7.29 1.22 0
 -5 1 -3 2.75 0.91 0
 -5 1 -2 98.94 2.52 0
 -5 1 -1 16.75 1.06 0
 -5 1 0 14.04 0.71 0
 -5 2 -16 4.73 2.38 0
 -5 2 -15 21.67 3.52 0
 -5 2 -14 33.59 3.62 0
 -5 2 -13 -0.94 2.03 0
 -5 2 -12 64.73 4.47 0
 -5 2 -11 4.57 2.14 0
 -5 2 -10 2.41 1.69 0
 -5 2 -9 146.4 5.17 0
 -5 2 -8 327.3 7.19 0
 -5 2 -7 107.28 4.05 0
 -5 2 -6 31.8 2.24 0
 -5 2 -4 1062.01 9.78 0
 -5 2 -3 267.55 4.55 0
 -5 2 -2 26.87 1.43 0
 -5 2 -1 71.13 1.83 0
 -5 2 0 253.98 2.49 0
 -5 3 -16 71.56 5.14 0
 -5 3 -15 29.94 4.13 0
 -5 3 -14 34.78 4.16 0
 -5 3 -13 65.35 4.59 0
 -5 3 -10 547.83 10.34 0
 -5 3 -9 227.04 6.37 0
 -5 3 -8 83.91 3.94 0
 -5 3 -7 85.63 3.63 0
 -5 3 -6 25.38 2.05 0
 -5 3 -4 36.08 2.01 0
 -5 3 -3 414.67 5.65 0
 -5 3 -2 580.76 6.01 0
 -5 3 -1 57.27 1.7 0
 -5 3 0 10.04 0.65 0
 -5 4 -16 15.13 3.17 0
 -5 4 -15 83.54 5.23 0
 -5 4 -14 45.75 4.02 0
 -5 4 -13 26.92 3.36 0
 -5 4 -12 11.82 2.82 0
 -5 4 -11 51.9 3.77 0
 -5 4 -10 3.69 1.68 0
 -5 4 -8 33.06 2.69 0
 -5 4 -7 26.53 2.31 0
 -5 4 -6 11.67 1.71 0
 -5 4 -3 440.87 6.01 0
 -5 4 -2 51.28 1.97 0
 -5 4 -1 19.54 1.19 0
 -5 5 -15 56.3 4.77 0
 -5 5 -14 25.72 3.79 0
 -5 5 -13 8.17 2.44 0
 -5 5 -12 21.6 3.18 0
 -5 5 -11 24.88 3.27 0
 -5 5 -9 183.39 5.96 0
 -5 5 -8 107.09 4.38 0
 -5 5 -7 76.92 3.76 0
 -5 5 -6 15.61 2.03 0
 -5 5 -5 10.12 1.58 0
 -5 5 -3 48.45 2.25 0
 -5 6 -15 14.6 3.17 0
 -5 6 -14 53.82 4.42 0
 -5 6 -13 18.71 3.06 0
 -5 6 -12 24.24 3.17 0
 -5 6 -11 11.92 2.46 0
 -5 6 -10 13.58 2.44 0
 -5 6 -9 18.15 2.54 0
 -5 6 -8 29.61 2.81 0
 -5 6 -7 4.44 1.54 0
 -5 6 -5 48.32 2.69 0
 -5 6 -2 166.15 3.85 0
 -5 7 -14 147.09 6.78 0
 -5 7 -13 120.61 6.14 0
 -5 7 -12 -0.25 1.94 0
 -5 7 -11 140.55 5.85 0
 -5 7 -10 81 4.62 0
 -5 7 -9 214.31 6.66 0
 -5 7 -8 35.89 2.93 0
 -5 7 -7 20.08 2.36 0
 -5 7 -6 112.54 4.4 0
 -5 7 -5 39.61 2.72 0
 -5 7 -4 24.2 2.18 0
 -5 7 -3 4.34 1.28 0
 -5 8 -12 45.63 4.27 0
 -5 8 -11 29.63 3.48 0
 -5 8 -10 88.14 4.71 0
 -5 8 -9 45.76 3.49 0
 -5 8 -8 227.41 6.8 0
 -5 8 -7 55.39 3.63 0
 -5 8 -6 50.92 3.34 0
 -5 8 -5 17.25 2.4 0
 -5 8 -4 26.52 2.35 0
 -5 9 -13 56.81 4.52 0
 -5 9 -12 2.99 2.27 0
 -5 9 -11 61.9 4.39 0
 -5 9 -9 249.46 7.66 0
 -5 9 -8 5.26 1.9 0
 -5 9 -7 27.62 2.77 0
 -5 9 -6 14.58 2.25 0
 -5 10 -12 7.91 2.69 0
 -5 10 -11 92.87 5.32 0
 -5 10 -10 126.93 5.91 0
 -5 10 -9 9.22 2.5 0
 -5 10 -8 5.44 2.03 0
 -5 11 -11 7.02 2.84 0
 -5 11 -10 49.66 4.29 0
 -4 -2 -17 65.06 5.18 0
 -4 -1 -17 128.36 6.55 0
 -4 -1 -16 52.55 4.65 0
 -4 -1 3 182.04 1.86 0
 -4 0 -17 60.08 5.2 0
 -4 0 -16 27.79 3.95 0
 -4 0 -14 111.24 5.76 0
 -4 1 -17 132.41 6.74 0
 -4 1 -16 54.77 4.72 0
 -4 1 -15 5.81 2.6 0
 -4 1 -14 76.03 4.84 0
 -4 1 -12 96.74 4.89 0
 -4 1 -11 7.01 1.91 0
 -4 1 -1 1078.61 6.69 0
 -4 1 0 59.4 1.34 0
 -4 2 -17 64.67 4.88 0
 -4 2 -15 53.61 4.53 0
 -4 2 -14 233.34 7.9 0
 -4 2 -13 125.82 5.64 0
 -4 2 -12 184.15 6.54 0
 -4 2 -11 38.15 3.41 0
 -4 2 -10 288.51 7.3 0
 -4 2 -9 60.15 3.33 0
 -4 2 -8 81.27 3.6 0
 -4 2 -7 194.59 5.02 0
 -4 2 -5 397.31 6.31 0
 -4 2 -4 700.93 7.62 0
 -4 2 -3 434.71 5.53 0
 -4 2 -2 30.22 1.44 0
 -4 2 -1 598.36 4.98 0
 -4 2 0 180.09 2.25 0
 -4 3 -17 20.21 3.42 0
 -4 3 -16 19.71 3.51 0
 -4 3 -15 82.55 5.07 0
 -4 3 -14 67.49 4.47 0
 -4 3 -13 39.56 3.65 0
 -4 3 -12 30.2 3.01 0
 -4 3 -11 126.48 5.2 0
 -4 3 -10 99.01 4.6 0
 -4 3 -9 81.14 3.86 0
 -4 3 -8 1.61 1.31 0
 -4 3 -7 9.33 1.66 0
 -4 3 -4 58.71 2.35 0
 -4 3 -3 92.31 2.71 0
 -4 3 -2 24.85 1.34 0
 -4 3 -1 454.29 4.6 0
 -4 4 -17 26.61 3.84 0
 -4 4 -16 7.85 2.73 0
 -4 4 -15 15.94 3.39 0
 -4 4 -14 44.25 4.16 0
 -4 4 -13 60.01 4.43 0
 -4 4 -12 42.64 3.51 0
 -4 4 -11 22.38 2.94 0
 -4 4 -10 8.52 1.96 0
 -4 4 -9 46.74 3.22 0
 -4 4 -8 147.66 4.8 0
 -4 4 -7 23.58 2.22 0
 -4 4 -4 297.36 5.3 0
 -4 4 -3 139.57 3.43 0
 -4 4 -2 129.32 3.01 0
 -4 4 -1 0.97 0.59 0
 -4 5 -16 15.03 3.01 0
 -4 5 -15 0.83 2.07 0
 -4 5 -14 24.18 3.31 0
 -4 5 -13 26.65 3.58 0
 -4 5 -12 26.03 3.13 0
 -4 5 -11 124.91 5.3 0
 -4 5 -10 8.02 2.01 0
 -4 5 -9 123.46 4.93 0
 -4 5 -8 52.48 3.32 0
 -4 5 -7 29.42 2.55 0
 -4 5 -6 1.72 1.38 0
 -4 5 -3 27.5 1.73 0
 -4 5 -2 154.28 3.51 0
 -4 5 -1 226.3 3.93 0
 -4 6 -15 -0.66 2.28 0
 -4 6 -14 2.81 2.11 0
 -4 6 -13 5.37 2.5 0
 -4 6 -12 166.47 6.59 0
 -4 6 -11 126.15 5.59 0
 -4 6 -10 224.58 6.87 0
 -4 6 -9 245.19 6.9 0
 -4 6 -7 74.04 3.55 0
 -4 6 -5 29.37 2.16 0
 -4 6 -2 408.81 6.08 0
 -4 7 -15 66.62 4.86 0
 -4 7 -14 23.64 3.78 0
 -4 7 -13 46.07 4.2 0
 -4 7 -10 60.75 4.04 0
 -4 7 -9 97.55 4.55 0
 -4 7 -8 160.36 5.57 0
 -4 7 -7 394.94 8.06 0
 -4 7 -6 46.21 3.03 0
 -4 7 -5 274.96 6.21 0
 -4 7 -4 143.65 4.42 0
 -4 8 -15 16.12 3.46 0
 -4 8 -14 11.83 2.92 0
 -4 8 -13 20.1 3.23 0
 -4 8 -12 193.1 7.29 0
 -4 8 -11 34.27 3.82 0
 -4 8 -10 83.67 4.83 0
 -4 8 -9 19.21 2.75 0
 -4 8 -8 4.22 1.74 0
 -4 8 -7 130.83 4.97 0
 -4 8 -6 45.18 3.25 0
 -4 8 -5 73.78 3.71 0
 -4 8 -4 17.64 2.03 0
 -4 9 -14 27.27 3.75 0
 -4 9 -13 4.74 2.42 0
 -4 9 -12 189.93 7.28 0
 -4 9 -11 45.86 4.06 0
 -4 9 -10 129.81 5.96 0
 -4 9 -9 7.56 2.21 0
 -4 9 -8 218.92 7.04 0
 -4 9 -7 70.19 4.27 0
 -4 9 -6 9.21 1.92 0
 -4 9 -5 4.57 1.62 0
 -4 10 -13 5.43 2.66 0
 -4 10 -12 169.21 7.16 0
 -4 10 -11 2.29 2.64 0
 -4 10 -10 31.55 3.92 0
 -4 10 -9 22.59 3.11 0
 -4 10 -8 112.28 5.47 0
 -4 10 -7 58.28 4.05 0
 -4 11 -11 14.96 3.25 0
 -4 11 -10 35.8 4.25 0
 -4 11 -9 2.18 2.17 0
 -3 -2 -18 28.63 4.34 0
 -3 -1 -18 7.72 2.82 0
 -3 -1 3 17.79 0.7 0
 -3 0 -17 2.72 2.18 0
 -3 0 -16 12.34 2.79 0
 -3 0 -15 -2.19 1.95 0
 -3 1 -18 8.43 2.77 0
 -3 1 -17 17.27 3.18 0
 -3 1 -16 40.4 4.12 0
 -3 1 -15 369.82 9.74 0
 -3 1 -14 65.98 4.22 0
 -3 1 -13 19.15 2.73 0
 -3 1 -12 79.21 4.27 0
 -3 1 0 222.1 2.29 0
 -3 2 -18 29.77 4.03 0
 -3 2 -17 3.16 2.52 0
 -3 2 -16 53.21 4.33 0
 -3 2 -15 46.62 3.88 0
 -3 2 -14 8.18 2.31 0
 -3 2 -13 104.89 5.06 0
 -3 2 -12 88.91 4.48 0
 -3 2 -10 54.26 3.37 0
 -3 2 -9 119.88 4.31 0
 -3 2 -8 170.84 4.77 0
 -3 2 -5 509.08 6.62 0
 -3 2 -4 678.76 7.06 0
 -3 2 -3 323.42 4.53 0
 -3 2 -2 612.85 5.56 0
 -3 2 -1 91.43 1.92 0
 -3 2 0 559.96 3.78 0
 -3 3 -18 77.7 5.52 0
 -3 3 -17 51.43 4.73 0
 -3 3 -16 32.57 3.78 0
 -3 3 -15 236.13 7.95 0
 -3 3 -14 13.85 2.79 0
 -3 3 -13 33.87 3.16 0
 -3 3 -12 11 2.16 0
 -3 3 -11 272.66 7.22 0
 -3 3 -10 56.36 3.43 0
 -3 3 -9 46.43 2.99 0
 -3 3 -8 134.55 4.39 0
 -3 3 -5 183.31 4.19 0
 -3 3 -4 62.21 2.3 0
 -3 3 -3 764.06 7.09 0
 -3 3 -2 91.24 2.31 0
 -3 3 -1 530.29 4.85 0
 -3 3 0 1001.6 5.87 0
 -3 4 -18 6.4 2.89 0
 -3 4 -17 88.33 5.69 0
 -3 4 -16 19.54 3.36 0
 -3 4 -15 124.53 6.01 0
 -3 4 -14 29.36 3.18 0
 -3 4 -13 71.13 4.3 0
 -3 4 -12 35.66 3.18 0
 -3 4 -11 92.35 4.3 0
 -3 4 -10 144.72 5.06 0
 -3 4 -9 33.09 2.52 0
 -3 4 -5 52.01 2.51 0
 -3 4 -4 486.88 6.5 0
 -3 4 -3 59.38 2.21 0
 -3 4 -2 130.69 2.92 0
 -3 4 -1 1010.08 7.35 0
 -3 4 0 38.9 1.42 0
 -3 5 -17 15.58 3.18 0
 -3 5 -16 38.18 4.37 0
 -3 5 -15 46.23 4.05 0
 -3 5 -14 5.83 2.34 0
 -3 5 -13 72.24 4.53 0
 -3 5 -12 135.36 5.51 0
 -3 5 -11 41.22 3.43 0
 -3 5 -10 3.93 1.61 0
 -3 5 -9 164.31 5.32 0
 -3 5 -8 228.19 5.86 0
 -3 5 -7 12.99 1.79 0
 -3 5 -4 187.86 4.29 0
 -3 5 -3 59.56 2.35 0
 -3 5 -2 84.59 2.61 0
 -3 5 -1 8.17 1.11 0
 -3 6 -17 1.99 2.4 0
 -3 6 -16 90.05 5.49 0
 -3 6 -15 125.84 6.39 0
 -3 6 -14 124.78 6.12 0
 -3 6 -13 91.01 5.17 0
 -3 6 -12 70.34 4.27 0
 -3 6 -11 33.41 3.06 0
 -3 6 -10 245.51 7.05 0
 -3 6 -9 116.91 4.72 0
 -3 6 -8 48.36 3.21 0
 -3 6 -7 139.78 4.6 0
 -3 6 -6 438.13 7.57 0
 -3 6 -3 245.07 4.96 0
 -3 7 -16 13.33 3.25 0
 -3 7 -15 46.65 4.16 0
 -3 7 -14 7.17 2.75 0
 -3 7 -13 37.18 3.6 0
 -3 7 -10 92.63 4.5 0
 -3 7 -9 128.32 5 0
 -3 7 -7 20.06 2.24 0
 -3 7 -6 50.27 2.99 0
 -3 7 -5 37.53 2.6 0
 -3 7 -4 18.14 1.86 0
 -3 8 -16 2.97 2.51 0
 -3 8 -14 70.43 4.9 0
 -3 8 -13 66.02 4.52 0
 -3 8 -12 94.11 5.09 0
 -3 8 -11 63.34 4.34 0
 -3 8 -10 36.69 3.45 0
 -3 8 -9 40.1 3.42 0
 -3 8 -8 82.52 4.16 0
 -3 8 -7 8.71 1.83 0
 -3 8 -6 203.16 5.87 0
 -3 8 -5 96.05 3.99 0
 -3 8 -4 280.23 6.25 0
 -3 9 -14 29.8 4.2 0
 -3 9 -12 137.69 6.27 0
 -3 9 -11 14.21 2.94 0
 -3 9 -10 23.69 3.18 0
 -3 9 -9 30.47 3.52 0
 -3 9 -8 21.84 2.84 0
 -3 9 -7 46.8 3.39 0
 -3 9 -6 123.61 5.03 0
 -3 9 -5 51.92 3.39 0
 -3 10 -14 12.99 3.16 0
 -3 10 -13 20.45 3.48 0
 -3 10 -11 34.5 4.12 0
 -3 10 -10 2.77 2.15 0
 -3 10 -9 51.59 4.2 0
 -3 10 -8 57.36 4.04 0
 -3 10 -7 14.75 2.56 0
 -3 11 -13 53.31 4.85 0
 -3 11 -12 14.74 3.09 0
 -3 11 -11 28.07 3.66 0
 -3 11 -10 17.75 3 0
 -2 -3 -19 31.67 4.17 0
 -2 -2 -19 47.3 4.73 0
 -2 -2 -18 274.16 9.06 0
 -2 -2 -17 50.28 4.27 0
 -2 -1 -19 43.76 4.97 0
 -2 -1 -18 19.9 3.3 0
 -2 -1 -17 166.99 7.08 0
 -2 -1 -16 3 2.06 0
 -2 -1 2 3137.76 7.94 0
 -2 0 -18 36.72 4.54 0
 -2 0 -17 16.54 3.14 0
 -2 0 -16 -1.54 1.81 0
 -2 0 -15 54 4 0
 -2 1 -19 38.78 4.74 0
 -2 1 -17 158.42 6.79 0
 -2 1 -16 0.3 1.76 0
 -2 1 -15 54.15 4.08 0
 -2 1 -14 140.31 5.81 0
 -2 1 -13 33.61 3.15 0
 -2 1 -12 120.92 4.79 0
 -2 1 -11 20.1 2.18 0
 -2 1 0 282.08 2.2 0
 -2 2 -19 38.17 4.04 0
 -2 2 -18 270.6 8.92 0
 -2 2 -16 22.43 3.42 0
 -2 2 -15 55.93 4.24 0
 -2 2 -14 38.44 3.41 0
 -2 2 -13 34.27 3.29 0
 -2 2 -12 42.41 3.19 0
 -2 2 -11 77.85 3.81 0
 -2 2 -10 323.06 6.94 0
 -2 2 -9 153.84 4.64 0
 -2 2 -7 70.63 2.8 0
 -2 2 -6 40.3 2.08 0
 -2 2 -5 117.88 3.11 0
 -2 2 -4 1036.57 8.23 0
 -2 2 -3 288.03 4.01 0
 -2 2 -2 1770.49 8.65 0
 -2 2 -1 589.06 4.36 0
 -2 2 0 1144.28 5.11 0
 -2 3 -18 48.1 4.32 0
 -2 3 -17 12.7 2.91 0
 -2 3 -16 10.12 2.56 0
 -2 3 -15 59.61 4.3 0
 -2 3 -14 40.96 3.41 0
 -2 3 -13 246.92 7.14 0
 -2 3 -12 351.54 8.12 0
 -2 3 -10 89.34 3.98 0
 -2 3 -9 100.52 3.86 0
 -2 3 -6 202.5 4.47 0
 -2 3 -5 328.12 5.23 0
 -2 3 -4 1811.59 11.25 0
 -2 3 -3 400.55 4.94 0
 -2 3 -2 1220.17 7.85 0
 -2 3 -1 1028.96 6.42 0
 -2 3 0 25.38 1.08 0
 -2 4 -18 42.15 4.13 0
 -2 4 -17 57.76 4.87 0
 -2 4 -16 52.51 4.26 0
 -2 4 -15 221.35 7.51 0
 -2 4 -14 146.97 5.96 0
 -2 4 -13 0.33 1.44 0
 -2 4 -12 353.9 8.33 0
 -2 4 -11 15.87 2.32 0
 -2 4 -9 0.07 1.08 0
 -2 4 -8 223.24 5.43 0
 -2 4 -4 1044.33 9.17 0
 -2 4 -3 710.64 7 0
 -2 4 -2 17.09 1.33 0
 -2 4 -1 26.01 1.34 0
 -2 5 -18 52.41 4.66 0
 -2 5 -17 3.31 2.54 0
 -2 5 -16 24.06 3.78 0
 -2 5 -14 153.32 6.23 0
 -2 5 -13 26.65 2.99 0
 -2 5 -12 28.07 2.97 0
 -2 5 -11 201.28 6.34 0
 -2 5 -10 313.06 7.33 0
 -2 5 -9 35.74 2.68 0
 -2 5 -8 279.84 6.27 0
 -2 5 -7 475.97 7.82 0
 -2 5 -4 129.03 3.49 0
 -2 5 -3 305.33 5.04 0
 -2 5 -1 470.54 5.65 0
 -2 6 -17 35.71 4.21 0
 -2 6 -16 80.28 5.16 0
 -2 6 -15 11.95 2.84 0
 -2 6 -13 216.1 7.21 0
 -2 6 -12 4.49 2.02 0
 -2 6 -11 70.09 3.95 0
 -2 6 -10 59.55 3.67 0
 -2 6 -9 114.73 4.59 0
 -2 6 -8 35.53 2.82 0
 -2 6 -7 45.28 2.7 0
 -2 6 -6 448.76 7.53 0
 -2 6 -2 284.64 5.12 0
 -2 7 -17 65.3 4.96 0
 -2 7 -16 42.42 4.6 0
 -2 7 -15 67.83 4.92 0
 -2 7 -14 1.78 1.96 0
 -2 7 -13 73.57 4.55 0
 -2 7 -12 48.18 3.71 0
 -2 7 -11 15.17 2.68 0
 -2 7 -10 8.82 2.04 0
 -2 7 -9 142.05 5.13 0
 -2 7 -8 201.29 5.91 0
 -2 7 -7 215.99 5.8 0
 -2 7 -6 37.9 2.53 0
 -2 7 -5 36.78 2.58 0
 -2 8 -16 140.46 6.96 0
 -2 8 -15 15.78 3.14 0
 -2 8 -14 12.63 2.8 0
 -2 8 -13 30.44 3.36 0
 -2 8 -12 22.62 3.09 0
 -2 8 -11 103.56 5.12 0
 -2 8 -10 90.68 4.64 0
 -2 8 -9 114.52 4.94 0
 -2 8 -8 131.08 5.01 0
 -2 8 -7 265.87 6.77 0
 -2 8 -6 179.42 5.5 0
 -2 8 -5 119.08 4.41 0
 -2 8 -4 159.34 4.75 0
 -2 9 -15 41.04 4.55 0
 -2 9 -14 10.08 3.15 0
 -2 9 -13 11.36 2.95 0
 -2 9 -12 21.4 3.09 0
 -2 9 -11 23.18 3.2 0
 -2 9 -9 99.37 5.03 0
 -2 9 -8 53.69 3.62 0
 -2 9 -7 40.75 3.11 0
 -2 9 -6 120.98 4.84 0
 -2 9 -5 536.49 9.46 0
 -2 10 -15 18.95 3.49 0
 -2 10 -14 19.03 3.49 0
 -2 10 -13 9.28 2.72 0
 -2 10 -11 196.61 7.32 0
 -2 10 -10 29.65 3.46 0
 -2 10 -9 74.5 4.74 0
 -2 10 -8 7.13 2.09 0
 -2 10 -7 9.23 2.12 0
 -2 11 -14 6.66 2.8 0
 -2 11 -13 8.89 2.97 0
 -2 11 -12 73.05 5.02 0
 -2 11 -11 28.08 3.6 0
 -2 11 -10 40.58 3.9 0
 -2 11 -9 38.72 3.68 0
 -1 -3 -19 38.61 4.48 0
 -1 -3 -18 30.32 3.83 0
 -1 -2 -19 44.41 4.42 0
 -1 -2 -18 34.6 3.72 0
 -1 -2 -17 46.64 3.98 0
 -1 -1 -18 3.22 2.49 0
 -1 -1 -17 13.63 2.71 0
 -1 -1 -16 9.94 2.56 0
 -1 -1 -15 73.85 4.4 0
 -1 -1 1 1015 4.11 0
 -1 -1 2 200.63 2.04 0
 -1 0 -19 19.52 3.56 0
 -1 0 -18 7.51 2.5 0
 -1 0 -17 20.88 3.19 0
 -1 0 -16 3.38 2.36 0
 -1 0 -15 17.97 2.75 0
 -1 0 -14 9.95 2.12 0
 -1 1 -19 18.27 3.11 0
 -1 1 -18 7.6 2.56 0
 -1 1 -17 19.15 2.99 0
 -1 1 -16 7.58 2.3 0
 -1 1 -15 76.69 4.41 0
 -1 1 -14 10.31 2.14 0
 -1 1 -13 74.22 3.87 0
 -1 1 -12 32.73 2.72 0
 -1 1 -11 225.51 5.83 0
 -1 1 -10 151.4 4.56 0
 -1 1 -1 1005.72 4.54 0
 -1 2 -19 44.45 4.35 0
 -1 2 -18 41.05 4.09 0
 -1 2 -17 42.79 3.75 0
 -1 2 -16 19.36 2.93 0
 -1 2 -15 8.16 2.35 0
 -1 2 -14 36.38 3.14 0
 -1 2 -13 65.37 3.95 0
 -1 2 -12 0.02 1.07 0
 -1 2 -11 253.14 6.26 0
 -1 2 -10 667.68 9.54 0
 -1 2 -6 937.99 8.69 0
 -1 2 -4 1691.2 9.86 0
 -1 2 -3 499.27 4.88 0
 -1 2 -2 3993.56 12.02 0
 -1 2 -1 3334.67 9.71 0
 -1 2 0 147.31 1.86 0
 -1 3 -19 42.33 4.62 0
 -1 3 -18 25.05 3.47 0
 -1 3 -17 54.2 4.24 0
 -1 3 -16 3.8 2.45 0
 -1 3 -14 18.94 2.65 0
 -1 3 -10 216.09 5.65 0
 -1 3 -9 334.85 6.57 0
 -1 3 -7 734.78 8.55 0
 -1 3 -6 630.9 7.42 0
 -1 3 -5 383.78 5.39 0
 -1 3 -4 283.22 4.33 0
 -1 3 -3 804.53 6.67 0
 -1 3 -2 373.51 4.18 0
 -1 3 -1 1079.94 6.56 0
 -1 4 -19 34.92 4.45 0
 -1 4 -18 44.6 4.48 0
 -1 4 -17 230.06 8.09 0
 -1 4 -16 212.08 7.44 0
 -1 4 -15 34.94 3.44 0
 -1 4 -14 371.15 8.94 0
 -1 4 -13 152.96 5.63 0
 -1 4 -12 115.98 4.77 0
 -1 4 -11 14.25 2.12 0
 -1 4 -10 357.06 7.29 0
 -1 4 -9 527.04 8.48 0
 -1 4 -6 552.58 7.28 0
 -1 4 -4 69.31 2.39 0
 -1 4 -3 220.55 3.85 0
 -1 4 -2 1622 9.69 0
 -1 4 -1 607.98 5.69 0
 -1 5 -18 26.51 3.77 0
 -1 5 -17 58.36 4.83 0
 -1 5 -16 73.13 5.05 0
 -1 5 -15 174.58 6.9 0
 -1 5 -14 27.99 3.46 0
 -1 5 -13 25.09 2.94 0
 -1 5 -12 117.21 4.95 0
 -1 5 -11 423.84 8.63 0
 -1 5 -10 27.64 2.48 0
 -1 5 -9 259.2 6.17 0
 -1 5 -5 89.63 3.05 0
 -1 5 -4 187.52 4.05 0
 -1 6 -18 7.61 2.61 0
 -1 6 -17 49.27 4.53 0
 -1 6 -16 123.18 6.08 0
 -1 6 -15 36.87 3.59 0
 -1 6 -14 106.77 5.54 0
 -1 6 -13 116.97 5.22 0
 -1 6 -12 27.58 2.77 0
 -1 6 -11 21.08 2.63 0
 -1 6 -10 15.85 2.25 0
 -1 6 -7 95 3.67 0
 -1 6 -3 20.27 1.71 0
 -1 6 -2 152.74 3.76 0
 -1 7 -17 18.83 3.27 0
 -1 7 -16 113.62 5.89 0
 -1 7 -15 94.02 5.42 0
 -1 7 -14 24.31 3.27 0
 -1 7 -13 49.95 3.75 0
 -1 7 -12 14.25 2.53 0
 -1 7 -10 22.68 2.8 0
 -1 7 -9 58.19 3.56 0
 -1 7 -8 89.01 3.89 0
 -1 7 -6 38.31 2.66 0
 -1 7 -5 505.63 8.12 0
 -1 8 -17 6.84 2.74 0
 -1 8 -15 45.85 4.05 0
 -1 8 -14 16.18 2.99 0
 -1 8 -13 29.16 3.44 0
 -1 8 -12 68.43 4.33 0
 -1 8 -11 23.63 2.84 0
 -1 8 -10 157.73 5.89 0
 -1 8 -9 37.53 3.01 0
 -1 8 -8 50.4 3.46 0
 -1 8 -7 41.54 3.07 0
 -1 8 -6 22.24 2.21 0
 -1 8 -5 201.31 5.44 0
 -1 9 -16 10.57 3.05 0
 -1 9 -15 12.11 3.18 0
 -1 9 -14 41.9 4.27 0
 -1 9 -13 29.09 3.92 0
 -1 9 -12 19.45 3.1 0
 -1 9 -11 10.94 2.8 0
 -1 9 -10 7.54 2.18 0
 -1 9 -9 269.12 7.6 0
 -1 9 -8 85.86 4.47 0
 -1 9 -7 27.13 2.89 0
 -1 10 -12 40.65 4.16 0
 -1 10 -11 164.8 6.68 0
 -1 10 -10 89.12 4.93 0
 -1 10 -9 77.34 4.63 0
 -1 10 -8 12.08 2.38 0
 -1 11 -14 94.72 5.82 0
 -1 11 -11 20.12 3.5 0
 0 -5 -19 164.14 6.96 0
 0 -4 -19 35.06 4.06 0
 0 -4 -18 23.96 3.29 0
 0 -3 -19 132.77 6.25 0
 0 -3 -18 -1.76 1.68 0
 0 -3 -17 -0.4 1.71 0
 0 -2 -19 17.52 3.31 0
 0 -2 -18 17.8 3.24 0
 0 -2 -17 6.42 2.2 0
 0 -2 -16 15.08 2.63 0
 0 -1 -20 96.6 5.65 0
 0 -1 -19 33.74 3.96 0
 0 -1 -18 8.94 2.43 0
 0 -1 -17 13.03 2.89 0
 0 -1 -16 185.02 6.46 0
 0 -1 -15 0.55 1.81 0
 0 -1 -14 30.37 2.74 0
 0 -1 1 748.61 3.46 0
 0 -1 2 607.21 3.83 0
 0 0 -20 119.94 6.16 0
 0 0 -19 3.3 2.22 0
 0 0 -17 2.39 2.25 0
 0 0 -16 113.14 5.35 0
 0 0 -15 -0.43 1.41 0
 0 0 -14 20.53 2.48 0
 0 0 -13 -0.71 1.11 0
 0 0 -12 0.18 1.19 0
 0 1 -19 32.5 3.92 0
 0 1 -18 17.27 2.97 0
 0 1 -17 11.89 2.76 0
 0 1 -16 185.4 6.62 0
 0 1 -15 -0.42 1.4 0
 0 1 -14 28.86 2.75 0
 0 1 -13 77.52 4 0
 0 1 -12 1.14 1.23 0
 0 1 -11 8.09 1.55 0
 0 1 -8 15.95 1.4 0
 0 1 -7 210.33 4.13 0
 0 1 -6 281.49 4.36 0
 0 1 -5 2166.52 10.79 0
 0 1 -4 23.19 1.3 0
 0 1 -3 12.99 0.86 0
 0 1 -2 596.76 3.79 0
 0 2 -19 10.5 2.91 0
 0 2 -18 12.7 3 0
 0 2 -16 18.06 2.79 0
 0 2 -15 56.48 4.01 0
 0 2 -14 193.22 6.13 0
 0 2 -13 139.39 5.01 0
 0 2 -12 158.37 5.15 0
 0 2 -11 161.54 4.89 0
 0 2 -8 305.34 5.53 0
 0 2 -7 226.77 4.46 0
 0 2 -6 5.03 1 0
 0 2 -4 1405.5 8.34 0
 0 2 -3 976.93 6.31 0
 0 2 -2 419.76 3.75 0
 0 2 -1 534.44 3.86 0
 0 3 -19 120.68 6.24 0
 0 3 -18 -1.69 2.12 0
 0 3 -17 1.01 1.86 0
 0 3 -16 108.07 5.45 0
 0 3 -15 35.32 3.4 0
 0 3 -14 21.86 2.64 0
 0 3 -13 413.34 8.59 0
 0 3 -12 3.47 1.64 0
 0 3 -11 389.65 7.53 0
 0 3 -10 44.55 2.78 0
 0 3 -7 4.55 1.17 0
 0 3 -6 55.93 2.34 0
 0 3 -5 1670.99 10.74 0
 0 3 -4 1224.9 8.57 0
 0 3 -3 2653 11.59 0
 0 3 -2 633.45 5.37 0
 0 3 -1 1182.73 6.91 0
 0 4 -19 31.52 3.92 0
 0 4 -18 18.38 3.25 0
 0 4 -17 1.35 2.01 0
 0 4 -16 2.08 1.87 0
 0 4 -15 0.03 1.6 0
 0 4 -13 39.4 3.28 0
 0 4 -12 343.9 7.68 0
 0 4 -11 118.99 4.43 0
 0 4 -10 149.55 4.67 0
 0 4 -9 131.48 4.24 0
 0 4 -7 0.19 0.96 0
 0 4 -6 35.09 1.93 0
 0 4 -5 457.16 6.06 0
 0 4 -4 720.58 7.18 0
 0 5 -18 0.74 2.3 0
 0 5 -17 407.55 10.4 0
 0 5 -15 25.33 3.38 0
 0 5 -14 312.47 8.19 0
 0 5 -12 121.5 4.94 0
 0 5 -11 707.82 10.87 0
 0 5 -10 45.3 2.9 0
 0 5 -4 86.53 2.81 0
 0 6 -18 60.13 4.78 0
 0 6 -17 6.64 2.61 0
 0 6 -16 3.66 2.15 0
 0 6 -15 17.43 2.86 0
 0 6 -14 77.8 4.57 0
 0 6 -13 22.24 2.98 0
 0 6 -12 140.14 5.45 0
 0 6 -11 19.46 2.49 0
 0 6 -10 139.84 4.91 0
 0 6 -9 1 1.3 0
 0 6 -4 88.88 3.14 0
 0 7 -18 46.04 4.81 0
 0 7 -17 1.72 2.23 0
 0 7 -15 39.32 3.96 0
 0 7 -14 99.04 5.25 0
 0 7 -13 241.82 7.47 0
 0 7 -12 6.84 2.17 0
 0 7 -11 5.64 1.87 0
 0 7 -10 332.64 7.77 0
 0 7 -9 21.2 2.32 0
 0 7 -8 282.09 6.63 0
 0 8 -17 -0.98 2.07 0
 0 8 -16 19.86 3.46 0
 0 8 -15 47.85 4.11 0
 0 8 -14 28.33 3.48 0
 0 8 -11 57.49 3.74 0
 0 8 -10 17.37 2.5 0
 0 8 -9 -0.11 1.29 0
 0 8 -7 29.45 2.52 0
 0 8 -6 399.1 7.79 0
 0 9 -16 32.86 4.29 0
 0 9 -14 73.5 4.92 0
 0 9 -13 38.17 3.99 0
 0 9 -12 27.74 3.37 0
 0 9 -11 23.27 3.28 0
 0 9 -10 27.58 3.27 0
 0 9 -9 116.64 5.04 0
 0 9 -8 5.22 1.64 0
 0 9 -7 29.37 2.63 0
 0 10 -15 26.91 4.2 0
 0 10 -14 16.4 3.45 0
 0 10 -12 0.63 1.88 0
 0 10 -11 2.82 2.02 0
 1 -5 -19 30.62 3.68 0
 1 -5 -18 19.07 2.77 0
 1 -4 -18 43.16 3.64 0
 1 -4 -17 240.62 7.32 0
 1 -3 -20 43.04 3.96 0
 1 -3 -19 46.03 3.91 0
 1 -3 -18 20.01 2.92 0
 1 -3 -17 55.42 3.9 0
 1 -3 -16 2.32 1.62 0
 1 -2 -20 36.14 3.93 0
 1 -2 -19 43.01 3.95 0
 1 -2 -18 37.98 3.66 0
 1 -2 -16 21.18 2.73 0
 1 -2 -15 7.06 1.94 0
 1 -2 0 153.17 1.9 0
 1 -1 -20 39.09 3.89 0
 1 -1 -19 16.63 2.85 0
 1 -1 -18 6.68 2.2 0
 1 -1 -17 12.12 2.35 0
 1 -1 -16 9.6 2.2 0
 1 -1 -15 73.28 3.87 0
 1 -1 -14 7.5 1.93 0
 1 -1 -13 74.49 3.57 0
 1 -1 -12 27.65 2.33 0
 1 0 -20 109.52 5.5 0
 1 0 -19 21.38 3.13 0
 1 0 -18 1.67 1.73 0
 1 0 -17 23.62 2.92 0
 1 0 -16 3.81 1.79 0
 1 0 -15 18.22 2.58 0
 1 0 -14 12.48 2.09 0
 1 0 -13 137.18 4.7 0
 1 0 -12 99.79 3.83 0
 1 0 -11 0.34 0.95 0
 1 0 -9 309.68 5.35 0
 1 1 -20 33.32 4.05 0
 1 1 -18 6.21 1.99 0
 1 1 -16 7.07 1.95 0
 1 1 -14 9.37 1.87 0
 1 1 -13 75.08 3.72 0
 1 1 -12 30.01 2.38 0
 1 1 -11 225.97 5.33 0
 1 1 -9 107.81 3.38 0
 1 1 -6 385.13 4.82 0
 1 1 -5 2303.11 10.39 0
 1 1 -4 617.34 4.75 0
 1 1 -3 9565.84 16.23 0
 1 2 -20 31.23 3.89 0
 1 2 -19 48.79 4.15 0
 1 2 -18 33 3.39 0
 1 2 -17 49.84 3.9 0
 1 2 -16 19.38 2.86 0
 1 2 -15 9.21 2.04 0
 1 2 -14 42.1 3.07 0
 1 2 -13 61.02 3.33 0
 1 2 -12 1.44 1.29 0
 1 2 -11 256.36 5.82 0
 1 2 -8 96.01 2.98 0
 1 2 -7 343.79 5.13 0
 1 2 -6 950.97 7.84 0
 1 2 -5 120.13 2.63 0
 1 2 -4 1705.59 8.82 0
 1 2 -3 491.48 4.32 0
 1 2 -2 3920.38 11.39 0
 1 3 -19 38.59 3.99 0
 1 3 -18 27.1 3.37 0
 1 3 -17 49.05 4.09 0
 1 3 -16 4.97 1.95 0
 1 3 -15 39.72 3.19 0
 1 3 -13 69.56 3.72 0
 1 3 -11 192.44 5.29 0
 1 3 -8 82.41 3.06 0
 1 3 -7 758.5 8.08 0
 1 3 -6 638.14 6.96 0
 1 3 -5 396.4 5.12 0
 1 3 -4 284.74 4.06 0
 1 3 -3 806.35 6.45 0
 1 4 -19 35.92 4.17 0
 1 4 -18 49.14 3.93 0
 1 4 -15 34.31 3.41 0
 1 4 -14 361.04 8.27 0
 1 4 -13 152.24 5.4 0
 1 4 -11 10.61 2.01 0
 1 4 -7 400.21 6.22 0
 1 4 -6 566.54 6.95 0
 1 4 -5 110.55 3 0
 1 4 -4 65.41 2.32 0
 1 4 -3 224.2 3.89 0
 1 5 -19 20.37 3.18 0
 1 5 -18 21.51 3.17 0
 1 5 -16 76.33 4.5 0
 1 5 -15 170.26 6.17 0
 1 5 -14 33.17 3.3 0
 1 5 -13 19.95 2.72 0
 1 5 -12 116.45 4.7 0
 1 5 -11 437.12 8.25 0
 1 5 -10 23.61 2.29 0
 1 5 -9 259.81 5.83 0
 1 5 -6 48.19 2.42 0
 1 5 -5 87.05 2.99 0
 1 5 -4 182.3 3.99 0
 1 6 -18 7.05 2.42 0
 1 6 -17 52.11 4.17 0
 1 6 -16 128.32 5.77 0
 1 6 -15 32.42 3.58 0
 1 6 -14 106.85 5.07 0
 1 6 -13 117.24 5.02 0
 1 6 -12 28.79 2.95 0
 1 6 -11 19.94 2.41 0
 1 6 -10 11.14 1.85 0
 1 6 -8 420.76 7.64 0
 1 6 -7 92.35 3.58 0
 1 7 -18 43.1 4.37 0
 1 7 -17 21.63 3.25 0
 1 7 -16 114.42 5.76 0
 1 7 -15 89.26 5.01 0
 1 7 -14 28.3 3.48 0
 1 7 -13 38.2 3.35 0
 1 7 -12 15.41 2.5 0
 1 7 -11 12.91 2.14 0
 1 7 -10 21.56 2.46 0
 1 7 -8 91.16 4.05 0
 1 7 -7 92.45 3.78 0
 1 7 -6 35.04 2.45 0
 1 8 -17 8.75 2.76 0
 1 8 -15 49.26 4.12 0
 1 8 -14 15.96 2.82 0
 1 8 -13 33 3.4 0
 1 8 -12 76.03 4.45 0
 1 8 -10 159.23 5.85 0
 1 8 -9 34.83 2.83 0
 1 8 -8 51.35 3.21 0
 1 9 -16 12.45 3.04 0
 1 9 -15 12.76 2.83 0
 1 9 -13 28.39 3.84 0
 1 9 -12 21.55 2.98 0
 1 9 -11 11.78 2.47 0
 1 9 -10 4.91 1.95 0
 2 -4 -16 57.52 3.44 0
 2 -3 -16 5.62 1.62 0
 2 -3 -15 60.02 3.4 0
 2 -3 -14 37.78 2.7 0
 2 -2 -17 55.69 3.44 0
 2 -2 -16 22.92 2.72 0
 2 -2 -15 61.64 3.42 0
 2 -2 -14 37.06 2.67 0
 2 -2 -13 36.28 2.48 0
 2 -2 -12 41.44 2.46 0
 2 -1 -18 29.02 2.87 0
 2 -1 -17 170.77 5.65 0
 2 -1 -16 2.07 1.35 0
 2 -1 -15 52.07 3.25 0
 2 -1 -14 149.05 4.81 0
 2 -1 -13 36.26 2.58 0
 2 -1 -12 111.88 3.78 0
 2 -1 -10 536.71 6.92 0
 2 -1 -9 118.83 3.09 0
 2 -1 -8 186.16 3.52 0
 2 -1 -4 354.79 2.62 0
 2 0 -18 31.29 3.04 0
 2 0 -17 8.34 1.92 0
 2 0 -16 1.58 1.42 0
 2 0 -14 66.75 3.44 0
 2 0 -13 23.47 2.07 0
 2 0 -12 220.44 5.18 0
 2 0 -10 49.98 2.41 0
 2 0 -9 504.18 6.3 0
 2 0 -8 1.61 0.7 0
 2 0 -7 427.89 4.9 0
 2 0 -6 824.82 6 0
 2 0 -4 1821.84 6.4 0
 2 0 -3 1568.07 4.56 0
 2 1 -18 24.88 3.03 0
 2 1 -17 164.73 5.83 0
 2 1 -16 2.24 1.82 0
 2 1 -15 55.55 3.26 0
 2 1 -14 152.27 4.91 0
 2 1 -13 34.19 2.6 0
 2 1 -12 113.23 3.82 0
 2 1 -9 124.51 3.34 0
 2 1 -7 343.4 4.57 0
 2 1 -6 481.01 4.92 0
 2 1 -5 529.38 4.62 0
 2 2 -19 46.12 3.72 0
 2 2 -18 280.5 7.69 0
 2 2 -17 56.4 3.9 0
 2 2 -15 57.69 3.58 0
 2 2 -14 41.01 2.83 0
 2 2 -12 42.48 2.7 0
 2 2 -11 80.87 3.31 0
 2 2 -9 154.6 3.8 0
 2 2 -8 239.12 4.46 0
 2 2 -7 75.55 2.38 0
 2 2 -6 39.9 1.64 0
 2 2 -5 123.57 2.52 0
 2 2 -4 1055.66 6.79 0
 2 3 -18 49.34 3.8 0
 2 3 -15 62.49 3.79 0
 2 3 -14 38.22 3.04 0
 2 3 -13 254.89 6.35 0
 2 3 -12 360.4 7.13 0
 2 3 -11 160.68 4.65 0
 2 3 -8 11.61 1.44 0
 2 3 -7 632.93 7.06 0
 2 3 -6 196.72 3.79 0
 2 3 -5 332.57 4.62 0
 2 3 -4 1800.72 10.02 0
 2 4 -19 -0.19 1.58 0
 2 4 -18 49.82 3.99 0
 2 4 -17 52.35 3.96 0
 2 4 -16 51.86 3.8 0
 2 4 -15 208.14 6.31 0
 2 4 -14 149.78 5.37 0
 2 4 -13 2.22 1.42 0
 2 4 -12 343.66 7.24 0
 2 4 -11 12.36 1.76 0
 2 4 -10 96.66 3.58 0
 2 4 -7 110.11 3.3 0
 2 4 -6 265.05 4.84 0
 2 4 -5 409.72 5.69 0
 2 5 -19 6.77 2.3 0
 2 5 -18 48.88 4.11 0
 2 5 -17 -0.29 1.8 0
 2 5 -16 22.21 3.05 0
 2 5 -15 96.73 4.73 0
 2 5 -14 146.01 5.37 0
 2 5 -13 26.1 2.6 0
 2 5 -12 26.12 2.59 0
 2 5 -11 183.8 5.31 0
 2 5 -10 334.59 6.83 0
 2 5 -9 38.77 2.48 0
 2 6 -18 115.97 5.81 0
 2 6 -17 37.31 3.88 0
 2 6 -16 90.67 4.91 0
 2 6 -15 11.82 2.57 0
 2 6 -14 77.9 4.41 0
 2 6 -13 210.83 6.54 0
 2 6 -12 3.19 1.51 0
 2 6 -11 77.11 3.77 0
 2 6 -10 64.1 3.41 0
 2 6 -9 110.27 4.14 0
 2 6 -8 37.77 2.55 0
 2 7 -17 72.74 4.88 0
 2 7 -16 39.05 3.85 0
 2 7 -15 65.84 4.49 0
 2 7 -14 3.31 2.04 0
 2 7 -13 71 4.33 0
 2 7 -12 50.03 3.69 0
 2 7 -11 14.31 2.28 0
 2 7 -10 5.94 1.92 0
 2 7 -9 143.08 4.95 0
 2 8 -17 15.35 3.08 0
 2 8 -16 128.46 6.14 0
 2 8 -15 16.59 2.98 0
 2 8 -14 4.69 2.24 0
 2 8 -13 31.15 3.21 0
 2 8 -12 28.68 3.41 0
 2 8 -11 96.21 4.81 0
 3 -3 -4 62.98 0.99 0
 3 -3 -3 788.42 3.23 0
 3 -3 -2 91.2 1.29 0
 3 -2 -11 188.57 4.01 0
 3 -2 -8 185.4 2.99 0
 3 -2 -7 23.1 1 0
 3 -2 -6 131.93 1.79 0
 3 -1 -13 15.27 1.5 0
 3 -1 -11 158.82 3.65 0
 3 -1 -8 256.26 3.49 0
 3 -1 -7 1436.21 7.12 0
 3 -1 -6 623.56 3.85 0
 3 0 -13 41.16 2.32 0
 3 0 -11 93.59 2.91 0
 3 0 -10 38.97 1.89 0
 3 0 -6 263.16 2.82 0
 3 0 -5 301.38 2.46 0
 3 1 -14 67.42 3.13 0
 3 1 -13 14.95 1.78 0
 3 1 -10 91.1 2.82 0
 3 1 -9 13.37 1.17 0
 3 2 -15 50.11 2.92 0
 3 2 -14 9.3 1.63 0
 3 2 -13 100.66 3.64 0
 3 2 -12 79.93 3.17 0
 3 2 -9 121.93 3.21 0
 3 3 -15 235.49 6.12 0
 3 3 -14 12.29 1.85 0
 3 3 -12 17.1 1.98 0
 3 3 -11 271.03 5.59 0
 3 3 -9 49.12 2.28 0
 3 3 -8 133.29 3.41 0
 3 3 -7 755.07 7.47 0
 3 4 -16 24.72 2.68 0
 3 4 -15 140.22 5.06 0
 3 4 -14 27.58 2.42 0
 3 4 -12 44.61 2.72 0
 3 4 -11 97.48 3.67 0
 3 4 -10 142.96 4.25 0
 3 5 -17 19.66 2.62 0
 3 5 -16 32.5 3.14 0
 3 5 -15 47.54 3.4 0
 3 5 -14 7.75 1.84 0
 3 5 -13 82.41 4.03 0
 3 5 -12 136.53 4.78 0
 3 5 -11 34.61 2.66 0
 3 5 -10 3.39 1.32 0
 3 5 -9 157.31 4.42 0
 3 6 -17 0.18 1.65 0
 3 6 -16 93.16 4.71 0
 3 6 -15 122.93 5.12 0
 3 6 -14 113.42 4.83 0
 3 6 -13 89.29 4.36 0
 3 6 -12 74.53 3.81 0
 3 6 -11 34.72 2.84 0
 -2 0 -5 56.61 1.24 0
 -2 1 -7 340.53 2.31 0
 -2 1 -6 478.12 3.47 0
 -2 2 -8 229.94 2.46 0
 -1 -1 0 1616.35 6.45 0
 -1 0 -2 849.14 3.67 0
 -1 0 -1 1121.04 4.67 0
 -1 0 0 0.38 0.45 0
 -1 0 1 1057.14 5.35 0
 -1 2 -9 100.55 1.44 0
 -1 2 -8 98.92 1.64 0
 -1 3 -10 220.28 2.9 0
 -1 3 -9 348.5 3.83 0
 -1 4 -10 365.12 4.59 0
 -1 6 -11 13.75 1.63 0
 0 0 -5 0.39 0.25 0
 0 0 -4 1961.68 5.42 0
 0 1 -9 44.07 1.26 0
 0 1 -8 14.8 0.79 0
 0 1 -7 211.97 2.57 0
 0 1 4 25.95 0.8 0
 0 1 5 2231.09 6.75 0
 0 1 6 276.43 2.49 0
 0 1 7 213.08 2.25 0
 0 1 8 15.14 0.7 0
 0 2 -11 167.1 2.65 0
 0 2 -10 134.03 2.47 0
 0 2 -9 16.22 1 0
 0 3 -8 186.4 3.36 0
 0 3 -7 7.28 0.97 0
 0 4 -9 130.75 3.19 0
 0 5 -11 719.51 8.13 0
 0 5 -10 50.8 2.44 0
 0 5 -9 397.31 6.05 0
 0 7 -12 5.11 1.2 0
 0 7 -11 4.79 1.33 0
 0 8 -12 4.64 1.45 0
 0 8 -11 62.55 3.34 0
 0 9 -12 24.23 2.72 0
 0 9 -11 22.73 2.82 0
 0 10 -12 0.93 1.37 0
 0 10 -11 -0.11 1.81 0
 0 11 -12 3.35 2.05 0
 0 11 -11 114.29 5.43 0
 0 12 -12 1.16 2.08 0
 0 12 -11 8.17 2.58 0
 0 13 -12 133.13 6.03 0
 0 13 -11 11.44 2.71 0
 0 14 -11 35.42 4.1 0
 1 0 -7 451.67 4.97 0
 1 0 -6 36.89 1.49 0
 1 0 -5 1583.56 8.56 0
 1 0 -4 441.11 4.31 0
 1 0 -3 1270.63 6.79 0
 1 0 -1 1090.97 5.59 0
 1 0 0 0.31 0.49 0
 1 0 1 1057.16 4.61 0
 1 0 2 801.73 3.6 0
 1 1 -9 106.55 2.69 0
 1 1 -8 75.24 2.23 0
 1 1 -7 164.25 3.11 0
 1 1 -6 381.33 4.54 0
 1 1 -5 2354.11 10.65 0
 1 1 -4 612.53 5.26 0
 1 1 -3 9602 19.38 0
 1 1 -2 198.47 2.7 0
 1 1 -1 1041.09 5.74 0
 1 1 0 1590.16 6.57 0
 1 1 1 1002.58 4.89 0
 1 1 2 192.27 1.98 0
 1 1 3 9409.4 12.01 0
 1 2 -10 654.05 6.93 0
 1 2 -9 104.69 2.81 0
 1 2 -6 953.54 7.62 0
 1 2 -4 1760.71 9.67 0
 1 2 -3 497.79 4.89 0
 1 2 -2 3907.25 13.02 0
 1 3 -11 197.74 4.2 0
 1 3 -10 216.76 4.38 0
 1 3 -9 356.92 5.5 0
 1 3 -8 87.18 2.77 0
 1 3 -7 752.14 7.57 0
 1 3 -5 391.77 5.1 0
 1 4 -10 366.85 6.02 0
 1 4 -9 547.25 7.26 0
 1 4 -8 1063.93 10.01 0
 1 4 -7 399.88 6.02 0
 1 4 -6 571.48 6.91 0
 1 5 -8 321.3 5.91 0
 1 5 -7 526.5 7.41 0
 1 6 -12 25.65 2.14 0
 1 6 -11 18.57 2.18 0
 1 6 -10 14.72 2.06 0
 1 7 -12 15.03 2 0
 1 7 -11 13.05 1.98 0
 1 7 -9 55.9 3.24 0
 1 8 -13 37.55 2.77 0
 1 8 -12 69.28 3.72 0
 1 8 -11 24.18 2.63 0
 1 8 -10 157.28 5.34 0
 1 8 -9 34.05 2.97 0
 1 9 -13 31.86 2.93 0
 1 9 -12 17.82 2.56 0
 1 9 -11 13.47 2.53 0
 1 9 -10 8.12 2.1 0
 1 9 -9 271.99 7.4 0
 1 10 -13 57.51 3.85 0
 1 10 -12 35.62 3.53 0
 1 10 -11 162.63 6.17 0
 1 11 -13 37.26 3.58 0
 1 11 -12 5.35 2.49 0
 1 11 -11 18.68 3.25 0
 1 11 -10 155.03 6.2 0
 1 12 -13 122.16 5.96 0
 1 12 -12 79.24 5.11 0
 1 12 -10 30.79 3.61 0
 1 13 -12 74.63 5.25 0
 1 13 -11 10.47 2.85 0
 1 13 -10 27.16 3.95 0
 1 13 -9 72.97 5.38 0
 1 14 -10 43.13 4.53 0
 1 14 -9 71.72 5.43 0
 2 0 -8 1.42 1.01 0
 2 0 -7 421.48 6.08 0
 2 0 -6 807.75 8.03 0
 2 0 -5 58.86 2.25 0
 2 0 -4 1851.93 11.38 0
 2 0 -2 186.66 3.47 0
 2 0 -1 3292.98 13.44 0
 2 0 0 208.74 3.32 0
 2 0 1 3351.41 12.35 0
 2 0 2 194.09 2.88 0
 2 1 -10 533.13 7.37 0
 2 1 -9 120.62 3.59 0
 2 1 -8 182.23 4.17 0
 2 1 -7 331.64 5.45 0
 2 1 -6 462.94 6.16 0
 2 1 -5 527.63 6.33 0
 2 1 -4 361.61 5.19 0
 2 1 -3 830.1 7.39 0
 2 1 -2 3256.99 14.07 0
 2 1 -1 2486.11 11.76 0
 2 1 0 281.58 3.95 0
 2 1 1 2591.24 11 0
 2 1 2 3093.55 11.34 0
 2 1 3 809.2 5.51 0
 2 1 4 359.43 3.47 0
 2 1 5 507.72 3.65 0
 2 2 -10 311.22 5.89 0
 2 2 -9 149.14 4.07 0
 2 2 -8 231.65 4.84 0
 2 2 -7 74.69 2.73 0
 2 2 -6 36.67 2.06 0
 2 2 -5 127.39 3.36 0
 2 2 -4 1060.48 9 0
 2 2 -3 301.45 4.77 0
 2 2 -2 1809.36 11.03 0
 2 2 0 1202.53 8.4 0
 2 2 1 614.58 5.77 0
 2 2 2 1780.62 9.37 0
 2 2 3 295.35 3.65 0
 2 2 4 1031.04 6.39 0
 2 2 5 125.83 2.14 0
 2 2 6 35.77 1.05 0
 2 2 7 69.53 1.06 0
 2 3 -9 93.2 3.47 0
 2 3 -8 10.52 1.6 0
 2 3 -7 638.16 8.06 0
 2 3 -6 197.07 4.46 0
 2 3 -5 338.04 5.56 0
 2 3 -4 1842.67 12.55 0
 2 3 -3 411.23 5.9 0
 2 3 -2 1192.49 9.52 0
 2 3 -1 1071.44 8.76 0
 2 3 0 30.14 1.82 0
 2 3 1 1037.69 8.04 0
 2 3 4 1823.25 9.57 0
 2 3 5 335.82 3.99 0
 2 3 6 197.38 2.9 0
 2 3 7 620.87 4.51 0
 2 3 8 10.04 0.56 0
 2 4 -13 3.42 1.18 0
 2 4 -12 337.44 6.66 0
 2 4 -6 268.85 5.49 0
 2 4 -5 409.07 6.65 0
 2 4 -4 1041.66 10.05 0
 2 4 -3 682.7 7.95 0
 2 4 -1 25.3 1.69 0
 2 4 6 253.85 3.77 0
 2 4 8 225.06 3.13 0
 2 4 9 0.7 0.36 0
 2 5 -13 25.02 2.3 0
 2 5 -12 30.44 2.54 0
 2 5 -11 188.95 5.33 0
 2 5 -10 303.27 6.63 0
 2 5 -9 36.85 2.7 0
 2 5 -4 116.54 3.66 0
 2 5 9 33.97 1.43 0
 2 5 10 319.04 3.45 0
 2 6 -13 191.11 5.67 0
 2 6 -12 5.48 1.7 0
 2 6 -11 75.25 3.82 0
 2 6 -10 59.49 3.33 0
 2 6 -9 120.11 4.52 0
 2 6 -7 49.23 2.99 0
 2 6 10 63.93 2.06 0
 2 7 -13 64.06 3.85 0
 2 7 -12 45.8 3.19 0
 2 7 -10 6.57 1.86 0
 2 7 -9 153.58 5.27 0
 2 7 -8 205.44 6.02 0
 2 7 -7 211 5.96 0
 2 7 -6 37.17 2.85 0
 2 8 -13 33.72 3.22 0
 2 8 -12 28.71 3.2 0
 2 8 -11 105.69 4.79 0
 2 8 -10 87.07 4.55 0
 2 8 -9 108.79 4.76 0
 2 8 -8 123.57 5.1 0
 2 8 -7 254.71 6.84 0
 2 9 -13 13.66 2.49 0
 2 9 -12 18.91 2.75 0
 2 9 -11 31.35 3.22 0
 2 9 -10 3.43 2.22 0
 2 9 -9 95.06 4.77 0
 2 9 -8 54.5 3.66 0
 2 9 -7 39.09 3.27 0
 2 10 -14 9.56 2.23 0
 2 10 -13 11.42 2.64 0
 2 10 -11 189.45 6.97 0
 2 10 -10 34.83 3.77 0
 2 10 -9 82.28 4.73 0
 2 10 -8 7.51 2.19 0
 2 10 -7 10.51 2.49 0
 2 11 -13 7.85 2.56 0
 2 11 -12 82.75 5.31 0
 2 11 -11 32.36 3.59 0
 2 11 -10 39.85 4.18 0
 2 11 -9 39.37 4.16 0
 2 11 -7 8.23 2.45 0
 2 12 -13 25.08 3.61 0
 2 12 -12 43.1 4.12 0
 2 12 -11 8.01 3.01 0
 2 12 -10 47.66 4.68 0
 2 12 -9 59.63 4.95 0
 2 12 -7 42.09 4.29 0
 2 13 -12 110.75 6.28 0
 2 13 -11 76.85 5.66 0
 2 13 -10 181.25 7.91 0
 2 13 -9 28.32 3.96 0
 2 13 -8 84.83 5.5 0
 2 13 -7 101.91 5.81 0
 2 14 -9 26.8 4.32 0
 2 14 -7 20.27 4 0
 2 14 -6 13.06 3.67 0
 2 15 -6 182.21 8.22 0
 2 15 -5 63.44 5.39 0
 3 0 -6 263.38 5.49 0
 3 0 -4 0.34 1.09 0
 3 0 -3 198.66 4.42 0
 3 0 -1 25.16 1.69 0
 3 0 0 -0.41 0.83 0
 3 0 2 1090.02 8.78 0
 3 1 -10 90.27 3.79 0
 3 1 -6 617.2 8.52 0
 3 1 -4 52.96 2.45 0
 3 1 -3 20.72 1.65 0
 3 1 -2 1730.79 12.49 0
 3 1 -1 116.98 3.25 0
 3 1 0 225.1 4.32 0
 3 1 1 114.74 3.02 0
 3 1 2 1693.72 10.9 0
 3 1 3 17.03 1.45 0
 3 1 4 46.75 1.87 0
 3 1 5 424.21 4.76 0
 3 2 -12 85.17 3.84 0
 3 2 -5 487.33 7.42 0
 3 2 -4 687.9 8.55 0
 3 2 -3 312.92 5.72 0
 3 2 -2 596.95 7.55 0
 3 2 -1 91.32 3 0
 3 2 0 567.08 6.97 0
 3 2 1 93.69 2.84 0
 3 2 2 576.51 6.55 0
 3 2 3 311.23 4.66 0
 3 2 4 690.82 6.58 0
 3 2 5 504.04 5.41 0
 3 2 6 133.62 2.7 0
 3 3 -13 36.61 2.87 0
 3 3 -12 13.67 2.22 0
 3 3 -10 51.49 3.18 0
 3 3 -9 46.23 2.79 0
 3 3 -3 772.45 9.07 0
 3 3 -2 90.35 3.27 0
 3 3 0 998.38 9.52 0
 3 3 1 533.97 6.81 0
 3 3 2 87.55 2.9 0
 3 3 3 780.32 7.77 0
 3 3 4 64.21 2.25 0
 3 3 5 181.22 3.52 0
 3 3 6 455.76 5.21 0
 3 3 7 734.22 6.03 0
 3 3 8 132.25 2.31 0
 3 4 -13 87.35 4.07 0
 3 4 -12 45.2 3.12 0
 3 4 -10 141.22 4.87 0
 3 4 -9 36.48 2.93 0
 3 4 -8 247.68 6.18 0
 3 4 -2 129.73 4 0
 3 4 0 36.22 2.28 0
 3 4 1 1028.98 10.04 0
 3 4 3 62.92 2.51 0
 3 4 4 482.08 6.39 0
 3 4 6 32.4 1.77 0
 3 4 7 614.87 6.24 0
 3 4 8 237.22 3.57 0
 3 4 9 36.48 1.26 0
 3 5 -14 6.05 1.82 0
 3 5 -13 72.05 4 0
 3 5 -12 132.67 5.12 0
 3 5 -10 3.78 1.66 0
 3 5 -8 231.07 6.16 0
 3 5 -7 12.81 1.9 0
 3 5 -6 14.96 2.08 0
 3 5 -5 353.92 7.17 0
 3 5 2 79.53 3.1 0
 3 5 6 13.06 1.44 0
 3 5 7 12.96 1.4 0
 3 5 8 233.99 4.1 0
 3 5 9 168.42 3.18 0
 3 6 -14 119.05 5.08 0
 3 6 -13 91.76 4.55 0
 3 6 -12 74.52 4.17 0
 3 6 -10 250.58 6.9 0
 3 6 -9 116.93 4.79 0
 3 6 -8 54.7 3.37 0
 3 6 -7 141.21 5.03 0
 3 6 -6 446.78 8.69 0
 3 6 -5 279.53 6.77 0
 3 6 -4 324.27 7.11 0
 3 6 -3 262.95 6.64 0
 3 6 5 271.33 5.49 0
 3 6 8 54.43 2.38 0
 3 6 9 117.1 3.05 0
 3 7 -14 10.6 2.19 0
 3 7 -13 31.53 3.32 0
 3 7 -12 37.19 3.27 0
 3 7 -11 22.02 3 0
 3 7 -10 91.27 4.58 0
 3 7 -9 119.35 5.08 0
 3 7 -8 29.03 2.85 0
 3 7 -7 20.4 2.64 0
 3 7 -6 54.74 3.53 0
 3 7 -5 44.95 3.26 0
 3 7 -4 14.03 2.16 0
 3 7 -1 322.98 6.97 0
 3 7 0 42.84 2.75 0
 3 7 1 316.98 6.77 0
 3 7 9 125.94 3.58 0
 3 8 -14 66.55 4.19 0
 3 8 -13 62.8 4.2 0
 3 8 -12 100.34 5.11 0
 3 8 -11 67.22 4.43 0
 3 8 -10 39.21 3.82 0
 3 8 -9 38.08 3.67 0
 3 8 -8 90.31 4.87 0
 3 8 -7 6.98 2.1 0
 3 8 -5 93.52 4.6 0
 3 8 -4 287.62 7.47 0
 3 8 -3 37.36 2.98 0
 3 8 -2 242.6 6.6 0
 3 8 -1 294.36 7.1 0
 3 8 5 89.96 3.9 0
 3 8 6 196.59 5.32 0
 3 8 7 7.15 1.56 0
 3 9 -14 21.38 3.34 0
 3 9 -13 141.89 6.27 0
 3 9 -11 14.6 2.93 0
 3 9 -10 23.41 3.39 0
 3 9 -9 29.5 3.68 0
 3 9 -8 24.25 3.16 0
 3 9 -7 47.87 4.09 0
 3 9 -5 50.48 3.63 0
 3 9 -2 36.29 3.09 0
 3 9 6 123.37 4.61 0
 3 9 7 47.48 3.09 0
 3 9 8 23.13 2.23 0
 3 9 9 27.19 2.38 0
 3 10 -14 9.95 2.63 0
 3 10 -13 20.02 3.18 0
 3 10 -12 10.26 2.86 0
 3 10 -11 42.07 4.1 0
 3 10 -10 1.81 2.13 0
 3 10 -9 52.04 4.46 0
 3 10 -8 53.7 4.45 0
 3 10 -6 48.67 3.89 0
 3 10 -5 78.32 4.53 0
 3 10 -4 4.75 2.32 0
 3 10 -3 4.71 1.96 0
 3 10 -2 125.82 5.81 0
 3 10 7 13.71 2.2 0
 3 10 8 52.17 3.28 0
 3 10 9 49.84 3.12 0
 3 11 -14 94.33 5.72 0
 3 11 -13 53.34 4.58 0
 3 11 -12 12.05 2.96 0
 3 11 -11 25.66 3.66 0
 3 11 -10 17.3 3.32 0
 3 11 -9 371.74 10.43 0
 3 11 -8 74.5 5.06 0
 3 11 -7 46.84 4.49 0
 3 11 -6 69.63 5.06 0
 3 11 -5 52.66 4.33 0
 3 11 -4 13.84 2.9 0
 3 11 -3 12.17 3.08 0
 3 11 -2 54.12 4.16 0
 3 11 7 46.15 3.6 0
 3 11 8 68.76 3.95 0
 3 11 9 370.82 8.04 0
 3 12 -12 56.42 4.97 0
 3 12 -11 40.69 4.83 0
 3 12 -10 3.78 2.5 0
 3 12 -9 26.35 3.99 0
 3 12 -8 3.04 2.57 0
 3 12 -7 95.4 6.01 0
 3 12 -6 2.58 2.76 0
 3 12 -5 125.49 6.45 0
 3 12 -4 142.85 6.47 0
 3 12 -3 43.07 4.21 0
 3 12 -2 91.65 5.54 0
 3 12 7 95.92 4.93 0
 3 12 8 2.58 1.74 0
 3 13 -10 18.23 3.51 0
 3 13 -8 74.91 5.45 0
 3 13 -7 15.3 3.53 0
 3 13 -6 27.21 3.97 0
 3 13 -5 111.96 6.25 0
 3 13 -4 33.35 4.41 0
 3 13 -3 1.88 2.25 0
 3 13 6 29.98 3.64 0
 3 13 7 8.25 2.51 0
 3 13 8 63.43 4.09 0
 3 14 -7 26.88 4.21 0
 3 14 -5 34 4.6 0
 3 14 -4 11.26 3.17 0
 3 14 -3 49.59 4.53 0
 3 14 -2 113.09 6.25 0
 3 14 -1 6.04 2.61 0
 3 14 0 4.57 2.72 0
 3 14 5 36.52 4.48 0
 3 14 6 47.99 4.3 0
 3 14 7 27.63 3.65 0
 3 15 -4 13.93 3.51 0
 3 15 -3 21.57 3.85 0
 3 15 -2 0.95 2.62 0
 3 15 0 53.1 5.29 0
 3 15 1 32.14 4.34 0
 3 15 2 1.49 2.47 0
 3 15 3 25.03 3.83 0
 3 15 4 15.68 3.31 0
 3 15 5 7.78 3.11 0
 3 15 6 17.83 3.26 0
 3 15 7 11.66 3.02 0
 4 0 -6 46.9 2.95 0
 4 0 0 396.68 6.73 0
 4 0 1 5.44 1.26 0
 4 1 -9 175.37 5.68 0
 4 1 -8 133.92 4.94 0
 4 1 -7 134.51 4.89 0
 4 1 -6 528.62 8.96 0
 4 1 0 62.64 2.96 0
 4 1 1 1094.01 10.88 0
 4 1 2 33.3 2.08 0
 4 1 3 177.79 4.21 0
 4 1 4 108.9 3.24 0
 4 2 -9 66.33 3.79 0
 4 2 -8 82.67 4.14 0
 4 2 -7 193.91 5.86 0
 4 2 -6 133.99 4.82 0
 4 2 1 612.17 8.25 0
 4 2 2 33.51 2.3 0
 4 2 3 434.65 6.63 0
 4 2 4 713.29 8.22 0
 4 2 5 397 5.86 0
 4 2 6 130.55 3.24 0
 4 3 -13 49.09 3.74 0
 4 3 -12 34.4 3.1 0
 4 3 -11 128.58 5.27 0
 4 3 -10 98.24 4.56 0
 4 3 -9 74.73 4.14 0
 4 3 -8 1.3 1.42 0
 4 3 -7 12.81 2.1 0
 4 3 -6 72.06 3.58 0
 4 3 -4 58.45 3.16 0
 4 3 2 24.7 1.99 0
 4 3 3 94.09 3.35 0
 4 3 4 55.88 2.64 0
 4 3 5 449.48 6.49 0
 4 3 6 82.06 2.85 0
 4 3 7 12.67 1.39 0
 4 4 -14 38.79 3.47 0
 4 4 -13 60.62 4.2 0
 4 4 -12 43.87 3.73 0
 4 4 -11 21.59 2.88 0
 4 4 -10 7.8 2.03 0
 4 4 -8 149.4 5.39 0
 4 4 -7 25.67 2.56 0
 4 4 -6 51.49 3.21 0
 4 4 -5 672 10.43 0
 4 4 -4 295.11 6.86 0
 4 4 -3 133.46 4.69 0
 4 4 4 294.16 5.79 0
 4 4 5 670.23 8.29 0
 4 4 6 54.82 2.41 0
 4 4 7 27.13 1.79 0
 4 4 8 156.76 3.47 0
 4 4 9 43.95 1.69 0
 4 5 -15 1.79 1.48 0
 4 5 -13 20.61 2.98 0
 4 5 -12 27.06 3.22 0
 4 5 -10 7.78 2.11 0
 4 5 -9 132.68 5.53 0
 4 5 -8 49.15 3.46 0
 4 5 -6 1.78 1.59 0
 4 5 -5 5.22 1.68 0
 4 5 -4 241.45 6.49 0
 4 5 -2 153.31 5.01 0
 4 5 -1 228.27 5.88 0
 4 5 0 601.27 9.24 0
 4 5 6 1.94 1.13 0
 4 5 7 29.74 2.06 0
 4 5 8 51.41 2.29 0
 4 5 9 122.21 3.04 0
 4 6 -15 2.62 1.81 0
 4 6 -14 3.56 2.31 0
 4 6 -13 5.9 2.22 0
 4 6 -12 162.45 6.46 0
 4 6 -10 223.17 7.29 0
 4 6 -9 238.93 7.25 0
 4 6 -8 19.86 2.9 0
 4 6 -7 79.46 4.32 0
 4 6 -6 195.5 6.24 0
 4 6 -5 34.51 2.92 0
 4 6 -4 19.85 2.36 0
 4 6 -3 32.32 3.01 0
 4 6 -2 400.2 8.3 0
 4 6 -1 52.07 3.39 0
 4 6 0 19.99 2.25 0
 4 6 3 26.44 2.42 0
 4 6 8 21.71 1.86 0
 4 6 9 242.92 4.66 0
 4 7 -15 63.04 4.44 0
 4 7 -14 20.39 3.21 0
 4 7 -13 39.86 3.85 0
 4 7 -12 72.76 4.9 0
 4 7 -11 183.57 7.01 0
 4 7 -10 59 4.48 0
 4 7 -8 171.59 6.55 0
 4 7 -7 418.17 9.59 0
 4 7 -6 45.43 3.38 0
 4 7 -5 262.94 7.47 0
 4 7 -4 148.97 5.61 0
 4 7 -3 360.79 8.46 0
 4 7 -2 148.07 5.49 0
 4 7 0 16.95 2.38 0
 4 7 1 416.93 8.55 0
 4 7 2 156.43 5.21 0
 4 7 3 375.83 7.8 0
 4 7 4 146.97 4.83 0
 4 7 5 279.56 6.51 0
 4 7 6 45.32 2.9 0
 4 7 7 374.69 6.96 0
 4 8 -15 16.05 3.25 0
 4 8 -14 4.21 2.23 0
 4 8 -13 18.06 3.09 0
 4 8 -12 187.36 7.19 0
 4 8 -11 35.08 3.78 0
 4 8 -8 5.5 2.17 0
 4 8 -6 41.68 3.6 0
 4 8 -5 66.75 4.16 0
 4 8 -4 16.97 2.63 0
 4 8 -3 19.61 2.82 0
 4 8 -2 91.19 4.58 0
 4 8 -1 20.76 2.74 0
 4 8 0 198.25 6.42 0
 4 8 1 26.44 3.19 0
 4 8 2 78.69 4.25 0
 4 8 3 20.26 2.6 0
 4 8 4 21.16 2.69 0
 4 8 5 76.26 3.95 0
 4 8 6 47.67 3.16 0
 4 8 7 134.06 4.67 0
 4 8 8 6.48 1.58 0
 4 9 -14 34.08 4.16 0
 4 9 -13 2.85 2.28 0
 4 9 -12 189.21 7.42 0
 4 9 -11 46.12 4.18 0
 4 9 -10 120.94 6.15 0
 4 9 -9 8.93 2.66 0
 4 9 -8 210.07 7.74 0
 4 9 -7 63.15 4.46 0
 4 9 -6 10.85 2.47 0
 4 9 -5 4.49 2.67 0
 4 9 -3 13.01 2.55 0
 4 9 -2 4.7 2.16 0
 4 9 -1 7.49 2.19 0
 4 9 0 4.12 1.88 0
 4 9 1 6.62 2.04 0
 4 9 3 11.4 2.28 0
 4 9 4 114.86 5.07 0
 4 9 5 7.2 2.11 0
 4 9 6 13.95 2.27 0
 4 9 7 70.1 3.65 0
 4 9 8 207.59 5.78 0
 4 10 -14 73.1 5.06 0
 4 10 -13 0.02 2.49 0
 4 10 -12 164.05 7.45 0
 4 10 -11 1.42 2.44 0
 4 10 -10 38.9 4.3 0
 4 10 -8 107.63 5.84 0
 4 10 -7 63.14 4.62 0
 4 10 -6 153.12 6.7 0
 4 10 -4 85.96 5.05 0
 4 10 -3 55.25 4.41 0
 4 10 -2 180.09 7.1 0
 4 10 -1 10.43 2.44 0
 4 10 0 -0.11 1.81 0
 4 10 1 10.24 2.38 0
 4 10 2 167.71 6.44 0
 4 10 3 56.78 3.91 0
 4 10 4 88.07 4.78 0
 4 10 5 44.31 3.71 0
 4 10 6 161.79 5.95 0
 4 10 7 54.33 3.74 0
 4 10 8 117.12 4.81 0
 4 11 -12 62.7 5.3 0
 4 11 -11 12.78 3.25 0
 4 11 -10 23.62 3.74 0
 4 11 -9 0.04 2.55 0
 4 11 -8 178.58 7.59 0
 4 11 -7 54.92 4.58 0
 4 11 -6 80.78 5.51 0
 4 11 -5 2.4 2.74 0
 4 11 -4 140.98 6.66 0
 4 11 -3 22.09 3.5 0
 4 11 -2 16.04 2.94 0
 4 11 -1 119.39 5.93 0
 4 11 0 3.44 2.52 0
 4 11 1 115.5 5.67 0
 4 11 2 18.56 3.04 0
 4 11 3 20.02 3.14 0
 4 11 4 150.19 6.15 0
 4 11 5 8.04 2.46 0
 4 11 6 73.24 4.38 0
 4 11 7 48.54 3.81 0
 4 11 8 165.95 5.92 0
 4 12 -10 56.61 5.09 0
 4 12 -9 17.86 3.48 0
 4 12 -8 133.49 7.23 0
 4 12 -7 109.21 6.64 0
 4 12 -6 169.64 7.57 0
 4 12 -5 7.31 2.9 0
 4 12 -4 12.25 3.25 0
 4 12 -3 22.42 3.69 0
 4 12 -1 5.45 2.53 0
 4 12 1 5.4 2.43 0
 4 12 2 117.8 5.93 0
 4 12 3 16.8 2.93 0
 4 12 4 17.2 3.31 0
 4 12 5 3.88 2.27 0
 4 12 6 160.11 6.57 0
 4 12 7 101.03 5.12 0
 4 13 -8 6.58 3.22 0
 4 13 -7 -1.85 3.02 0
 4 13 -6 48.73 4.86 0
 4 13 -5 54.69 5.42 0
 4 13 -4 28.36 3.98 0
 4 13 -3 22.07 3.84 0
 4 13 -2 46.33 4.53 0
 4 13 -1 98.79 5.95 0
 4 13 0 8.46 3.34 0
 4 13 1 108.5 6.27 0
 4 13 2 45.09 4.49 0
 4 13 3 15.84 3.46 0
 4 13 4 33.54 3.92 0
 4 13 5 63.62 5 0
 4 13 6 56.73 4.53 0
 4 13 7 0.15 1.85 0
 4 14 -5 65.96 5.92 0
 4 14 -4 140.4 7.74 0
 4 14 -3 6.2 2.99 0
 4 14 -2 74.99 5.99 0
 4 14 -1 9.01 3.42 0
 4 14 0 25.31 3.92 0
 4 14 1 16.26 3.45 0
 4 14 2 80.41 5.76 0
 4 14 3 4.21 2.57 0
 4 14 4 146.41 7.09 0
 4 14 5 52.78 4.67 0
 5 1 -8 11.16 2.41 0
 5 1 -7 63.63 4.1 0
 5 1 -6 46.95 3.49 0
 5 1 -5 16.43 2.58 0
 5 1 -4 5.13 1.75 0
 5 1 -3 1.13 1.3 0
 5 1 -2 94.87 4.18 0
 5 1 0 16.16 2.03 0
 5 2 -10 2.11 1.81 0
 5 2 -9 152.02 5.93 0
 5 2 -8 334.08 8.4 0
 5 2 -7 118.25 5.31 0
 5 2 -6 35.3 3.11 0
 5 2 -4 1017.49 13.52 0
 5 2 -3 260.88 6.93 0
 5 2 -2 32.17 2.61 0
 5 2 -1 77.71 3.83 0
 5 2 0 254.39 6.31 0
 5 2 1 70.81 3.48 0
 5 3 -12 63.03 4.65 0
 5 3 -11 83.93 4.75 0
 5 3 -10 550.03 11.43 0
 5 3 -9 235.87 7.53 0
 5 3 -7 78.97 4.53 0
 5 3 -6 25.37 2.91 0
 5 3 -5 15.11 2.48 0
 5 3 -4 38.07 3.05 0
 5 3 -3 400.49 8.49 0
 5 3 -2 542.62 9.61 0
 5 3 -1 58.3 3.42 0
 5 3 0 9.32 1.86 0
 5 3 2 546.23 8.98 0
 5 3 7 85.04 3.3 0
 5 4 -12 8.42 2.64 0
 5 4 -10 2.64 2.18 0
 5 4 -9 21.97 3.05 0
 5 4 -8 29.94 3.15 0
 5 4 -6 14.25 2.38 0
 5 4 -5 329.36 8.26 0
 5 4 -4 88.75 4.44 0
 5 4 -3 431.76 8.99 0
 5 4 -2 54.74 3.44 0
 5 4 -1 20.44 2.48 0
 5 4 0 439.48 8.57 0
 5 4 1 18.16 2.33 0
 5 4 4 88.31 3.77 0
 5 4 8 32.32 2.07 0
 5 5 -13 8.01 2.52 0
 5 5 -12 21.79 3.28 0
 5 5 -11 21.49 3.21 0
 5 5 -10 65.3 4.73 0
 5 5 -9 185.51 7.01 0
 5 5 -8 106.11 5.48 0
 5 5 -5 10.15 2.23 0
 5 5 -4 97.86 4.81 0
 5 5 -3 44.16 3.62 0
 5 5 -2 175.92 5.89 0
 5 5 -1 198.71 6.28 0
 5 5 0 89.78 4.36 0
 5 5 1 189.46 5.83 0
 5 5 2 174.74 5.54 0
 5 5 3 47.58 3.22 0
 5 5 4 101.6 4.09 0
 5 5 5 9.41 1.77 0
 5 5 6 16.72 1.94 0
 5 6 -15 13.21 2.98 0
 5 6 -13 12.64 3.2 0
 5 6 -12 23.79 3.61 0
 5 6 -11 7.62 2.53 0
 5 6 -10 13.26 3.1 0
 5 6 -9 16.97 3.08 0
 5 6 -7 3.31 1.96 0
 5 6 -5 54.51 3.93 0
 5 6 -4 147.64 5.82 0
 5 6 -3 14.39 2.45 0
 5 6 -2 161.47 6.03 0
 5 6 -1 351 8.32 0
 5 6 0 83.81 4.24 0
 5 6 1 352.25 8.06 0
 5 6 2 167.59 5.69 0
 5 6 3 13.64 2.22 0
 5 6 4 143.26 5.07 0
 5 6 6 218.18 5.71 0
 5 6 7 4.83 1.39 0
 5 6 8 24.91 2.11 0
 5 7 -15 68.79 5.12 0
 5 7 -14 138.7 6.57 0
 5 7 -13 131.57 6.5 0
 5 7 -12 0.87 2.02 0
 5 7 -11 126.92 6.32 0
 5 7 -9 210.83 7.88 0
 5 7 -8 44.55 4.3 0
 5 7 -7 15.79 3.11 0
 5 7 -6 114.52 5.59 0
 5 7 -4 21.32 2.87 0
 5 7 -3 7.46 2.19 0
 5 7 -2 96.68 4.99 0
 5 7 -1 17.23 2.64 0
 5 7 0 1.45 1.72 0
 5 7 1 14.64 2.38 0
 5 7 3 6.28 1.89 0
 5 7 4 22.95 2.62 0
 5 7 5 42.09 3.24 0
 5 7 7 21.83 2.56 0
 5 7 8 37.47 2.59 0
 5 8 -13 38.32 4.75 0
 5 8 -12 47.99 4.81 0
 5 8 -10 94.12 5.96 0
 5 8 -9 46.03 4.48 0
 5 8 -8 240.79 8.38 0
 5 8 -7 49.66 4.55 0
 5 8 -6 52.81 4.54 0
 5 8 -5 17.76 3.1 0
 5 8 -3 64.76 4.26 0
 5 8 -2 273.74 8.08 0
 5 8 -1 27.94 3.33 0
 5 8 0 101.88 5.09 0
 5 8 1 21.57 3 0
 5 8 2 282.28 7.81 0
 5 8 3 67.93 4.13 0
 5 8 4 24.71 3.07 0
 5 8 5 12.49 2.43 0
 5 8 6 52.39 3.56 0
 5 8 7 47.04 3.05 0
 5 9 -13 48.92 4.95 0
 5 9 -12 -0.61 2.29 0
 5 9 -10 5.15 2.98 0
 5 9 -9 232.46 8.72 0
 5 9 -8 5.42 2.81 0
 5 9 -7 27.57 4.03 0
 5 9 -5 10.71 3.21 0
 5 9 -4 31.85 3.96 0
 5 9 -1 74.18 4.63 0
 5 9 0 -0.31 2.17 0
 5 9 1 71.53 4.76 0
 5 9 3 329.19 8.58 0
 5 9 4 25.93 3.06 0
 5 9 5 9.52 2.28 0
 5 9 6 15.71 2.38 0
 5 9 7 24.96 2.81 0
 5 10 -12 5.27 2.68 0
 5 10 -11 94.75 6.29 0
 5 10 -10 126.36 6.89 0
 5 10 -9 10.56 3.1 0
 5 10 -7 1.08 2.31 0
 5 10 -6 18.18 3.79 0
 5 10 -5 28.14 3.73 0
 5 10 -4 84.83 5.3 0
 5 10 -3 137.33 6.54 0
 5 10 -1 37.01 4.53 0
 5 10 0 3.91 2.26 0
 5 10 1 37.92 3.74 0
 5 10 2 36.01 3.99 0
 5 10 3 141.89 6.14 0
 5 10 4 87.52 5.04 0
 5 10 5 30.07 3.6 0
 5 10 6 19.59 2.84 0
 5 10 7 1.82 1.63 0
 5 11 -9 130.02 6.93 0
 5 11 -8 15.77 3.38 0
 5 11 -7 2.6 2.55 0
 5 11 -6 12.96 3.55 0
 5 11 -5 332.5 10.43 0
 5 11 -4 39.57 4.15 0
 5 11 -3 24.75 3.73 0
 5 11 -2 2.95 2.46 0
 5 11 -1 23.2 3.7 0
 5 11 0 18.29 3.57 0
 5 11 1 28.67 3.71 0
 5 11 2 5.31 2.44 0
 5 11 3 20.01 3.14 0
 5 11 4 36.65 3.98 0
 5 11 5 326.77 9 0
 5 11 6 14.73 2.67 0
 5 11 7 -0.19 1.49 0
 5 12 -8 132.44 7.48 0
 5 12 -7 33.47 4.71 0
 5 12 -6 17.01 3.51 0
 5 12 -5 2.7 2.89 0
 5 12 -3 17.01 3.84 0
 5 12 -2 20.85 3.63 0
 5 12 -1 62.64 5.17 0
 5 12 0 212.09 8.22 0
 5 12 1 58.96 5.07 0
 5 12 2 20.96 3.56 0
 5 12 4 141.66 6.44 0
 5 12 5 6.23 2.38 0
 5 12 6 16.01 2.97 0
 5 13 -4 14.53 3.71 0
 5 13 -3 51.13 5.44 0
 5 13 -2 -0.52 2.58 0
 5 13 -1 7.47 2.92 0
 5 13 0 1.67 2.45 0
 5 13 1 16.76 3.7 0
 5 13 2 1.06 2.36 0
 5 13 3 45.43 4.85 0
 5 13 4 13.25 2.93 0
 5 13 5 22.92 3.42 0
 5 13 6 48.27 4.21 0
 5 14 0 77.12 5.76 0
 5 14 1 100.55 6.29 0
 5 14 2 1.53 2.58 0
 5 14 3 112.27 6.65 0
 5 14 4 39.79 4.6 0
 6 1 -5 27.97 3.33 0
 6 1 -4 61.32 4.52 0
 6 1 -3 135.83 5.69 0
 6 1 -2 142.99 5.79 0
 6 2 -8 8.6 2.7 0
 6 2 -7 102.72 5.51 0
 6 2 -6 76.79 4.7 0
 6 2 -5 375.57 9.43 0
 6 2 -4 82.66 4.61 0
 6 2 -3 116.81 5.35 0
 6 2 -2 4.04 2 0
 6 2 -1 96.45 4.8 0
 6 2 0 144.41 5.45 0
 6 2 1 95.82 4.41 0
 6 2 2 6.41 1.99 0
 6 2 3 109.39 4.57 0
 6 3 -11 45.41 4.63 0
 6 3 -10 51.94 4.4 0
 6 3 -9 64.72 4.78 0
 6 3 -8 86.35 5.22 0
 6 3 -7 17.97 3.05 0
 6 3 -6 81 4.77 0
 6 3 -5 51.38 3.88 0
 6 3 -4 15.1 2.8 0
 6 3 -3 12.55 2.41 0
 6 3 -2 80.31 4.56 0
 6 3 -1 84.33 4.49 0
 6 3 0 46.29 3.39 0
 6 3 1 92.54 4.5 0
 6 3 2 83.37 4.18 0
 6 3 3 9.38 2.02 0
 6 3 4 20.55 2.57 0
 6 3 5 52.45 3.29 0
 6 4 -12 3.68 2.48 0
 6 4 -11 24.7 3.83 0
 6 4 -10 19.86 3.55 0
 6 4 -8 46.67 4.12 0
 6 4 -7 2.27 2.41 0
 6 4 -6 172.92 6.83 0
 6 4 -4 22.69 3.12 0
 6 4 -3 37.38 3.27 0
 6 4 -2 61.16 4.35 0
 6 4 -1 84.63 4.71 0
 6 4 0 421.23 9.33 0
 6 4 1 79.78 4.49 0
 6 4 2 53.72 3.76 0
 6 4 3 41.7 3.3 0
 6 4 5 81.14 3.88 0
 6 4 6 163.51 5.1 0
 6 5 -13 39.74 4.78 0
 6 5 -12 137.63 7 0
 6 5 -8 86.23 5.65 0
 6 5 -7 62.62 4.57 0
 6 5 -6 51.5 4.44 0
 6 5 -4 26.15 3.19 0
 6 5 -3 215.7 7.27 0
 6 5 -2 9.36 2.35 0
 6 5 -1 152.11 6.16 0
 6 5 0 458.06 9.87 0
 6 5 1 158.49 5.99 0
 6 5 2 10.42 2.17 0
 6 5 3 222.97 6.73 0
 6 5 4 20.46 2.62 0
 6 5 5 16.5 2.36 0
 6 5 6 48.89 3.13 0
 6 5 7 59.9 3.35 0
 6 6 -14 48.21 4.87 0
 6 6 -13 45.99 5.08 0
 6 6 -12 81.2 5.77 0
 6 6 -11 17.9 3.7 0
 6 6 -10 119.34 6.71 0
 6 6 -9 143.52 6.98 0
 6 6 -8 67.56 5.28 0
 6 6 -7 18.07 3.2 0
 6 6 -6 99.8 5.7 0
 6 6 -5 7.11 3.02 0
 6 6 -4 5.52 2.57 0
 6 6 -3 3.31 2.2 0
 6 6 -2 88.48 5.17 0
 6 6 -1 105.99 5.42 0
 6 6 0 7.43 2.31 0
 6 6 1 116.03 5.31 0
 6 6 2 95.88 4.99 0
 6 6 3 6.21 2.31 0
 6 6 4 4.66 1.76 0
 6 6 5 13.27 2.21 0
 6 6 6 100.01 4.45 0
 6 6 7 15.34 2.19 0
 6 7 -13 56.12 5.05 0
 6 7 -12 9.15 3.2 0
 6 7 -11 111.24 6.37 0
 6 7 -10 3.92 2.72 0
 6 7 -8 163.58 7.24 0
 6 7 -7 219.15 8.43 0
 6 7 -6 18.81 3.24 0
 6 7 -5 85.63 5.23 0
 6 7 -4 243.76 8.25 0
 6 7 -3 37.96 3.88 0
 6 7 -2 75.49 4.92 0
 6 7 -1 235.88 7.94 0
 6 7 0 440.86 10.44 0
 6 7 1 231.96 7.53 0
 6 7 2 75.5 4.7 0
 6 7 3 39.68 3.69 0
 6 7 4 232.26 7.11 0
 6 7 5 74.75 4.28 0
 6 7 6 15.92 2.43 0
 6 7 7 209.02 6.14 0
 6 8 -12 114.38 6.81 0
 6 8 -11 13.24 3.26 0
 6 8 -10 7.64 3.31 0
 6 8 -9 47.85 4.86 0
 6 8 -8 2.94 2.48 0
 6 8 -7 117.84 6.61 0
 6 8 -6 7 2.66 0
 6 8 -5 20.69 3.33 0
 6 8 -4 38.58 4.21 0
 6 8 -2 28.31 3.74 0
 6 8 0 5.6 2.36 0
 6 8 1 127.12 6.05 0
 6 8 2 37.04 3.56 0
 6 8 3 14.37 2.84 0
 6 8 4 40.9 3.55 0
 6 8 5 13.64 2.65 0
 6 8 6 6.18 2.23 0
 6 8 7 106.63 4.72 0
 6 9 -9 9.45 2.87 0
 6 9 -8 38.43 4.61 0
 6 9 -7 4.19 3.36 0
 6 9 -6 10.4 3.08 0
 6 9 -5 61.86 4.88 0
 6 9 -4 16.11 3.4 0
 6 9 -3 53.91 4.55 0
 6 9 -1 3.17 2.42 0
 6 9 0 3.52 2.27 0
 6 9 1 7.23 2.7 0
 6 9 3 56.39 4.53 0
 6 9 4 17.67 3.09 0
 6 9 5 57.54 4.18 0
 6 9 6 14.76 2.56 0
 6 10 -9 1.03 2.98 0
 6 10 -7 13.8 3.42 0
 6 10 -6 150.74 7.5 0
 6 10 -5 4.21 2.92 0
 6 10 -3 1.1 2.25 0
 6 10 -2 157.98 7.38 0
 6 10 -1 6.46 2.63 0
 6 10 0 12.42 3.02 0
 6 10 1 12.68 2.95 0
 6 10 2 158.04 7.03 0
 6 10 3 2.67 2.19 0
 6 10 4 58.57 4.31 0
 6 10 5 7.68 2.52 0
 6 10 6 163.26 6.33 0
 6 11 -6 4.1 3.06 0
 6 11 -5 12.22 3.37 0
 6 11 -3 69.85 5.38 0
 6 11 -2 11.03 3.17 0
 6 11 -1 31.56 4.12 0
 6 11 0 143.92 7.21 0
 6 11 2 11.04 2.92 0
 6 11 3 60.8 4.84 0
 6 11 4 106.45 5.85 0
 6 11 5 14.21 2.77 0
 6 11 6 4.58 2.18 0
 6 12 -4 5.79 3.02 0
 6 12 -3 20.8 3.91 0
 6 12 -2 43.22 5.32 0
 6 12 -1 7.51 3.12 0
 6 12 0 26.28 4.09 0
 6 12 1 7.03 2.81 0
 6 12 2 48.7 4.87 0
 6 12 3 20.35 3.49 0
 6 12 4 5.14 2.46 0
 6 12 5 29.9 3.84 0
 7 2 -2 49.32 4.17 0
 7 3 -8 58.84 5.41 0
 7 3 -7 41.75 5.06 0
 7 3 -6 125.71 6.71 0
 7 3 -5 69.56 4.81 0
 7 3 -4 54.1 4.5 0
 7 3 -3 165.16 6.89 0
 7 3 -2 152.12 6.5 0
 7 3 -1 1.38 2.04 0
 7 3 0 70.77 4.61 0
 7 3 1 1.08 2.18 0
 7 3 2 160.7 6.33 0
 7 4 -10 60.12 5.71 0
 7 4 -9 32.16 4.19 0
 7 4 -8 0.85 2.61 0
 7 4 -7 101.78 6.11 0
 7 4 -6 188.79 7.78 0
 7 4 -5 5.68 2.72 0
 7 4 -3 72.86 5.13 0
 7 4 -2 63.99 4.73 0
 7 4 -1 32.37 3.99 0
 7 4 0 3.68 2.14 0
 7 4 1 38.9 4.01 0
 7 4 2 59.65 4.35 0
 7 4 4 18.69 2.66 0
 7 5 -10 129.92 7.23 0
 7 5 -8 42.16 5.09 0
 7 5 -7 68.17 5.28 0
 7 5 -6 73.96 5.29 0
 7 5 -5 43.31 4.39 0
 7 5 -4 114.13 6.47 0
 7 5 -3 0.03 2.07 0
 7 5 -2 49.46 4.21 0
 7 5 -1 32.9 3.76 0
 7 5 0 186.97 7.39 0
 7 5 1 26.46 3.36 0
 7 5 2 57.5 4.28 0
 7 5 3 0.34 1.84 0
 7 5 4 104.56 5.04 0
 7 5 5 37.44 3.45 0
 7 5 6 62.49 3.84 0
 7 6 -11 17.05 3.74 0
 7 6 -10 130.23 7.13 0
 7 6 -9 13.61 3.42 0
 7 6 -6 42.94 4.82 0
 7 6 -5 115.17 6.5 0
 7 6 -4 15.11 3.48 0
 7 6 -3 197.35 7.81 0
 7 6 -2 58.66 4.66 0
 7 6 -1 72.71 4.92 0
 7 6 0 -0.8 1.98 0
 7 6 1 79.88 5.07 0
 7 6 2 64.71 4.76 0
 7 6 3 212.88 7.36 0
 7 6 4 11.76 2.75 0
 7 6 5 123.15 5.56 0
 7 6 6 47.13 3.5 0
 7 7 -10 11.39 4.02 0
 7 7 -9 35.65 4.61 0
 7 7 -8 8.13 3.32 0
 7 7 -6 5.97 2.65 0
 7 7 -5 38.64 4.17 0
 7 7 -4 8.81 2.98 0
 7 7 -3 77.76 5.56 0
 7 7 -2 93.9 5.97 0
 7 7 -1 63.23 5.09 0
 7 7 0 42.67 4.56 0
 7 7 2 87.88 5.31 0
 7 7 3 76.72 4.83 0
 7 7 4 6.08 2.3 0
 7 7 5 48.15 3.99 0
 7 7 6 4.03 2.13 0
 7 8 -8 -1.41 2.61 0
 7 8 -6 2.9 2.61 0
 7 8 -5 43.83 4.74 0
 7 8 -3 50.87 5.04 0
 7 8 -2 56.34 4.85 0
 7 8 -1 100.19 5.93 0
 7 8 0 80.37 5.54 0
 7 8 1 101.22 5.98 0
 7 8 2 55.94 4.67 0
 7 8 3 57.81 4.62 0
 7 8 4 55.19 4.41 0
 7 8 5 48.14 4.15 0
 7 9 -7 33.81 4.91 0
 7 9 -6 6.92 2.99 0
 7 9 -5 158.19 7.84 0
 7 9 -4 80.24 5.95 0
 7 9 -3 79.75 5.75 0
 7 9 -2 7.44 3.15 0
 7 9 -1 61.71 5.23 0
 7 9 0 4.24 2.69 0
 7 9 1 69.39 5.32 0
 7 9 2 11.84 3.13 0
 7 9 3 71.82 5.21 0
 7 9 4 88.5 5.42 0
 7 9 5 160.03 6.61 0
 7 10 -5 34.98 4.62 0
 7 10 -4 39.72 4.77 0
 7 10 -3 64.35 5.78 0
 7 10 -2 39.77 4.63 0
 7 10 -1 46.32 4.65 0
 7 10 0 101.59 6.15 0
 7 10 1 47.62 5 0
 7 10 2 37.55 4.26 0
 7 10 3 60.04 4.98 0
 7 10 5 32.33 3.97 0
 7 11 -1 180.37 8.29 0
 7 11 0 6.53 3 0
 7 11 1 169.78 7.76 0
 7 11 2 10.58 3.38 0
 7 11 3 3.55 2.54 0
 7 11 4 21.91 3.79 0
 8 4 -6 22.89 4.25 0
 8 4 -5 138.39 7.5 0
 8 4 -4 29.54 4.27 0
 8 4 -3 36.57 4.74 0
 8 4 -2 1.88 2.77 0
 8 4 -1 1.04 2.29 0
 8 4 0 6.21 2.93 0
 8 5 -8 9.47 3.51 0
 8 5 -5 24.33 4.2 0
 8 5 -4 11.78 3.2 0
 8 5 -3 70.29 5.65 0
 8 5 -2 50.52 4.94 0
 8 5 -1 44.09 4.39 0
 8 5 0 3.98 2.63 0
 8 5 1 47.17 4.3 0
 8 5 2 41.07 4.17 0
 8 5 3 65.66 5.13 0
 8 6 -7 28.27 4.7 0
 8 6 -6 1.41 3.38 0
 8 6 -5 23.5 4.02 0
 8 6 -4 45.43 5.4 0
 8 6 -3 103.92 6.36 0
 8 6 -1 18.27 3.52 0
 8 6 0 5.76 3.09 0
 8 6 1 13.21 3.02 0
 8 6 2 16.37 3.19 0
 8 6 3 116.95 6.18 0
 8 7 -5 7.63 3.5 0
 8 7 -4 9.13 3.2 0
 8 7 -3 56.42 5.36 0
 8 7 -2 4.98 3.32 0
 8 7 -1 4.02 2.61 0
 8 7 1 6.84 3.07 0
 8 7 2 3.33 2.89 0
 8 7 3 58.11 4.73 0
 8 7 4 7.26 2.64 0
 8 8 -3 37.51 4.81 0
 8 8 -1 90.45 6.38 0
 8 8 0 61.7 5.15 0
 8 8 1 87.44 6.18 0
 8 8 3 45.75 4.91 0
 8 8 4 8.26 2.6 0
 8 9 0 4.88 2.72 0
 8 9 1 74.33 5.8 0
 8 9 3 46.24 5.07 0
 8 9 4 47.2 4.49 0
 -9 2 -5 9.82 3.08 0
 -9 2 -4 39.94 4.56 0
 -9 2 -3 45.81 4.55 0
 -9 3 -6 34.07 4.52 0
 -9 3 -5 47.62 4.98 0
 -9 3 -4 -2.72 2.2 0
 -9 3 -3 3.56 2.22 0
 -9 4 -5 1.92 2.49 0
 -9 4 -4 11.29 2.87 0
 -9 4 -3 26.49 4.01 0
 -9 5 -4 10.56 3.09 0
 -9 5 -3 28.18 3.83 0
 -8 1 0 63.9 4.04 0
 -8 2 -2 63.98 4.55 0
 -8 2 -1 6.93 2.14 0
 -8 2 0 75.88 4.36 0
 -8 3 -9 11.27 3.74 0
 -8 3 -8 57.61 5.51 0
 -8 3 -6 31.41 4.61 0
 -8 3 -5 19.7 3.62 0
 -8 3 -4 122.64 6.45 0
 -8 3 -3 79.08 5.29 0
 -8 3 -2 73.95 4.7 0
 -8 3 -1 73.69 4.54 0
 -8 3 0 1.78 1.68 0
 -8 4 -9 5.36 3.36 0
 -8 4 -8 71.56 6.25 0
 -8 4 -7 66.25 5.81 0
 -8 4 -6 13.37 3.23 0
 -8 4 -5 130.34 6.87 0
 -8 4 -4 30.25 4.07 0
 -8 4 -3 36.43 4.07 0
 -8 4 -2 3.57 2.04 0
 -8 4 -1 6.14 2.42 0
 -8 4 0 8.76 2.39 0
 -8 5 -8 7.28 3.43 0
 -8 5 -6 54.51 5.36 0
 -8 5 -5 20.3 3.65 0
 -8 5 -4 12.67 3.36 0
 -8 5 -3 63.05 4.87 0
 -8 5 -2 46.94 4.25 0
 -8 5 -1 40.82 3.9 0
 -8 5 0 4.85 2 0
 -8 6 -7 40.45 5.3 0
 -8 6 -6 5.93 3 0
 -8 6 -5 23.43 3.88 0
 -8 6 -4 49.79 5.07 0
 -8 6 -3 113.03 6.04 0
 -8 6 -2 19.92 3.13 0
 -8 6 -1 17.51 3.12 0
 -8 7 -5 9.12 3.24 0
 -8 7 -4 9.4 2.87 0
 -8 7 -3 57.21 4.97 0
 -8 7 -2 2.27 2.01 0
 -8 7 -1 3.75 2.11 0
 -8 8 -4 11.21 3 0
 -8 8 -3 41.17 4.34 0
 -8 8 -2 209.69 8.01 0
 -8 8 -1 84.63 5.18 0
 -8 9 -3 43.31 4.66 0
 -8 9 -2 0.6 1.99 0
 -7 1 2 27.39 2.5 0
 -7 2 0 138.3 5.24 0
 -7 2 1 12.04 2.09 0
 -7 2 2 40.32 2.71 0
 -7 3 -12 7.68 3.29 0
 -7 3 -3 168.25 6.8 0
 -7 3 -2 157.7 6.24 0
 -7 3 -1 0.46 1.58 0
 -7 3 0 69.6 3.83 0
 -7 3 1 1.02 1.41 0
 -7 3 2 150.64 4.86 0
 -7 4 -12 176.3 9.13 0
 -7 4 -10 53.91 5.3 0
 -7 4 -9 29.89 4.86 0
 -7 4 -8 0.12 2.67 0
 -7 4 -7 105.31 6.71 0
 -7 4 -6 182.8 7.75 0
 -7 4 -5 1.62 2.35 0
 -7 4 -4 20.58 3.53 0
 -7 4 -3 75.17 4.75 0
 -7 4 -2 66.69 4.42 0
 -7 4 0 3.89 1.72 0
 -7 4 1 37.17 3.1 0
 -7 4 2 57.62 3.3 0
 -7 5 -11 16.04 4.01 0
 -7 5 -10 119.52 7.26 0
 -7 5 -9 22.31 3.97 0
 -7 5 -8 48.51 4.8 0
 -7 5 -7 54.04 5.05 0
 -7 5 -6 69.12 5.3 0
 -7 5 -5 32.41 4.15 0
 -7 5 -4 107.36 5.96 0
 -7 5 -3 -3.04 1.56 0
 -7 5 -2 47.71 3.88 0
 -7 5 0 187.58 6.4 0
 -7 5 1 25.14 2.91 0
 -7 5 2 49.8 3.18 0
 -7 6 -9 6.31 3.02 0
 -7 6 -8 -1.32 2.79 0
 -7 6 -7 26.03 4.02 0
 -7 6 -5 122.64 6.73 0
 -7 6 -4 8.56 2.79 0
 -7 6 -3 200.52 7.7 0
 -7 6 -2 63.51 4.7 0
 -7 6 -1 76.88 4.56 0
 -7 6 0 -0.28 1.48 0
 -7 6 1 79.57 4.16 0
 -7 6 2 56.48 3.56 0
 -7 7 -10 12.69 3.77 0
 -7 7 -9 22.72 4 0
 -7 7 -8 8.21 3.21 0
 -7 7 -7 4.39 3.08 0
 -7 7 -6 3.81 2.77 0
 -7 7 -5 43.41 5.02 0
 -7 7 -4 5.64 3 0
 -7 7 -3 86.43 5.56 0
 -7 7 -2 98.88 5.64 0
 -7 7 -1 58.73 4.18 0
 -7 7 0 37.51 3.53 0
 -7 7 1 58.7 3.85 0
 -7 7 2 90.1 4.49 0
 -7 8 -9 10.44 3.61 0
 -7 8 -8 1.71 3.14 0
 -7 8 -7 53.36 5.07 0
 -7 8 -6 2.67 2.55 0
 -7 8 -5 44.51 4.48 0
 -7 8 -4 54.55 5.03 0
 -7 8 -3 56.02 4.7 0
 -7 8 -2 57.48 4.69 0
 -7 8 -1 93.1 5.16 0
 -7 8 0 86.63 4.86 0
 -7 8 1 100.38 5.19 0
 -7 9 -7 28.64 4.64 0
 -7 9 -6 4.07 2.91 0
 -7 9 -5 153.06 7.76 0
 -7 9 -4 91.47 5.84 0
 -7 9 -3 74.85 5.37 0
 -7 9 -1 79.91 5.4 0
 -7 9 1 64.56 4.42 0
 -7 10 -6 24.56 4.17 0
 -7 10 -4 39.94 4.93 0
 -7 10 -2 32.21 4.22 0
 -7 10 -1 52.99 4.5 0
 -7 10 0 98.79 5.51 0
 -7 10 1 56.18 4.39 0
 -7 11 -3 0.49 2.28 0
 -7 11 -2 10.06 2.86 0
 -7 11 -1 180.45 7.74 0
 -7 11 0 13.13 2.93 0
 -6 0 4 49.41 2.14 0
 -6 1 3 134.97 3.81 0
 -6 1 4 60.83 2.27 0
 -6 2 3 106.86 3.39 0
 -6 2 4 74.58 2.55 0
 -6 3 -14 21.84 4.68 0
 -6 3 -1 87.86 4.26 0
 -6 3 0 43.86 3 0
 -6 3 3 9.22 1.39 0
 -6 3 4 19.18 1.56 0
 -6 4 -14 21.71 4.56 0
 -6 4 -13 3.48 3.39 0
 -6 4 -11 30.53 4.56 0
 -6 4 -10 20.49 3.84 0
 -6 4 -9 32.83 4.45 0
 -6 4 -8 40.37 4.47 0
 -6 4 -7 1.08 2.04 0
 -6 4 -4 19.02 2.91 0
 -6 4 -1 82.46 4.26 0
 -6 4 1 79.82 3.85 0
 -6 4 4 22.77 1.79 0
 -6 5 -12 143.17 7.88 0
 -6 5 -11 18.49 3.73 0
 -6 5 -10 26.65 4.32 0
 -6 5 -9 125.18 6.91 0
 -6 5 -8 86.41 5.67 0
 -6 5 -7 61.82 5.07 0
 -6 5 -6 52.16 4.35 0
 -6 5 -5 15.32 3.23 0
 -6 5 -3 217.42 7.14 0
 -6 5 -2 10.39 2.23 0
 -6 5 -1 152.83 5.69 0
 -6 5 1 155.87 5.19 0
 -6 5 2 9.38 1.75 0
 -6 6 -13 47.55 5.38 0
 -6 6 -12 87.51 6.37 0
 -6 6 -11 24.71 4.48 0
 -6 6 -10 108.49 6.57 0
 -6 6 -9 148.3 7.33 0
 -6 6 -8 62.12 5 0
 -6 6 -7 15.13 3.26 0
 -6 6 -6 95.93 5.65 0
 -6 6 -5 9.06 2.57 0
 -6 6 -4 6.1 2.27 0
 -6 6 -3 2.61 1.99 0
 -6 6 -2 99.55 5 0
 -6 6 0 8.13 2.04 0
 -6 6 1 109.54 4.65 0
 -6 6 2 91.34 4.07 0
 -6 6 3 2.12 1.21 0
 -6 6 4 3.71 1.22 0
 -6 7 -12 7.26 3.89 0
 -6 7 -11 110.31 6.9 0
 -6 7 -10 9.12 3.31 0
 -6 7 -8 172.72 7.91 0
 -6 7 -7 205.99 8.46 0
 -6 7 -5 90.61 5.5 0
 -6 7 -4 250.31 8.59 0
 -6 7 -3 39.06 3.79 0
 -6 7 -2 76.47 4.86 0
 -6 7 -1 225.56 7.16 0
 -6 7 0 413.59 9.15 0
 -6 7 1 233.17 6.76 0
 -6 7 2 68.23 3.89 0
 -6 7 3 36.08 2.89 0
 -6 7 4 223.1 5.67 0
 -6 8 -11 12.91 3.94 0
 -6 8 -10 12.21 3.71 0
 -6 8 -8 2.22 3.07 0
 -6 8 -7 109.45 6.39 0
 -6 8 -6 9.94 2.93 0
 -6 8 -5 14.1 3.05 0
 -6 8 -3 17.77 3 0
 -6 8 -2 35.69 4.05 0
 -6 8 -1 137.18 5.91 0
 -6 8 0 5.62 2.04 0
 -6 8 1 127.65 5.47 0
 -6 8 2 32.82 2.95 0
 -6 8 3 15.72 2.23 0
 -6 8 4 40.4 2.89 0
 -6 9 -10 96.2 6.95 0
 -6 9 -9 12.64 3.6 0
 -6 9 -8 39.83 4.86 0
 -6 9 -7 5.28 2.87 0
 -6 9 -6 9.73 3.46 0
 -6 9 -5 58.66 5.16 0
 -6 9 -3 49.45 4.33 0
 -6 9 -2 5.66 2.31 0
 -6 9 -1 3.26 2.14 0
 -6 9 0 2.94 2.1 0
 -6 9 1 2.69 2.05 0
 -6 9 2 8.01 2.3 0
 -6 9 3 51.31 3.49 0
 -6 10 -9 1.84 2.75 0
 -6 10 -7 10.74 3.3 0
 -6 10 -5 6.55 2.99 0
 -6 10 -3 -0.92 2.5 0
 -6 10 -1 13.7 3.14 0
 -6 10 0 8.5 2.62 0
 -6 10 1 9.11 2.61 0
 -6 10 2 150.02 6.14 0
 -6 10 3 2.62 1.68 0
 -6 11 -7 101.43 6.94 0
 -6 11 -6 0.68 3.35 0
 -6 11 -5 14.13 3.43 0
 -6 11 -4 106.63 6.88 0
 -6 11 -3 67.59 5.26 0
 -6 11 -2 13.48 3.29 0
 -6 11 0 140.37 6.7 0
 -6 11 2 11.74 2.7 0
 -6 12 -5 34.01 4.79 0
 -6 12 -4 8.67 3.49 0
 -6 12 -2 46.38 5 0
 -6 12 -1 10.57 2.83 0
 -6 12 0 32.26 4.26 0
 -6 12 1 10 2.76 0
 -6 13 -1 9.63 2.84 0
 -6 13 0 60.93 5.08 0
 -5 0 5 38.44 1.22 0
 -5 1 5 15.06 0.83 0
 -5 2 2 27.47 1.91 0
 -5 2 3 256.96 4.62 0
 -5 2 4 1048.82 8.18 0
 -5 2 5 106.65 2.18 0
 -5 3 -15 32.24 4.7 0
 -5 3 1 56.86 2.95 0
 -5 3 2 562.1 7.69 0
 -5 3 3 418.35 6.22 0
 -5 3 4 36.88 1.84 0
 -5 3 5 13.68 1.06 0
 -5 4 -16 15.77 3.75 0
 -5 4 -15 94.01 6.86 0
 -5 4 -14 42.55 5.08 0
 -5 4 -13 28.79 4.58 0
 -5 4 -12 13.68 3.49 0
 -5 4 -11 54.48 5.15 0
 -5 4 -4 86.16 4.75 0
 -5 4 -2 49.8 3.34 0
 -5 4 -1 15.93 2.19 0
 -5 4 2 51.43 2.79 0
 -5 4 3 426.1 6.54 0
 -5 4 4 95.46 2.99 0
 -5 4 5 326.33 4.73 0
 -5 5 -15 52.55 5.85 0
 -5 5 -14 31.5 4.48 0
 -5 5 -13 2.9 2.6 0
 -5 5 -12 28.34 4.04 0
 -5 5 -11 27.78 4 0
 -5 5 -10 68.24 5.27 0
 -5 5 -8 104.89 5.68 0
 -5 5 -6 15.91 2.76 0
 -5 5 -5 10.57 2.36 0
 -5 5 -4 96.96 4.82 0
 -5 5 -3 47.42 3.6 0
 -5 5 -2 180.49 5.95 0
 -5 5 -1 191.17 5.91 0
 -5 5 0 88.93 4.01 0
 -5 5 5 9.38 1.22 0
 -5 6 -15 10.05 3.5 0
 -5 6 -14 58.8 5.79 0
 -5 6 -13 14.69 3.96 0
 -5 6 -11 7.4 2.84 0
 -5 6 -10 17.15 3.56 0
 -5 6 -8 25.42 3.83 0
 -5 6 -7 5.61 2.4 0
 -5 6 -6 219.51 7.68 0
 -5 6 -5 47.87 4.1 0
 -5 6 -4 141.75 5.94 0
 -5 6 -3 11.53 2.49 0
 -5 6 -2 160.63 5.95 0
 -5 6 -1 352.51 8.23 0
 -5 6 0 87.14 4.04 0
 -5 6 1 344.33 7.32 0
 -5 6 2 160.83 4.88 0
 -5 6 5 48.02 2.42 0
 -5 7 -14 143.74 7.79 0
 -5 7 -12 0.04 2.58 0
 -5 7 -11 125.95 7.09 0
 -5 7 -9 206.67 8.38 0
 -5 7 -8 43.39 4.88 0
 -5 7 -7 21.8 3.36 0
 -5 7 -6 112.13 5.97 0
 -5 7 -5 46.19 3.93 0
 -5 7 -3 6.34 2.24 0
 -5 7 -2 97.51 5.04 0
 -5 7 -1 18.13 2.55 0
 -5 7 0 1.94 1.7 0
 -5 7 2 95.57 4.16 0
 -5 7 3 8.64 1.88 0
 -5 7 4 19.3 2.07 0
 -5 8 -13 45.3 5.65 0
 -5 8 -12 51.27 5.76 0
 -5 8 -9 45.1 4.47 0
 -5 8 -8 249.82 9.36 0
 -5 8 -7 47.53 4.4 0
 -5 8 -6 50.64 4.35 0
 -5 8 -5 13.45 2.73 0
 -5 8 -4 26.08 3.57 0
 -5 8 -3 65.42 4.6 0
 -5 8 -2 268.16 8.06 0
 -5 8 -1 27.27 3.37 0
 -5 8 0 107.32 5.07 0
 -5 8 2 270.63 7.18 0
 -5 8 3 65.38 3.71 0
 -5 8 4 23.98 2.5 0
 -5 9 -12 -4.26 2.35 0
 -5 9 -11 56.69 5.26 0
 -5 9 -10 0.4 2.49 0
 -5 9 -9 237.47 9.12 0
 -5 9 -8 4.27 2.61 0
 -5 9 -7 24.61 3.75 0
 -5 9 -6 16.54 3.24 0
 -5 9 -5 10.1 2.75 0
 -5 9 -4 29.11 3.97 0
 -5 9 -3 311.56 9.18 0
 -5 9 -2 88.16 5.29 0
 -5 9 -1 73.93 4.74 0
 -5 9 1 69.52 4.2 0
 -5 9 2 83.89 4.33 0
 -5 9 3 306.24 7.62 0
 -5 9 4 25.18 2.55 0
 -5 10 -11 99.98 6.81 0
 -5 10 -10 123.79 7.31 0
 -5 10 -9 10.18 3.48 0
 -5 10 -8 1.82 2.49 0
 -5 10 -7 0.89 2.9 0
 -5 10 -6 23.16 4.23 0
 -5 10 -4 79.59 5.41 0
 -5 10 -3 137.71 6.54 0
 -5 10 -2 34.5 3.94 0
 -5 10 -1 35.61 3.76 0
 -5 10 0 0.26 1.84 0
 -5 10 1 42.28 3.74 0
 -5 10 2 32.5 3.2 0
 -5 10 3 142.9 5.65 0
 -5 11 -9 141.53 7.77 0
 -5 11 -8 14.67 3.78 0
 -5 11 -7 1.63 2.58 0
 -5 11 -6 15.83 3.54 0
 -5 11 -5 328.98 10.69 0
 -5 11 -4 41.08 4.97 0
 -5 11 -3 20.53 3.99 0
 -5 11 -2 4.88 2.48 0
 -5 11 0 19.88 3.13 0
 -5 11 1 21.12 3.19 0
 -5 11 2 5.2 2.16 0
 -5 12 -7 37.86 5.39 0
 -5 12 -6 17.74 4.2 0
 -5 12 -4 138.98 7.21 0
 -5 12 -3 15.76 3.3 0
 -5 12 -2 17.34 3.29 0
 -5 12 -1 63.55 5.17 0
 -5 12 1 57.96 4.47 0
 -5 13 -6 39.53 5.34 0
 -5 13 -5 27.75 4.41 0
 -5 13 -4 9.14 3.14 0
 -5 13 -3 45.88 4.73 0
 -5 13 -2 0.11 2.26 0
 -5 13 0 3.84 2.33 0
 -5 14 -2 -0.58 2.4 0
 -4 -2 6 131.27 1.64 0
 -4 -1 5 324.69 2.76 0
 -4 1 4 106.57 2.15 0
 -4 1 5 321.34 2.28 0
 -4 2 -18 152.38 7.89 0
 -4 2 2 32.44 1.86 0
 -4 2 3 430.37 5.19 0
 -4 2 4 672.14 5.61 0
 -4 2 5 372.84 3.27 0
 -4 3 -17 25.28 4.06 0
 -4 3 -16 20.61 3.84 0
 -4 3 0 26.28 2.14 0
 -4 3 1 461.81 6.72 0
 -4 3 2 25.03 1.81 0
 -4 3 3 92.59 2.67 0
 -4 3 4 54.19 1.89 0
 -4 3 5 442.18 4.4 0
 -4 4 -17 22.31 3.96 0
 -4 4 -16 8.93 3.3 0
 -4 4 -15 13.56 3.53 0
 -4 4 -14 29.79 3.98 0
 -4 4 -13 64.47 5.34 0
 -4 4 -12 42.7 4.62 0
 -4 4 -11 20.6 3.38 0
 -4 4 0 1064.75 11.24 0
 -4 4 1 -0.44 0.94 0
 -4 4 3 135.82 3.52 0
 -4 4 5 658.55 6.29 0
 -4 5 -16 14 3.56 0
 -4 5 -15 0.46 2.26 0
 -4 5 -13 22.23 3.87 0
 -4 5 -12 38.08 4.59 0
 -4 5 -11 121.93 6.42 0
 -4 5 -10 9.37 2.4 0
 -4 5 -9 121.41 5.92 0
 -4 5 -7 25.83 3.06 0
 -4 5 -6 0.23 1.76 0
 -4 5 -5 4.1 1.58 0
 -4 5 -4 254.73 6.9 0
 -4 5 1 220.74 5.28 0
 -4 5 2 151.65 4.22 0
 -4 5 3 26.61 2.01 0
 -4 5 5 4.13 0.92 0
 -4 6 -16 78.41 5.85 0
 -4 6 -15 1.02 3.06 0
 -4 6 -14 4.31 2.66 0
 -4 6 -13 2.79 2.46 0
 -4 6 -12 162.9 7.55 0
 -4 6 -9 239.9 8.05 0
 -4 6 -6 201.02 6.75 0
 -4 6 -5 33.03 3.14 0
 -4 6 -3 31.62 3.03 0
 -4 6 -2 401.98 8.38 0
 -4 6 -1 47.13 3.04 0
 -4 6 4 18.22 1.7 0
 -4 7 -16 6.02 3.23 0
 -4 7 -15 62.25 5.36 0
 -4 7 -14 21.6 3.88 0
 -4 7 -13 40.21 4.85 0
 -4 7 -12 75.82 5.44 0
 -4 7 -11 173.88 7.74 0
 -4 7 -10 61.4 4.97 0
 -4 7 -9 91.52 5.44 0
 -4 7 -8 166.3 7.04 0
 -4 7 -7 411.98 10.23 0
 -4 7 -6 52.74 3.97 0
 -4 7 -5 296.55 8.34 0
 -4 7 -4 141.64 5.86 0
 -4 7 -3 362.43 8.64 0
 -4 7 -2 149.61 5.43 0
 -4 7 -1 399.29 8.35 0
 -4 7 0 18.45 2.56 0
 -4 7 1 416.88 8.24 0
 -4 7 2 138.06 4.81 0
 -4 8 -15 11.38 3.53 0
 -4 8 -14 4.48 2.82 0
 -4 8 -13 16.97 3.87 0
 -4 8 -12 184.16 8.17 0
 -4 8 -11 32.51 4.33 0
 -4 8 -10 83.75 5.62 0
 -4 8 -9 21.68 3.38 0
 -4 8 -8 3.4 2.64 0
 -4 8 -7 130.42 6.18 0
 -4 8 -6 37.53 3.55 0
 -4 8 -5 72.44 4.74 0
 -4 8 -4 17.35 2.69 0
 -4 8 -3 16.3 2.57 0
 -4 8 -2 69.71 4.29 0
 -4 8 -1 19.63 2.58 0
 -4 8 1 21.53 2.74 0
 -4 8 2 87.47 4.06 0
 -4 8 3 19.99 2.39 0
 -4 8 4 17.39 2.01 0
 -4 9 -14 31.84 4.9 0
 -4 9 -13 7.07 3.14 0
 -4 9 -12 181.51 8.38 0
 -4 9 -11 45.16 4.59 0
 -4 9 -10 128.32 6.79 0
 -4 9 -9 7.14 2.92 0
 -4 9 -8 213.68 8.46 0
 -4 9 -7 69.56 4.82 0
 -4 9 -6 10.31 2.69 0
 -4 9 -5 6.65 2.51 0
 -4 9 -4 119.85 5.7 0
 -4 9 -3 10.53 2.47 0
 -4 9 -2 7.31 2.26 0
 -4 9 -1 5.32 2.03 0
 -4 9 0 2.07 1.8 0
 -4 9 1 8.55 2.09 0
 -4 9 2 5.9 1.86 0
 -4 9 3 9.63 1.9 0
 -4 10 -13 3.98 2.88 0
 -4 10 -12 165.77 8.2 0
 -4 10 -10 31.91 4.56 0
 -4 10 -9 20.82 3.69 0
 -4 10 -8 115.27 6.42 0
 -4 10 -7 56.9 4.66 0
 -4 10 -6 170.54 7.34 0
 -4 10 -5 43.67 4.13 0
 -4 10 -4 104.14 5.7 0
 -4 10 -3 55.57 4.52 0
 -4 10 -2 181.92 7.07 0
 -4 10 -1 8.01 2.59 0
 -4 10 0 -1.12 1.77 0
 -4 10 1 5.99 2.06 0
 -4 10 2 171.58 6.15 0
 -4 11 -11 13.77 3.49 0
 -4 11 -9 -0.28 2.54 0
 -4 11 -8 172.27 8.18 0
 -4 11 -7 43.24 5.23 0
 -4 11 -6 74.34 5.74 0
 -4 11 -5 4.02 2.52 0
 -4 11 -2 20.36 3.47 0
 -4 11 -1 109.52 5.69 0
 -4 11 0 7.57 2.42 0
 -4 11 1 112.74 5.51 0
 -4 11 2 21.28 3.09 0
 -4 12 -10 52.18 5.91 0
 -4 12 -9 16.08 4.35 0
 -4 12 -7 101.57 6.59 0
 -4 12 -6 172.01 8.05 0
 -4 12 -5 9.7 3.06 0
 -4 12 -4 13.68 3.7 0
 -4 12 -3 18.81 3.59 0
 -4 12 -2 111.14 6.41 0
 -4 12 -1 6 2.47 0
 -4 12 0 35.16 4.36 0
 -4 12 1 4.12 2.36 0
 -4 13 -8 5.77 3.6 0
 -4 13 -7 0.48 2.7 0
 -4 13 -5 67.07 5.69 0
 -4 13 -4 27.98 4.19 0
 -4 13 -3 16.77 3.76 0
 -4 13 -2 43.03 5.19 0
 -4 13 -1 101.31 6.14 0
 -4 14 -4 146.04 7.79 0
 -4 14 -3 3.95 2.96 0
 -4 14 -2 65.83 5.49 0
 -3 1 -19 3.34 2.85 0
 -3 1 -18 2.46 2.7 0
 -3 1 3 17.31 0.97 0
 -3 1 4 48.83 1.07 0
 -3 2 -19 20.28 3.62 0
 -3 2 -18 24.98 3.62 0
 -3 2 -17 0.82 2.23 0
 -3 2 1 97.17 2.69 0
 -3 2 2 591.51 5.72 0
 -3 2 3 325.41 3.87 0
 -3 2 4 677.43 4.77 0
 -3 3 -19 14.43 3.17 0
 -3 3 -18 77.81 5.43 0
 -3 3 -17 49.92 4.66 0
 -3 3 -15 231.84 8.52 0
 -3 3 -14 17.47 3.32 0
 -3 3 -1 535.27 7.36 0
 -3 3 0 1016.2 9.4 0
 -3 3 1 531.86 6.4 0
 -3 3 2 92.11 2.6 0
 -3 3 3 763.38 6.59 0
 -3 3 4 61.81 1.82 0
 -3 4 -18 5.02 2.63 0
 -3 4 -17 82.44 5.56 0
 -3 4 -16 22.93 3.59 0
 -3 4 -15 122.04 6.31 0
 -3 4 -14 23.71 3.68 0
 -3 4 -13 80.44 5.03 0
 -3 4 -12 39.03 4.11 0
 -3 4 -11 92.95 5.32 0
 -3 4 -10 149.97 6.08 0
 -3 4 -9 34.22 3.18 0
 -3 4 -8 245.69 7.04 0
 -3 4 -6 36.59 2.87 0
 -3 4 -3 56.4 2.9 0
 -3 4 -2 128.85 4 0
 -3 4 -1 1012.09 10.46 0
 -3 4 0 39.31 2.2 0
 -3 4 1 1008.76 9.53 0
 -3 4 2 129 3.33 0
 -3 4 3 58.56 2.27 0
 -3 4 4 487.22 5.63 0
 -3 5 -18 21.48 3.94 0
 -3 5 -17 13.75 3.5 0
 -3 5 -14 8.17 2.85 0
 -3 5 -13 76.93 4.95 0
 -3 5 -12 138.39 6.17 0
 -3 5 -11 38.55 3.6 0
 -3 5 -10 1.21 2.11 0
 -3 5 -9 163.32 6.07 0
 -3 5 -7 13.47 2.38 0
 -3 5 -5 354.09 7.63 0
 -3 5 -1 9.09 1.52 0
 -3 5 0 821.79 9.73 0
 -3 5 1 9.85 1.44 0
 -3 5 2 85.18 3.02 0
 -3 5 3 63.33 2.6 0
 -3 5 4 184.61 3.98 0
 -3 6 -17 4.7 2.58 0
 -3 6 -16 86.48 5.8 0
 -3 6 -15 119.99 6.74 0
 -3 6 -14 120.34 6.45 0
 -3 6 -13 82.6 5.33 0
 -3 6 -12 72.13 4.89 0
 -3 6 -11 35.81 4.13 0
 -3 6 -9 113.93 5.38 0
 -3 6 -8 51.98 3.75 0
 -3 6 -7 138.58 5.63 0
 -3 6 -6 443.58 9.32 0
 -3 6 -5 267.78 7.18 0
 -3 6 -4 329.93 7.59 0
 -3 6 -3 239.39 6.33 0
 -3 6 1 283.74 6.05 0
 -3 6 2 803.73 9.79 0
 -3 6 4 345.04 5.95 0
 -3 7 -17 25.37 4.09 0
 -3 7 -16 10.5 3.36 0
 -3 7 -15 49.07 4.81 0
 -3 7 -14 7.26 2.7 0
 -3 7 -13 35.99 4.19 0
 -3 7 -12 30.55 3.85 0
 -3 7 -11 23.66 3.55 0
 -3 7 -10 103.73 5.72 0
 -3 7 -9 130.45 6.14 0
 -3 7 -8 29.68 3.34 0
 -3 7 -7 14.04 2.6 0
 -3 7 -6 53.56 3.78 0
 -3 7 -5 36.6 3.21 0
 -3 7 -3 110.13 4.71 0
 -3 7 -2 206.5 6.06 0
 -3 7 -1 317.49 7.15 0
 -3 8 -16 1.49 2.46 0
 -3 8 -14 67.19 5.53 0
 -3 8 -13 60.6 5.28 0
 -3 8 -12 89.9 5.66 0
 -3 8 -11 63.2 5.07 0
 -3 8 -9 40.79 4.01 0
 -3 8 -8 90.94 5.16 0
 -3 8 -7 4.94 1.87 0
 -3 8 -6 207.45 6.98 0
 -3 8 -5 87.24 4.58 0
 -3 8 -4 271.91 7.5 0
 -3 8 -3 34.8 3.01 0
 -3 8 -1 278.63 7.22 0
 -3 8 0 21.34 2.52 0
 -3 8 1 296.27 7.15 0
 -3 8 2 229.46 6.05 0
 -3 9 -15 30.47 4.17 0
 -3 9 -14 26.48 3.96 0
 -3 9 -13 125.88 6.97 0
 -3 9 -12 144.66 7.25 0
 -3 9 -9 30.51 4.04 0
 -3 9 -8 18.91 3.13 0
 -3 9 -7 43.06 3.73 0
 -3 9 -6 115.98 5.55 0
 -3 9 -5 44.62 3.63 0
 -3 9 -4 357.37 9.12 0
 -3 9 -3 40.83 3.53 0
 -3 9 -2 38.37 3.71 0
 -3 9 -1 26.7 3.34 0
 -3 9 1 20.33 2.71 0
 -3 9 2 32.42 2.91 0
 -3 10 -14 8.26 3.13 0
 -3 10 -13 18.71 3.87 0
 -3 10 -12 11.45 3.28 0
 -3 10 -11 34.48 4.38 0
 -3 10 -10 3.3 2.34 0
 -3 10 -9 55.91 4.64 0
 -3 10 -8 46.51 4.41 0
 -3 10 -7 13.15 3.06 0
 -3 10 -6 50.97 4.45 0
 -3 10 -5 84.69 5.09 0
 -3 10 -4 10.7 2.87 0
 -3 10 -3 5.99 2.3 0
 -3 10 -1 163.12 6.34 0
 -3 10 0 0.76 1.63 0
 -3 10 2 125.83 5.14 0
 -3 11 -13 52.71 5.1 0
 -3 11 -12 10.55 3.68 0
 -3 11 -11 21.61 4.04 0
 -3 11 -10 16.65 3.86 0
 -3 11 -9 385.1 11.52 0
 -3 11 -8 61.28 5.08 0
 -3 11 -7 58.83 4.71 0
 -3 11 -6 71.65 5.05 0
 -3 11 -5 52.25 4.7 0
 -3 11 -4 12.52 2.84 0
 -3 11 -3 12.92 2.67 0
 -3 11 -2 56.18 4.22 0
 -3 11 -1 532.2 11.48 0
 -3 11 0 18.23 3.07 0
 -3 11 1 522.07 10.83 0
 -3 12 -12 53.5 5.69 0
 -3 12 -11 33.24 4.96 0
 -3 12 -10 0.7 2.64 0
 -3 12 -8 0.46 3.07 0
 -3 12 -7 90.31 6.35 0
 -3 12 -5 131.72 6.96 0
 -3 12 -4 140.53 6.73 0
 -3 12 -3 46.14 4.28 0
 -3 12 -2 84.15 5.22 0
 -3 12 -1 19.45 3.44 0
 -3 12 0 8.05 2.51 0
 -3 13 -10 17.48 3.81 0
 -3 13 -8 66.06 5.57 0
 -3 13 -6 20.93 4.09 0
 -3 13 -5 101.71 6.38 0
 -3 13 -3 1.37 2.18 0
 -3 13 -2 86.69 5.54 0
 -3 14 -8 0.43 2.69 0
 -3 14 -7 25.9 4.53 0
 -3 14 -6 49.49 5.21 0
 -3 14 -4 9.62 3.1 0
 -3 14 -3 49.17 4.81 0
 -2 1 -18 21.53 3.33 0
 -2 1 -17 159.67 6.65 0
 -2 1 2 3169.42 9.46 0
 -2 2 -17 51.62 4.04 0
 -2 2 -16 24.41 3.35 0
 -2 2 -15 59.15 4.33 0
 -2 2 0 1176.11 8.13 0
 -2 2 1 590.97 5.27 0
 -2 2 2 1766.18 8.23 0
 -2 2 3 300.32 3.13 0
 -2 3 -18 48.98 4.23 0
 -2 3 -17 12.9 2.68 0
 -2 3 -16 8.65 2.62 0
 -2 3 -15 67.32 4.5 0
 -2 3 -13 250 7.67 0
 -2 3 -2 1200.98 10.21 0
 -2 3 -1 1013.32 8.69 0
 -2 3 0 28.71 1.67 0
 -2 3 1 1045.18 7.89 0
 -2 3 2 1189.03 7.89 0
 -2 3 3 400.8 4.39 0
 -2 4 -18 46.46 4.02 0
 -2 4 -17 51.94 4.51 0
 -2 4 -16 53.75 4.38 0
 -2 4 -14 148.84 6.29 0
 -2 4 -13 3.45 2 0
 -2 4 -11 13.89 2.62 0
 -2 4 -10 93.17 4.62 0
 -2 4 -9 -0.15 1.38 0
 -2 4 -5 397.98 7.17 0
 -2 4 -4 1019.55 10.82 0
 -2 4 -3 690.84 8.5 0
 -2 4 -2 17.73 1.73 0
 -2 4 0 141.48 3.53 0
 -2 4 1 25.69 1.67 0
 -2 4 2 19.83 1.41 0
 -2 4 3 701.37 6.72 0
 -2 5 -17 3.25 2.19 0
 -2 5 -16 23.92 3.38 0
 -2 5 -15 107.15 5.76 0
 -2 5 -14 151.2 6.51 0
 -2 5 -13 23.79 3.3 0
 -2 5 -12 28.28 3.4 0
 -2 5 -11 192.91 6.57 0
 -2 5 -10 304.77 7.77 0
 -2 5 -9 35.32 3.11 0
 -2 5 -8 292.2 7.18 0
 -2 5 -3 309.53 6.22 0
 -2 5 -2 300.79 5.94 0
 -2 5 -1 463.12 6.99 0
 -2 5 0 29.92 1.98 0
 -2 5 2 305.41 5.34 0
 -2 5 3 302.45 4.99 0
 -2 6 -18 118.42 6.12 0
 -2 6 -16 80.56 5.27 0
 -2 6 -15 10.22 2.77 0
 -2 6 -14 77.8 5.14 0
 -2 6 -13 206.81 7.51 0
 -2 6 -12 4.18 2.09 0
 -2 6 -11 74.79 4.46 0
 -2 6 -10 64.03 4.16 0
 -2 6 -9 113.94 5.16 0
 -2 6 -8 34.89 3.02 0
 -2 6 -6 474.29 9.03 0
 -2 6 -1 55.01 2.78 0
 -2 6 0 373.2 6.78 0
 -2 6 3 640.87 7.99 0
 -2 7 -17 63.69 4.79 0
 -2 7 -16 44.8 4.4 0
 -2 7 -15 63.02 4.75 0
 -2 7 -14 1.43 2.56 0
 -2 7 -13 70.26 4.95 0
 -2 7 -12 44.53 3.88 0
 -2 7 -11 14.29 2.77 0
 -2 7 -10 8.49 2.26 0
 -2 7 -9 147.84 5.92 0
 -2 7 -8 200.91 6.62 0
 -2 7 -6 35.21 2.96 0
 -2 7 -3 46.02 3 0
 -2 8 -17 19.04 3.68 0
 -2 8 -16 125.42 6.56 0
 -2 8 -15 18.92 3.47 0
 -2 8 -14 7.36 2.58 0
 -2 8 -13 32.29 3.96 0
 -2 8 -12 24.63 3.38 0
 -2 8 -9 112.23 5.51 0
 -2 8 -8 127.86 5.52 0
 -2 8 -7 263.7 7.55 0
 -2 8 -6 175.73 6.07 0
 -2 8 -5 113.24 4.91 0
 -2 8 -4 163.3 5.77 0
 -2 8 -2 425.76 8.63 0
 -2 8 0 10.45 1.83 0
 -2 8 1 469.98 8.45 0
 -2 9 -16 47.3 4.54 0
 -2 9 -15 48.35 4.71 0
 -2 9 -14 15.04 3.32 0
 -2 9 -13 12.07 2.96 0
 -2 9 -12 20.14 3.6 0
 -2 9 -11 21.54 3.29 0
 -2 9 -10 5.3 2.27 0
 -2 9 -9 86.75 5.18 0
 -2 9 -8 58.89 4.18 0
 -2 9 -7 43 3.58 0
 -2 9 -5 546.04 11.05 0
 -2 9 -4 62.68 4.09 0
 -2 9 -3 225.61 7 0
 -2 9 -2 101.57 4.67 0
 -2 9 -1 46.55 3.44 0
 -2 9 0 187.92 5.95 0
 -2 9 1 48.89 3.34 0
 -2 10 -15 18.91 3.7 0
 -2 10 -14 15.38 3.4 0
 -2 10 -13 15.63 3.58 0
 -2 10 -12 89.42 5.68 0
 -2 10 -11 188.43 7.92 0
 -2 10 -10 30.89 3.99 0
 -2 10 -9 80.8 5.17 0
 -2 10 -8 4.72 2.63 0
 -2 10 -7 15.63 3.24 0
 -2 10 -6 270.76 8.61 0
 -2 10 -5 -2.08 1.32 0
 -2 10 -4 40.39 3.57 0
 -2 10 -3 37.61 3.27 0
 -2 10 -2 250.88 7.54 0
 -2 10 -1 47.48 3.44 0
 -2 10 0 1.72 1.69 0
 -2 10 1 46.95 3.25 0
 -2 11 -14 4.99 2.99 0
 -2 11 -13 11.09 3.62 0
 -2 11 -12 75.31 5.68 0
 -2 11 -11 28.22 3.99 0
 -2 11 -10 35.43 4.28 0
 -2 11 -8 242.55 8.63 0
 -2 11 -7 6.9 2.59 0
 -2 11 -6 62.91 4.51 0
 -2 11 -5 96.22 5.5 0
 -2 11 -3 75.33 4.64 0
 -2 11 -2 42.68 3.73 0
 -2 11 -1 94.87 5.01 0
 -2 11 0 201.29 6.64 0
 -2 12 -13 20.54 3.98 0
 -2 12 -11 7.07 2.94 0
 -2 12 -10 40.21 4.9 0
 -2 12 -9 62.8 5.45 0
 -2 12 -7 39.99 4 0
 -2 12 -6 107.92 5.92 0
 -2 12 -5 11.16 3.12 0
 -2 12 -4 50.33 4.21 0
 -2 12 -2 181.39 7.04 0
 -2 13 -9 25.01 4.43 0
 -2 13 -8 88.21 5.95 0
 -2 13 -7 97.95 6.12 0
 -2 13 -6 20.38 3.62 0
 -2 13 -5 53.42 4.81 0
 -2 13 -4 44.06 4.57 0
 -2 13 -3 61.5 4.87 0
 -2 14 -9 18.46 4.16 0
 -2 14 -8 55.87 5.09 0
 -2 14 -7 28.95 4.23 0
 -2 14 -6 12.63 3.31 0
 -2 14 -5 50.79 4.52 0
 -1 -1 3 9838.35 13.14 0
 -1 1 -16 8.93 2.1 0
 -1 2 -16 14.75 2.22 0
 -1 2 -15 12.92 2.35 0
 -1 2 -14 43.74 3.2 0
 -1 2 -2 3988.17 14.62 0
 -1 2 -1 3291.14 12.19 0
 -1 2 1 3356.69 10.43 0
 -1 3 -16 5.15 1.94 0
 -1 3 -15 37.15 3.13 0
 -1 3 -14 21.43 2.59 0
 -1 3 -13 78.07 4.01 0
 -1 3 -11 193.73 5.69 0
 -1 3 -8 87.51 3.55 0
 -1 3 -7 733.77 9.15 0
 -1 3 -6 627.61 8.13 0
 -1 3 -4 281.13 4.86 0
 -1 3 -3 795.6 7.65 0
 -1 3 -1 1111.1 8.11 0
 -1 3 0 59.49 1.98 0
 -1 3 2 369.37 4.11 0
 -1 4 -16 207.24 6.85 0
 -1 4 -13 153.46 5.51 0
 -1 4 -12 109.36 4.6 0
 -1 4 -11 10.9 2.04 0
 -1 4 -10 348.05 7.35 0
 -1 4 -7 382.7 6.86 0
 -1 4 -6 559.08 7.95 0
 -1 4 -4 70.74 2.82 0
 -1 4 -3 226.25 4.56 0
 -1 4 -2 1672.37 11.55 0
 -1 4 -1 642.59 6.88 0
 -1 4 0 722.82 7.15 0
 -1 4 1 632.77 6.51 0
 -1 4 2 1645.71 10.17 0
 -1 5 -16 70.13 4.36 0
 -1 5 -15 171.89 6.32 0
 -1 5 -14 29 2.98 0
 -1 5 -13 23.02 2.85 0
 -1 5 -12 110.31 4.86 0
 -1 5 -11 439.35 8.94 0
 -1 5 -10 22.97 2.8 0
 -1 5 -9 256.71 6.53 0
 -1 5 -6 47.41 2.71 0
 -1 5 -5 90 3.44 0
 -1 5 -4 184.64 4.6 0
 -1 5 -3 1839.52 13.63 0
 -1 5 -2 677.26 8.08 0
 -1 5 -1 100.13 3.23 0
 -1 5 1 101.32 3.03 0
 -1 5 2 716.56 7.64 0
 -1 6 -16 122.08 5.64 0
 -1 6 -15 35.5 3.57 0
 -1 6 -14 104.92 5.13 0
 -1 6 -13 124.19 5.35 0
 -1 6 -12 29.92 3.07 0
 -1 6 -11 14.82 2.36 0
 -1 6 -10 12.09 2.29 0
 -1 6 -8 413.78 8.24 0
 -1 6 -3 19.91 1.92 0
 -1 6 -2 147.84 4.31 0
 -1 6 0 338.04 6.07 0
 -1 6 1 535.92 7.54 0
 -1 7 -16 108.97 5.47 0
 -1 7 -15 98.56 5.32 0
 -1 7 -14 23.06 3.05 0
 -1 7 -11 13.2 2.33 0
 -1 7 -10 18.19 2.52 0
 -1 7 -9 59.6 3.7 0
 -1 7 -8 93.33 4.4 0
 -1 7 -7 90.3 4.21 0
 -1 7 -6 39.57 2.81 0
 -1 8 -15 43.81 4.13 0
 -1 8 -14 14.95 3.16 0
 -1 8 -13 31.14 3.89 0
 -1 8 -10 162.03 6.15 0
 -1 8 -9 33.74 3.11 0
 -1 8 -8 51.63 3.52 0
 -1 8 -6 24.51 2.75 0
 -1 8 -4 10.32 1.82 0
 -1 8 -3 276.61 6.88 0
 -1 8 -2 217.66 6.06 0
 -1 8 -1 40.6 2.76 0
 -1 9 -16 11.16 2.85 0
 -1 9 -13 22.95 3.35 0
 -1 9 -12 13.84 2.91 0
 -1 9 -11 14.91 3.04 0
 -1 9 -10 8.05 2.62 0
 -1 9 -9 274.15 8.14 0
 -1 9 -8 83.04 4.81 0
 -1 9 -7 22.31 3.24 0
 -1 9 -6 18.43 2.65 0
 -1 9 -5 228.36 7.02 0
 -1 9 -4 294.8 7.7 0
 -1 9 -3 480.2 9.5 0
 -1 9 -2 62.02 3.72 0
 -1 9 -1 302.23 7.37 0
 -1 9 0 924.38 12.31 0
 -1 10 -16 35.49 4.39 0
 -1 10 -15 8.34 2.77 0
 -1 10 -14 50.76 4.64 0
 -1 10 -13 50.58 4.74 0
 -1 10 -12 38.82 3.95 0
 -1 10 -11 170.84 7.19 0
 -1 10 -10 91.75 5.4 0
 -1 10 -9 81.15 5.05 0
 -1 10 -8 8.94 2.31 0
 -1 10 -7 6.51 2.19 0
 -1 10 -6 128.57 5.74 0
 -1 10 -4 125.06 5.59 0
 -1 10 -3 512.88 10.49 0
 -1 10 -2 263.68 7.38 0
 -1 10 -1 185.33 6.08 0
 -1 11 -15 19.47 3.58 0
 -1 11 -14 93.82 5.94 0
 -1 11 -13 35.53 4.59 0
 -1 11 -11 18.72 3.38 0
 -1 11 -10 154.32 6.91 0
 -1 11 -9 6.75 2.54 0
 -1 11 -8 40.87 3.97 0
 -1 11 -7 45.12 4.04 0
 -1 11 -6 79.33 4.81 0
 -1 11 -5 78.51 4.91 0
 -1 11 -4 118.78 5.57 0
 -1 12 -13 128.73 6.91 0
 -1 12 -12 82.62 5.58 0
 -1 12 -11 26.58 3.96 0
 -1 12 -10 26.18 3.77 0
 -1 12 -9 37.8 4.66 0
 -1 12 -8 43.29 4.24 0
 -1 12 -7 60.79 4.81 0
 -1 12 -6 11.4 2.81 0
 -1 12 -5 7.85 2.47 0
 -1 12 -4 48.44 4.07 0
 -1 13 -12 64.78 5.22 0
 -1 13 -11 10.58 3.01 0
 -1 13 -9 73.74 5.42 0
 -1 13 -8 121.65 6.72 0
 -1 13 -7 18.23 3.7 0
 -1 13 -6 8.01 2.86 0
 0 -1 0 0.38 0.31 0
 0 -1 1 722.34 3.65 0
 0 1 -14 29.21 2.34 0
 0 1 -2 607.95 3.91 0
 0 2 -11 161.65 4.43 0
 0 2 -10 128.1 3.94 0
 0 2 -9 15.99 1.77 0
 0 2 -7 226.41 4.33 0
 0 2 -6 5.64 1.01 0
 0 2 -5 260.94 4.04 0
 0 2 -4 1407.57 8.34 0
 0 2 -3 1001.74 6.66 0
 0 2 -2 444.24 4.15 0
 0 2 -1 522.71 4.16 0
 0 2 0 4828.4 12.04 0
 0 3 -14 20.05 2.29 0
 0 3 -13 405.7 7.64 0
 0 3 -10 43.25 2.43 0
 0 3 -9 0.28 1.08 0
 0 3 -8 180.64 4.27 0
 0 3 -7 5.25 1.25 0
 0 3 -6 54.57 2.23 0
 0 3 -5 1683.81 10.95 0
 0 3 -4 1254.66 8.99 0
 0 3 -3 2694.3 12.33 0
 0 3 -2 663.7 5.95 0
 0 3 0 0.9 0.61 0
 0 4 -15 -0.18 0.82 0
 0 4 -14 60.69 3.27 0
 0 4 -13 43.05 2.97 0
 0 4 -12 358.65 7.31 0
 0 4 -9 120.14 3.9 0
 0 4 -7 2.42 1.06 0
 0 4 -5 451.52 6.27 0
 0 4 -4 726.81 7.55 0
 0 4 -3 390.37 5.46 0
 0 4 -1 278.21 4.42 0
 0 4 0 369.09 4.95 0
 0 5 -14 304.33 7.21 0
 0 5 -12 111.27 4.27 0
 0 5 -11 702.78 10.21 0
 0 5 -7 33.43 2.4 0
 0 5 -6 1493.19 12.62 0
 0 5 -5 1357.78 11.69 0
 0 5 -4 85.43 3.03 0
 0 5 -1 750.37 7.94 0
 0 5 0 2.21 1.06 0
 0 6 -14 83.13 4.21 0
 0 6 -13 22.82 2.75 0
 0 6 -12 134.41 5.02 0
 0 6 -10 141.71 4.81 0
 0 6 -9 1.93 1.34 0
 0 6 -5 0.1 1.09 0
 0 6 -3 235.74 5.23 0
 0 6 -2 73.72 2.97 0
 0 6 -1 969.88 10.01 0
 0 6 0 8.72 1.25 0
 0 7 -15 36.74 3.16 0
 0 7 -14 101.38 4.85 0
 0 7 -13 251.15 7.16 0
 0 7 -12 4.76 1.78 0
 0 7 -11 4.46 1.72 0
 0 7 -10 340.19 7.8 0
 0 7 -9 15.97 2.32 0
 0 7 -7 324.92 7.28 0
 0 8 -14 31.15 3.42 0
 0 8 -13 4.33 1.89 0
 0 8 -12 7.52 2.34 0
 0 8 -11 65.66 4.27 0
 0 8 -10 14.6 2.62 0
 0 8 -9 0.47 1.48 0
 0 8 -8 115.58 4.91 0
 0 8 -7 25.71 2.61 0
 0 8 -6 402.96 8.44 0
 0 8 -5 526.98 9.32 0
 0 8 -4 173.2 5.38 0
 0 8 -3 441.8 8.28 0
 0 9 -15 11.78 2.32 0
 0 9 -14 66.68 4.43 0
 0 9 -13 36.63 3.93 0
 0 9 -12 21.74 2.92 0
 0 9 -11 19.12 3.1 0
 0 9 -9 120.7 5.29 0
 0 9 -7 28.63 2.9 0
 0 9 -6 665.76 11.34 0
 0 9 -5 63.44 3.71 0
 0 9 -4 77.06 3.93 0
 0 9 -3 233.25 6.5 0
 0 10 -15 28.25 3.54 0
 0 10 -14 18.25 2.9 0
 0 10 -13 77.94 4.96 0
 0 10 -12 1.28 1.91 0
 0 10 -11 2.03 2.31 0
 0 10 -10 9.53 2.47 0
 0 10 -9 133.21 5.75 0
 0 10 -8 2.25 1.81 0
 0 10 -7 36.58 3.3 0
 0 10 -6 352.79 8.74 0
 0 10 -5 0.36 1.58 0
 0 10 -4 17.18 2.66 0
 0 11 -14 4.12 2.2 0
 0 11 -13 55.64 4.34 0
 0 11 -12 4.01 2.61 0
 0 11 -11 107.85 5.92 0
 0 11 -10 115.81 5.98 0
 0 11 -8 6.43 2.62 0
 0 11 -7 98.76 5.36 0
 0 11 -6 20.85 3.24 0
 0 11 -5 15.62 2.56 0
 0 12 -13 101.28 5.71 0
 0 12 -12 0.68 2.05 0
 0 12 -11 11.59 2.78 0
 0 12 -10 0.15 1.91 0
 0 12 -9 106.08 5.97 0
 1 -2 -3 507.7 3.87 0
 1 -2 -2 3901.96 10.61 0
 1 0 -12 101.9 2.89 0
 1 2 -3 489.65 3.97 0
 1 3 -11 196.34 4.26 0
 1 3 -10 221.76 4.36 0
 1 3 -9 349.61 5.25 0
 1 3 -8 86.82 2.61 0
 1 3 -7 742.18 6.96 0
 1 3 -6 637.15 6.18 0
 1 3 -5 402.22 4.84 0
 1 3 -4 287.61 3.95 0
 1 3 -3 792.78 6.21 0
 1 4 -11 8.86 1.29 0
 1 4 -9 555.55 7.25 0
 1 4 -8 1040.21 9.52 0
 1 4 -5 113.04 3.01 0
 1 4 -4 67.15 2.31 0
 1 4 -3 225.2 3.98 0
 1 5 -3 1889.63 12.55 0
 1 6 -13 116.66 4.26 0
 1 6 -12 29.77 2.37 0
 1 6 -11 21.05 2.14 0
 1 6 -7 87.07 3.4 0
 1 6 -6 85.5 3.27 0
 1 6 -5 72.22 3.06 0
 1 6 -4 199.31 4.68 0
 1 7 -13 42.02 2.9 0
 1 7 -12 13.22 1.98 0
 1 7 -11 11.18 1.98 0
 1 7 -10 19.61 2.36 0
 1 7 -9 59.94 3.33 0
 1 7 -8 84.12 3.71 0
 1 8 -13 36.76 2.92 0
 1 8 -11 25.84 2.71 0
 1 8 -10 161.35 5.46 0
 1 8 -9 36.75 2.82 0
 1 8 -8 44.14 3.01 0
 1 8 -7 41.64 2.9 0
 1 8 -6 25.72 2.52 0
 1 8 -5 207.36 5.58 0
 1 9 -13 25.25 2.76 0
 1 9 -12 20.04 2.58 0
 1 9 -11 12.87 2.22 0
 1 9 -10 8.37 2.04 0
 1 9 -9 269.98 7.34 0
 1 9 -8 85.88 4.18 0
 1 9 -7 24.71 2.6 0
 2 -2 -9 150.66 1.76 0
 2 -2 -8 236.05 2.15 0
 2 -2 -6 38.27 0.92 0
 2 -2 -5 123.82 1.71 0
 2 2 -10 326.39 3.32 0
 2 2 -9 154.58 2.25 0
 2 3 -10 82.83 2.14 0
 2 3 -9 98.51 2.27 0
 2 3 -8 12.24 0.93 0
 2 4 -10 98.1 2.68 0
 -3 -11 -13 56.77 4.36 0
 -3 -11 -11 25.92 3.1 0
 -3 -11 -10 20.06 2.77 0
 -3 -10 -15 27.29 3.93 0
 -3 -10 -13 15.86 2.98 0
 -3 -10 -12 11.6 2.53 0
 -3 -10 -11 38.45 3.41 0
 -3 -10 -10 2.24 1.67 0
 -3 -10 -8 51.94 3.12 0
 -3 -10 -7 14.26 1.83 0
 -3 -10 -5 74.82 2.89 0
 -3 -9 -15 29.05 4 0
 -3 -9 -14 23.7 3.73 0
 -3 -9 -13 132.75 6.09 0
 -3 -9 -12 134.82 6.02 0
 -3 -9 -11 18.65 2.93 0
 -3 -9 -10 26.64 2.94 0
 -3 -9 -9 28.57 2.72 0
 -3 -9 -8 23.94 2.6 0
 -3 -9 -7 50.44 2.99 0
 -3 -9 -5 50.08 2.41 0
 -3 -9 -4 327.59 5.1 0
 -3 -8 -16 2.24 2.72 0
 -3 -8 -15 79.14 5.41 0
 -3 -8 -14 66.7 5.15 0
 -3 -8 -13 67.86 4.61 0
 -3 -8 -12 98.91 5.14 0
 -3 -8 -11 67.94 4.19 0
 -3 -8 -10 34.18 3.09 0
 -3 -8 -9 38.68 3.1 0
 -3 -8 -8 87.01 3.87 0
 -3 -8 -7 7.05 1.63 0
 -3 -8 -5 92.47 3.19 0
 -3 -8 -4 289.15 4.82 0
 -3 -7 -16 9.7 3.15 0
 -3 -7 -12 33.95 4 0
 -3 -7 -10 92.11 4.7 0
 -3 -7 -9 125.11 4.84 0
 -3 -7 -8 28.53 2.68 0
 -3 -7 -5 41.64 2.31 0
 -3 -7 -4 16.68 1.48 0
 -3 -6 -15 129.44 6.58 0
 -3 -6 -14 122.24 6.3 0
 -3 -6 -13 92.77 5.56 0
 -3 -6 -12 69.03 4.73 0
 -3 -6 -11 38.35 3.69 0
 -3 -6 -10 248.33 6.99 0
 -3 -6 -9 116.36 4.64 0
 -3 -6 -8 48.46 3.02 0
 -3 -6 -4 334.66 5.16 0
 -3 -5 -14 8.62 2.73 0
 -3 -5 -13 75.09 4.88 0
 -3 -5 -12 129.36 5.81 0
 -3 -5 -11 33.21 3.23 0
 -3 -5 -10 3.46 1.76 0
 -3 -5 -9 169.77 5.42 0
 -3 -5 -8 226.18 5.83 0
 -3 -5 -6 14.88 1.74 0
 -3 -5 -5 380.92 6.07 0
 -3 -4 -12 36.63 3.74 0
 -3 -4 -10 141.4 5.32 0
 -3 -4 -9 36.2 2.87 0
 -3 -4 -8 249.26 6.07 0
 -3 -4 -6 30.86 2.16 0
 -3 -3 -10 58.27 3.87 0
 -3 -3 -9 47.7 3.28 0
 -3 -3 -8 130.82 4.55 0
 -2 -12 -13 24.88 3.51 0
 -2 -12 -12 44.4 3.94 0
 -2 -12 -11 10.15 2.6 0
 -2 -12 -10 42.39 3.67 0
 -2 -12 -9 57.35 3.76 0
 -2 -12 -8 20.73 2.54 0
 -2 -11 -14 3.39 2.55 0
 -2 -11 -13 8.43 2.61 0
 -2 -11 -12 77.82 4.84 0
 -2 -11 -11 32.46 3.87 0
 -2 -11 -10 42.04 3.76 0
 -2 -11 -8 254.59 6.69 0
 -2 -11 -7 7.8 1.73 0
 -2 -11 -6 65.68 3.17 0
 -2 -11 -3 70.31 2.56 0
 -2 -10 -14 16.2 3.25 0
 -2 -10 -13 7.98 2.64 0
 -2 -10 -12 96.15 5.4 0
 -2 -10 -11 194.79 6.91 0
 -2 -10 -10 29.51 3.31 0
 -2 -10 -9 82.57 4.34 0
 -2 -10 -8 4.4 1.62 0
 -2 -10 -7 12.56 1.98 0
 -2 -10 -6 262.87 5.8 0
 -2 -10 -4 31.74 2 0
 -2 -10 -3 40.55 1.95 0
 -2 -10 -2 258.06 4.04 0
 -2 -10 -1 52.96 1.63 0
 -2 -9 -16 47.64 5.25 0
 -2 -9 -15 45.57 4.58 0
 -2 -9 -14 9.27 2.8 0
 -2 -9 -13 14.53 3.03 0
 -2 -9 -12 22.71 3.27 0
 -2 -9 -10 0.93 1.75 0
 -2 -9 -9 87.87 4.18 0
 -2 -9 -8 51.46 3.38 0
 -2 -9 -7 42.3 2.74 0
 -2 -9 -4 58.67 2.53 0
 -2 -9 -3 238.77 4.26 0
 -2 -9 -2 96.42 2.49 0
 -2 -9 -1 51.3 1.59 0
 -2 -9 0 194.46 2.26 0
 -2 -8 -16 127.87 6.85 0
 -2 -8 -15 12.99 3.16 0
 -2 -8 -14 8.34 2.72 0
 -2 -8 -13 35.64 3.86 0
 -2 -8 -11 102.37 5.13 0
 -2 -8 -10 93.81 4.53 0
 -2 -8 -9 107.47 4.6 0
 -2 -8 -8 122.52 4.56 0
 -2 -8 -7 262.86 6.06 0
 -2 -8 -5 119.96 3.62 0
 -2 -8 -4 161.89 3.79 0
 -2 -8 -3 135.47 3.14 0
 -2 -8 -2 434.13 4.88 0
 -2 -8 -1 478.61 4.33 0
 -2 -8 0 9.58 0.6 0
 -2 -7 -17 78.19 6.26 0
 -2 -7 -16 43.55 5.43 0
 -2 -7 -15 67.43 5.43 0
 -2 -7 -14 4.92 2.73 0
 -2 -7 -13 74.96 4.83 0
 -2 -7 -12 49.05 3.87 0
 -2 -7 -11 11.07 2.39 0
 -2 -7 -10 5.15 1.84 0
 -2 -7 -5 38.26 2.15 0
 -2 -7 -4 422.37 5.81 0
 -2 -7 -3 46.64 1.95 0
 -2 -7 -2 165.98 2.95 0
 -2 -7 -1 365.59 3.63 0
 -2 -7 0 498.64 3.11 0
 -2 -6 -17 36.21 4.74 0
 -2 -6 -16 93.01 6.17 0
 -2 -6 -15 14.14 3.54 0
 -2 -6 -14 84.41 5.59 0
 -2 -6 -12 5.94 2.1 0
 -2 -6 -11 79.6 4.58 0
 -2 -6 -10 64.47 3.77 0
 -2 -6 -9 114.61 4.6 0
 -2 -6 -8 35.84 2.61 0
 -2 -6 -6 471.62 7.16 0
 -2 -6 -4 26.77 1.71 0
 -2 -6 -3 667.08 6.39 0
 -2 -6 -2 292.4 3.72 0
 -2 -6 -1 54.01 1.4 0
 -2 -5 -18 51.53 5.57 0
 -2 -5 -17 0.45 2.63 0
 -2 -5 -16 21.3 3.89 0
 -2 -5 -15 104.5 6.2 0
 -2 -5 -14 145.73 6.56 0
 -2 -5 -13 29.07 3.34 0
 -2 -5 -12 31.42 3.71 0
 -2 -5 -10 317.03 7.71 0
 -2 -5 -5 340.86 5.57 0
 -2 -5 -4 128.18 3.16 0
 -2 -5 -3 306.25 4.26 0
 -2 -5 -2 306.17 3.72 0
 -2 -4 -18 53.31 5.95 0
 -2 -4 -17 55.82 5.26 0
 -2 -4 -16 57.24 4.87 0
 -2 -4 -15 216.15 8.06 0
 -2 -4 -14 159.33 6.93 0
 -2 -4 -13 4.21 2.15 0
 -2 -4 -12 337.5 8.75 0
 -2 -4 -11 16.93 2.51 0
 -2 -4 -10 101.99 4.54 0
 -2 -4 -9 1.28 1.61 0
 -2 -4 -6 263.16 5.28 0
 -2 -4 -5 397.48 5.92 0
 -2 -4 -4 1045.45 8.53 0
 -2 -4 -2 16.28 1.07 0
 -2 -4 -1 25.27 0.98 0
 -2 -3 -17 16.11 3.75 0
 -2 -3 -15 64.36 4.87 0
 -2 -3 -14 38.09 4.26 0
 -2 -3 -13 260.75 7.9 0
 -2 -3 -12 357.07 8.81 0
 -2 -3 -11 161.8 5.9 0
 -2 -3 -9 98.77 4.16 0
 -2 -3 -7 621.95 8.56 0
 -2 -3 -5 338.26 5.37 0
 -2 -3 -4 1823.58 11.21 0
 -2 -3 -3 393.83 4.72 0
 -2 -3 -2 1165.82 6.97 0
 -2 -2 -16 20.61 3.64 0
 -2 -2 -15 60.79 4.78 0
 -2 -2 -14 42.49 3.76 0
 -2 -2 -13 34.31 3.68 0
 -2 -2 -12 40.59 3.44 0
 -2 -2 -11 72.2 4.12 0
 -2 -2 -10 313.59 7.44 0
 -2 -2 -9 155.4 4.94 0
 -2 -2 -7 75.84 3.21 0
 -2 -2 -6 40.7 2.18 0
 -2 -2 -5 123.75 3.32 0
 -2 -2 -4 1023.17 8.46 0
 -2 -2 -3 303.29 4.26 0
 -2 -1 -14 134.4 6.31 0
 -2 -1 -13 31.5 3.86 0
 -2 -1 -12 115.5 5.28 0
 -2 -1 -11 20.36 2.71 0
 -2 -1 -10 528.29 9.38 0
 -2 -1 -9 117.81 4.28 0
 -2 -1 -7 335.46 6.19 0
 -2 -1 -6 471.32 6.81 0
 -2 -1 -5 519.12 6.59 0
 -2 0 -10 52.92 3.28 0
 -1 -13 -13 77.34 5.22 0
 -1 -13 -12 70.34 4.97 0
 -1 -13 -11 9.29 2.7 0
 -1 -13 -10 32.04 3.77 0
 -1 -13 -9 71.75 4.33 0
 -1 -13 -8 116.25 4.95 0
 -1 -13 -7 19.56 2.45 0
 -1 -13 -6 5.33 1.63 0
 -1 -12 -14 17.68 3.42 0
 -1 -12 -12 74.95 5.1 0
 -1 -12 -11 32.4 3.62 0
 -1 -12 -10 26.36 3.16 0
 -1 -12 -9 46.84 3.81 0
 -1 -12 -8 42.8 3.46 0
 -1 -12 -7 65.63 3.64 0
 -1 -12 -6 7.34 1.78 0
 -1 -12 -5 7.41 1.7 0
 -1 -12 -4 49.8 2.74 0
 -1 -12 -3 9.43 1.51 0
 -1 -11 -15 19.29 3.96 0
 -1 -11 -14 86.86 5.5 0
 -1 -11 -13 42.96 4.78 0
 -1 -11 -12 1.74 2.26 0
 -1 -11 -11 21.99 3.07 0
 -1 -11 -10 152.67 6.11 0
 -1 -11 -9 7.96 2.21 0
 -1 -11 -8 38.21 3.02 0
 -1 -11 -7 40.88 3.14 0
 -1 -11 -6 82.55 3.68 0
 -1 -11 -5 85.25 3.65 0
 -1 -11 -4 110.66 3.76 0
 -1 -11 -2 80.67 2.98 0
 -1 -11 -1 5.67 1.08 0
 -1 -11 0 0.51 0.84 0
 -1 -10 -15 12.15 3.13 0
 -1 -10 -14 49.93 4.93 0
 -1 -10 -13 57.69 4.52 0
 -1 -10 -12 36.34 3.97 0
 -1 -10 -11 174.51 6.68 0
 -1 -10 -10 89.99 4.66 0
 -1 -10 -9 80.64 4.41 0
 -1 -10 -8 9.04 1.94 0
 -1 -10 -7 5.49 1.91 0
 -1 -10 -6 128.03 4.39 0
 -1 -10 -5 250.5 5.71 0
 -1 -10 -3 516.79 7.26 0
 -1 -10 -2 283.09 5.09 0
 -1 -10 -1 183.63 3.91 0
 -1 -9 -16 11.27 3.29 0
 -1 -9 -15 14.86 3.56 0
 -1 -9 -13 30.23 3.74 0
 -1 -9 -12 16.27 3.13 0
 -1 -9 -11 13.75 2.6 0
 -1 -9 -10 7.52 2.1 0
 -1 -9 -8 81.18 3.99 0
 -1 -9 -7 27.63 2.41 0
 -1 -9 -3 487.5 6.75 0
 -1 -9 -2 61.79 2.5 0
 -1 -8 -16 72.41 5.65 0
 -1 -8 -15 39.69 4.69 0
 -1 -8 -14 16.06 3.52 0
 -1 -8 -13 35.33 3.87 0
 -1 -8 -11 22.78 3.1 0
 -1 -8 -10 167.17 5.87 0
 -1 -8 -9 33.72 3.05 0
 -1 -8 -8 42.03 2.91 0
 -1 -8 -7 45.28 2.8 0
 -1 -8 -4 8.58 1.34 0
 -1 -8 -3 298.46 5.11 0
 -1 -8 -2 216.12 4.09 0
 -1 -7 -17 25.7 4.46 0
 -1 -7 -15 102.61 6.25 0
 -1 -7 -14 26.36 3.59 0
 -1 -7 -13 40.53 4.03 0
 -1 -7 -12 16.67 2.89 0
 -1 -7 -11 11.8 2.27 0
 -1 -7 -10 17.19 2.55 0
 -1 -7 -9 50.64 3.25 0
 -1 -7 -8 91.94 4 0
 -1 -7 -4 833.61 8.57 0
 -1 -7 -3 1.82 0.86 0
 -1 -7 -2 41.28 1.84 0
 -1 -6 -18 2.21 3.02 0
 -1 -6 -17 56.26 5.17 0
 -1 -6 -16 131.13 7.15 0
 -1 -6 -15 39.53 4.53 0
 -1 -6 -14 106.34 5.66 0
 -1 -6 -13 117 5.68 0
 -1 -6 -12 29.4 3.65 0
 -1 -6 -11 14.13 2.27 0
 -1 -6 -10 13.44 2.2 0
 -1 -6 -9 167.1 5.37 0
 -1 -6 -8 424.19 7.83 0
 -1 -6 -6 80.38 3.21 0
 -1 -6 -5 75.52 2.9 0
 -1 -6 -3 21.18 1.47 0
 -1 -6 -2 154.33 3.06 0
 -1 -5 -18 25.82 4.6 0
 -1 -5 -17 61.39 5.23 0
 -1 -5 -16 71.58 5.54 0
 -1 -5 -15 170.11 7.41 0
 -1 -5 -14 34.53 4.13 0
 -1 -5 -13 23.01 3.11 0
 -1 -5 -12 111.83 5.1 0
 -1 -5 -11 420.83 9.02 0
 -1 -5 -10 21.98 2.6 0
 -1 -5 -9 269.33 6.42 0
 -1 -5 -5 86.13 2.87 0
 -1 -5 -4 187 3.81 0
 -1 -5 -3 1883.67 10.5 0
 -1 -5 -2 693.44 5.82 0
 -1 -5 -1 96.85 2.03 0
 -1 -4 -18 44.85 5.1 0
 -1 -4 -17 235.82 9.16 0
 -1 -4 -16 229.43 8.78 0
 -1 -4 -15 37.17 4.22 0
 -1 -4 -13 154.55 6.16 0
 -1 -4 -12 117.97 5.13 0
 -1 -4 -11 12.06 2.29 0
 -1 -4 -10 366.09 7.81 0
 -1 -4 -9 542.54 8.87 0
 -1 -4 -7 396.82 6.63 0
 -1 -4 -6 558.57 7.32 0
 -1 -4 -5 113.71 3.11 0
 -1 -4 -3 229.48 3.6 0
 -1 -4 -2 1630.44 8.19 0
 -1 -4 -1 624.85 4.39 0
 -1 -4 3 224.93 2.27 0
 -1 -3 -18 32.51 4.75 0
 -1 -3 -17 49 5.01 0
 -1 -3 -16 4.1 2.82 0
 -1 -3 -15 37.04 3.87 0
 -1 -3 -13 80.86 4.63 0
 -1 -3 -10 215.61 5.94 0
 -1 -3 -7 738.57 8.79 0
 -1 -3 -6 634.61 7.56 0
 -1 -3 -5 398.28 5.54 0
 -1 -3 -4 287.77 4.28 0
 -1 -3 -3 825.08 6.33 0
 -1 -3 -2 373.79 3.67 0
 -1 -3 -1 1065.3 5.01 0
 -1 -3 3 795.44 4.08 0
 -1 -2 -19 54.75 6.07 0
 -1 -2 -18 32.04 4.58 0
 -1 -2 -16 18.47 3.77 0
 -1 -2 -15 11.23 3.36 0
 -1 -2 -14 45.37 4.23 0
 -1 -2 -12 1.07 1.39 0
 -1 -2 -11 249.87 6.7 0
 -1 -2 -6 935.53 8.95 0
 -1 -2 -5 124.21 3.17 0
 -1 -2 -4 1692.93 9.85 0
 -1 -2 -3 493.95 4.72 0
 -1 -2 -2 3860.61 10.99 0
 -1 -2 -1 3258.68 7.99 0
 -1 -2 3 486.94 3.43 0
 -1 -1 -18 5.94 2.97 0
 -1 -1 -17 14.21 3.37 0
 -1 -1 -16 7.58 2.83 0
 -1 -1 -15 68.21 4.8 0
 -1 -1 -14 12.34 2.87 0
 -1 -1 -13 77.33 4.4 0
 -1 -1 -12 29.33 2.99 0
 -1 -1 -11 233.19 6.47 0
 -1 -1 -10 159.6 5.36 0
 -1 -1 -8 69.21 3 0
 -1 -1 -6 383.74 5.83 0
 -1 -1 -4 642.44 6.09 0
 -1 -1 -3 9598.42 20.43 0
 -1 -1 -2 203.95 2.64 0
 -1 -1 -1 1020.46 4.68 0
 -1 0 -16 1.97 2.39 0
 -1 0 -15 21.46 3.36 0
 -1 0 -14 14.18 2.72 0
 -1 0 -13 130.38 5.62 0
 -1 0 -11 0.85 1.46 0
 -1 0 -10 38.68 2.77 0
 -1 0 -8 228.77 5.27 0
 -1 0 -7 461.4 6.86 0
 -1 0 -5 1602.73 10.68 0
 -1 0 -4 450.76 5.15 0
 -1 0 -3 1291.19 7.63 0
 -1 1 -13 81.35 4.48 0
 -1 1 -12 26.8 2.89 0
 -1 1 -10 147.54 4.9 0
 -1 1 -8 75.21 3.13 0
 -1 1 -7 170.71 4.21 0
 -1 1 -6 380.86 5.7 0
 -1 1 -5 2364.5 13.01 0
 0 -14 -11 35.09 4.21 0
 0 -14 -10 7.45 2.32 0
 0 -14 -9 2.25 1.92 0
 0 -14 -8 114.26 5.33 0
 0 -14 -7 8.43 2.33 0
 0 -14 -6 32.68 3.19 0
 0 -13 -11 13.41 3.21 0
 0 -13 -10 125.96 5.83 0
 0 -13 -9 243.69 7.73 0
 0 -13 -8 13.43 2.63 0
 0 -13 -7 6.04 1.93 0
 0 -13 -6 9.03 2.06 0
 0 -13 -5 105.13 4.58 0
 0 -13 -4 1.79 1.46 0
 0 -13 -3 0.03 1.11 0
 0 -12 -14 4.62 2.74 0
 0 -12 -12 2.22 2.25 0
 0 -12 -11 12.46 2.73 0
 0 -12 -10 5.03 2.28 0
 0 -12 -9 104.9 5.34 0
 0 -12 -8 41.04 3.54 0
 0 -12 -7 674.86 11.35 0
 0 -12 -6 5.03 1.76 0
 0 -12 -5 5.52 1.71 0
 0 -12 -4 -0.97 1.47 0
 0 -11 -15 0.52 2.38 0
 0 -11 -14 3.99 2.66 0
 0 -11 -13 50.51 4.77 0
 0 -11 -12 1.62 2.08 0
 0 -11 -11 106.29 5.49 0
 0 -11 -10 119.5 5.67 0
 0 -11 -9 121.5 5.55 0
 0 -11 -8 10.09 2.49 0
 0 -11 -7 97.4 4.64 0
 0 -11 -6 25.01 2.64 0
 0 -11 -5 12.23 1.98 0
 0 -11 -4 1.46 1.4 0
 0 -10 -15 28 4.42 0
 0 -10 -14 15.79 3.26 0
 0 -10 -13 71.77 5 0
 0 -10 -12 3.39 2.2 0
 0 -10 -11 0.54 2 0
 0 -10 -10 6.12 2.46 0
 0 -10 -9 129.65 5.58 0
 0 -10 -8 0.8 1.63 0
 0 -10 -7 33.84 2.97 0
 0 -10 -6 352.34 7.61 0
 0 -10 -5 -0.21 1.29 0
 0 -9 -16 30.53 4.25 0
 0 -9 -15 9.49 3.07 0
 0 -9 -14 67.71 5.3 0
 0 -9 -13 36.1 3.93 0
 0 -9 -12 24.24 3.29 0
 0 -9 -11 22.92 3.11 0
 0 -9 -9 123.72 5.09 0
 0 -9 -8 4.42 1.69 0
 0 -9 -7 29.1 2.82 0
 0 -9 -6 663.73 9.98 0
 0 -9 -5 59.9 3.09 0
 0 -8 -17 -2.29 2.61 0
 0 -8 -15 49.5 4.98 0
 0 -8 -14 30.16 3.92 0
 0 -8 -13 4.77 2.27 0
 0 -8 -12 5.75 2.2 0
 0 -8 -10 15.07 2.41 0
 0 -8 -9 -0.55 1.33 0
 0 -8 -8 113.55 4.57 0
 0 -8 -7 21.34 2.28 0
 0 -8 -6 400.64 7.61 0
 0 -7 -17 1.39 2.89 0
 0 -7 -16 63 5.4 0
 0 -7 -15 34.77 4.07 0
 0 -7 -14 107.33 5.81 0
 0 -7 -13 240.27 8.07 0
 0 -7 -12 3.64 2.08 0
 0 -7 -11 2.76 1.74 0
 0 -7 -10 322.85 7.91 0
 0 -7 -8 297.59 6.86 0
 0 -7 -7 325.15 6.95 0
 0 -6 -16 5.32 3.12 0
 0 -6 -15 18.73 3.23 0
 0 -6 -14 80.33 4.99 0
 0 -6 -13 23.15 3.26 0
 0 -6 -12 132.3 5.75 0
 0 -6 -11 18.69 2.57 0
 0 -6 -10 146.27 5.39 0
 0 -6 -9 0.78 1.46 0
 0 -6 -8 125.71 4.38 0
 0 -6 -5 0.35 1 0
 0 -5 -18 -0.93 2.61 0
 0 -5 -17 416.14 11.8 0
 0 -5 -16 19.06 3.41 0
 0 -5 -15 26.3 3.73 0
 0 -5 -14 299.89 8.87 0
 0 -5 -13 416.6 9.81 0
 0 -5 -12 120.95 5.26 0
 0 -5 -11 705.67 11.52 0
 0 -5 -10 53.04 3.32 0
 0 -5 -9 410.4 7.95 0
 0 -5 -6 1538.21 12.75 0
 0 -5 -5 1349.75 11.25 0
 0 -4 -18 21.95 4.07 0
 0 -4 -17 1.61 2.82 0
 0 -4 -16 4 2.88 0
 0 -4 -15 1.53 2.4 0
 0 -4 -14 62.33 4.38 0
 0 -4 -13 43.12 3.76 0
 0 -4 -11 131.24 5.08 0
 0 -4 -9 120.24 4.29 0
 0 -4 -6 32.8 2.05 0
 0 -3 -19 135.12 7.66 0
 0 -3 -18 3.28 2.69 0
 0 -3 -17 0.88 2.34 0
 0 -3 -16 110.27 6.17 0
 0 -3 -15 34.47 3.81 0
 0 -3 -14 16.82 2.98 0
 0 -3 -13 417.96 9.51 0
 0 -3 -12 2.22 1.73 0
 0 -3 -10 42.23 2.84 0
 0 -3 -7 6.1 1.32 0
 0 -3 -6 57.97 2.56 0
 0 -3 -5 1617.28 11.05 0
 0 -3 -4 1256.34 9.02 0
 0 -2 -19 15.64 3.7 0
 0 -2 -18 16.86 3.85 0
 0 -2 -17 8.87 3.02 0
 0 -2 -16 20.82 3.89 0
 0 -2 -15 55.78 4.42 0
 0 -2 -14 194.41 6.93 0
 0 -2 -12 164.06 5.64 0
 0 -2 -11 171.47 5.53 0
 0 -2 -10 121.06 4.31 0
 0 -2 -7 229.83 4.81 0
 0 -2 -6 4.16 0.95 0
 0 -2 -4 1462.21 9.1 0
 0 -2 -3 983.49 6.64 0
 0 -1 -19 29.42 4.29 0
 0 -1 -18 15.48 3.47 0
 0 -1 -17 15.93 3.78 0
 0 -1 -16 185.82 7.58 0
 0 -1 -15 0.96 2.07 0
 0 -1 -14 28.31 3.34 0
 0 -1 -13 81.78 4.52 0
 0 -1 -12 2.28 1.82 0
 0 -1 -11 7.47 1.79 0
 0 -1 -10 15.29 1.94 0
 0 -1 -8 13 1.58 0
 0 -1 -7 215.6 4.55 0
 0 -1 -5 2211.13 11.77 0
 0 -1 -4 23.47 1.29 0
 0 -1 -3 12.2 0.96 0
 0 0 -19 1.42 2.71 0
 0 0 -18 229.14 8.94 0
 0 0 -17 2.12 2.77 0
 0 0 -16 106.64 6.01 0
 0 0 -15 0.53 2.13 0
 0 0 -13 0.43 1.78 0
 0 0 -12 0.75 1.71 0
 0 0 -11 1.6 1.71 0
 0 0 -8 4659.65 21.86 0
 0 0 -7 1.58 0.98 0
 0 0 -6 293.83 4.71 0
 0 0 -5 -0.29 0.61 0
 0 0 -4 2043.45 9.75 0
 0 0 -3 -0.02 0.61 0
 0 0 -2 63.03 1.28 0
 0 0 2 63.49 1.27 0
 0 1 -17 10.35 2.82 0
 0 1 -16 184.92 7.14 0
 0 1 -15 0.69 2 0
 0 1 -14 30.02 3.38 0
 0 1 -13 83.84 4.55 0
 0 1 -12 2.05 1.53 0
 0 1 -11 6.18 1.78 0
 0 1 -8 14.17 1.65 0
 0 1 -7 216.11 4.49 0
 0 1 -6 281.86 4.68 0
 0 1 -5 2195.73 11.4 0
 0 1 -4 25.37 1.26 0
 0 1 -3 13.35 0.9 0
 0 1 -2 604.1 3.67 0
 0 2 -15 57.76 4.26 0
 0 2 -14 195.31 6.82 0
 0 2 -13 136.46 5.28 0
 0 2 -12 164.91 5.51 0
 0 2 -11 167.17 5.22 0
 0 2 -7 232.73 4.62 0
 0 2 -6 3.87 0.98 0
 0 2 -4 1408.19 8.07 0
 0 3 -11 385.46 7.89 0
 0 3 -8 184.98 4.55 0
 1 -15 -9 125.5 6.19 0
 1 -15 -8 14.29 2.82 0
 1 -15 -6 84.99 4.96 0
 1 -14 -11 52.81 4.52 0
 1 -14 -10 49.84 4.5 0
 1 -14 -9 80.18 5.21 0
 1 -14 -7 11.39 2.73 0
 1 -14 -6 51.92 4.15 0
 1 -14 -5 6.88 2.3 0
 1 -13 -12 66.5 5.11 0
 1 -13 -11 8.62 2.68 0
 1 -13 -10 24.87 3.56 0
 1 -13 -8 114.9 5.76 0
 1 -13 -7 19.13 2.92 0
 1 -13 -6 6.24 2.2 0
 1 -12 -13 121.6 6.78 0
 1 -12 -12 82.07 5.7 0
 1 -12 -11 28.41 3.95 0
 1 -12 -9 42.96 4.12 0
 1 -12 -8 39.72 3.98 0
 1 -12 -7 65.65 4.23 0
 1 -12 -6 10.11 2.29 0
 1 -11 -13 41 4.87 0
 1 -11 -11 22.79 3.8 0
 1 -11 -10 153.88 6.65 0
 1 -11 -9 9.79 2.42 0
 1 -11 -8 39.36 3.54 0
 1 -11 -7 44.24 3.78 0
 1 -10 -15 8.91 2.99 0
 1 -10 -14 49.89 4.63 0
 1 -10 -13 53.2 4.5 0
 1 -10 -12 34.75 4 0
 1 -10 -11 169.03 6.82 0
 1 -10 -10 85.8 5.18 0
 1 -10 -9 82.37 4.59 0
 1 -10 -8 10.2 2.29 0
 1 -10 -7 3.13 1.75 0
 1 -9 -16 9.92 3.26 0
 1 -9 -15 9.84 3.01 0
 1 -9 -14 41.55 4.21 0
 1 -9 -13 23.94 3.49 0
 1 -9 -12 18.1 3.28 0
 1 -9 -11 15.37 3.13 0
 1 -9 -10 6.78 2.23 0
 1 -9 -9 276.3 7.89 0
 1 -9 -8 84.56 4.42 0
 1 -9 -7 23.17 2.73 0
 1 -8 -16 84.9 5.78 0
 1 -8 -15 39.84 4.23 0
 1 -8 -13 32.2 3.75 0
 1 -8 -12 76.17 5.03 0
 1 -8 -11 21.04 3.16 0
 1 -8 -10 157.3 5.94 0
 1 -8 -9 36.53 3.26 0
 1 -8 -8 44.22 3.49 0
 1 -7 -17 23.66 4.29 0
 1 -7 -16 123.69 6.98 0
 1 -7 -15 107.73 6.43 0
 1 -7 -14 24.79 3.64 0
 1 -7 -13 48.25 4.22 0
 1 -7 -12 13.36 2.57 0
 1 -7 -11 13.09 2.44 0
 1 -6 -18 5.26 2.9 0
 1 -6 -16 124.07 6.73 0
 1 -6 -15 30.68 3.86 0
 1 -6 -14 103.93 5.75 0
 1 -6 -12 29.33 3.18 0
 1 -6 -10 16.31 2.35 0
 1 -6 -9 158.67 5.35 0
 1 -6 -8 427.11 8.26 0
 1 -5 -18 20.38 3.97 0
 1 -5 -16 75.38 5.44 0
 1 -5 -15 167.6 7.17 0
 1 -5 -14 35.51 3.86 0
 1 -5 -12 115.49 5.15 0
 1 -5 -11 422.28 9.05 0
 1 -5 -9 250.63 6.46 0
 1 -5 -8 312.96 6.8 0
 1 -4 -18 48.67 5.19 0
 1 -4 -17 239.64 8.85 0
 1 -4 -15 34.85 3.84 0
 1 -4 -14 375.9 9.6 0
 1 -4 -12 105.75 4.85 0
 1 -4 -11 14.37 2.48 0
 1 -3 -19 39.34 5.13 0
 1 -3 -18 28.99 4.64 0
 1 -3 -16 6.02 2.49 0
 1 -3 -15 38.32 3.76 0
 1 -3 -14 18.65 2.87 0
 1 -3 -13 78.65 4.38 0
 1 -3 -12 175.17 6 0
 1 -3 -11 201.04 6.02 0
 1 -3 -10 215.79 5.95 0
 1 -3 -9 340.38 6.94 0
 1 -3 -7 717.92 8.93 0
 1 -3 -6 632.1 7.87 0
 1 -2 -18 37.27 4.66 0
 1 -2 -17 48.18 4.53 0
 1 -2 -16 16.52 3.32 0
 1 -2 -15 10.77 2.85 0
 1 -2 -13 63.8 3.95 0
 1 -2 -12 1.6 1.53 0
 1 -2 -11 250.58 6.5 0
 1 -2 -10 636.82 9.73 0
 1 -2 -7 348.44 5.99 0
 1 -2 -6 950.79 9.17 0
 1 -1 -19 18.44 3.8 0
 1 -1 -18 3.38 2.69 0
 1 -1 -17 19.51 3.45 0
 1 -1 -16 8.2 2.63 0
 1 -1 -14 10.44 2.44 0
 1 -1 -13 78.9 4.24 0
 1 -1 -12 27.49 2.8 0
 1 -1 -11 229.23 6.14 0
 1 -1 -10 150.16 4.78 0
 1 -1 -8 72.93 3 0
 1 -1 -6 379.91 5.59 0
 1 -1 -5 2308.81 12.39 0
 1 0 -19 25.23 3.96 0
 1 0 -18 7.28 3.14 0
 1 0 -17 18.94 3.37 0
 1 0 -16 1.85 2.41 0
 1 0 -15 21.86 3.12 0
 1 0 -14 13.53 2.74 0
 1 0 -13 133.35 5.3 0
 1 0 -12 99.7 4.41 0
 1 0 -11 1.79 1.34 0
 1 0 -8 231.75 4.92 0
 1 0 -7 447.39 6.19 0
 1 0 -6 40.18 1.89 0
 1 0 -5 1567.87 9.59 0
 1 0 -4 455.39 4.71 0
 1 1 -19 19.22 3.6 0
 1 1 -18 10.64 3.08 0
 1 1 -17 13.95 3.24 0
 1 1 -16 6.48 2.49 0
 1 1 -15 73.37 4.64 0
 1 1 -14 13.4 2.87 0
 1 1 -13 82.07 4.42 0
 1 1 -12 27.78 2.68 0
 1 1 -11 226.79 5.97 0
 1 1 -8 69.21 2.78 0
 1 1 -7 167.18 3.74 0
 1 1 -6 375.98 5.06 0
 1 1 -5 2313.84 10.98 0
 1 1 -3 9690.65 16.73 0
 1 2 -17 47.95 4.51 0
 1 2 -15 10.94 2.53 0
 1 2 -13 58.67 3.73 0
 1 2 -12 0.17 1.42 0
 1 2 -11 255.69 6.24 0
 1 2 -8 99.6 3.16 0
 1 2 -7 346.81 5.22 0
 1 2 -6 947.66 7.71 0
 1 2 -4 1742.39 7.95 0
 1 2 1 3427.76 8.2 0
 1 3 -15 35.64 3.49 0
 1 3 -14 18.38 2.86 0
 1 3 -13 71.59 4.05 0
 1 3 -12 177.4 5.54 0
 1 3 -8 84.63 2.97 0
 1 3 -7 758.12 7.58 0
 1 3 -6 633.51 6.25 0
 1 3 -5 408.63 4.5 0
 1 4 -11 10.7 1.9 0
 1 4 -9 546.32 7.59 0
 2 -15 -8 28.19 3.99 0
 2 -15 -7 31.46 4.07 0
 2 -15 -6 179.28 7.27 0
 2 -14 -10 7.21 2.85 0
 2 -14 -9 19.87 3.33 0
 2 -14 -8 55.97 4.71 0
 2 -14 -7 21.11 3.45 0
 2 -13 -11 76.84 5.39 0
 2 -13 -10 182.12 7.56 0
 2 -13 -9 26.09 3.68 0
 2 -12 -13 24.18 3.77 0
 2 -12 -12 40.27 4.9 0
 2 -12 -11 11.64 3.45 0
 2 -12 -9 59.75 4.56 0
 2 -12 -8 18.55 3.18 0
 2 -11 -14 4.27 2.85 0
 2 -11 -13 8.07 2.93 0
 2 -11 -12 78.48 5.75 0
 2 -11 -11 27.42 3.94 0
 2 -11 -10 40.53 3.96 0
 2 -11 -9 39.27 4.21 0
 2 -11 -8 242.84 7.89 0
 2 -10 -15 11.8 3.82 0
 2 -10 -14 15.35 3.63 0
 2 -10 -13 11.95 3.11 0
 2 -10 -12 87.57 5.49 0
 2 -10 -11 194.21 7.75 0
 2 -10 -10 24 3.46 0
 2 -10 -9 79.04 5.1 0
 2 -9 -15 50.77 5.16 0
 2 -9 -14 13.2 3.14 0
 2 -9 -13 13.3 3.01 0
 2 -9 -12 18.07 3.61 0
 2 -9 -11 31.41 3.51 0
 2 -9 -10 2.88 2.17 0
 2 -9 -9 92.01 5.04 0
 2 -8 -16 135.07 7.4 0
 2 -8 -15 15.48 3.67 0
 2 -8 -14 13.46 3.04 0
 2 -8 -13 30.54 3.68 0
 2 -8 -12 28.04 3.77 0
 2 -8 -11 103.01 5.38 0
 2 -8 -10 92.77 4.98 0
 2 -8 -9 119.24 5.38 0
 2 -7 -17 62.93 5.66 0
 2 -7 -16 39.15 4.53 0
 2 -7 -15 68.8 5.15 0
 2 -7 -14 2.36 2.6 0
 2 -7 -13 72.66 4.81 0
 2 -7 -12 44.1 4.08 0
 2 -7 -11 13 2.46 0
 2 -7 -10 7.43 2.16 0
 2 -7 -9 141.62 5.49 0
 2 -6 -17 30.86 4.28 0
 2 -6 -16 83.04 5.66 0
 2 -6 -15 17.15 3.46 0
 2 -6 -14 79.18 5.25 0
 2 -6 -12 1.82 1.74 0
 2 -6 -11 74.69 4.5 0
 2 -6 -10 65.5 4.02 0
 2 -6 -9 113.77 4.99 0
 2 -5 -18 45.92 5.5 0
 2 -5 -17 4.46 2.53 0
 2 -5 -16 28.56 3.86 0
 2 -5 -15 96.56 5.61 0
 2 -5 -14 148.11 6.7 0
 2 -5 -11 192.27 6.46 0
 2 -5 -10 329.59 7.98 0
 2 -5 -9 33.55 2.95 0
 2 -4 -17 58.96 5.07 0
 2 -4 -16 56.55 4.95 0
 2 -4 -15 220.8 8.03 0
 2 -4 -14 156.78 6.52 0
 2 -4 -13 1.79 2.03 0
 2 -4 -12 340 8.44 0
 2 -4 -11 13.48 2.31 0
 2 -4 -10 93.85 4.37 0
 2 -4 -9 -0.94 1.4 0
 2 -3 -19 37.73 4.87 0
 2 -3 -18 46.44 5.3 0
 2 -3 -17 14.84 3.56 0
 2 -3 -16 10.92 3.44 0
 2 -3 -15 63.27 4.73 0
 2 -3 -14 37.24 3.51 0
 2 -3 -13 254 7.59 0
 2 -3 -12 341.7 8.26 0
 2 -3 -11 155.46 5.55 0
 2 -3 -10 80.72 4.04 0
 2 -3 -9 95.5 3.9 0
 2 -2 -19 41.91 4.91 0
 2 -2 -18 288.89 9.69 0
 2 -2 -17 50.8 4.63 0
 2 -2 -16 23.98 3.44 0
 2 -2 -14 36.99 3.69 0
 2 -2 -13 36.78 3.45 0
 2 -2 -12 43.07 3.24 0
 2 -2 -11 74.61 3.79 0
 2 -2 -10 326.96 7.11 0
 2 -1 -19 35.64 4.73 0
 2 -1 -18 27.8 4.35 0
 2 -1 -16 3.43 2.23 0
 2 -1 -15 56.57 4.25 0
 2 -1 -14 143.8 5.91 0
 2 -1 -13 34.82 3.39 0
 2 -1 -11 22.18 2.55 0
 2 -1 -10 516.27 8.55 0
 2 0 -18 34.86 4.43 0
 2 0 -17 13.03 3.06 0
 2 0 -16 1.09 2.08 0
 2 0 -15 56.07 4.18 0
 2 0 -13 19.93 2.61 0
 2 0 -12 233.5 6.34 0
 2 0 -11 0.24 1.24 0
 2 0 -10 49.38 2.93 0
 2 0 -8 1.62 1.08 0
 2 0 -7 402.38 6.07 0
 2 0 -6 795.56 7.97 0
 2 1 -18 25.45 3.89 0
 2 1 -17 169.38 7.21 0
 2 1 -16 2.52 2.14 0
 2 1 -15 56.39 4.22 0
 2 1 -14 147.81 5.98 0
 2 1 -13 32.65 3.15 0
 2 1 -11 19.72 2.23 0
 2 1 -8 176.78 4.21 0
 2 1 -7 336.09 5.24 0
 2 1 -6 480.45 5.74 0
 2 1 -5 528.98 5.61 0
 2 2 -19 42.53 4.58 0
 2 2 -17 47.79 4.31 0
 2 2 -16 21.95 3.29 0
 2 2 -15 60.19 4.09 0
 2 2 -14 42.59 3.63 0
 2 2 -13 35.22 3 0
 2 2 -12 41.23 3.15 0
 2 2 -11 77.03 3.44 0
 2 2 -8 235.71 4.66 0
 2 2 -6 42 1.7 0
 2 2 -5 120.39 2.47 0
 2 3 -17 15.52 3.11 0
 2 3 -16 11.3 2.53 0
 2 3 -15 63.87 4.02 0
 2 3 -14 45.32 3.33 0
 2 3 -13 261.11 6.69 0
 2 3 -12 367.03 7.56 0
 2 3 -11 155.6 4.69 0
 2 3 -8 11.35 1.4 0
 2 3 -7 625.04 6.47 0
 2 3 -6 199.97 3.32 0
 2 3 -4 1757.18 6.97 0
 2 3 -3 388.13 2.49 0
 2 3 0 28.46 0.76 0
 2 4 -14 148.13 5.34 0
 2 4 -13 2.16 1.67 0
 2 4 -12 343.92 6.98 0
 2 4 -9 -0.97 0.88 0
 2 4 -8 228.13 4.3 0
 2 4 -5 393.21 3.64 0
 3 -14 -8 4.24 2.82 0
 3 -13 -10 22.36 3.74 0
 3 -13 -9 132.85 6.98 0
 3 -12 -12 59.48 5.1 0
 3 -12 -11 35.08 4.52 0
 3 -12 -10 2.6 2.77 0
 3 -11 -13 55.7 5.2 0
 3 -11 -12 11.5 3.17 0
 3 -11 -10 16.15 3.33 0
 3 -10 -14 8.14 3.1 0
 3 -10 -13 17.65 3.75 0
 3 -10 -12 7.43 2.8 0
 3 -10 -11 32.67 4.31 0
 3 -10 -10 2.47 2.35 0
 3 -9 -15 28.55 4.25 0
 3 -9 -14 26.93 4.25 0
 3 -9 -13 133.97 6.74 0
 3 -9 -12 130.74 6.72 0
 3 -9 -11 19.48 3.27 0
 3 -9 -10 20.66 3.15 0
 3 -8 -15 82.36 5.73 0
 3 -8 -14 76.94 5.83 0
 3 -8 -13 59.01 4.78 0
 3 -8 -12 93.8 5.7 0
 3 -8 -11 66.21 4.97 0
 3 -8 -10 36.49 3.54 0
 3 -7 -16 7.3 3.23 0
 3 -7 -15 45.66 4.96 0
 3 -7 -14 4.41 2.54 0
 3 -7 -13 30.35 3.78 0
 3 -7 -12 37.33 4.14 0
 3 -7 -11 22.34 3.14 0
 3 -7 -10 92.7 4.94 0
 3 -6 -17 3.77 2.85 0
 3 -6 -16 91.31 6.18 0
 3 -6 -15 124.21 6.5 0
 3 -6 -13 83.05 4.97 0
 3 -6 -12 72.1 4.59 0
 3 -6 -11 35.19 3.32 0
 3 -6 -10 247.5 7.47 0
 3 -5 -17 18.51 3.54 0
 3 -5 -16 36.39 4.52 0
 3 -5 -15 45.33 4.36 0
 3 -5 -14 5.57 2.75 0
 3 -5 -13 78.45 4.81 0
 3 -5 -12 127.58 5.68 0
 3 -5 -11 35.4 3.21 0
 3 -5 -10 3.02 1.82 0
 3 -4 -18 3.13 2.76 0
 3 -4 -17 78.99 5.77 0
 3 -4 -16 17.84 3.39 0
 3 -4 -13 75.03 4.79 0
 3 -4 -12 39.48 3.68 0
 3 -4 -10 149.45 5.55 0
 3 -3 -18 75.84 5.83 0
 3 -3 -17 48.32 4.74 0
 3 -3 -16 31.68 3.9 0
 3 -3 -15 227.69 8.08 0
 3 -3 -14 16.01 2.86 0
 3 -3 -12 10.74 2.53 0
 3 -3 -11 274.42 7.45 0
 3 -3 -10 54.82 3.42 0
 3 -3 -9 48.72 3.25 0
 3 -2 -18 24.35 3.76 0
 3 -2 -17 2.93 2.61 0
 3 -2 -16 53.5 4.61 0
 3 -2 -14 12.82 2.79 0
 3 -2 -13 101.08 4.89 0
 3 -2 -12 84.25 4.34 0
 3 -2 -11 189.41 5.92 0
 3 -2 -10 55.23 3.45 0
 3 -2 -9 112.69 4.26 0
 3 -1 -19 2.01 2.57 0
 3 -1 -18 7.17 3.08 0
 3 -1 -17 18.03 3.49 0
 3 -1 -16 46.89 4.24 0
 3 -1 -15 361.19 9.29 0
 3 -1 -14 61.99 4.39 0
 3 -1 -13 14.88 2.51 0
 3 -1 -11 153.73 5.18 0
 3 -1 -10 97.02 3.99 0
 3 -1 -9 12.44 1.82 0
 3 0 -19 51.1 4.77 0
 3 0 -18 16.28 3.21 0
 3 0 -17 1.55 2.24 0
 3 0 -16 11.68 3.03 0
 3 0 -15 -0.03 1.9 0
 3 0 -14 105.2 4.91 0
 3 0 -13 40.4 3.42 0
 3 0 -11 96.31 4.13 0
 3 0 -10 36.02 2.58 0
 3 0 -7 116.02 3.52 0
 3 1 -19 1.07 2.49 0
 3 1 -18 10.36 3.07 0
 3 1 -17 19.67 3.51 0
 3 1 -15 383.58 9.28 0
 3 1 -14 66.4 4.16 0
 3 1 -13 13.96 2.28 0
 3 1 -12 80.47 3.82 0
 3 1 -11 158.12 4.94 0
 3 1 -10 89.55 3.65 0
 3 1 -8 259.77 5.22 0
 3 1 -7 1431.72 11.28 0
 3 2 -19 24.51 3.8 0
 3 2 -18 27.93 3.6 0
 3 2 -17 0.81 1.93 0
 3 2 -14 9.19 2.24 0
 3 2 -13 102.73 4.52 0
 3 2 -12 78.21 3.82 0
 3 2 -8 183.11 4.11 0
 3 2 -7 21.47 1.48 0
 3 2 -6 131.12 3.03 0
 3 2 -5 497.05 5.32 0
 3 3 -17 49.85 3.71 0
 3 3 -16 29.55 3.54 0
 3 3 -15 241.91 6.99 0
 3 3 -14 17.81 2.58 0
 3 3 -13 38.11 2.95 0
 3 3 -12 15.38 2.06 0
 3 3 -11 271.07 5.93 0
 3 3 -9 51.44 2.43 0
 3 3 -8 131.01 3.34 0
 3 3 -7 757.95 7.08 0
 3 3 -4 63.88 1.54 0
 3 4 -14 25.25 2.38 0
 3 4 -13 78.67 3.57 0
 3 4 -12 41.25 2.55 0
 3 4 -10 150.63 4.01 0
 3 4 -9 39.36 2.06 0
 3 4 -7 614.36 5.87 0
 3 4 -6 35.21 1.32 0
 3 4 -5 56.54 1.34 0
 3 4 -4 473.26 2.7 0
 3 4 0 37.32 0.97 0
 3 5 -9 168.39 3.54 0
 4 -11 -11 15.77 3.52 0
 4 -11 -10 25.27 3.93 0
 4 -10 -13 -1.41 2.73 0
 4 -10 -12 171.5 8.03 0
 4 -10 -11 -0.76 2.46 0
 4 -9 -13 3.55 2.59 0
 4 -9 -12 185.63 8.1 0
 4 -8 -14 5.02 2.68 0
 4 -8 -13 17.5 3.52 0
 4 -8 -12 182.57 7.92 0
 4 -7 -15 55.71 5.23 0
 4 -7 -14 23.09 3.72 0
 4 -7 -11 167.35 7.05 0
 4 -6 -16 72.35 5.39 0
 4 -6 -15 1.26 2.53 0
 4 -6 -14 2.03 2.53 0
 4 -6 -13 2.82 2.28 0
 4 -6 -12 166.28 6.92 0
 4 -6 -11 122.25 5.88 0
 4 -5 -16 15.84 3.23 0
 4 -5 -15 0.93 2.49 0
 4 -5 -14 22.14 3.55 0
 4 -5 -13 22.08 3.37 0
 4 -5 -12 32.05 3.64 0
 4 -5 -11 123.06 5.7 0
 4 -4 -17 25.06 3.75 0
 4 -4 -16 8.41 3.14 0
 4 -4 -15 14.32 2.91 0
 4 -4 -14 38.68 3.85 0
 4 -4 -13 53.95 4.25 0
 4 -4 -12 39.61 3.65 0
 4 -3 -17 18.71 3.4 0
 4 -3 -16 16.05 3.31 0
 4 -3 -15 77.83 5.24 0
 4 -3 -14 66.22 4.56 0
 4 -3 -13 37.53 3.51 0
 4 -3 -12 33.69 3.21 0
 4 -3 -11 114.85 5.05 0
 4 -3 -10 96.22 4.72 0
 4 -2 -18 153.53 7.26 0
 4 -2 -16 11.96 2.89 0
 4 -2 -15 53.2 4.24 0
 4 -2 -14 239.58 7.8 0
 4 -2 -13 119.71 5.54 0
 4 -2 -12 181.77 6.37 0
 4 -2 -11 34.21 3.09 0
 4 -2 -10 283.66 7.26 0
 4 -1 -18 10.41 3.1 0
 4 -1 -17 125.59 6.15 0
 4 -1 -16 52.58 4.49 0
 4 -1 -15 4.35 2.15 0
 4 -1 -14 71.88 4.61 0
 4 -1 -13 66.68 4.33 0
 4 -1 -12 90.59 4.62 0
 4 -1 -11 4.29 1.67 0
 4 -1 -10 47.27 3.25 0
 4 0 -18 102.7 5.86 0
 4 0 -17 51.04 4.54 0
 4 0 -16 30.77 3.64 0
 4 0 -15 309.57 8.47 0
 4 0 -14 113.01 5.11 0
 4 0 -13 1.49 1.59 0
 4 0 -12 3.38 1.8 0
 4 0 -11 32.09 2.7 0
 4 0 -10 172.71 5.3 0
 4 0 -9 0.81 1.22 0
 4 1 -18 15.72 3.19 0
 4 1 -17 137.99 6.28 0
 4 1 -16 50.63 4.06 0
 4 1 -15 4.13 1.93 0
 4 1 -14 67.74 4.13 0
 4 1 -13 62.85 3.79 0
 4 1 -12 102.99 4.28 0
 4 1 -11 6.38 1.64 0
 4 2 -16 15.18 2.51 0
 4 2 -15 53.7 3.72 0
 4 2 -14 220.37 6.51 0
 4 2 -13 126.76 4.74 0
 4 2 -12 188.08 5.44 0
 4 2 -11 33.63 2.4 0
 4 2 -10 273.05 5.81 0
 4 2 -8 82.75 3 0
 4 2 -6 122.66 3.18 0
 4 3 -12 38.43 2.6 0
 4 3 -11 121.23 3.97 0
 4 3 -9 73.99 2.74 0
 4 3 -8 0.11 0.78 0
 4 3 -5 452.34 4.95 0
 4 4 -7 29.15 1.36 0
 4 4 -6 52.08 1.56 0
 4 4 -5 654.59 4.61 0
 4 4 -3 132.27 1.74 0
 4 4 -2 128.35 1.83 0
 5 -9 -12 2.69 2.81 0
 5 -9 -11 59.53 5.27 0
 5 -8 -12 48.14 4.93 0
 5 -8 -11 26.89 3.98 0
 5 -7 -14 142.98 7.46 0
 5 -7 -13 128.05 6.93 0
 5 -7 -12 2.59 2.36 0
 5 -7 -11 132.37 6.62 0
 5 -6 -15 14.3 3.78 0
 5 -6 -13 14.2 3.1 0
 5 -6 -12 17.09 3.07 0
 5 -6 -11 6.36 2.44 0
 5 -5 -15 58.13 5.15 0
 5 -5 -14 20.83 3.38 0
 5 -5 -13 5.09 2.35 0
 5 -5 -12 24.86 3.48 0
 5 -4 -16 11.46 2.9 0
 5 -4 -15 90.93 5.5 0
 5 -4 -14 42.12 4.3 0
 5 -4 -13 22.31 3.37 0
 5 -4 -12 9.54 2.51 0
 5 -4 -11 49.99 3.94 0
 5 -3 -16 64.51 5.04 0
 5 -3 -15 33.49 3.88 0
 5 -3 -14 22.21 3.19 0
 5 -3 -13 67.05 4.47 0
 5 -3 -12 60.99 4.2 0
 5 -3 -11 77.17 4.74 0
 5 -2 -17 154.92 6.95 0
 5 -2 -16 8.07 2.5 0
 5 -2 -15 16.95 3.03 0
 5 -2 -14 37.41 4.12 0
 5 -2 -13 -1.79 1.8 0
 5 -2 -12 63.03 4.24 0
 5 -2 -11 6.13 2.02 0
 5 -2 -10 2.52 1.71 0
 5 -1 -17 24.82 3.49 0
 5 -1 -16 24.14 3.34 0
 5 -1 -14 0.04 1.87 0
 5 -1 -13 34.89 3.54 0
 5 -1 -12 193.38 6.38 0
 5 -1 -11 122.75 5.07 0
 5 0 -16 19.01 3.09 0
 5 0 -15 160.63 6.21 0
 5 0 -14 55.17 3.8 0
 5 0 -13 26.32 3.03 0
 5 0 -12 7.67 1.9 0
 5 0 -11 59.23 3.67 0
 5 0 -10 15.76 2.15 0
 5 0 -9 394.27 7.78 0
 5 1 -15 14.85 2.54 0
 5 1 -14 1.56 1.56 0
 5 1 -13 35.55 3.06 0
 5 1 -12 201.98 5.99 0
 5 1 -11 119.61 4.51 0
 5 1 -10 53.81 3.1 0
 5 1 -9 4 1.48 0
 5 1 -8 8.18 1.43 0
 5 2 -11 2.12 1 0
 5 2 -10 2.29 0.99 0
 5 2 -9 147.98 4.19 0
 6 -7 -12 4.81 2.57 0
 6 -6 -13 44.55 5.07 0
 6 -6 -12 89.38 6.01 0
 6 -5 -14 12.62 3.13 0
 6 -5 -13 36.15 4.51 0
 6 -5 -12 144.89 6.87 0
 6 -5 -11 14.86 3.05 0
 6 -4 -14 22.76 3.72 0
 6 -4 -13 -1.22 2.13 0
 6 -4 -12 1.28 2.3 0
 6 -3 -15 3.97 2.39 0
 6 -3 -14 23.06 3.36 0
 6 -3 -13 22.37 3.23 0
 6 -3 -12 67.25 4.54 0
 6 -3 -11 42.17 3.98 0
 6 -2 -15 8.84 2.66 0
 6 -2 -14 40.44 4.05 0
 6 -2 -13 378.06 9.6 0
 6 -2 -12 6.07 2.2 0
 6 -2 -11 66.37 4.23 0
 6 -2 -10 19.3 2.92 0
 6 -1 -15 1.78 2.06 0
 6 -1 -14 98.33 5.22 0
 6 -1 -13 5.98 2.33 0
 6 -1 -12 11.06 2.41 0
 6 -1 -11 58.36 4.04 0
 6 0 -13 78.46 4.22 0
 6 0 -12 34.94 2.96 0
 6 0 -11 10.21 2.16 0
 6 0 -10 80.05 4.06 0
 6 0 -9 124.14 4.78 0
 6 1 -9 1.67 1.13 0
 7 -5 -11 14.27 3.59 0
 7 -4 -12 171.45 7.32 0
 7 -4 -11 56.87 4.81 0
 7 -3 -13 26.77 3.66 0
 7 -3 -12 9.88 2.8 0
 7 -2 -13 11.77 2.46 0
 7 -2 -12 16.39 3 0
 7 -2 -11 110.03 5.52 0
 7 -2 -10 14.62 2.59 0
 7 -1 -11 82.34 4.45 0
 7 -1 -10 32.83 3.28 0
 8 -3 -11 90.78 5.49 0
 8 -3 -10 71.51 4.94 0
 -1 0 0 0.32 0.77 0
 -1 0 1 1114.93 6.42 0
 -1 0 2 832.06 5.43 0
 -1 0 3 1283.38 6.78 0
 -1 0 4 452.33 4.13 0
 -1 1 -3 9637.02 20.25 0
 -1 1 -2 198.46 2.99 0
 -1 1 -1 1009.17 6.44 0
 0 0 10 195.83 2.48 0
 0 0 11 0.23 0.34 0
 0 4 -6 32.27 1.09 0
 0 5 -7 33.55 1.24 0
 1 -2 2 3943.15 13 0
 1 -2 3 492.88 4.64 0
 1 -2 4 1693.09 8.32 0
 1 -2 5 121.84 2.3 0
 1 -2 6 912.51 5.81 0
 1 -2 8 91.44 1.68 0
 1 -1 -1 1023.67 6.35 0
 1 -1 0 1597.95 7.88 0
 1 -1 1 1041.53 6.49 0
 1 -1 2 202.6 3.01 0
 1 -1 3 9701.67 19.9 0
 1 -1 4 608.22 5.15 0
 1 -1 5 2290.82 10.12 0
 1 -1 6 377.14 4.22 0
 1 -1 7 166.11 2.89 0
 1 -1 8 72.48 1.94 0
 1 -1 9 102.49 2.21 0
 1 -1 10 153.64 2.45 0
 1 0 -2 829.9 5.42 0
 1 0 -1 1074 6.19 0
 1 0 0 0.83 0.7 0
 1 0 1 1090.34 6.71 0
 1 0 10 36.47 1.82 0
 1 0 11 1.13 0.74 0
 1 0 12 96.13 2.34 0
 1 1 -2 195.76 2.78 0
 1 1 13 80.92 2.79 0
 1 2 -5 122.36 1.74 0
 1 2 -4 1658.65 7.3 0
 2 -3 1 1060.77 9.49 0
 2 -3 2 1191.42 10.08 0
 2 -3 3 400.2 5.98 0
 2 -3 4 1814.01 12.31 0
 2 -3 5 342.1 5.36 0
 2 -3 6 189.75 4.03 0
 2 -3 7 640.71 7.09 0
 2 -3 8 11.57 1.43 0
 2 -3 9 96.32 2.61 0
 2 -2 -2 1787.97 11.89 0
 2 -2 -1 601.89 7.1 0
 2 -2 0 1171.22 9.79 0
 2 -2 2 1745.45 11.98 0
 2 -2 3 294.12 5.05 0
 2 -2 4 1041.6 9.4 0
 2 -2 5 124.56 3.4 0
 2 -2 6 40.88 2.19 0
 2 -2 7 75.92 2.64 0
 2 -2 8 237.79 4.49 0
 2 -2 9 149.04 3.47 0
 2 -2 10 323.62 4.76 0
 2 -2 11 81.19 2.3 0
 2 -1 -3 843.31 8.04 0
 2 -1 -2 3122.19 15.33 0
 2 -1 -1 2576.95 14.09 0
 2 -1 2 3172.83 16.1 0
 2 -1 3 815.73 8.28 0
 2 -1 5 527.5 6.84 0
 2 -1 6 465.82 6.51 0
 2 -1 7 323.82 5.51 0
 2 -1 8 181.81 4.23 0
 2 -1 9 121.99 3.52 0
 2 -1 10 509.48 6.7 0
 2 -1 12 113.71 2.95 0
 2 0 -5 55.7 2.12 0
 2 0 -4 1820.47 11.19 0
 2 0 -3 1638.74 10.89 0
 2 0 -1 3435.14 16.18 0
 2 0 0 214.86 4.29 0
 2 0 1 3388.55 16.59 0
 2 0 2 189.13 4.18 0
 2 0 3 1603.55 12.01 0
 2 0 4 1859.82 13.11 0
 2 0 5 57.66 2.75 0
 2 0 6 805.15 9.06 0
 2 0 7 416.88 6.66 0
 2 0 9 500.27 7.45 0
 2 0 10 47.84 2.58 0
 2 0 11 2.25 1.3 0
 2 0 12 239.21 5.01 0
 2 1 -5 531.82 5.86 0
 2 1 -4 369.01 5.18 0
 2 1 -3 846.88 7.85 0
 2 1 -2 3191.39 15.59 0
 2 1 -1 2582 14.28 0
 2 1 0 282.87 5.02 0
 2 1 11 20.81 2.33 0
 2 1 12 112.4 4.03 0
 2 1 13 34.3 2.47 0
 2 2 -7 78.76 2.05 0
 2 2 -4 1014.6 8.6 0
 2 2 -3 293.17 4.91 0
 2 2 13 32.87 3 0
 2 3 -8 10.02 0.75 0
 2 3 -7 625.98 5.68 0
 2 3 -4 1798.48 12.15 0
 2 4 -7 107.07 2.62 0
 2 5 -8 300.89 4.08 0
 2 5 -7 480.75 6.11 0
 2 6 -8 38.97 1.85 0
 2 7 -8 203.45 4.42 0
 3 -4 2 130.45 4.24 0
 3 -4 3 57.25 2.95 0
 3 -4 4 475.22 7.91 0
 3 -4 5 52.57 2.85 0
 3 -4 6 34.2 2.6 0
 3 -4 7 614.15 8.67 0
 3 -4 8 246.23 5.35 0
 3 -3 -2 84.82 3.49 0
 3 -3 -1 526.45 8.3 0
 3 -3 0 978.91 11.22 0
 3 -3 2 91.3 3.64 0
 3 -3 3 762.48 9.97 0
 3 -3 4 59.72 3.13 0
 3 -3 5 182.75 4.93 0
 3 -3 6 441.28 7.51 0
 3 -3 7 750.57 9.64 0
 3 -3 9 51.8 2.83 0
 3 -3 10 55.41 2.75 0
 3 -3 11 272.03 5.27 0
 3 -2 -4 696.6 8.94 0
 3 -2 -3 318.21 6.37 0
 3 -2 -2 611.18 8.7 0
 3 -2 -1 90.79 3.5 0
 3 -2 0 584.56 8.55 0
 3 -2 1 95.91 3.85 0
 3 -2 2 608.88 8.83 0
 3 -2 3 318.89 6.62 0
 3 -2 5 514.4 8.29 0
 3 -2 7 21.77 2.14 0
 3 -2 8 182.24 4.99 0
 3 -2 9 112.51 4.1 0
 3 -2 10 59.16 3 0
 3 -2 11 187.49 4.74 0
 3 -2 12 79.32 3.09 0
 3 -1 -5 417.14 6.88 0
 3 -1 -3 17.17 1.95 0
 3 -1 -2 1779.71 14.53 0
 3 -1 2 1725.9 14.72 0
 3 -1 3 17.84 2.06 0
 3 -1 4 52.23 3.08 0
 3 -1 5 427.15 7.62 0
 3 -1 7 1421.6 13.89 0
 3 -1 8 252.21 6.02 0
 3 -1 9 12.9 2.13 0
 3 -1 10 98.06 4 0
 3 -1 11 160.19 4.82 0
 3 -1 12 92.96 3.65 0
 3 0 -6 267.53 5.39 0
 3 0 -5 302.62 5.89 0
 3 0 -4 1.3 1.19 0
 3 0 -3 206.54 5.11 0
 3 0 -2 1084.96 11.35 0
 3 0 0 -1.47 1.12 0
 3 0 1 24.68 2.46 0
 3 0 2 1084.82 11.87 0
 3 0 3 196.88 5.37 0
 3 0 4 1.51 1.39 0
 3 0 5 296.86 6.64 0
 3 0 6 264.76 6.42 0
 3 0 7 115.54 4.34 0
 3 0 8 224.99 5.97 0
 3 0 9 29.07 2.82 0
 3 0 11 98.63 4.21 0
 3 0 12 157.3 5.02 0
 3 0 13 38.46 2.8 0
 3 1 -7 1438.42 11.72 0
 3 1 -6 618.81 7.95 0
 3 1 -5 422.06 6.85 0
 3 1 -4 51.71 2.7 0
 3 1 -2 1718.93 14.39 0
 3 1 -1 113.45 3.91 0
 3 1 2 1739.75 15.51 0
 3 1 3 18.32 2.26 0
 3 1 4 47.87 3.03 0
 3 1 5 429.27 8.27 0
 3 1 6 621.86 10.09 0
 3 1 7 1434.16 15.2 0
 3 1 8 247.48 6.6 0
 3 1 9 12.7 2.43 0
 3 2 -7 19.53 1.81 0
 3 2 -5 505.34 7.49 0
 3 2 -4 665.34 8.86 0
 3 2 -3 316.66 6.36 0
 3 2 -2 606.22 8.81 0
 3 2 -1 95.29 3.82 0
 3 2 0 567.3 9.02 0
 3 2 12 78.67 4.45 0
 3 2 13 98 4.75 0
 3 2 14 10.65 2.52 0
 3 3 -9 50.25 1.94 0
 3 3 -7 750.22 8.55 0
 3 3 -6 461.21 7.07 0
 3 3 -5 176.66 4.7 0
 3 3 -3 756.7 9.96 0
 3 3 13 40.25 3.8 0
 3 3 14 13.75 2.83 0
 3 4 -9 37.93 1.74 0
 3 4 -6 32.48 2.34 0
 3 4 -5 57.35 3.09 0
 3 4 -4 481.94 8.25 0
 3 5 -8 224.81 4.77 0
 3 5 -7 11.43 1.69 0
 3 5 -5 371.55 7.48 0
 3 6 -7 137.1 4.42 0
 3 6 -6 435.35 8.09 0
 3 7 -7 20.95 2.46 0
 4 -1 10 46.81 3.54 0
 4 -1 11 5.9 1.97 0
 4 -1 12 96.73 4.54 0
 4 0 -4 7.29 1.9 0
 4 0 -3 123.88 4.76 0
 4 0 -1 7.8 1.93 0
 4 0 9 3.4 2 0
 4 0 10 172.62 6.11 0
 4 0 12 -0.63 1.65 0
 4 0 13 -1.58 1.69 0
 4 1 -8 128.86 4.32 0
 4 1 -5 308.11 7.06 0
 4 1 -4 103.61 4.36 0
 4 1 -2 29.72 2.72 0
 4 1 8 127.19 5.49 0
 4 1 9 178.5 6.63 0
 4 1 10 49.79 4.1 0
 4 1 11 6.64 2.45 0
 4 1 12 100.21 5.08 0
 4 1 13 58.06 4.08 0
 4 2 -9 64.17 2.95 0
 4 2 -8 84.6 3.5 0
 4 2 -7 183.28 5.24 0
 4 2 -6 128.6 4.59 0
 4 2 -5 378.08 7.94 0
 4 2 7 199.34 6.96 0
 4 2 8 87.33 5.01 0
 4 2 9 67.17 4.53 0
 4 2 10 287.47 8.62 0
 4 2 11 38.24 3.89 0
 4 2 13 122.11 5.73 0
 4 3 -8 0.73 1.28 0
 4 3 -7 9.61 1.93 0
 4 3 -6 77.38 3.86 0
 4 3 10 99.29 5.56 0
 4 3 11 123.93 6.23 0
 4 3 12 30.31 3.79 0
 4 3 13 37.97 4.28 0
 4 3 14 61.35 4.76 0
 4 4 -8 147 4.68 0
 4 4 -7 25.8 2.57 0
 4 4 12 40.74 4.81 0
 4 4 13 53.53 5.02 0
 4 4 14 31.56 4.16 0
 4 5 14 21.97 3.83 0
 4 6 -4 20.82 3.18 0
 4 6 15 1.36 3.02 0
 4 7 -6 46.34 3.68 0
 4 7 -5 270.9 7.96 0
 4 8 -7 135.75 5.54 0
 4 8 -6 42.63 3.53 0
 4 9 -6 13.53 3.01 0
 5 -5 3 41.64 3.72 0
 5 -5 5 11.74 2.72 0
 5 -5 6 14.74 2.72 0
 5 -4 0 434.18 10 0
 5 -4 1 14.85 2.81 0
 5 -4 2 46.1 4.05 0
 5 -4 3 428.25 10.01 0
 5 -4 4 91.74 4.94 0
 5 -4 5 335.07 8.81 0
 5 -4 6 11 2.48 0
 5 -4 7 22.16 3.27 0
 5 -4 9 24.01 3.31 0
 5 -4 10 3.34 1.99 0
 5 -3 -3 401.25 9.47 0
 5 -3 -2 566.95 11.26 0
 5 -3 -1 62.05 4.21 0
 5 -3 0 8.22 2.44 0
 5 -3 1 62.28 4.39 0
 5 -3 2 552.32 11.22 0
 5 -3 3 403.97 9.63 0
 5 -3 4 30.35 3.68 0
 5 -3 6 28.84 3.4 0
 5 -3 7 83 5 0
 5 -3 8 83.52 4.95 0
 5 -3 9 220.57 7.3 0
 5 -3 11 88.28 4.59 0
 5 -3 12 62.64 4.01 0
 5 -2 -5 106.58 5.06 0
 5 -2 -4 1010.83 14.6 0
 5 -2 -3 248.93 7.47 0
 5 -2 -2 29.22 3.2 0
 5 -2 -1 68.99 4.33 0
 5 -2 1 74.08 4.49 0
 5 -2 2 29.79 3.54 0
 5 -2 3 253.59 7.88 0
 5 -2 4 1016.17 15.24 0
 5 -2 5 98.98 5.5 0
 5 -2 7 106.54 5.65 0
 5 -2 8 324.38 8.95 0
 5 -2 9 148.45 6.32 0
 5 -2 10 1.76 2.08 0
 5 -2 12 63.31 4.1 0
 5 -1 -5 13.92 2.67 0
 5 -1 -4 8.09 2.31 0
 5 -1 -3 2.11 1.94 0
 5 -1 -2 98.97 4.98 0
 5 -1 0 14.59 2.91 0
 5 -1 3 1.96 2.1 0
 5 -1 4 4.12 2.21 0
 5 -1 5 13.6 2.77 0
 5 -1 6 41.28 4.09 0
 5 -1 7 62.4 4.44 0
 5 -1 8 8.7 2.92 0
 5 -1 9 7.28 2.88 0
 5 -1 10 51 4.21 0
 5 -1 11 124.85 5.95 0
 5 -1 12 200.58 7.06 0
 5 0 -7 307.62 7.89 0
 5 0 -5 40.99 3.38 0
 5 0 -4 99.5 5.06 0
 5 0 -2 -0.54 1.57 0
 5 0 -1 69.87 4.48 0
 5 0 0 -0.38 1.67 0
 5 0 1 68.01 4.68 0
 5 0 2 1.34 1.77 0
 5 0 3 433.54 10.24 0
 5 0 4 104.04 5.39 0
 5 0 7 304.16 9.15 0
 5 0 9 398.46 10.22 0
 5 0 10 18.25 3.46 0
 5 0 11 63.41 4.58 0
 5 0 13 28.64 3.66 0
 5 1 -8 6.01 2.21 0
 5 1 -7 57.74 3.84 0
 5 1 -6 46.36 3.74 0
 5 1 -5 14.23 2.67 0
 5 1 -3 2.45 1.92 0
 5 1 -2 95.24 4.99 0
 5 1 -1 15.65 3.03 0
 5 1 0 16.64 2.67 0
 5 1 1 13.82 2.99 0
 5 1 3 2.33 2.18 0
 5 1 4 9.71 2.6 0
 5 1 5 14.36 3.19 0
 5 1 6 41.55 4.22 0
 5 1 7 65.88 5.02 0
 5 1 8 8.75 2.68 0
 5 1 9 5.57 2.65 0
 5 1 10 57.43 4.94 0
 5 1 11 126.38 6.24 0
 5 1 12 198.85 7.55 0
 5 2 -9 153.86 5.23 0
 5 2 -7 102.58 4.68 0
 5 2 -6 31.7 3.33 0
 5 2 -5 105.37 4.99 0
 5 2 -4 1019.04 14.84 0
 5 2 -3 253.24 7.9 0
 5 2 -2 25.66 3.63 0
 5 2 -1 67.9 4.45 0
 5 2 0 263.4 8.23 0
 5 2 1 75.24 4.66 0
 5 2 4 1030.4 16.56 0
 5 2 5 106.34 5.83 0
 5 2 6 28.66 3.65 0
 5 2 7 105.49 6.16 0
 5 2 8 343.13 10.02 0
 5 2 9 152.76 7.12 0
 5 2 10 2.5 2.56 0
 5 2 11 4.04 3.16 0
 5 2 12 63.43 5.29 0
 5 2 13 -0.41 2.28 0
 5 2 14 31.57 4.17 0
 5 3 -9 230.79 6.27 0
 5 3 -8 80.48 4.23 0
 5 3 -7 82.31 4.33 0
 5 3 -6 24 2.96 0
 5 3 -5 13.31 2.91 0
 5 3 -4 34.33 3.76 0
 5 3 -3 411.37 9.89 0
 5 3 -2 561.37 11.69 0
 5 3 -1 56.35 4.54 0
 5 3 0 6.2 2.78 0
 5 3 1 57.54 4.29 0
 5 3 2 553.12 12.29 0
 5 3 4 34.91 4.02 0
 5 3 8 87.68 5.77 0
 5 3 9 226.87 8.7 0
 5 3 10 528.05 13.02 0
 5 3 12 59.82 5.46 0
 5 3 13 70.23 5.57 0
 5 3 14 30.9 4.24 0
 5 4 -8 30 2.94 0
 5 4 -7 26.85 3.17 0
 5 4 -5 309.33 8.59 0
 5 4 -3 425.23 10.39 0
 5 4 -2 53.71 4.57 0
 5 4 -1 13.94 2.98 0
 5 4 0 441.5 10.9 0
 5 4 1 20 3.37 0
 5 4 3 433.94 11.26 0
 5 4 5 314.32 9.93 0
 5 4 6 13.78 3.32 0
 5 4 9 20.04 3.83 0
 5 4 10 3.99 2.85 0
 5 4 11 50.51 5.47 0
 5 4 13 19.39 4.13 0
 5 4 14 42.9 4.86 0
 5 5 -7 74.15 4.46 0
 5 5 -6 13.47 2.88 0
 5 5 -5 9.03 2.61 0
 5 5 -4 97.98 5.58 0
 5 5 -3 47.71 4.21 0
 5 5 -2 171.12 7.2 0
 5 5 -1 191.62 7.47 0
 5 5 0 95.41 5.64 0
 5 5 1 190.64 7.96 0
 5 5 2 184.95 7.93 0
 5 5 9 177.68 8.81 0
 5 5 11 18.19 4.21 0
 5 5 13 4.19 3.2 0
 5 5 14 31.49 4.61 0
 5 6 -7 4.95 2.24 0
 5 6 -5 58.04 4.56 0
 5 6 -3 10.89 3.17 0
 5 6 -2 157.48 7.07 0
 5 6 -1 360.41 10.55 0
 5 6 11 8.36 3.91 0
 5 6 12 22.91 4.52 0
 5 6 13 19.65 4.42 0
 5 6 14 59.57 5.79 0
 5 7 -7 18.82 2.82 0
 5 7 -6 109.8 5.65 0
 5 7 -5 46.06 4.14 0
 5 7 -4 19.53 3.71 0
 5 7 -3 8.88 3.32 0
 5 7 -2 85.6 5.69 0
 5 7 14 147.21 8.98 0
 5 7 15 67.92 6.37 0
 5 8 -7 56.06 4.16 0
 5 8 -6 48.33 4.43 0
 5 8 -5 16 3.44 0
 5 8 -4 23.39 3.75 0
 5 8 -3 67.88 5.33 0
 5 8 14 63.22 7.5 0
 5 9 -6 13.39 2.96 0
 5 9 -5 12.21 3.21 0
 5 9 -4 26.81 4.16 0
 5 10 -6 20.88 3.66 0
 5 11 -6 11.79 2.7 0
 5 11 -5 327.63 10.96 0
 5 12 -5 -1.46 2.44 0
 6 -5 3 224.65 7.98 0
 6 -5 4 28.59 4.05 0
 6 -5 5 13.6 3.36 0
 6 -5 7 58.43 4.68 0
 6 -4 -1 77.38 5.09 0
 6 -4 1 76.75 5.17 0
 6 -4 2 57.55 4.63 0
 6 -4 3 47.23 4.59 0
 6 -4 4 22.15 3.52 0
 6 -4 6 169.06 7.39 0
 6 -4 7 3.48 2.42 0
 6 -4 8 43.7 4.35 0
 6 -4 9 24.51 3.48 0
 6 -4 10 23.26 3.62 0
 6 -4 11 26.12 3.44 0
 6 -3 -3 9.75 2.8 0
 6 -3 -2 79.34 5.48 0
 6 -3 0 42.08 4.19 0
 6 -3 1 91.78 5.75 0
 6 -3 2 80.31 5.42 0
 6 -3 3 8.75 2.98 0
 6 -3 6 80.89 5.24 0
 6 -3 7 12.02 2.97 0
 6 -3 8 80.12 5.43 0
 6 -3 9 63.83 4.94 0
 6 -3 10 52.28 4.49 0
 6 -3 11 43.63 4.06 0
 6 -2 -5 370.57 9.92 0
 6 -2 -4 72.17 5.04 0
 6 -2 -3 108.5 5.93 0
 6 -2 -2 6.25 2.71 0
 6 -2 0 143.08 6.86 0
 6 -2 1 90.45 5.52 0
 6 -2 2 6.9 2.66 0
 6 -2 3 117.47 6.2 0
 6 -2 4 75.08 5.69 0
 6 -2 5 381.44 10.65 0
 6 -2 7 97.05 6.12 0
 6 -2 8 10.03 2.96 0
 6 -2 9 48.96 4.5 0
 6 -2 10 15.58 3.18 0
 6 -2 12 11.87 2.96 0
 6 -1 -6 244.61 8.05 0
 6 -1 -4 61.93 4.92 0
 6 -1 -3 129.33 6.35 0
 6 -1 -2 138.31 6.64 0
 6 -1 -1 105.28 5.83 0
 6 -1 0 305.18 9.55 0
 6 -1 1 92.84 5.59 0
 6 -1 2 148.79 7.16 0
 6 -1 3 132.8 6.85 0
 6 -1 4 61.34 4.89 0
 6 -1 5 21.91 3.98 0
 6 -1 6 231.09 8.84 0
 6 -1 7 129.22 6.92 0
 6 -1 8 135.68 7.14 0
 6 -1 9 1.99 2.55 0
 6 -1 11 59.2 4.86 0
 6 0 -7 463.5 10.64 0
 6 0 -6 -0.58 1.9 0
 6 0 -5 1.74 2.32 0
 6 0 -4 46.83 4.44 0
 6 0 -2 118.4 6.12 0
 6 0 -1 123.2 6.22 0
 6 0 1 123.44 6.64 0
 6 0 3 136.27 6.97 0
 6 0 4 44.9 4.59 0
 6 0 5 1.98 2.36 0
 6 0 6 -1.3 2.3 0
 6 0 7 462.77 12.26 0
 6 0 8 49.74 4.72 0
 6 0 10 78.94 5.69 0
 6 0 11 9.8 3.21 0
 6 0 12 34.59 4.33 0
 6 0 13 77.38 5.63 0
 6 1 -8 135.24 5.85 0
 6 1 -7 139.36 6.26 0
 6 1 -6 226.5 7.96 0
 6 1 -5 22.81 3.23 0
 6 1 -4 59.73 4.67 0
 6 1 -3 136.5 6.48 0
 6 1 -2 151.24 6.99 0
 6 1 2 147.49 7.04 0
 6 1 4 57.07 5.13 0
 6 1 5 19.53 3.67 0
 6 1 6 242.37 9.04 0
 6 1 7 129.41 7.25 0
 6 1 8 138.18 7.22 0
 6 1 9 -1.49 2.88 0
 6 1 10 71.18 5.81 0
 6 1 11 62.7 5.4 0
 6 1 12 7.62 3.06 0
 6 1 13 1.8 2.52 0
 6 2 -9 47.76 3.71 0
 6 2 -8 9.12 2.5 0
 6 2 -7 102.09 5.53 0
 6 2 -6 77.86 5 0
 6 2 -5 367.96 10.16 0
 6 2 -4 76.13 5.13 0
 6 2 -3 112.49 6.16 0
 6 2 -2 3.19 2.55 0
 6 2 -1 97.5 6.08 0
 6 2 2 6.25 3.1 0
 6 2 3 106.22 6.6 0
 6 2 4 67.77 5.32 0
 6 2 5 385.28 11.53 0
 6 2 7 99.86 6.54 0
 6 2 8 7.36 3.25 0
 6 2 10 16.77 3.81 0
 6 2 11 57.22 5.78 0
 6 2 12 4.8 3.04 0
 6 2 13 392.84 11.72 0
 6 3 -8 83.11 4.84 0
 6 3 -7 15.52 2.89 0
 6 3 -6 89.11 5.31 0
 6 3 -5 56.01 4.6 0
 6 3 -3 9.1 2.9 0
 6 3 -2 76.4 5.54 0
 6 3 -1 87.94 5.7 0
 6 3 1 89.34 6.18 0
 6 3 3 8.82 3.43 0
 6 3 4 20.39 3.71 0
 6 3 5 45.52 5.46 0
 6 3 6 86.11 6.61 0
 6 3 9 66.08 5.68 0
 6 3 10 47.45 5.72 0
 6 3 11 42.02 5.16 0
 6 3 12 73.29 6.16 0
 6 3 13 21.08 4.16 0
 6 4 -8 43.37 3.78 0
 6 4 -7 3.58 2.22 0
 6 4 -6 163.04 6.9 0
 6 4 -5 83.13 5.31 0
 6 4 -4 25.14 3.76 0
 6 4 -3 41.03 4.27 0
 6 4 -2 54.56 5.11 0
 6 4 -1 84.37 5.67 0
 6 4 0 404.34 11.63 0
 6 4 1 84.02 5.87 0
 6 4 3 46.34 5.23 0
 6 4 4 20.85 3.98 0
 6 4 6 160.36 8.35 0
 6 4 7 3.9 2.98 0
 6 4 9 31.08 4.83 0
 6 4 10 24.16 4.57 0
 6 4 11 35.17 5.55 0
 6 4 12 0.81 2.92 0
 6 4 13 1.54 3.02 0
 6 4 14 18.31 3.99 0
 6 5 -7 60.6 4.8 0
 6 5 -5 10.41 3.25 0
 6 5 -3 222.96 8.73 0
 6 5 -2 13.35 3.53 0
 6 5 -1 161.02 7.89 0
 6 5 0 451.08 12.51 0
 6 5 1 159.74 8.09 0
 6 5 2 12.82 3.67 0
 6 5 4 31.27 4.59 0
 6 5 5 12.34 4.24 0
 6 5 6 52.93 6.31 0
 6 5 7 66.37 6.5 0
 6 5 8 85.33 6.71 0
 6 5 10 26.68 4.95 0
 6 5 11 13.35 4.13 0
 6 5 12 138.99 8.48 0
 6 5 13 30.98 5.35 0
 6 5 14 15.58 4.12 0
 6 6 -8 71.65 4.56 0
 6 6 -7 12.91 2.87 0
 6 6 -6 90.72 5.65 0
 6 6 -4 4.61 2.76 0
 6 6 -3 4.66 2.92 0
 6 6 -1 113.38 7.18 0
 6 6 1 110.52 7.39 0
 6 6 3 3.03 3.63 0
 6 6 4 4.09 3.26 0
 6 6 5 8.03 3.78 0
 6 6 6 88.86 7.21 0
 6 6 7 14.83 4.25 0
 6 6 8 69.58 7.09 0
 6 6 9 146.69 8.95 0
 6 6 10 106.94 8 0
 6 6 13 37.27 5.56 0
 6 6 14 43.84 5.73 0
 6 7 -7 217.82 8.09 0
 6 7 -6 18.67 3.42 0
 6 7 -5 82.41 6.01 0
 6 7 -4 226.95 8.94 0
 6 7 -3 33.45 4.81 0
 6 7 2 76.22 6.34 0
 6 7 3 39.12 5.27 0
 6 7 4 246.47 10.98 0
 6 7 5 77.18 6.96 0
 6 7 6 18.72 5.05 0
 6 7 7 206.02 10.34 0
 6 7 8 164.28 9.37 0
 6 7 9 4.37 3.76 0
 6 7 10 6.5 3.93 0
 6 7 11 113.18 8.29 0
 6 7 12 11 4.85 0
 6 8 -6 9.72 3.45 0
 6 8 -5 14.62 3.55 0
 6 8 -4 40.73 4.86 0
 6 8 -3 18.08 4 0
 6 8 -1 138.3 7.97 0
 6 8 0 3.92 3.43 0
 6 8 1 137.01 8.02 0
 6 8 2 34.63 5.42 0
 6 8 3 16.97 4.52 0
 6 8 9 40.37 6.21 0
 6 8 10 7.26 4.15 0
 6 8 11 14.91 5.02 0
 6 8 12 116.79 9.04 0
 6 9 -6 12.61 3.62 0
 6 9 -5 65.18 5.51 0
 6 9 -4 22.02 4.22 0
 6 9 -2 7.72 3.61 0
 6 9 -1 2.68 3.45 0
 6 9 1 8.66 4.16 0
 6 9 10 107.89 9.11 0
 6 9 11 59.13 7.46 0
 6 10 -6 142.6 7.26 0
 6 10 -4 48.42 6.14 0
 6 10 -3 2.72 3.24 0
 6 10 -2 146.96 8.78 0
 6 10 -1 14.12 4.35 0
 6 10 0 11.9 4.59 0
 6 11 -5 8.28 3.8 0
 6 11 -4 97.17 7.37 0
 6 11 -2 12.41 4.18 0
 6 11 -1 30.52 5.36 0
 6 12 -5 33.37 4.79 0
 6 12 -4 5.68 3.59 0
 6 12 -3 26.06 5.28 0
 6 12 -2 47.73 6.81 0
 6 12 -1 3.16 4.44 0
 7 -4 -1 36.6 4.47 0
 7 -4 0 2.12 3.45 0
 7 -4 1 29.75 4.54 0
 7 -4 2 60.6 5.8 0
 7 -4 3 58.95 5.22 0
 7 -4 4 18.63 4.07 0
 7 -4 5 1.81 2.89 0
 7 -4 6 190.08 8.7 0
 7 -4 9 25.92 4.25 0
 7 -4 10 53.78 4.98 0
 7 -3 -3 182.47 7.97 0
 7 -3 -2 161.57 7.65 0
 7 -3 -1 -0.09 2.4 0
 7 -3 0 72.04 5.68 0
 7 -3 1 0.18 2.68 0
 7 -3 2 153.8 7.89 0
 7 -3 3 166.82 7.93 0
 7 -3 4 61.49 5.91 0
 7 -3 5 75.24 5.94 0
 7 -3 8 55.81 5.32 0
 7 -3 9 2.42 2.82 0
 7 -3 10 110.73 6.79 0
 7 -2 -5 102.45 6.45 0
 7 -2 -4 43.36 4.56 0
 7 -2 -3 111.81 6.85 0
 7 -2 -2 46.21 5.43 0
 7 -2 -1 14.65 3.43 0
 7 -2 0 147.79 7.54 0
 7 -2 1 16.99 3.56 0
 7 -2 2 43.37 4.81 0
 7 -2 3 103.73 6.59 0
 7 -2 4 46.48 5.66 0
 7 -2 5 98.96 6.67 0
 7 -2 6 6.26 3.21 0
 7 -2 8 77.72 5.88 0
 7 -2 9 30.77 4.35 0
 7 -2 10 13.62 3.35 0
 7 -2 11 113.4 6.89 0
 7 -2 12 12.85 3.53 0
 7 -1 -6 44.87 4.66 0
 7 -1 -5 22.12 3.83 0
 7 -1 -4 81.4 6.1 0
 7 -1 -3 70.26 5.45 0
 7 -1 -1 185.86 8.37 0
 7 -1 0 52.65 5.4 0
 7 -1 1 176.82 8.35 0
 7 -1 2 24.67 4.18 0
 7 -1 3 69.02 6.2 0
 7 -1 4 88.96 6.22 0
 7 -1 5 16.86 4.24 0
 7 -1 6 51.25 5.82 0
 7 -1 7 315.49 11.08 0
 7 -1 8 170.02 8.4 0
 7 -1 9 17.43 3.91 0
 7 -1 11 75.92 6.28 0
 7 -1 12 11.98 3.41 0
 7 0 -7 19.71 3.82 0
 7 0 -6 32.4 4.33 0
 7 0 -5 32.67 4.27 0
 7 0 -4 31.47 4.48 0
 7 0 -3 54.29 4.9 0
 7 0 -2 20.02 3.86 0
 7 0 -1 88.61 6.1 0
 7 0 0 -0.47 2.59 0
 7 0 2 17.9 4.01 0
 7 0 3 48.98 4.97 0
 7 0 4 34.53 4.9 0
 7 0 5 41.85 5.25 0
 7 0 7 13.3 3.74 0
 7 0 8 111.04 7.51 0
 7 0 9 4.43 3.33 0
 7 0 10 34.92 5.28 0
 7 0 11 7.96 3.74 0
 7 0 12 106.28 6.95 0
 7 1 -8 173.86 7.44 0
 7 1 -6 53.44 5.1 0
 7 1 -4 78.75 6.08 0
 7 1 -3 74.84 5.86 0
 7 1 0 45.9 4.85 0
 7 1 1 178.04 8.52 0
 7 1 2 23.22 4.56 0
 7 1 3 75.72 6.29 0
 7 1 4 90.19 6.52 0
 7 1 5 24.3 4.93 0
 7 1 6 55.13 6.17 0
 7 1 7 300.67 11.25 0
 7 1 8 189.31 9.1 0
 7 1 9 17.76 4.17 0
 7 1 10 40.72 5.34 0
 7 1 11 85.67 6.66 0
 7 1 12 13.55 3.77 0
 7 1 13 26.19 4.64 0
 7 2 -9 32.78 3.87 0
 7 2 -8 68.47 5.11 0
 7 2 -7 31.18 4.07 0
 7 2 -6 13.19 3.71 0
 7 2 -5 96.28 6.36 0
 7 2 -4 51.15 5.34 0
 7 2 -3 104.68 6.55 0
 7 2 -2 37.79 5.14 0
 7 2 -1 18.07 4.29 0
 7 2 0 144.36 7.73 0
 7 2 1 14.8 4.37 0
 7 2 5 102.2 7.38 0
 7 2 6 5.47 3.91 0
 7 2 7 33.8 5.22 0
 7 2 8 78.61 6.52 0
 7 2 9 30.85 5.08 0
 7 2 11 105.82 7.2 0
 7 2 13 14.63 4.32 0
 7 3 -8 53.93 4.82 0
 7 3 -7 46.35 4.98 0
 7 3 -6 141.19 7.07 0
 7 3 -5 70.8 5.85 0
 7 3 -4 61.12 5.63 0
 7 3 -2 152.34 7.85 0
 7 3 -1 -0.06 2.84 0
 7 3 0 66.53 5.68 0
 7 3 1 1.05 2.7 0
 7 3 2 152.12 8.43 0
 7 3 3 166.91 8.57 0
 7 3 4 55.17 5.76 0
 7 3 5 70.05 6.1 0
 7 3 6 139.09 8.24 0
 7 3 7 49.37 5.57 0
 7 3 8 53.37 6.84 0
 7 3 9 1.94 3.42 0
 7 3 10 104.13 7.38 0
 7 3 11 28.85 5.27 0
 7 3 12 11.41 3.99 0
 7 3 13 26.97 5.17 0
 7 4 -8 6.35 3.03 0
 7 4 -7 101.39 6.4 0
 7 4 -6 185.11 8.3 0
 7 4 -5 3.15 2.94 0
 7 4 -4 17.89 4.38 0
 7 4 -3 63.5 5.91 0
 7 4 -1 32.8 5.15 0
 7 4 0 4.21 3.29 0
 7 4 1 31.65 5.2 0
 7 4 3 69.39 6.89 0
 7 4 4 19.18 4.36 0
 7 4 5 4.1 3.87 0
 7 4 6 190.73 9.91 0
 7 4 7 94.43 7.56 0
 7 4 8 1.44 3.43 0
 7 4 10 44.59 6.01 0
 7 4 11 46.69 5.9 0
 7 4 13 45.94 6.05 0
 7 5 -8 52.94 4.67 0
 7 5 -7 67.26 5.51 0
 7 5 -5 38.19 4.76 0
 7 5 -4 107.2 7.05 0
 7 5 -3 -0.2 3.31 0
 7 5 -2 46.01 6.08 0
 7 5 -1 28.87 5.33 0
 7 5 0 188.1 9.17 0
 7 5 1 27.41 5.29 0
 7 5 3 -0.43 3.87 0
 7 5 4 106.38 7.54 0
 7 5 5 42.94 5.94 0
 7 5 6 63.02 7.07 0
 7 5 7 58.52 7.08 0
 7 5 8 48.1 6.34 0
 7 5 9 18.7 4.63 0
 7 5 10 134.39 9.02 0
 7 5 11 16.84 4.5 0
 7 5 12 39.51 5.84 0
 7 6 -7 26.72 4.33 0
 7 6 -6 49.12 5.36 0
 7 6 -4 16.38 4.5 0
 7 6 -3 190.6 8.97 0
 7 6 -2 58.37 6.36 0
 7 6 0 -0.8 3.02 0
 7 6 1 76.81 6.82 0
 7 6 2 68.23 6.74 0
 7 6 3 211.03 10.21 0
 7 6 4 12.41 4.35 0
 7 6 5 127 8.42 0
 7 6 6 47.5 6.26 0
 7 6 7 24.37 5.25 0
 7 6 8 5.37 4.39 0
 7 6 9 7.11 4.35 0
 7 6 10 113.02 8.51 0
 7 6 11 26.3 5.78 0
 7 7 -7 5.94 2.83 0
 7 7 -6 6.18 3.16 0
 7 7 -4 4.07 3.22 0
 7 7 -3 77.42 6.91 0
 7 7 -2 89.62 7.3 0
 7 7 0 34.19 5.43 0
 7 7 1 57.6 7.05 0
 7 7 3 77.19 7.31 0
 7 7 5 47.81 6.44 0
 7 7 6 3.3 4.04 0
 7 7 7 7.21 4.24 0
 7 7 8 9.02 5.2 0
 7 7 9 28.8 5.58 0
 7 8 -7 46.63 5.11 0
 7 8 -6 1.73 2.78 0
 7 8 -5 49.2 5.31 0
 7 8 -4 61.35 5.84 0
 7 8 -3 57.73 6.86 0
 7 8 -2 55.33 6.81 0
 7 8 -1 96.18 7.84 0
 7 8 0 86.28 7.17 0
 7 8 1 95.41 8.06 0
 7 8 2 63.32 7.56 0
 7 8 3 53.38 6.74 0
 7 8 4 62.84 7.89 0
 7 8 5 45.16 6.44 0
 7 8 6 5.06 4.12 0
 7 8 7 46.89 7.19 0
 7 8 8 0.2 3.81 0
 7 8 9 11.43 5.03 0
 7 9 -6 8.07 3.62 0
 7 9 -5 154.07 8.44 0
 7 9 -4 84.81 7.12 0
 7 9 -3 82.42 7.02 0
 7 9 -2 7.19 4.09 0
 7 9 2 8.95 4.45 0
 7 9 3 78.45 8.39 0
 7 9 4 84.28 7.67 0
 7 9 6 6.28 4.47 0
 7 9 7 34.71 6.51 0
 7 10 -5 36.57 5.1 0
 7 10 -3 73.01 7.21 0
 7 10 3 73.28 8.32 0
 7 11 -4 24.65 4.8 0
 7 11 -3 -0.89 3.51 0
 7 11 -2 13.73 5.26 0
 7 11 -1 171.94 10.16 0
 7 11 0 10.96 4.86 0
 7 11 1 173.43 10.6 0
 8 -4 1 2.47 3.77 0
 8 -4 2 6.68 3.41 0
 8 -4 4 24.34 4.51 0
 8 -4 5 122.01 7.85 0
 8 -4 6 17.25 4.03 0
 8 -4 7 73.93 6.31 0
 8 -4 8 84.12 6.35 0
 8 -4 9 8.96 3.45 0
 8 -3 -2 74.53 6.38 0
 8 -3 -1 77.75 6.62 0
 8 -3 0 5.16 3.52 0
 8 -3 1 78.96 6.71 0
 8 -3 2 68.41 6.69 0
 8 -3 3 74.53 6.64 0
 8 -3 5 17.43 4.23 0
 8 -3 6 39.04 5.62 0
 8 -3 7 45.28 6.1 0
 8 -3 8 59.1 5.93 0
 8 -3 10 75.79 6.28 0
 8 -3 11 104.59 6.91 0
 8 -2 -3 28.9 4.64 0
 8 -2 -2 69.41 6.25 0
 8 -2 -1 10.76 4.23 0
 8 -2 1 11.97 3.85 0
 8 -2 2 72.4 6.52 0
 8 -2 3 20.37 4.79 0
 8 -2 6 0.01 3.16 0
 8 -2 7 8.27 3.73 0
 8 -2 8 0.34 3.54 0
 8 -2 10 19.57 4.6 0
 8 -2 11 4.2 3.19 0
 8 -1 -4 57.77 5.9 0
 8 -1 -3 51.96 5.88 0
 8 -1 -2 127.89 8.03 0
 8 -1 -1 39.98 5.58 0
 8 -1 3 42.17 5.7 0
 8 -1 5 43.54 6.14 0
 8 -1 6 64.71 6.72 0
 8 -1 7 6.83 3.58 0
 8 -1 8 9.77 4.03 0
 8 -1 9 69.36 6.27 0
 8 -1 10 20.91 4.17 0
 8 -1 11 17.46 4.5 0
 8 0 -7 6 2.95 0
 8 0 -6 22.67 4.06 0
 8 0 -5 105.8 7.01 0
 8 0 -3 -1.58 3.36 0
 8 0 -2 100.86 7.51 0
 8 0 -1 -0.97 2.89 0
 8 0 1 0.29 2.9 0
 8 0 3 -0.85 3.38 0
 8 0 4 500 14.7 0
 8 0 5 101.4 7.94 0
 8 0 6 26.96 5.5 0
 8 0 7 9.25 3.91 0
 8 0 8 42.47 5.79 0
 8 0 9 19.65 4.54 0
 8 0 10 4.19 3.4 0
 8 0 11 21.17 4.47 0
 8 1 -7 4.23 3.27 0
 8 1 -6 68.25 6.19 0
 8 1 -4 56.17 5.77 0
 8 1 -3 51.91 5.59 0
 8 1 -2 121.63 7.6 0
 8 1 0 54.67 6.73 0
 8 1 1 42.25 6.03 0
 8 1 2 129.86 8.6 0
 8 1 5 50.99 6.18 0
 8 1 6 66.3 6.93 0
 8 1 7 0.79 3.42 0
 8 1 8 13.69 4.35 0
 8 1 9 87.16 7.08 0
 8 1 11 14.52 4.26 0
 8 2 -8 2 2.7 0
 8 2 -7 11.43 3.87 0
 8 2 -6 4.12 3.11 0
 8 2 -5 114.78 7.53 0
 8 2 -4 57.69 5.9 0
 8 2 -3 28.54 5.29 0
 8 2 -2 68.71 6.76 0
 8 2 -1 13.03 4.3 0
 8 2 0 68.87 6.41 0
 8 2 2 72.11 6.5 0
 8 2 3 29.29 5.16 0
 8 2 6 0.22 3.45 0
 8 2 7 3.4 4.06 0
 8 2 8 3.68 3.72 0
 8 2 10 16.85 4.86 0
 8 2 11 1.33 4.01 0
 8 3 -8 53.08 5.23 0
 8 3 -7 48.12 5.48 0
 8 3 -6 34.87 5.05 0
 8 3 -5 16.63 4.1 0
 8 3 -2 82.24 7 0
 8 3 0 2.21 3.51 0
 8 3 1 73.21 7.25 0
 8 3 2 73.48 7.37 0
 8 3 3 71.96 6.76 0
 8 3 4 113.23 8.36 0
 8 3 5 15.37 4.63 0
 8 3 6 39.88 5.89 0
 8 3 7 49.17 6.43 0
 8 3 8 57.41 7.36 0
 8 3 9 12.73 4.45 0
 8 3 10 68.64 6.86 0
 8 4 -7 69.19 5.9 0
 8 4 -6 18.97 4.27 0
 8 4 -5 129.33 8.06 0
 8 4 -4 31.52 5.28 0
 8 4 -3 46.89 6.04 0
 8 4 -2 5.76 3.67 0
 8 4 -1 2.04 3.86 0
 8 4 0 10.44 4.07 0
 8 4 1 4.92 4.14 0
 8 4 2 6.36 4.3 0
 8 4 4 36.72 6.21 0
 8 4 5 135.36 8.87 0
 8 4 6 23.21 5.16 0
 8 4 7 77.19 7.21 0
 8 4 8 79.49 8.07 0
 8 4 9 12.03 4.66 0
 8 5 -7 68.89 5.96 0
 8 5 -6 61.72 5.9 0
 8 5 -4 14.43 4.32 0
 8 5 -2 39.81 6.19 0
 8 5 1 45.75 6.18 0
 8 5 4 9.24 4.81 0
 8 5 5 17.96 5.27 0
 8 5 6 59.23 7.64 0
 8 5 7 73.03 7.92 0
 8 5 8 11.52 4.65 0
 8 6 -6 3.5 3.29 0
 8 6 -5 19.58 4.54 0
 8 6 -3 110.63 8.06 0
 8 6 -2 18.27 4.49 0
 8 6 0 4.01 3.83 0
 8 6 1 16.58 5.3 0
 8 6 2 19.05 5.33 0
 8 6 3 105.21 8.09 0
 8 6 5 20.61 5.18 0
 8 6 6 7.34 4.33 0
 8 7 -6 68.2 6.4 0
 8 7 -5 7.33 3.71 0
 8 7 -4 8.81 4.41 0
 8 7 -3 57.25 6.49 0
 8 7 -2 8.4 4.02 0
 8 7 -1 1.24 3.94 0
 8 7 0 8.63 4.24 0
 8 7 1 9.59 5.24 0
 8 7 2 7.19 5.08 0
 8 7 3 60.73 7.55 0
 8 7 5 6.23 4.26 0
 8 8 -5 20.47 4.87 0
 8 8 -4 12.82 4.21 0
 8 8 -3 37.15 5.84 0
 8 8 -2 212.01 10.85 0
 8 8 -1 90.48 8.14 0
 8 8 0 63.99 7.22 0
 8 8 1 83.57 7.77 0
 8 8 2 209.31 11.11 0
 8 8 3 45.66 7.04 0
 9 -3 0 25.29 5.29 0
 9 -3 3 0.59 3.44 0
 9 -3 4 -1.93 3.26 0
 9 -2 -2 16.66 4.67 0
 9 -2 -1 92.97 7.21 0
 9 -2 0 13.54 4.28 0
 9 -2 1 103.32 8.11 0
 9 -2 4 35.08 5.6 0
 9 -2 5 8.87 4.29 0
 9 -1 -4 16.37 4.51 0
 9 -1 -3 73.53 7.01 0
 9 -1 -2 176.13 9.31 0
 9 -1 -1 59.81 7.2 0
 9 -1 0 22.82 4.85 0
 9 -1 1 51.87 6.31 0
 9 -1 2 176.31 9.79 0
 9 -1 3 75.93 7.47 0
 9 -1 5 107.76 7.91 0
 9 0 -5 41.85 5.81 0
 9 0 -4 35.68 5.77 0
 9 0 -3 35.41 5.59 0
 9 0 -2 19.38 5.25 0
 9 0 -1 177.96 9.54 0
 9 0 0 -0.62 3.67 0
 9 0 1 190.11 10.28 0
 9 0 2 21.93 4.88 0
 9 0 3 43.94 6.03 0
 9 0 5 31.34 6.02 0
 9 0 6 21.31 5.44 0
 9 1 -6 9.95 3.92 0
 9 1 -5 103.24 7.68 0
 9 1 -4 16.16 4.38 0
 9 1 -3 75.27 7.02 0
 9 1 -2 171.8 9.73 0
 9 1 0 20.89 5.31 0
 9 1 3 63.5 7.69 0
 9 1 4 16.39 4.92 0
 9 1 5 117.35 8.39 0
 9 2 -6 112.34 7.83 0
 9 2 -4 38.81 5.89 0
 9 2 -2 19.46 5.11 0
 9 2 -1 102.9 8.09 0
 9 2 0 12.14 4.8 0
 9 2 1 103.21 8.21 0
 9 2 2 16.19 4.9 0
 9 2 3 39.77 6.5 0
 9 2 4 35.83 6.2 0
 9 2 5 10.97 4.65 0
 9 3 -6 40.41 5.65 0
 9 3 -5 51.66 6.4 0
 9 3 -4 4.18 4.28 0
 9 3 -3 2.68 3.71 0
 9 3 -1 7.71 4.23 0
 9 3 1 7.8 4.63 0
 9 3 2 16.51 5.11 0
 9 3 3 7.51 4.71 0
 9 3 4 0.07 3.62 0
 9 4 -4 16.7 4.6 0
 9 4 -3 23.56 5 0
 9 4 -2 12.85 4.41 0
 9 4 -1 4.83 4.27 0
 9 4 0 65.23 6.96 0
 9 4 1 3.31 4.39 0
 -5 -5 -13 7.99 2.1 0
 -5 -5 -12 27.56 2.81 0
 -5 -5 -11 21.85 2.53 0
 -5 -5 -10 59.46 3.19 0
 -5 -5 -9 177.35 4.71 0
 -5 -5 -7 71.73 2.58 0
 -5 -4 -16 15.44 3.27 0
 -5 -4 -15 80.61 5.03 0
 -5 -4 -14 49.29 3.97 0
 -5 -4 -13 27.22 2.98 0
 -5 -4 -12 6.14 1.81 0
 -5 -4 -11 50.77 3.34 0
 -5 -4 -10 4.43 1.54 0
 -5 -4 -9 26.23 2.19 0
 -5 -4 -7 25.44 1.77 0
 -5 -3 -17 40.18 4.71 0
 -5 -3 -16 67.49 5.05 0
 -5 -3 -15 35.06 4.14 0
 -5 -3 -14 31.57 3.48 0
 -5 -3 -13 68.48 4.39 0
 -5 -3 -12 58.28 3.9 0
 -5 -3 -11 81.31 4.13 0
 -5 -3 -10 547.03 9.19 0
 -5 -3 -9 234.43 5.75 0
 -5 -2 -17 146.55 6.96 0
 -5 -2 -16 5.29 2.37 0
 -5 -2 -15 23.9 3.37 0
 -5 -2 -14 40.88 4.07 0
 -5 -2 -13 -0.4 1.66 0
 -5 -2 -12 61.86 4.03 0
 -5 -2 -11 7.58 1.92 0
 -5 -2 -10 0.7 1.5 0
 -5 -2 -9 151.72 4.76 0
 -4 -8 -13 16.77 2.7 0
 -4 -8 -12 188.15 6.27 0
 -4 -8 -11 31.37 3.02 0
 -4 -8 -10 76.67 3.86 0
 -4 -8 -9 16.68 2.06 0
 -4 -8 -8 4.51 1.29 0
 -4 -8 -5 72.27 2.44 0
 -4 -7 -16 7.34 2.66 0
 -4 -7 -15 63.99 4.72 0
 -4 -7 -14 22.17 3.26 0
 -4 -7 -13 42.9 3.69 0
 -4 -7 -12 75.31 4.16 0
 -4 -7 -11 173.01 5.75 0
 -4 -7 -10 59.66 3.42 0
 -4 -7 -9 90.29 3.78 0
 -4 -7 -6 49.27 2.26 0
 -4 -7 -5 286.34 4.49 0
 -4 -7 -4 144.77 2.81 0
 -4 -7 -3 372.86 3.55 0
 -4 -6 -17 41.19 4.48 0
 -4 -6 -15 -0.08 2.01 0
 -4 -6 -14 7.33 2.5 0
 -4 -6 -13 3.04 1.84 0
 -4 -6 -12 165.2 5.92 0
 -4 -6 -11 126.89 4.94 0
 -4 -6 -10 212.18 5.93 0
 -4 -6 -9 232.87 5.77 0
 -4 -6 -7 73.8 2.87 0
 -4 -6 -6 200.95 4.17 0
 -4 -6 -5 31.53 1.62 0
 -4 -6 -4 21.78 1.19 0
 -4 -6 -3 27.96 0.94 0
 -4 -5 -17 41.06 4.67 0
 -4 -5 -16 15.82 3 0
 -4 -5 -13 23.46 3.11 0
 -4 -5 -11 116.65 4.8 0
 -4 -5 -10 7.79 1.68 0
 -4 -5 -7 28.52 2.04 0
 -4 -5 -6 1.43 0.93 0
 -4 -5 -5 3.8 0.81 0
 -4 -5 -4 257.98 3.44 0
 -4 -5 -3 21.52 0.79 0
 -4 -4 -16 6.8 2.48 0
 -4 -4 -14 40.69 3.76 0
 -4 -4 -13 62.01 4.01 0
 -4 -4 -12 39.95 3.2 0
 -4 -4 -11 24.94 2.65 0
 -4 -4 -10 9.38 1.95 0
 -4 -4 -9 47.21 2.75 0
 -4 -4 -7 26.22 1.94 0
 -4 -4 -6 50.95 2.23 0
 -4 -4 -5 671.18 6.51 0
 -4 -4 -4 292.82 3.68 0
 -4 -3 -18 29.78 4.36 0
 -4 -3 -17 18.68 3.41 0
 -4 -3 -16 19.27 3.45 0
 -4 -3 -15 82.82 5 0
 -4 -3 -14 65.95 4.4 0
 -4 -3 -13 36.45 3.34 0
 -4 -3 -12 35 3.11 0
 -4 -3 -11 129.16 5.12 0
 -4 -3 -10 98.28 4.08 0
 -4 -3 -7 13.37 1.55 0
 -4 -3 -6 81.69 2.75 0
 -4 -3 -5 431.11 5.36 0
 -4 -3 -4 55.36 1.81 0
 -4 -2 -18 163.71 7.85 0
 -4 -2 -17 70.09 5.44 0
 -4 -2 -16 12.06 2.98 0
 -4 -2 -15 54.65 4.52 0
 -4 -2 -14 226.49 7.56 0
 -4 -2 -13 118.95 5.38 0
 -4 -2 -12 183.24 6.32 0
 -4 -2 -11 38.06 3.04 0
 -4 -2 -10 284.86 6.78 0
 -4 -2 -9 57.87 3.25 0
 -4 -2 -6 130.58 3.49 0
 -4 -1 -17 133.45 6.95 0
 -4 -1 -16 52.65 4.76 0
 -4 -1 -15 3.73 2.28 0
 -4 -1 -14 69.93 4.62 0
 -4 -1 -12 98.67 4.79 0
 -4 -1 -11 4.43 1.73 0
 -4 -1 -10 50.56 3.34 0
 -4 -1 -7 132.14 4.08 0
 -4 -1 -6 525.47 7.2 0
 -4 0 -18 109.32 6.73 0
 -4 0 -17 52.59 5.32 0
 -4 0 -16 27.81 4.12 0
 -4 0 -15 322.33 9.56 0
 -4 0 -14 121.29 5.96 0
 -4 0 -13 0.28 1.89 0
 -4 0 -12 0.69 1.68 0
 -4 0 -11 29.77 2.86 0
 -4 0 -9 2.41 1.65 0
 -4 1 -16 51.36 4.84 0
 -4 1 -15 3.12 2.26 0
 -4 1 -14 73.65 5.08 0
 -4 1 -13 61.17 4.69 0
 -4 1 -12 96.11 5.2 0
 -4 1 -11 4.43 1.87 0
 -4 1 -10 47.54 3.24 0
 -3 -11 -11 27.06 3.15 0
 -3 -11 -10 15.53 2.51 0
 -3 -11 -9 365.08 8.54 0
 -3 -11 -8 71.18 4.03 0
 -3 -10 -14 8.03 2.41 0
 -3 -10 -13 17.16 2.92 0
 -3 -10 -12 11.42 2.69 0
 -3 -10 -11 37.63 3.56 0
 -3 -10 -10 3.1 2.02 0
 -3 -10 -9 54.68 3.7 0
 -3 -10 -8 52.2 3.47 0
 -3 -9 -16 6.11 2.65 0
 -3 -9 -15 27 3.71 0
 -3 -9 -14 20.75 3.16 0
 -3 -9 -12 138.46 5.94 0
 -3 -9 -11 17.33 2.68 0
 -3 -9 -10 26.02 2.85 0
 -3 -9 -8 21.87 2.29 0
 -3 -9 -7 40.95 2.92 0
 -3 -8 -16 1.6 2.16 0
 -3 -8 -15 81.82 5.41 0
 -3 -8 -14 75.37 4.87 0
 -3 -8 -13 65.29 4.58 0
 -3 -8 -12 95.56 4.82 0
 -3 -8 -11 71.36 4.25 0
 -3 -8 -10 34.44 3.01 0
 -3 -8 -9 36.61 2.87 0
 -3 -8 -8 84.05 3.76 0
 -3 -7 -17 19.72 3.41 0
 -3 -7 -16 12.13 3.23 0
 -3 -7 -15 45.47 4.25 0
 -3 -7 -14 7.6 2.51 0
 -3 -7 -13 34.74 3.63 0
 -3 -7 -12 34.29 3.19 0
 -3 -7 -11 19.1 2.79 0
 -3 -7 -10 96.7 4.31 0
 -3 -7 -9 119.91 4.6 0
 -3 -7 -8 24.24 2.23 0
 -3 -6 -17 4.44 2.9 0
 -3 -6 -15 117.63 5.95 0
 -3 -6 -14 117.62 5.75 0
 -3 -6 -13 95.98 5.14 0
 -3 -6 -12 75.05 4.41 0
 -3 -6 -11 35.81 3.12 0
 -3 -6 -10 243.46 6.39 0
 -3 -6 -9 112.2 4.3 0
 -3 -6 -4 336.67 4.99 0
 -3 -5 -18 24.26 4.23 0
 -3 -5 -17 10.93 2.98 0
 -3 -5 -15 49.37 4.46 0
 -3 -5 -14 4.42 2.2 0
 -3 -5 -13 78.31 4.66 0
 -3 -5 -12 135.69 5.53 0
 -3 -5 -11 32.88 2.96 0
 -3 -5 -10 4.76 1.7 0
 -3 -5 -9 160.1 5 0
 -3 -5 -7 11.57 1.73 0
 -3 -5 -6 17.4 1.63 0
 -3 -5 -3 67.26 1.89 0
 -3 -5 -2 81.21 1.77 0
 -3 -5 -1 8.76 0.54 0
 -3 -4 -18 2.75 2.91 0
 -3 -4 -16 20.29 3.57 0
 -3 -4 -15 137.31 6.47 0
 -3 -4 -14 27.92 3.37 0
 -3 -4 -13 91.93 4.84 0
 -3 -4 -12 42.64 3.68 0
 -3 -4 -11 93.88 4.44 0
 -3 -4 -10 146.72 4.98 0
 -3 -4 -7 598.87 7.84 0
 -3 -4 -6 34.91 1.93 0
 -3 -4 -5 55.16 2.19 0
 -3 -4 -4 485.86 5.23 0
 -3 -4 -3 57.7 1.61 0
 -3 -4 -2 133.72 1.89 0
 -3 -3 -18 85.58 5.76 0
 -3 -3 -17 39.42 4.44 0
 -3 -3 -16 34.49 4.2 0
 -3 -3 -15 244.64 8.42 0
 -3 -3 -14 13.58 2.69 0
 -3 -3 -13 33.32 3.57 0
 -3 -3 -12 13.55 2.35 0
 -3 -3 -11 272.02 7.16 0
 -3 -3 -7 768.98 8.87 0
 -3 -3 -6 465.62 6.34 0
 -3 -3 -5 181.55 3.68 0
 -3 -3 -4 58.34 1.89 0
 -3 -3 -3 775.19 5.53 0
 -3 -3 -2 89.58 1.47 0
 -3 -2 -18 29.51 4.32 0
 -3 -2 -17 4.56 2.65 0
 -3 -2 -16 53.02 4.46 0
 -3 -2 -15 53.55 4.68 0
 -3 -2 -14 7.67 2.29 0
 -3 -2 -13 104.2 5.1 0
 -3 -2 -12 81.6 4.46 0
 -3 -2 -11 188.46 6.01 0
 -3 -2 -10 60.17 3.36 0
 -3 -2 -7 20.19 1.86 0
 -3 -2 -6 129.4 3.45 0
 -3 -2 -5 513.14 6.04 0
 -3 -2 -4 675.32 6.18 0
 -3 -2 -3 312.26 3.58 0
 -3 -1 -18 8.62 3.01 0
 -3 -1 -17 17.98 3.8 0
 -3 -1 -16 40.78 4.05 0
 -3 -1 -15 366.96 9.97 0
 -3 -1 -14 71.46 4.83 0
 -3 -1 -13 18.44 3.08 0
 -3 -1 -12 84.55 4.64 0
 -3 -1 -11 152.45 5.4 0
 -3 -1 -10 93.53 4.22 0
 -3 -1 -7 1447.99 12.36 0
 -3 -1 -6 614.12 7.46 0
 -3 -1 -5 422.12 5.63 0
 -3 -1 -4 47.24 1.8 0
 -3 -1 -3 17.55 1.17 0
 -3 0 -18 15.69 3.53 0
 -3 0 -17 0.62 2.9 0
 -3 0 -16 14.79 3.26 0
 -3 0 -15 1.1 2.14 0
 -3 0 -14 106.06 5.45 0
 -3 0 -12 166.1 6.02 0
 -3 0 -11 97.25 4.66 0
 -3 0 -10 39.33 3.09 0
 -3 0 -9 28.68 2.41 0
 -3 0 -7 113.84 3.7 0
 -3 0 -6 269.95 5.21 0
 -3 0 -5 302.55 5.04 0
 -3 1 -18 7.25 3.16 0
 -3 1 -17 20.42 3.81 0
 -3 1 -16 44.54 5.03 0
 -3 1 -13 19.39 3.12 0
 -3 1 -11 148.42 5.51 0
 -3 1 -10 97.98 4.44 0
 -3 1 -9 13.93 1.98 0
 -3 1 -6 608.87 8.05 0
 -3 2 -18 25.42 4.21 0
 -3 2 -17 -0.03 2.44 0
 -3 2 -16 57.43 4.85 0
 -3 2 -15 58.12 5.06 0
 -3 2 -14 9.89 2.69 0
 -3 2 -13 97.29 5.41 0
 -3 2 -12 85.54 4.9 0
 -3 2 -11 181.82 6.3 0
 -3 2 -10 57.07 3.62 0
 -3 2 -9 123.12 4.79 0
 -3 2 -8 159.73 4.98 0
 -3 3 -14 12.96 2.91 0
 -3 3 -13 32.63 3.78 0
 -3 3 -12 15.68 2.78 0
 -2 -13 -12 106.43 6.13 0
 -2 -13 -11 76.7 5.26 0
 -2 -12 -13 29.18 4.2 0
 -2 -12 -12 38.42 4.25 0
 -2 -12 -11 7.95 2.42 0
 -2 -11 -14 3.84 2.31 0
 -2 -11 -13 8.71 2.63 0
 -2 -11 -12 81.82 5.44 0
 -2 -11 -11 36.06 4.2 0
 -2 -10 -15 15.92 3.46 0
 -2 -10 -14 12.24 3.04 0
 -2 -10 -13 12.75 3.15 0
 -2 -10 -12 94.61 5.52 0
 -2 -10 -11 186.96 6.94 0
 -2 -9 -15 49.35 4.78 0
 -2 -9 -14 11.49 3.04 0
 -2 -9 -13 12.17 2.99 0
 -2 -9 -12 16.61 2.95 0
 -2 -9 -11 30.8 3.63 0
 -2 -9 -10 4.27 1.92 0
 -2 -8 -17 17.17 3.7 0
 -2 -8 -16 134.23 6.97 0
 -2 -8 -15 17.57 3.42 0
 -2 -8 -14 6.64 2.53 0
 -2 -8 -12 28.81 3.35 0
 -2 -8 -11 100.62 5.14 0
 -2 -8 -10 88.48 4.68 0
 -2 -7 -17 76.7 5.76 0
 -2 -7 -16 41.53 4.27 0
 -2 -7 -15 62 4.97 0
 -2 -7 -14 1.85 2.58 0
 -2 -7 -13 62.69 4.61 0
 -2 -7 -12 46.39 3.7 0
 -2 -7 -11 12.41 2.38 0
 -2 -7 -10 5.13 1.85 0
 -2 -7 -9 146.97 5.35 0
 -2 -6 -18 119.32 6.85 0
 -2 -6 -17 33.07 4.49 0
 -2 -6 -16 83.58 5.61 0
 -2 -6 -15 12.55 2.94 0
 -2 -6 -14 83.36 5.18 0
 -2 -6 -13 218.62 7.3 0
 -2 -6 -11 72.29 4.3 0
 -2 -6 -10 62.65 3.86 0
 -2 -6 -9 109.68 4.53 0
 -2 -6 -8 32.54 2.5 0
 -2 -5 -17 2.85 2.7 0
 -2 -5 -16 17.16 3.26 0
 -2 -5 -13 25.69 3.31 0
 -2 -5 -12 24.86 2.94 0
 -2 -5 -11 182.56 6.13 0
 -2 -5 -10 332.53 7.61 0
 -2 -5 -9 36.48 2.76 0
 -2 -4 -18 50.88 4.87 0
 -2 -4 -17 47.08 4.93 0
 -2 -4 -16 54.2 4.89 0
 -2 -4 -14 157.44 6.47 0
 -2 -4 -13 1.37 1.81 0
 -2 -4 -12 331.08 8.28 0
 -2 -4 -11 14.4 2.34 0
 -2 -4 -10 94.98 4.26 0
 -2 -4 -9 0.74 1.21 0
 -2 -4 -7 112.71 3.68 0
 -2 -4 -6 269.77 5.2 0
 -2 -4 -5 410.57 5.95 0
 -2 -3 -19 32.95 4.9 0
 -2 -3 -18 49.27 5.08 0
 -2 -3 -17 17.39 3.49 0
 -2 -3 -16 11.05 2.92 0
 -2 -3 -15 61.76 4.53 0
 -2 -3 -14 37.49 3.58 0
 -2 -3 -13 258.73 7.7 0
 -2 -3 -12 364.41 8.57 0
 -2 -3 -10 87.21 3.9 0
 -2 -3 -7 645.08 8.18 0
 -2 -3 -6 196.3 4.32 0
 -2 -3 -5 343.84 5.16 0
 -2 -3 -4 1835.85 10.48 0
 -2 -3 -3 392.64 4.26 0
 -2 -2 -19 41.33 5.05 0
 -2 -2 -18 296.64 10.05 0
 -2 -2 -17 51.71 4.66 0
 -2 -2 -15 62.1 4.79 0
 -2 -2 -13 33.44 3.46 0
 -2 -2 -12 47.12 3.44 0
 -2 -2 -7 73.63 2.92 0
 -2 -2 -6 39.35 2.16 0
 -2 -2 -5 127.05 3.06 0
 -2 -2 -4 1011.78 7.46 0
 -2 -2 -3 288.17 3.43 0
 -2 -1 -19 33.43 4.51 0
 -2 -1 -18 25.07 3.94 0
 -2 -1 -17 164.8 7.46 0
 -2 -1 -16 4.55 2.66 0
 -2 -1 -14 139.16 6.05 0
 -2 -1 -13 34.31 3.5 0
 -2 -1 -12 118.04 5.11 0
 -2 -1 -11 18.11 2.36 0
 -2 -1 -10 519.69 9.07 0
 -2 -1 -7 344.69 5.97 0
 -2 -1 -6 487.71 6.51 0
 -2 -1 -5 514.69 6.09 0
 -2 -1 -4 360.23 4.58 0
 -2 -1 -3 834.35 5.98 0
 -2 -1 -2 3105.72 9.5 0
 -2 0 -19 46.8 5.58 0
 -2 0 -18 35.12 4.52 0
 -2 0 -17 12.12 3.31 0
 -2 0 -16 0.92 2.24 0
 -2 0 -15 52.71 4.45 0
 -2 0 -14 75.42 4.65 0
 -2 0 -13 17.56 2.66 0
 -2 0 -12 227.14 6.83 0
 -2 0 -11 0.17 1.38 0
 -2 0 -10 52.02 3.21 0
 -2 0 -7 424.83 6.74 0
 -2 0 -6 806.66 8.5 0
 -2 0 -4 1853.35 10.52 0
 -2 0 -3 1577.37 8.66 0
 -2 1 -19 38.92 5.03 0
 -2 1 -18 24.4 3.97 0
 -2 1 -17 158.93 7.54 0
 -2 1 -16 5.24 2.75 0
 -2 1 -15 53.99 4.36 0
 -2 1 -14 142.74 6.13 0
 -2 1 -13 34.03 3.36 0
 -2 1 -12 118.97 5.37 0
 -2 1 -11 22.65 2.6 0
 -2 1 -10 519.6 9.19 0
 -2 1 -7 337.71 6.18 0
 -2 1 -6 482.89 6.83 0
 -2 1 -5 525.24 6.57 0
 -2 2 -19 43.63 4.93 0
 -2 2 -18 290.9 10.43 0
 -2 2 -17 57.02 5.26 0
 -2 2 -16 27.56 3.78 0
 -2 2 -15 60.94 4.6 0
 -2 2 -14 39.66 3.99 0
 -2 2 -13 35.56 3.4 0
 -2 2 -12 47.48 3.56 0
 -2 2 -11 75.54 4.04 0
 -2 2 -7 69.5 3.09 0
 -2 2 -6 40.16 2.29 0
 -2 2 -5 128.37 3.61 0
 -2 3 -17 13.88 3.39 0
 -2 3 -16 10.58 3.2 0
 -2 3 -14 43.74 4.31 0
 -2 3 -13 259.16 8.07 0
 -2 3 -12 352.26 8.81 0
 -2 3 -11 165.96 5.89 0
 -2 3 -10 83.14 4.08 0
 -2 3 -9 93.49 4.05 0
 -2 4 -15 227.86 8.67 0
 -2 4 -14 153.71 6.69 0
 -2 4 -13 1.34 1.89 0
 -2 4 -12 347.34 8.99 0
 -2 4 -11 16.62 2.73 0
 -2 4 -10 96.18 4.5 0
 -1 -11 -14 95.79 6.1 0
 -1 -10 -15 8.91 2.99 0
 -1 -10 -13 55.5 5.02 0
 -1 -10 -12 36.13 4.17 0
 -1 -9 -16 11.25 3.15 0
 -1 -9 -15 11.07 3.05 0
 -1 -9 -13 27.17 3.92 0
 -1 -9 -12 14.97 2.93 0
 -1 -8 -17 6.45 2.97 0
 -1 -8 -16 75.33 5.49 0
 -1 -8 -15 39.12 4.18 0
 -1 -8 -14 12.24 2.91 0
 -1 -8 -12 69.63 4.91 0
 -1 -7 -17 28.88 4.5 0
 -1 -7 -16 115.66 6.57 0
 -1 -7 -15 92.32 5.86 0
 -1 -7 -14 27.57 3.78 0
 -1 -7 -12 15.21 2.75 0
 -1 -7 -11 13.02 2.52 0
 -1 -6 -18 6.24 3.06 0
 -1 -6 -17 50.94 5.23 0
 -1 -6 -16 123.69 6.8 0
 -1 -6 -15 38.55 4.31 0
 -1 -6 -14 101.41 5.7 0
 -1 -6 -13 127.74 6.12 0
 -1 -6 -12 29.39 3.66 0
 -1 -6 -11 17.39 2.69 0
 -1 -6 -10 12.09 2.26 0
 -1 -5 -18 24.34 4.04 0
 -1 -5 -17 61.02 5.34 0
 -1 -5 -16 80.32 5.68 0
 -1 -5 -15 167.52 7.04 0
 -1 -5 -14 34.49 3.91 0
 -1 -5 -10 24.86 2.58 0
 -1 -4 -18 48.82 5.14 0
 -1 -4 -17 229.2 8.88 0
 -1 -4 -16 220.27 8.31 0
 -1 -4 -13 158.07 6.38 0
 -1 -4 -12 108.65 5.2 0
 -1 -4 -11 10.02 2.05 0
 -1 -4 -10 356.49 7.9 0
 -1 -3 -19 48.08 5.62 0
 -1 -3 -17 48.84 4.97 0
 -1 -3 -16 5.92 2.64 0
 -1 -3 -15 39.81 4.1 0
 -1 -3 -14 18.03 2.92 0
 -1 -3 -13 79.08 4.49 0
 -1 -3 -12 167.42 6.08 0
 -1 -3 -11 200.15 6.11 0
 -1 -3 -10 221.82 6.07 0
 -1 -3 -7 733.06 8.98 0
 -1 -2 -19 54.99 5.31 0
 -1 -2 -18 40.12 5.08 0
 -1 -2 -17 44.37 4.63 0
 -1 -2 -16 20.47 3.36 0
 -1 -2 -15 10.44 2.57 0
 -1 -2 -14 44.55 3.75 0
 -1 -2 -13 57.27 4.09 0
 -1 -2 -12 2.15 1.88 0
 -1 -2 -11 255.63 6.75 0
 -1 -2 -10 658.31 10.08 0
 -1 -2 -8 96.93 3.61 0
 -1 -2 -7 355.45 6.19 0
 -1 -2 -6 961.02 9.23 0
 -1 -2 -5 127.62 3.25 0
 -1 -2 1 3450.04 7.57 0
 -1 -2 2 4028.15 10.09 0
 -1 -1 -19 17.34 3.87 0
 -1 -1 -18 6.81 3.4 0
 -1 -1 -17 15.26 3.53 0
 -1 -1 -16 10.97 3.14 0
 -1 -1 -15 76.68 5.25 0
 -1 -1 -14 12.66 2.74 0
 -1 -1 -13 75.47 4.35 0
 -1 -1 -12 26.55 2.76 0
 -1 -1 -11 226.4 6.33 0
 -1 -1 -10 149.88 4.98 0
 -1 -1 -8 76.92 3.14 0
 -1 -1 -7 163.54 4.07 0
 -1 -1 -6 375.59 5.68 0
 -1 -1 -5 2346.5 12.57 0
 -1 -1 -4 636.14 5.94 0
 -1 -1 -3 9611.61 19.5 0
 -1 -1 -2 191.27 2.32 0
 -1 0 -18 5.12 2.72 0
 -1 0 -17 18.92 3.33 0
 -1 0 -16 2.25 2.31 0
 -1 0 -13 129.76 5.51 0
 -1 0 -12 93.5 4.52 0
 -1 0 -11 0.7 1.57 0
 -1 0 -10 35.87 2.58 0
 -1 0 -8 225.55 5.18 0
 -1 0 -7 455.36 6.73 0
 -1 0 -6 42.4 2.05 0
 -1 0 -5 1538.64 10.24 0
 -1 0 -4 440.79 4.94 0
 -1 0 -3 1306.96 7.3 0
 -1 0 -2 807.46 4.87 0
 -1 0 -1 1082.44 4.41 0
 -1 1 -19 12.32 3.47 0
 -1 1 -18 6.29 2.93 0
 -1 1 -17 17.27 3.53 0
 -1 1 -16 7.45 2.82 0
 -1 1 -15 80.97 5.17 0
 -1 1 -14 8.86 2.36 0
 -1 1 -13 82.46 4.51 0
 -1 1 -12 31.7 3.02 0
 -1 1 -11 229.59 6.42 0
 -1 1 -10 158.52 5.07 0
 -1 1 -7 166.06 4.26 0
 -1 1 -6 381.8 5.83 0
 -1 1 -5 2321.13 12.9 0
 -1 1 -4 629.73 6.15 0
 -1 1 -3 9543.88 20.81 0
 -1 1 -2 197.28 2.75 0
 -1 2 -18 31.49 4.18 0
 -1 2 -17 47.21 4.97 0
 -1 2 -16 12.53 2.75 0
 -1 2 -15 7.81 2.44 0
 -1 2 -14 37.77 3.74 0
 -1 2 -12 1.67 1.4 0
 -1 2 -11 257.64 6.94 0
 -1 2 -10 632.89 10.02 0
 -1 2 -7 338.8 6.08 0
 -1 2 -6 925.06 9.26 0
 -1 2 -5 124.23 3.3 0
 -1 2 -4 1748.36 10.76 0
 -1 3 -19 38.89 5 0
 -1 3 -18 25.44 4.4 0
 -1 3 -17 47.71 4.89 0
 -1 3 -16 3.99 2.31 0
 -1 3 -15 40.08 3.93 0
 -1 3 -14 17.77 2.97 0
 -1 3 -13 75.81 4.64 0
 -1 3 -12 180.49 6.26 0
 -1 3 -11 200.84 6.19 0
 -1 3 -10 206.73 5.93 0
 -1 3 -7 726.32 9.22 0
 -1 3 -5 407.64 6.21 0
 -1 4 -18 46.43 5.62 0
 -1 4 -17 229.68 8.98 0
 -1 4 -15 35.98 4.21 0
 -1 4 -14 364.21 9.81 0
 -1 4 -13 159.3 6.6 0
 -1 4 -12 107.74 5.28 0
 -1 4 -11 13.93 2.34 0
 -1 4 -10 355.75 7.98 0
 -1 4 -9 514.68 9.07 0
 -1 5 -15 165.07 7.14 0
 -1 5 -14 34.92 3.91 0
 -1 5 -13 19.01 3.42 0
 -1 5 -12 109.66 5.27 0
 -1 5 -11 429.41 9.44 0
 0 -11 -14 6.11 3.3 0
 0 -10 -15 32.96 4.95 0
 0 -10 -14 21.02 3.73 0
 0 -9 -16 34.31 4.61 0
 0 -9 -15 10.71 3.49 0
 0 -9 -14 56.24 4.94 0
 0 -8 -17 0.58 2.56 0
 0 -8 -16 25.38 4.04 0
 0 -8 -13 4.61 2.36 0
 0 -7 -17 4.66 3.45 0
 0 -7 -16 57.67 5.5 0
 0 -7 -15 38.68 4.75 0
 0 -7 -14 104.75 6 0
 0 -6 -16 3.43 2.7 0
 0 -6 -15 11.67 2.92 0
 0 -6 -14 88.48 5.4 0
 0 -6 -12 135.66 6.11 0
 0 -5 -18 -1.8 2.61 0
 0 -5 -17 413.72 11.81 0
 0 -5 -16 15.73 3.61 0
 0 -5 -15 22.91 3.83 0
 0 -5 -14 306.47 9.29 0
 0 -5 -13 427.48 10.45 0
 0 -5 -12 111.61 5.26 0
 0 -5 -11 691.08 12.08 0
 0 -4 -19 29.4 4.74 0
 0 -4 -18 26.71 4.4 0
 0 -4 -17 1.71 2.28 0
 0 -4 -16 3.14 2.24 0
 0 -4 -15 2.33 2.08 0
 0 -4 -14 56.22 4.35 0
 0 -4 -13 38.34 3.64 0
 0 -4 -12 361.31 8.93 0
 0 -4 -10 165.68 5.76 0
 0 -3 -19 121.99 7.35 0
 0 -3 -18 1.67 2.56 0
 0 -3 -17 2.76 3.36 0
 0 -3 -16 104.62 5.91 0
 0 -3 -15 34.2 3.96 0
 0 -3 -13 411.29 9.59 0
 0 -3 -12 2.08 1.55 0
 0 -3 -11 391.07 8.6 0
 0 -3 -10 46.56 3.25 0
 0 -2 -18 12.71 3.19 0
 0 -2 -17 7.39 3.62 0
 0 -2 -16 19.01 3.21 0
 0 -2 -15 56.77 4.47 0
 0 -2 -14 198.04 7.02 0
 0 -2 -13 150.48 5.93 0
 0 -2 -12 162.15 5.73 0
 0 -2 -11 162.29 5.56 0
 0 -2 -10 133.67 4.9 0
 0 -2 -8 293.12 6.08 0
 0 -1 -19 35.13 4.77 0
 0 -1 -18 16.56 3.63 0
 0 -1 -17 10.61 3.12 0
 0 -1 -16 173.75 7.46 0
 0 -1 -15 2.79 2.44 0
 0 -1 -14 26.46 3.16 0
 0 -1 -13 80.44 4.49 0
 0 -1 -12 2.23 1.64 0
 0 -1 -11 9.03 2.04 0
 0 -1 -10 12.23 1.88 0
 0 -1 -8 13.71 1.6 0
 0 -1 -5 2208.03 12.59 0
 0 -1 1 745.41 3.58 0
 0 -1 2 614.74 4.1 0
 0 0 -17 1.77 2.77 0
 0 0 -16 107.29 5.98 0
 0 0 -15 0.25 1.99 0
 0 0 -14 21.5 3.09 0
 0 0 -13 1.9 1.8 0
 0 0 -12 1.14 1.56 0
 0 0 -11 1.38 1.54 0
 0 0 -10 199.12 5.51 0
 0 0 -8 4607.75 22.6 0
 0 0 -7 -0.53 0.88 0
 0 0 -6 287.92 4.88 0
 0 0 -5 0.4 0.85 0
 0 0 -4 2046.71 10.3 0
 0 0 -3 1.21 0.77 0
 0 0 2 64.7 1.42 0
 0 1 -19 37.99 4.7 0
 0 1 -18 13.63 3.44 0
 0 1 -17 13.09 3.19 0
 0 1 -16 181.84 7.63 0
 0 1 -15 -0.71 2.07 0
 0 1 -14 26.93 3.23 0
 0 1 -13 86.15 4.68 0
 0 1 -12 2.82 1.67 0
 0 1 -11 6.2 1.98 0
 0 1 -10 17.52 2.13 0
 0 1 -8 15.43 1.71 0
 0 1 -7 203.6 4.57 0
 0 1 -6 287.8 4.91 0
 0 1 -5 2152.21 11.93 0
 0 1 -4 27.02 1.39 0
 0 1 -3 14.13 0.97 0
 0 1 -2 620.11 4.1 0
 0 2 -19 11.65 3.84 0
 0 2 -18 15.96 3.4 0
 0 2 -16 16.95 3.5 0
 0 2 -15 57.28 4.37 0
 0 2 -14 188.81 6.87 0
 0 2 -13 131.69 5.65 0
 0 2 -12 154.52 5.67 0
 0 2 -10 125.63 4.54 0
 0 2 -8 294.27 5.95 0
 0 2 -7 229.83 4.9 0
 0 2 -6 5.97 1.12 0
 0 2 -5 260.52 4.43 0
 0 2 -4 1426.34 8.99 0
 0 2 -3 1005.63 6.82 0
 0 3 -19 133.45 7.37 0
 0 3 -18 3.89 2.67 0
 0 3 -17 -1.69 2.19 0
 0 3 -16 109 5.95 0
 0 3 -15 35.11 4.02 0
 0 3 -14 21.13 3.12 0
 0 3 -13 414.19 9.51 0
 0 3 -12 1.99 1.67 0
 0 3 -10 44.38 3.08 0
 0 3 -7 7.77 1.5 0
 0 3 -6 59.3 2.64 0
 0 3 -5 1646.16 11.24 0
 0 3 -4 1264.75 9.2 0
 0 4 -19 30.57 4.54 0
 0 4 -18 25.67 4.04 0
 0 4 -17 -0.78 2.72 0
 0 4 -16 3.69 2.73 0
 0 4 -15 -2.85 2.05 0
 0 4 -14 62.65 4.57 0
 0 4 -13 41.31 3.44 0
 0 4 -12 353.66 8.53 0
 0 4 -11 127.41 5.01 0
 0 4 -10 157.73 5.24 0
 0 4 -9 124.96 4.48 0
 0 4 -7 0.55 1.11 0
 0 4 -6 33.07 2.12 0
 0 5 -18 0.79 2.52 0
 0 5 -17 419.24 11.7 0
 0 5 -16 19.05 3.48 0
 0 5 -15 22.59 3.7 0
 0 5 -14 297.58 8.92 0
 0 5 -13 426.36 10.2 0
 0 5 -12 112.59 5.39 0
 0 5 -11 718.87 11.93 0
 0 5 -10 44.93 3.31 0
 0 5 -9 407.95 8.16 0
 1 -10 -15 10.37 3.51 0
 1 -9 -16 9.49 3.79 0
 1 -9 -15 11.61 3.24 0
 1 -8 -17 6.32 3.08 0
 1 -8 -16 86.95 6.27 0
 1 -8 -15 42.34 4.79 0
 1 -8 -14 16.29 3.35 0
 1 -7 -17 20.55 4.1 0
 1 -7 -16 121.6 7.08 0
 1 -7 -15 100.73 6.19 0
 1 -7 -14 24.5 4.13 0
 1 -6 -18 5.34 3.34 0
 1 -6 -16 118.38 6.61 0
 1 -6 -15 34.33 4.22 0
 1 -6 -14 104.02 6.24 0
 1 -5 -18 16.94 3.75 0
 1 -5 -17 60.8 5.52 0
 1 -5 -16 76.08 5.69 0
 1 -5 -15 172.23 7.37 0
 1 -5 -14 33.49 3.74 0
 1 -5 -13 20.53 3.17 0
 1 -5 -12 112.74 5.5 0
 1 -4 -18 38.75 4.63 0
 1 -4 -17 238.13 8.91 0
 1 -4 -16 213.47 8.21 0
 1 -4 -15 36.38 3.95 0
 1 -4 -13 162.63 6.6 0
 1 -4 -12 115.48 5.31 0
 1 -3 -19 46.56 5.36 0
 1 -3 -18 20.09 3.86 0
 1 -3 -17 49.72 4.86 0
 1 -3 -16 7.17 2.51 0
 1 -3 -15 33.67 3.54 0
 1 -3 -14 20.51 3.09 0
 1 -3 -13 77.01 4.51 0
 1 -3 -12 184.67 6.4 0
 1 -3 -11 199.39 6.39 0
 1 -2 -18 34.3 4.71 0
 1 -2 -16 19.76 3.3 0
 1 -2 -15 9.63 2.71 0
 1 -2 -14 39.36 3.84 0
 1 -2 -13 57.86 3.88 0
 1 -2 -12 1.77 1.74 0
 1 -2 -11 249.84 6.86 0
 1 -2 -10 652.72 10.46 0
 1 -1 -19 13.68 3.46 0
 1 -1 -18 4.46 3.24 0
 1 -1 -17 14 3.18 0
 1 -1 -16 5.76 2.54 0
 1 -1 -15 78.24 4.91 0
 1 -1 -14 10.72 2.34 0
 1 -1 -12 30.42 3.03 0
 1 -1 -11 231.26 6.39 0
 1 -1 -8 75.07 3.15 0
 1 -1 -7 159.94 4.26 0
 1 0 -19 23.17 4.17 0
 1 0 -18 1.42 2.44 0
 1 0 -17 24.37 3.73 0
 1 0 -16 5.62 2.95 0
 1 0 -15 20.31 3.32 0
 1 0 -14 14.47 2.65 0
 1 0 -13 138.04 5.59 0
 1 0 -11 2.13 1.55 0
 1 0 -10 34.13 2.54 0
 1 0 -7 458.31 6.8 0
 1 0 -6 36.42 2.14 0
 1 0 -5 1547.89 10.22 0
 1 0 1 1120.76 4.49 0
 1 0 2 834.39 4.83 0
 1 1 -19 13.43 3.35 0
 1 1 -18 9.42 3.09 0
 1 1 -17 17.18 3.45 0
 1 1 -16 9.3 2.8 0
 1 1 -15 69.21 4.78 0
 1 1 -14 12.35 2.57 0
 1 1 -13 74.02 4.23 0
 1 1 -10 149.56 4.79 0
 1 1 -8 73.53 3.12 0
 1 1 -7 162.96 3.95 0
 1 1 -6 373.18 5.46 0
 1 1 -5 2367.62 12.21 0
 1 1 -4 640.15 5.67 0
 1 1 -3 9630.71 18.24 0
 1 2 -19 52.46 5.42 0
 1 2 -18 28.86 4.26 0
 1 2 -16 15.96 3.09 0
 1 2 -12 1.12 1.46 0
 1 2 -11 246.89 6.51 0
 1 2 -8 99.37 3.47 0
 1 2 -7 341.71 5.75 0
 1 2 -4 1709.5 9.33 0
 1 2 -3 477.18 4.23 0
 1 3 -19 49.13 5.68 0
 1 3 -18 26.35 3.88 0
 1 3 -17 56.89 4.67 0
 1 3 -16 6.09 2.64 0
 1 3 -15 43.63 4.14 0
 1 3 -14 17.78 2.81 0
 1 3 -13 70.85 4.25 0
 1 3 -12 176.41 5.89 0
 1 3 -11 188.79 5.87 0
 1 3 -10 220.64 5.82 0
 1 3 -7 740.63 8.56 0
 1 3 -6 641.09 7.35 0
 1 3 -5 390.42 5.19 0
 1 3 -4 281.67 4.01 0
 1 3 -3 812.57 6.07 0
 1 4 -18 48.18 4.7 0
 1 4 -17 232.37 8.72 0
 1 4 -15 35.75 4.18 0
 1 4 -12 105.93 4.69 0
 1 4 -11 11.53 2.13 0
 1 4 -10 372.39 7.64 0
 1 4 -7 399.65 6.5 0
 1 4 -6 548.52 7.03 0
 1 5 -18 22.94 4.32 0
 1 5 -15 173.51 7.26 0
 1 5 -14 37.25 3.97 0
 1 5 -13 21.72 3.14 0
 1 5 -12 121.26 5.25 0
 1 5 -11 433.37 9.04 0
 1 5 -10 23.78 2.52 0
 1 5 -7 517.59 7.67 0
 2 -10 -15 16.53 3.97 0
 2 -9 -15 43.5 4.62 0
 2 -8 -16 129.31 7.45 0
 2 -8 -15 15.39 3.71 0
 2 -7 -17 60.26 5.68 0
 2 -7 -16 44.04 4.89 0
 2 -7 -15 65.65 5.63 0
 2 -7 -14 3.03 2.67 0
 2 -6 -17 32.67 4.55 0
 2 -6 -15 11.93 3.54 0
 2 -6 -14 79.54 5.27 0
 2 -5 -18 57.91 5.64 0
 2 -5 -17 1.3 2.84 0
 2 -5 -16 19.81 3.58 0
 2 -5 -15 101.03 5.84 0
 2 -5 -14 146.76 7.02 0
 2 -5 -13 26.6 3.28 0
 2 -4 -18 45.36 4.68 0
 2 -4 -17 48.5 4.59 0
 2 -4 -16 53.75 4.85 0
 2 -4 -15 227.42 8.54 0
 2 -4 -14 148.94 6.76 0
 2 -4 -13 1.63 2.01 0
 2 -4 -12 337.19 9.03 0
 2 -3 -18 42.97 5.22 0
 2 -3 -17 10.68 3.23 0
 2 -3 -16 5.03 2.48 0
 2 -3 -15 61.59 4.75 0
 2 -3 -14 38.11 3.85 0
 2 -3 -13 251.71 8 0
 2 -3 -12 346.52 8.75 0
 2 -2 -19 36.18 5.07 0
 2 -2 -17 53.13 4.81 0
 2 -2 -16 23.86 3.54 0
 2 -2 -15 59.57 4.53 0
 2 -2 -14 43.76 3.84 0
 2 -2 -13 37.78 3.52 0
 2 -2 -12 47.49 3.47 0
 2 -2 -11 82.09 4.22 0
 2 -2 -10 315.14 7.4 0
 2 -1 -19 46.12 5.53 0
 2 -1 -18 24.59 3.81 0
 2 -1 -17 158.73 7.4 0
 2 -1 -16 3.72 2.35 0
 2 -1 -15 56.57 4.38 0
 2 -1 -12 115.09 4.98 0
 2 -1 -11 21 2.46 0
 2 -1 -10 529.77 9.3 0
 2 0 -19 43.55 5.03 0
 2 0 -18 30.35 4.35 0
 2 0 -17 15.69 3.32 0
 2 0 -16 -0.56 2.04 0
 2 0 -15 60.16 4.67 0
 2 0 -14 65.66 4.21 0
 2 0 -13 19.77 2.98 0
 2 0 -12 225.09 6.58 0
 2 0 -11 0.4 1.67 0
 2 0 -10 52.72 3.06 0
 2 0 -8 1.88 1.11 0
 2 0 -7 412.64 6.64 0
 2 0 1 3364.43 9.54 0
 2 1 -19 43.04 5.23 0
 2 1 -18 23.25 3.99 0
 2 1 -17 166.83 7.31 0
 2 1 -16 1.91 2.21 0
 2 1 -15 59.29 4.32 0
 2 1 -14 143.81 5.94 0
 2 1 -13 36.53 3.28 0
 2 1 -12 119.92 5.01 0
 2 1 -11 18.13 2.26 0
 2 1 -10 502.8 8.56 0
 2 1 -7 335.45 5.66 0
 2 1 -6 477.46 6.14 0
 2 1 -5 523.82 5.89 0
 2 1 -4 364.15 4.35 0
 2 2 -19 39.95 5 0
 2 2 -18 283.74 9.71 0
 2 2 -17 50.87 4.76 0
 2 2 -16 23.48 3.69 0
 2 2 -15 53.79 4.31 0
 2 2 -14 41.77 3.66 0
 2 2 -13 39.04 3.53 0
 2 2 -12 40.02 3.15 0
 2 2 -11 76.8 3.88 0
 2 2 -10 327.4 6.94 0
 2 2 -6 38.62 1.92 0
 2 2 -5 123.07 2.82 0
 2 2 -4 1025.39 6.89 0
 2 3 -19 33.91 4.56 0
 2 3 -18 51.23 5.23 0
 2 3 -17 17.13 3.25 0
 2 3 -16 9.66 2.86 0
 2 3 -15 65.77 4.46 0
 2 3 -14 45.36 3.86 0
 2 3 -13 261.47 7.49 0
 2 3 -12 352.32 8.06 0
 2 3 -11 159.74 5.25 0
 2 3 -10 85.89 3.87 0
 2 3 -8 10.29 1.55 0
 2 3 -7 639.38 7.73 0
 2 3 -6 197.96 3.95 0
 2 3 -5 338.31 4.6 0
 2 3 -4 1775.72 9.11 0
 2 4 -16 53.88 4.71 0
 2 4 -15 206.87 7.39 0
 2 4 -14 151.35 6.08 0
 2 4 -13 3.51 2 0
 2 4 -12 338.94 7.96 0
 2 4 -11 11.03 1.98 0
 2 4 -10 94.23 3.94 0
 2 4 -7 113.52 3.39 0
 2 4 -6 262.41 4.61 0
 2 5 -18 44.51 4.51 0
 2 5 -17 5.25 2.7 0
 2 5 -16 24.18 3.85 0
 2 5 -15 105.61 5.73 0
 2 5 -14 145.6 6.05 0
 2 5 -13 22.15 3.01 0
 2 5 -12 32.74 3.14 0
 2 5 -11 189.77 5.89 0
 2 5 -10 323.75 7.04 0
 2 5 -7 502.86 7.27 0
 2 6 -14 80.33 4.89 0
 2 6 -12 6.56 2.05 0
 3 -8 -16 -0.11 2.85 0
 3 -8 -15 80.05 5.9 0
 3 -7 -16 15.21 3.68 0
 3 -7 -15 55.8 5.49 0
 3 -6 -17 4.86 3.01 0
 3 -6 -16 90.38 6.21 0
 3 -6 -15 126.49 7.07 0
 3 -6 -14 108.63 6.26 0
 3 -5 -15 44.27 4.52 0
 3 -5 -14 4.37 2.48 0
 3 -4 -18 6.43 2.82 0
 3 -4 -17 82.34 5.64 0
 3 -4 -16 24.08 4.03 0
 3 -4 -14 20.05 3.24 0
 3 -4 -13 74.21 5.02 0
 3 -3 -17 40.37 4.87 0
 3 -3 -16 30.72 4.19 0
 3 -3 -15 245.9 8.6 0
 3 -3 -14 17.59 3.12 0
 3 -3 -13 37.79 3.53 0
 3 -2 -18 28.27 4.22 0
 3 -2 -17 4.13 2.65 0
 3 -2 -16 49.58 4.36 0
 3 -2 -15 45.73 4.06 0
 3 -2 -14 10.64 2.52 0
 3 -2 -13 96.88 4.97 0
 3 -2 -12 79.4 4.67 0
 3 -2 -11 175.24 5.98 0
 3 -1 -18 6.34 2.77 0
 3 -1 -17 18.3 3.73 0
 3 -1 -16 43.05 4.35 0
 3 -1 -15 376.79 9.82 0
 3 -1 -14 67.65 4.43 0
 3 -1 -13 16.32 2.73 0
 3 -1 -12 90.03 4.74 0
 3 -1 -11 153.89 5.49 0
 3 -1 -10 92.78 4.1 0
 3 -1 -9 9.82 1.79 0
 3 0 -18 16.09 3.36 0
 3 0 -17 -0.47 2.31 0
 3 0 -16 12.63 2.94 0
 3 0 -15 -1.22 1.9 0
 3 0 -14 107.36 5.24 0
 3 0 -13 37.14 3.48 0
 3 0 -12 152.59 5.58 0
 3 0 -7 114.63 3.6 0
 3 1 -18 7.39 2.83 0
 3 1 -17 16.25 3.46 0
 3 1 -16 44.57 4.33 0
 3 1 -15 383.23 9.81 0
 3 1 -14 63.94 4.16 0
 3 1 -13 15.13 2.51 0
 3 1 -12 86.59 4.36 0
 3 1 -11 163.33 5.38 0
 3 1 -10 89.36 3.7 0
 3 1 -8 243.12 5.31 0
 3 1 -7 1445.21 11.68 0
 3 1 -6 633.5 7.17 0
 3 1 -5 425.96 5.36 0
 3 1 0 225.95 2.09 0
 3 2 -18 25.16 3.86 0
 3 2 -17 2.59 2.34 0
 3 2 -16 53.45 4.37 0
 3 2 -15 50.32 4.14 0
 3 2 -14 7.73 2.33 0
 3 2 -13 98.96 4.87 0
 3 2 -12 77.19 3.99 0
 3 2 -11 185.71 5.63 0
 3 2 -10 57.85 3.2 0
 3 2 -8 183.32 4.46 0
 3 2 -7 21.52 1.68 0
 3 2 -6 132.14 3.16 0
 3 2 -5 499 5.31 0
 3 2 -3 316.85 2.99 0
 3 3 -18 87.93 5.74 0
 3 3 -16 34.22 3.89 0
 3 3 -14 9.73 2.35 0
 3 3 -13 39.81 3.32 0
 3 3 -12 9.88 2.25 0
 3 3 -7 762.19 8.07 0
 3 3 -6 461.58 5.71 0
 3 3 -4 61.64 1.6 0
 3 4 -18 5.67 2.91 0
 3 4 -17 85.07 5.26 0
 3 4 -16 19.77 3.41 0
 3 4 -14 29.37 3.46 0
 3 4 -13 85.43 4.48 0
 3 4 -12 40.17 3.34 0
 3 4 -11 93.98 3.99 0
 3 4 -8 247.74 5.2 0
 3 4 -7 602.09 7.17 0
 3 4 -6 32.03 1.71 0
 3 5 -18 25.62 4.16 0
 3 5 -17 13.93 2.91 0
 3 5 -16 35.42 3.91 0
 3 5 -15 46.77 3.95 0
 3 5 -14 8.89 2.61 0
 3 5 -13 83.38 4.36 0
 3 5 -12 142.75 5.33 0
 3 5 -11 32.18 2.71 0
 3 5 -10 3.14 1.41 0
 3 5 -8 228.6 5.02 0
 4 -8 -15 14.65 3.62 0
 4 -7 -15 62.19 5.67 0
 4 -6 -16 76.46 6.07 0
 4 -5 -16 12.27 3.18 0
 4 -5 -15 1.89 2.71 0
 4 -5 -14 24.81 3.57 0
 4 -4 -17 28.86 4.16 0
 4 -4 -16 6.84 3.28 0
 4 -4 -15 12.56 3.06 0
 4 -4 -14 35.76 4.22 0
 4 -4 -13 60.24 4.68 0
 4 -3 -17 20.7 3.58 0
 4 -3 -16 19.88 3.65 0
 4 -3 -15 74.91 5.34 0
 4 -3 -14 61.9 4.62 0
 4 -3 -13 43.64 4.03 0
 4 -3 -12 36.98 3.5 0
 4 -2 -18 147.78 7.2 0
 4 -2 -17 70.79 5.14 0
 4 -2 -16 10.17 2.73 0
 4 -2 -15 49.82 4.15 0
 4 -2 -14 236.55 7.77 0
 4 -2 -13 118.06 5.7 0
 4 -2 -11 33 3.03 0
 4 -1 -18 15.03 3.67 0
 4 -1 -17 121 6.45 0
 4 -1 -16 54.76 4.44 0
 4 -1 -14 71.27 4.64 0
 4 -1 -12 96.81 4.79 0
 4 -1 -11 8.28 1.98 0
 4 -1 -10 46.76 3.39 0
 4 -1 -9 168.94 5.16 0
 4 0 -18 95.19 6.03 0
 4 0 -17 43.23 4.37 0
 4 0 -16 21.38 3.35 0
 4 0 -14 117.47 5.41 0
 4 0 -13 -0.64 1.61 0
 4 0 -12 -0.49 1.48 0
 4 0 -11 32.43 2.75 0
 4 0 -9 3.98 1.37 0
 4 0 -7 158.82 4.35 0
 4 1 -18 17.43 3.57 0
 4 1 -17 125.42 6.36 0
 4 1 -16 54.42 4.22 0
 4 1 -15 1.94 2.29 0
 4 1 -14 67.67 4.49 0
 4 1 -13 62.16 3.85 0
 4 1 -12 97.73 4.53 0
 4 1 -11 4.88 1.7 0
 4 1 -10 45.67 2.83 0
 4 1 -7 134.17 3.68 0
 4 1 -6 526.64 6.55 0
 4 1 0 61.33 1.3 0
 4 2 -18 158.55 7.03 0
 4 2 -16 9.97 2.48 0
 4 2 -14 222.91 6.95 0
 4 2 -13 122.51 5.13 0
 4 2 -12 180.51 5.8 0
 4 2 -11 33.13 2.78 0
 4 2 -10 280.67 6.22 0
 4 2 -8 81.41 3.01 0
 4 2 -7 196.28 4.11 0
 4 2 -5 389.55 4.53 0
 4 2 -4 673.7 5.01 0
 4 2 -3 427.11 3.05 0
 4 3 -18 15.2 2.91 0
 4 3 -17 24.96 3.42 0
 4 3 -16 15.7 2.91 0
 4 3 -15 78.16 4.68 0
 4 3 -14 67.94 4.17 0
 4 3 -13 37.71 3.07 0
 4 3 -12 37.17 2.95 0
 4 3 -11 114.6 4.32 0
 4 3 -10 94.3 3.68 0
 4 3 -8 1.42 0.94 0
 4 3 -6 77.52 2.23 0
 4 3 -5 435.42 4.32 0
 4 3 -4 56.61 1.23 0
 4 4 -17 30.35 3.97 0
 4 4 -16 6.89 2.18 0
 4 4 -15 13.36 2.5 0
 4 4 -14 39.13 3.39 0
 4 4 -13 65.19 3.78 0
 4 4 -11 22.13 2.21 0
 4 4 -10 8.01 1.42 0
 4 4 -6 57.1 1.89 0
 4 5 -15 -0.76 1.27 0
 4 5 -13 22.19 2.53 0
 4 5 -12 26.89 2.43 0
 4 5 -11 114.9 4.16 0
 4 5 -10 9.9 1.52 0
 5 -6 -15 10.14 3.02 0
 5 -5 -15 53.94 5.18 0
 5 -5 -14 29.13 3.88 0
 5 -5 -13 5.39 2.66 0
 5 -4 -15 85.19 5.71 0
 5 -4 -14 45.54 4.46 0
 5 -4 -13 22.5 3.33 0
 5 -3 -16 67.94 5.14 0
 5 -3 -15 29.13 3.98 0
 5 -3 -14 34.17 4.09 0
 5 -3 -13 67.42 4.74 0
 5 -3 -12 60.49 4.36 0
 5 -2 -17 147.69 7.06 0
 5 -2 -16 4.85 2.54 0
 5 -2 -15 17 3.14 0
 5 -2 -14 30.14 3.71 0
 5 -2 -13 -1.71 1.56 0
 5 -2 -12 58.47 4.25 0
 5 -2 -11 4.15 1.75 0
 5 -2 -10 1.29 1.66 0
 5 -1 -17 26.2 3.79 0
 5 -1 -16 22.43 3.49 0
 5 -1 -15 15.59 3.05 0
 5 -1 -14 2.35 2.28 0
 5 -1 -13 36.93 3.51 0
 5 -1 -12 188.76 6.3 0
 5 -1 -11 129.56 5.16 0
 5 -1 -10 54.83 3.34 0
 5 -1 -9 4.54 1.52 0
 5 0 -17 119.3 6.17 0
 5 0 -16 23.62 3.31 0
 5 0 -15 160.25 6.46 0
 5 0 -14 59.29 4.2 0
 5 0 -13 22.79 2.76 0
 5 0 -12 6.76 1.88 0
 5 0 -10 15.2 2.18 0
 5 0 -9 402.26 7.52 0
 5 1 -16 22.76 3.07 0
 5 1 -15 19.54 3.01 0
 5 1 -14 1.02 1.5 0
 5 1 -13 43.91 3.22 0
 5 1 -12 192.7 5.9 0
 5 1 -11 126.54 4.63 0
 5 1 -10 59.79 3.07 0
 5 1 -9 5.5 1.29 0
 5 1 -5 15.06 1.16 0
 5 1 -4 7.44 0.91 0
 5 1 -1 16.34 0.74 0
 5 1 0 14.88 0.74 0
 5 2 -13 -1.05 1.12 0
 5 2 -10 -0.03 0.81 0
 6 -5 -14 16.51 3.26 0
 6 -5 -13 37.71 4.62 0
 6 -4 -15 3.04 2.37 0
 6 -4 -14 27.26 3.58 0
 6 -4 -13 1.66 2.4 0
 6 -4 -12 1.06 1.8 0
 6 -3 -15 2.29 2 0
 6 -3 -14 24.86 3.54 0
 6 -3 -13 20.66 3.02 0
 6 -3 -12 72.1 4.67 0
 6 -2 -14 44.41 3.82 0
 6 -2 -13 388.65 9.3 0
 6 -2 -12 8.12 2.05 0
 6 -2 -11 64.67 3.93 0
 6 -2 -10 22.93 2.75 0
 6 -1 -9 -1.2 0.88 0
 -5 10 7 1.75 2 0
 -5 11 6 11.29 2.98 0
 -5 12 5 5.22 2.89 0
 -5 12 6 14.24 3.26 0
 -5 13 4 21.83 4.35 0
 -5 13 5 25.53 4.36 0
 -5 13 6 49.95 5.16 0
 -5 14 1 101.75 7.99 0
 -5 14 2 -1.87 2.76 0
 -5 14 3 99.48 7.22 0
 -5 14 4 48.16 6.1 0
 -5 14 5 59.17 5.77 0
 -4 8 8 4.96 1.74 0
 -4 9 7 71.85 4.54 0
 -4 9 8 213.35 6.7 0
 -4 10 6 148.01 6.61 0
 -4 10 7 55.32 4.45 0
 -4 11 5 6.09 3.08 0
 -4 11 6 69.99 5.07 0
 -4 11 7 54.74 4.44 0
 -4 12 4 14.94 4.02 0
 -4 12 5 3.71 2.99 0
 -4 12 6 167.87 7.79 0
 -4 12 7 91.1 5.94 0
 -4 13 2 41.3 5.45 0
 -4 13 3 20.4 4.09 0
 -4 13 4 32.63 4.97 0
 -4 13 5 60.67 5.65 0
 -4 13 6 51.89 5.57 0
 -4 13 7 -0.3 2.1 0
 -4 14 -1 19.04 4.93 0
 -4 14 0 33.79 5.42 0
 -4 14 1 16.52 4.24 0
 -4 14 4 138.83 8.14 0
 -4 14 5 61 5.85 0
 -4 15 2 14.04 4.51 0
 -4 15 3 85.12 7.27 0
 -3 0 8 217.21 2.55 0
 -3 1 8 244.79 2.34 0
 -3 2 8 178.9 2.41 0
 -3 4 9 33.52 1.3 0
 -3 5 9 163.29 3.45 0
 -3 6 8 49.83 2.66 0
 -3 6 9 111.91 3.4 0
 -3 7 8 26.18 2.49 0
 -3 7 9 121.08 4 0
 -3 8 7 6.24 1.76 0
 -3 9 6 105.75 5.23 0
 -3 9 8 21.33 2.76 0
 -3 9 9 24.77 2.81 0
 -3 10 5 85.03 5.01 0
 -3 10 6 49 3.97 0
 -3 10 7 13.5 2.76 0
 -3 10 8 54.7 4.05 0
 -3 10 9 47.93 3.58 0
 -3 11 -14 90.51 6.78 0
 -3 11 3 14.62 3.21 0
 -3 11 4 13.07 3.26 0
 -3 11 5 48.22 4.66 0
 -3 11 6 72.49 5.15 0
 -3 11 7 48.53 4.36 0
 -3 11 8 74.05 4.84 0
 -3 12 2 90.85 6.49 0
 -3 12 3 40.84 4.81 0
 -3 12 4 157.44 7.74 0
 -3 12 6 1.98 2.58 0
 -3 12 7 94.2 5.84 0
 -3 12 8 2.25 2.24 0
 -3 13 -10 18.04 4.6 0
 -3 13 -1 105.93 7.36 0
 -3 13 1 113.65 7.54 0
 -3 13 2 90.25 6.59 0
 -3 13 3 2.31 2.92 0
 -3 13 4 35.98 5.03 0
 -3 13 6 23.84 4.29 0
 -3 14 -8 6.91 3.86 0
 -3 14 -7 28.19 5.32 0
 -3 14 -6 49.75 6.24 0
 -3 14 -5 32.61 5.14 0
 -3 14 -3 48.04 6 0
 -3 14 -2 124.19 8.32 0
 -3 14 -1 4.17 3.67 0
 -3 14 0 2.95 3.28 0
 -3 14 1 5.88 3.35 0
 -3 14 2 122.29 7.9 0
 -3 14 3 36.39 5 0
 -3 14 4 11.46 3.64 0
 -3 14 5 29.93 4.56 0
 -3 14 6 51.2 5.47 0
 -3 14 7 26.85 4.18 0
 -3 15 -4 13.05 4.5 0
 -3 15 -3 29.69 5.76 0
 -3 15 -2 -0.06 3.54 0
 -3 15 -1 22.17 4.64 0
 -3 15 0 43.63 6.22 0
 -3 15 1 28.45 5.3 0
 -3 15 2 0.55 3.02 0
 -3 15 4 11.8 4.03 0
 -3 15 5 10.9 3.81 0
 -3 15 6 23.02 4.35 0
 -2 0 6 814.91 4.5 0
 -2 3 8 9.19 0.59 0
 -2 4 7 110.78 2.77 0
 -2 4 8 223.6 3.43 0
 -2 4 9 0.19 0.35 0
 -2 5 7 477.15 6.55 0
 -2 5 8 296.98 4.87 0
 -2 5 9 33.78 1.63 0
 -2 6 6 463.86 7.62 0
 -2 6 7 50.77 2.76 0
 -2 6 8 40.1 2.29 0
 -2 6 9 113.93 3.36 0
 -2 6 10 64.13 2.32 0
 -2 7 6 40.13 2.76 0
 -2 7 7 212.87 5.61 0
 -2 7 8 198 5.22 0
 -2 7 9 148.21 4.36 0
 -2 7 10 4.4 1.22 0
 -2 8 10 91.91 3.73 0
 -2 9 4 59.21 4.25 0
 -2 9 5 554.52 11.01 0
 -2 9 6 125.04 5.45 0
 -2 9 7 36.8 3.27 0
 -2 9 8 56.86 3.78 0
 -2 9 9 89.99 4.25 0
 -2 10 -14 16.8 3.28 0
 -2 10 -13 12.49 3.57 0
 -2 10 2 251.06 8.37 0
 -2 10 4 31.65 3.91 0
 -2 10 6 249.07 7.8 0
 -2 10 7 12.1 2.69 0
 -2 10 8 3.23 1.86 0
 -2 10 9 74.46 4.31 0
 -2 11 -14 6.75 2.93 0
 -2 11 -13 13.43 3.42 0
 -2 11 -12 80.16 6 0
 -2 11 -11 27.84 4.31 0
 -2 11 1 97.33 5.92 0
 -2 11 2 40.18 4.49 0
 -2 11 3 76.68 5.28 0
 -2 11 4 20.39 3.31 0
 -2 11 5 105.8 5.76 0
 -2 11 6 60.47 4.85 0
 -2 11 7 6.31 2.68 0
 -2 12 -13 20.54 3.89 0
 -2 12 -11 10.35 3.57 0
 -2 12 -9 55.23 6.32 0
 -2 12 -8 20.31 4.55 0
 -2 12 -7 44.7 5.37 0
 -2 12 -4 55.12 5.31 0
 -2 12 -3 14.71 4.13 0
 -2 12 -2 166.19 8.22 0
 -2 12 -1 97.03 6.53 0
 -2 12 0 15.81 3.64 0
 -2 12 1 93.95 6.22 0
 -2 12 3 18.65 3.89 0
 -2 12 4 51.52 4.66 0
 -2 12 6 105.32 6.14 0
 -2 12 7 46.56 4.31 0
 -2 12 8 19.89 3.29 0
 -2 12 9 57.71 4.51 0
 -2 13 -12 97.26 7.42 0
 -2 13 -11 75.43 6.55 0
 -2 13 -10 181.35 9.2 0
 -2 13 -9 29.5 4.78 0
 -2 13 -8 92.79 7.04 0
 -2 13 -7 93.7 7.36 0
 -2 13 -6 24.5 4.87 0
 -2 13 -5 49.9 6.23 0
 -2 13 -4 49.66 5.83 0
 -2 13 -3 57.52 5.51 0
 -2 13 -2 32.72 4.66 0
 -2 13 -1 0.93 2.94 0
 -2 13 0 58.35 5.56 0
 -2 13 1 3.69 3.23 0
 -2 13 2 27.26 4.56 0
 -2 13 6 13.85 3.41 0
 -2 13 7 96.2 6.34 0
 -2 13 8 89.9 5.9 0
 -2 14 -9 21.38 4.9 0
 -2 14 -8 56.66 6.9 0
 -2 14 -6 11.27 3.8 0
 -2 14 -5 55.04 5.96 0
 -2 14 -3 115 7.89 0
 -2 14 -2 90.5 7.31 0
 -2 14 -1 2.82 3.13 0
 -2 14 0 -0.49 3 0
 -2 14 1 1.17 2.84 0
 -2 14 2 96.37 7.1 0
 -2 14 3 117.34 7.71 0
 -2 14 4 19.51 3.99 0
 -2 14 5 48.56 5.99 0
 -2 14 6 12.65 3.69 0
 -2 14 7 24.6 4.16 0
 -2 14 8 59.97 5.39 0
 -2 15 -6 172.52 9.92 0
 -2 15 -4 43.72 6.37 0
 -2 15 -3 34.84 5.43 0
 -2 15 -1 46.82 6.24 0
 -2 15 0 95.17 7.41 0
 -2 15 1 43.48 5.89 0
 -2 15 2 65.53 6.42 0
 -2 15 3 42.15 5.57 0
 -2 15 4 52.04 5.83 0
 -2 15 5 58.26 6.5 0
 -2 15 6 189.64 9.17 0
 -2 15 7 35.19 4.96 0
 -2 16 -1 110.09 8.02 0
 -2 16 0 6.05 3.91 0
 -2 16 1 123.69 8.93 0
 -2 16 2 -1.25 3.06 0
 -2 16 3 16.06 4.39 0
 -2 16 4 23.44 4.75 0
 -1 -1 0 1615.55 7.93 0
 -1 -1 1 1034.32 6.05 0
 -1 -1 2 195.2 2.54 0
 -1 -1 3 9739.84 16.83 0
 -1 2 5 123.15 1.89 0
 -1 2 6 931.75 4.26 0
 -1 3 5 392.39 4.43 0
 -1 3 6 607.65 5.22 0
 -1 3 7 737.08 5.33 0
 -1 4 4 68.97 2.5 0
 -1 4 5 108.81 2.94 0
 -1 4 6 558.61 6.24 0
 -1 4 7 384.54 4.96 0
 -1 4 8 1022.21 7.59 0
 -1 5 4 193.39 4.59 0
 -1 5 5 86.58 3.06 0
 -1 5 6 49.92 2.4 0
 -1 5 7 526.36 6.88 0
 -1 5 8 332.06 5.34 0
 -1 5 9 262.55 4.45 0
 -1 6 3 19.55 2.1 0
 -1 6 4 207.58 5.31 0
 -1 6 5 69.49 3.1 0
 -1 6 7 91.67 3.5 0
 -1 6 9 168.23 4.26 0
 -1 7 4 792.32 11.01 0
 -1 7 5 510.13 8.83 0
 -1 7 6 33.28 2.59 0
 -1 7 7 93.96 3.82 0
 -1 7 8 97.04 3.83 0
 -1 7 9 52.38 2.98 0
 -1 8 -13 34.54 3.58 0
 -1 8 -12 69.91 4.62 0
 -1 9 -13 26.09 3.7 0
 -1 9 -12 14.53 2.92 0
 -1 9 -11 8.62 2.51 0
 -1 9 0 933.3 14.58 0
 -1 9 1 331.43 8.74 0
 -1 9 2 59.64 4.27 0
 -1 9 4 306.53 8.23 0
 -1 9 5 227.08 7.05 0
 -1 9 7 25.55 2.84 0
 -1 9 8 81.17 4.35 0
 -1 9 9 268.09 7.15 0
 -1 9 10 5.52 1.78 0
 -1 10 -13 51.6 5.06 0
 -1 10 -12 34.75 4.25 0
 -1 10 -11 166.28 7.58 0
 -1 10 -10 93.14 6.04 0
 -1 10 -9 79.59 5.79 0
 -1 10 -8 7.97 3.13 0
 -1 10 -7 2.77 2.31 0
 -1 10 -4 120.82 6.1 0
 -1 10 -3 526.66 12.21 0
 -1 10 -1 180.68 7.31 0
 -1 10 0 2.61 2.09 0
 -1 10 2 274.41 8.49 0
 -1 10 3 534.91 11.52 0
 -1 10 4 119.41 5.68 0
 -1 10 6 133.15 5.86 0
 -1 10 7 4.77 2.04 0
 -1 10 8 9.07 2.28 0
 -1 10 9 79.26 4.5 0
 -1 10 10 85.21 4.5 0
 -1 11 -12 3.17 2.49 0
 -1 11 -11 17.25 3.83 0
 -1 11 -10 148.06 7.44 0
 -1 11 -9 12.35 3.3 0
 -1 11 -8 41.24 4.74 0
 -1 11 -7 41.81 5.06 0
 -1 11 -6 81.69 5.73 0
 -1 11 -4 121.8 6.82 0
 -1 11 -3 23.8 3.77 0
 -1 11 -2 79.36 5.61 0
 -1 11 -1 5.82 2.39 0
 -1 11 0 1.89 2.24 0
 -1 11 1 5.42 2.42 0
 -1 11 2 80.05 5.14 0
 -1 11 3 30.72 4 0
 -1 11 5 88.95 5.53 0
 -1 11 6 87.58 5.5 0
 -1 11 7 37.19 4.03 0
 -1 11 8 41.9 3.83 0
 -1 11 9 9.3 2.49 0
 -1 11 10 153.11 6.29 0
 -1 12 -13 126.33 7.07 0
 -1 12 -12 70.68 5.76 0
 -1 12 -11 32.58 4.83 0
 -1 12 -10 22.8 4.08 0
 -1 12 -7 69.31 6.03 0
 -1 12 -6 9.22 3.33 0
 -1 12 -5 10.5 3.43 0
 -1 12 -4 38.58 4.88 0
 -1 12 -3 17.74 3.59 0
 -1 12 -2 53.79 4.9 0
 -1 12 -1 8.12 2.9 0
 -1 12 0 147.98 7.49 0
 -1 12 1 3.22 2.49 0
 -1 12 2 53.64 4.76 0
 -1 12 3 10.51 2.99 0
 -1 12 4 46.07 4.94 0
 -1 12 5 9.21 3.17 0
 -1 12 6 11.79 3.25 0
 -1 12 7 69.08 5.31 0
 -1 12 8 44.38 4.5 0
 -1 12 9 49.86 4.48 0
 -1 13 -11 13.46 3.93 0
 -1 13 -10 24.26 4.37 0
 -1 13 -9 71.56 6.16 0
 -1 13 -8 120 7.68 0
 -1 13 -7 20.27 4.07 0
 -1 13 -6 2.16 3.33 0
 -1 13 -5 149.44 8.43 0
 -1 13 -4 88.68 6.74 0
 -1 13 -2 84.82 6.21 0
 -1 13 -1 131.75 7.47 0
 -1 13 0 26.49 4.31 0
 -1 13 1 130.99 7.44 0
 -1 13 2 76.16 6.32 0
 -1 13 3 26.01 4.56 0
 -1 13 6 5.92 2.87 0
 -1 13 7 14.59 3.32 0
 -1 13 8 121.31 6.73 0
 -1 13 9 74.24 5.29 0
 -1 14 -10 48.16 6 0
 -1 14 -9 77.6 6.61 0
 -1 14 -8 69.9 6.73 0
 -1 14 -7 10.6 3.88 0
 -1 14 -6 50 6.26 0
 -1 14 -1 38.14 5.24 0
 -1 14 0 3.15 3.09 0
 -1 14 2 5.82 3.32 0
 -1 14 3 129.21 7.82 0
 -1 14 5 9.62 3.38 0
 -1 14 6 48.37 5.36 0
 -1 14 7 9.77 3.17 0
 -1 14 8 75.11 6.09 0
 -1 14 9 80.37 6.15 0
 -1 15 -8 15.49 4.67 0
 -1 15 -7 28.82 5.29 0
 -1 15 -6 93.08 7.71 0
 -1 15 -5 41.67 5.87 0
 -1 15 -4 41.58 5.71 0
 -1 15 -3 8.68 4.19 0
 -1 15 -2 35.15 5.35 0
 -1 15 -1 73.62 6.59 0
 -1 15 0 4.71 3.4 0
 -1 15 1 68.98 6.97 0
 -1 15 2 43.92 5.66 0
 -1 15 3 11.73 3.93 0
 -1 15 4 47.25 5.63 0
 -1 15 6 82.26 6.67 0
 -1 15 7 31.33 5.17 0
 -1 16 -3 16.46 4.77 0
 -1 16 -2 7.46 3.76 0
 -1 16 -1 147.64 9.01 0
 -1 16 1 134.95 8.93 0
 -1 16 2 9.96 3.8 0
 -1 16 3 15.91 4.6 0
 -1 16 4 1.09 3.32 0
 -1 16 5 -0.92 2.69 0
 0 -2 -4 1406.93 7.33 0
 0 -2 -2 425.84 4.14 0
 0 -1 -10 15.41 0.64 0
 0 -1 -9 46.11 1.18 0
 0 -1 -8 15.82 0.8 0
 0 -1 -7 218.02 2.61 0
 0 -1 -6 284.08 2.93 0
 0 -1 -5 2256.05 7.76 0
 0 -1 -4 26.43 0.91 0
 0 -1 -3 12.87 0.68 0
 0 -1 -2 635.42 3.54 0
 0 -1 -1 772.01 3.92 0
 0 0 -10 208.1 2.36 0
 0 0 -9 2.02 0.43 0
 0 0 -8 4713.3 12.3 0
 0 1 3 12.13 0.67 0
 0 2 1 514.09 4.58 0
 0 2 2 412.28 4.01 0
 0 2 3 950.85 6.03 0
 0 2 4 1422.99 7.56 0
 0 2 5 256.99 3.24 0
 0 3 1 1194.68 8.55 0
 0 3 2 662.58 6.28 0
 0 3 3 2743.25 12.73 0
 0 3 4 1217.85 8.49 0
 0 3 5 1659.65 10.02 0
 0 3 6 55.96 2.02 0
 0 4 0 372.98 5.77 0
 0 4 1 289.08 5.15 0
 0 4 2 664.97 7.42 0
 0 4 3 383.5 5.63 0
 0 4 4 719.18 7.65 0
 0 4 5 447.17 6.08 0
 0 4 6 33.2 1.9 0
 0 4 7 0.51 0.79 0
 0 5 -11 698.38 9.78 0
 0 5 0 2.08 1.22 0
 0 5 1 761.3 9.12 0
 0 5 3 186.25 4.5 0
 0 5 4 86.01 3.24 0
 0 5 5 1341.04 11.79 0
 0 5 6 1523.35 12.53 0
 0 5 7 33.49 2.13 0
 0 5 8 115.12 3.52 0
 0 6 -2 72.6 3.38 0
 0 6 -1 1006.91 11.79 0
 0 6 0 7.8 1.73 0
 0 6 1 1012.47 11.64 0
 0 6 2 67.6 3.14 0
 0 6 3 234.02 5.58 0
 0 6 4 92.9 3.72 0
 0 6 5 -0.24 1.08 0
 0 6 6 673.21 9.33 0
 0 6 7 415.57 7.33 0
 0 6 8 132.01 4.26 0
 0 6 9 -0.27 1.12 0
 0 7 -12 3.98 1.68 0
 0 7 -11 4.85 2.01 0
 0 7 -10 332.05 8.16 0
 0 7 -9 15.55 2.5 0
 0 7 0 -0.26 1.45 0
 0 7 2 2.09 1.29 0
 0 7 4 95.92 4.28 0
 0 7 5 127.26 4.61 0
 0 7 6 286.93 6.73 0
 0 7 7 316.2 7.13 0
 0 7 8 295.86 6.88 0
 0 7 9 17.54 2.22 0
 0 7 10 331.89 6.76 0
 0 8 -12 3.45 1.72 0
 0 8 -11 55.57 4.01 0
 0 8 -10 15.53 2.73 0
 0 8 -9 -0.48 1.78 0
 0 8 -8 114.26 5.36 0
 0 8 -7 20.1 3.15 0
 0 8 -6 413.38 9.45 0
 0 8 -5 520.49 10.55 0
 0 8 -4 168.05 6.17 0
 0 8 -3 433.5 9.43 0
 0 9 -12 22.27 3.14 0
 0 9 -11 21.03 3.08 0
 0 9 -10 33.65 3.91 0
 0 9 -8 5.83 2.27 0
 0 9 -7 29.34 3.63 0
 0 9 -6 670.29 12.85 0
 0 9 -5 61.83 4.26 0
 0 9 -4 68.66 4.44 0
 0 9 -3 236.07 7.57 0
 0 9 -2 31.63 3.21 0
 0 9 -1 60.06 4.05 0
 0 9 0 0.49 1.57 0
 0 9 1 67.84 4.29 0
 0 9 2 31.04 3.53 0
 0 9 3 233.81 7.25 0
 0 9 4 78 4.59 0
 0 9 5 63.72 4.06 0
 0 9 6 658.31 11.8 0
 0 9 7 27.95 3.08 0
 0 9 8 6.35 2.2 0
 0 9 10 33.53 3.12 0
 0 9 11 19.38 2.58 0
 0 10 -12 -0.46 1.93 0
 0 10 -11 0.09 2.15 0
 0 10 -10 5.24 2.61 0
 0 10 -9 121.77 6.55 0
 0 10 -8 1.22 2.39 0
 0 10 -6 352.51 10.13 0
 0 10 -5 0.75 2.46 0
 0 10 -2 274.82 8.76 0
 0 10 -1 63.71 4.61 0
 0 10 0 259.79 8.26 0
 0 10 1 58.08 4.29 0
 0 10 2 273.03 8.45 0
 0 10 4 17.05 3 0
 0 10 5 0.02 1.79 0
 0 10 6 339.78 9.29 0
 0 10 8 2.6 1.98 0
 0 10 9 131.43 6.02 0
 0 10 10 8.84 2.3 0
 0 10 11 0.7 1.57 0
 0 11 -13 49.6 4.55 0
 0 11 -12 -0.89 2.26 0
 0 11 -9 117.44 6.59 0
 0 11 -8 9.36 2.86 0
 0 11 -7 88.2 6.01 0
 0 11 -6 23.81 3.8 0
 0 11 -5 17.7 3.38 0
 0 11 -4 0.9 2.28 0
 0 11 -3 13.34 2.91 0
 0 11 -1 79.08 5.25 0
 0 11 0 0.62 2.21 0
 0 11 1 82.41 5.18 0
 0 11 4 1.27 2.13 0
 0 11 5 12.31 2.99 0
 0 11 7 95.94 5.54 0
 0 11 8 8.31 2.62 0
 0 11 9 118.45 6.17 0
 0 11 10 120.7 6.05 0
 0 12 -12 0.7 2.47 0
 0 12 -11 6.8 2.83 0
 0 12 -10 3.31 3.26 0
 0 12 -9 107.84 7.1 0
 0 12 -8 44.14 5.51 0
 0 12 -7 655.84 15.12 0
 0 12 -6 8.23 3.08 0
 0 12 -4 -0.66 2.18 0
 0 12 -3 13.24 3.71 0
 0 12 -1 351.68 11.11 0
 0 12 0 3.92 2.47 0
 0 12 1 342.19 10.8 0
 0 12 2 82.8 5.64 0
 0 12 3 10.89 3.28 0
 0 12 5 6.94 3.15 0
 0 12 6 4.96 2.68 0
 0 12 7 670.86 14.37 0
 0 12 8 46.14 4.41 0
 0 12 9 99.41 5.92 0
 0 12 10 5.14 2.77 0
 0 13 -12 130.94 7.63 0
 0 13 -11 12.55 4.03 0
 0 13 -10 116.26 7.37 0
 0 13 -9 235.91 9.89 0
 0 13 -8 21.03 4.32 0
 0 13 -7 6.53 3.22 0
 0 13 -5 99.92 7.17 0
 0 13 -4 2.13 2.9 0
 0 13 -3 0.56 2.79 0
 0 13 -2 1.7 2.41 0
 0 13 0 0.98 2.49 0
 0 13 1 50.42 5.82 0
 0 13 2 4.58 3.05 0
 0 13 3 0.31 2.64 0
 0 13 4 -1.04 2.44 0
 0 13 5 95.42 6.51 0
 0 13 6 9.31 3.23 0
 0 13 7 6.23 3.12 0
 0 13 8 16.5 3.57 0
 0 13 9 247.34 9.31 0
 0 13 10 119.34 6.6 0
 0 14 -11 33.87 5.04 0
 0 14 -9 2.95 3.4 0
 0 14 -8 108.83 7.38 0
 0 14 -7 6.19 3.6 0
 0 14 -6 28.03 4.74 0
 0 14 -5 50.32 5.65 0
 0 14 -3 67.47 6.29 0
 0 14 -1 98.45 7.33 0
 0 14 0 2.72 3.55 0
 0 14 2 111.3 7.61 0
 0 14 3 60.7 6.07 0
 0 14 4 98.05 7.09 0
 0 14 6 29.74 4.55 0
 0 14 7 8.14 3.34 0
 0 14 8 111.35 7.19 0
 0 14 9 0.49 2.39 0
 0 15 -8 28.39 5.79 0
 0 15 -7 4.59 3.36 0
 0 15 -6 92.79 7.43 0
 0 15 -5 6.07 3.49 0
 0 15 -3 53.37 6.41 0
 0 15 -2 146.52 8.73 0
 0 15 -1 5 3.71 0
 0 15 0 0.39 3.09 0
 0 15 1 4.5 3.48 0
 0 15 3 58.33 6.72 0
 0 15 4 70.55 6.43 0
 0 15 5 7.36 3.55 0
 0 15 6 92.91 7.22 0
 0 15 8 28.44 4.61 0
 0 15 9 4.52 3.37 0
 0 16 -3 25.7 5.07 0
 0 16 -2 -2.23 3.17 0
 0 16 -1 2.21 3.82 0
 0 16 0 12.91 4.86 0
 0 16 1 -3.53 2.9 0
 0 16 2 -3.31 2.81 0
 0 16 3 18.11 4.58 0
 0 16 5 31.25 5.37 0
 0 16 6 17.46 4.62 0
 1 1 -2 193.99 2.64 0
 1 1 -1 1000.96 6.02 0
 1 1 0 1611.04 7.86 0
 1 2 -10 632.49 3.9 0
 1 2 -9 102.53 1.98 0
 1 2 -8 94.09 2.04 0
 1 2 -7 343.95 3.97 0
 1 2 -4 1696 9.03 0
 1 2 -3 497.39 5 0
 1 2 -2 3961.47 13.98 0
 1 2 -1 3352.28 13.08 0
 1 2 1 3346.85 13.88 0
 1 2 2 3977.26 15.47 0
 1 2 3 492.67 5.59 0
 1 3 -10 210.64 3.61 0
 1 3 -9 343.47 4.8 0
 1 3 -6 620.32 6.65 0
 1 3 -5 390.55 5.3 0
 1 3 -4 276.25 4.48 0
 1 3 -3 794.3 7.53 0
 1 3 -1 1076 8.8 0
 1 3 0 61.01 2.4 0
 1 3 1 1087.45 8.97 0
 1 3 2 382.93 5.58 0
 1 3 3 800.47 8.11 0
 1 3 4 279.65 4.93 0
 1 3 5 402.48 5.88 0
 1 4 -8 1023.58 9.89 0
 1 4 -7 387 6.11 0
 1 4 -6 558.74 7.35 0
 1 4 -5 111.09 3.37 0
 1 4 -4 69.76 2.76 0
 1 4 -3 218.4 4.65 0
 1 4 -2 1597.6 12.16 0
 1 4 -1 630.59 7.73 0
 1 4 0 706.33 8.24 0
 1 4 2 1649.16 12.68 0
 1 4 3 216.27 4.75 0
 1 4 4 73.29 3.11 0
 1 4 5 114.9 3.59 0
 1 4 6 561.37 7.8 0
 1 5 -10 23.31 1.96 0
 1 5 -9 264.08 5.75 0
 1 5 -8 324.29 6.44 0
 1 5 -7 537.19 8.19 0
 1 5 -6 49.84 2.68 0
 1 5 -5 81.84 3.28 0
 1 5 -4 186.53 4.87 0
 1 5 -2 695.04 9.02 0
 1 5 -1 99.02 3.55 0
 1 5 0 381.77 6.83 0
 1 5 1 94.94 3.5 0
 1 5 2 718.69 9.3 0
 1 5 3 1878.82 15 0
 1 5 4 187.47 4.93 0
 1 5 5 85.39 3.48 0
 1 5 6 51.96 2.86 0
 1 5 7 530.63 8.17 0
 1 6 -7 91.3 3.99 0
 1 6 -5 73.27 3.53 0
 1 6 -4 194.51 5.48 0
 1 6 -3 21.13 2.37 0
 1 6 -2 156.73 4.88 0
 1 6 1 555.23 8.98 0
 1 6 2 149.55 4.74 0
 1 6 3 23.3 2.13 0
 1 6 4 203.03 5.57 0
 1 6 5 72.53 3.62 0
 1 6 6 84.43 3.83 0
 1 6 7 97.4 4.23 0
 1 6 8 418 7.9 0
 1 7 -11 11.51 1.96 0
 1 7 -10 19.14 2.7 0
 1 8 -11 23.7 3.02 0
 1 8 -10 164.77 6.11 0
 1 8 -9 35.38 3.46 0
 1 8 -8 48.04 3.9 0
 1 8 -7 40.07 3.29 0
 1 8 -4 8 2.08 0
 1 8 -3 290.03 7.84 0
 1 8 -2 201.99 6.67 0
 1 8 -1 41.42 3.18 0
 1 8 1 41.3 3.18 0
 1 8 5 203.5 6.54 0
 1 8 6 23.95 2.97 0
 1 8 7 45.73 3.7 0
 1 8 8 43.03 3.38 0
 1 9 -12 18.32 2.77 0
 1 9 -11 10.11 2.5 0
 1 9 -10 5.2 2.37 0
 1 9 -9 258.47 8.06 0
 1 9 -8 81.45 4.81 0
 1 9 -7 21.16 3.02 0
 1 9 -6 15.94 2.7 0
 1 9 -5 224.3 7.52 0
 1 9 -2 57.49 3.98 0
 1 9 -1 343.19 9.08 0
 1 9 0 951.6 14.84 0
 1 9 1 325.3 8.84 0
 1 9 2 59.93 4.16 0
 1 9 3 475.6 10.6 0
 1 9 4 283.45 8.3 0
 1 9 5 219.76 7.47 0
 1 9 6 14.1 2.65 0
 1 9 7 23.6 3.14 0
 1 9 8 86.66 5.12 0
 1 10 -12 32.92 3.63 0
 1 10 -10 86.11 5.36 0
 1 10 -9 84.55 5.52 0
 1 10 -8 12.07 3.08 0
 1 10 -7 2.37 2.27 0
 1 10 -6 130.17 6.51 0
 1 10 -5 255.11 8.73 0
 1 10 -4 125.15 6.31 0
 1 10 -3 531.88 12.02 0
 1 10 0 -0.23 1.79 0
 1 10 1 175.4 7.15 0
 1 10 2 277.49 8.8 0
 1 10 3 522.02 11.72 0
 1 10 4 124.19 6.18 0
 1 10 5 254.46 8.5 0
 1 10 6 131.53 6.26 0
 1 10 7 5.77 2.5 0
 1 10 8 10.47 2.93 0
 1 10 9 77.56 4.92 0
 1 10 10 92.28 5.22 0
 1 11 -12 0.74 1.95 0
 1 11 -11 19.15 3.36 0
 1 11 -10 146.41 7.36 0
 1 11 -8 39.82 4.69 0
 1 11 -7 41.35 4.9 0
 1 11 -5 84.26 5.64 0
 1 11 -4 111.86 6.44 0
 1 11 -3 25.11 3.56 0
 1 11 -2 86.02 5.61 0
 1 11 -1 4.31 2.61 0
 1 11 0 0.76 1.94 0
 1 11 1 10.02 2.78 0
 1 11 3 27.35 3.78 0
 1 11 4 112.64 6.45 0
 1 11 5 90.14 5.72 0
 1 11 6 83.33 5.76 0
 1 11 7 43.34 4.82 0
 1 11 8 42.08 4.88 0
 1 11 9 7.03 2.76 0
 1 12 -12 75.71 5.63 0
 1 12 -11 23.97 3.99 0
 1 12 -10 30.68 4.39 0
 1 12 -8 45.26 4.79 0
 1 12 -7 65.87 5.82 0
 1 12 -6 11.56 3.36 0
 1 12 -5 6.75 2.98 0
 1 12 -4 43.08 5.28 0
 1 12 -3 12.68 3.14 0
 1 12 -2 53.94 5.23 0
 1 12 0 152.58 7.44 0
 1 12 1 6.71 3 0
 1 12 2 51.67 4.91 0
 1 12 3 15.85 3.42 0
 1 12 4 46.19 5.25 0
 1 12 5 9.94 3.11 0
 1 12 6 8.53 3.08 0
 1 12 7 62.79 5.28 0
 1 12 8 45.36 5.11 0
 1 12 9 48.57 5.04 0
 1 12 10 25.12 3.96 0
 1 13 -12 71.14 5.96 0
 1 13 -11 11.49 3.73 0
 1 13 -9 74.12 6.03 0
 1 13 -7 14.95 4.09 0
 1 13 -6 10.23 3.48 0
 1 13 -5 148.06 8.03 0
 1 13 -3 23.75 4.16 0
 1 13 -2 83.07 6.54 0
 1 13 0 24.49 4.67 0
 1 13 1 130.16 7.5 0
 1 13 2 80.75 6.47 0
 1 13 4 88.69 6.53 0
 1 13 5 148.31 7.93 0
 1 13 6 8.08 3.28 0
 1 13 7 16.92 3.69 0
 1 13 8 119.24 7.19 0
 1 13 9 80.26 5.97 0
 1 14 -11 61.08 6.07 0
 1 14 -10 54 5.74 0
 1 14 -9 77.87 6.47 0
 1 14 -8 79 6.86 0
 1 14 -7 12.18 4.22 0
 1 14 -6 45.87 6 0
 1 14 -5 10.33 3.72 0
 1 14 -4 13.6 4.26 0
 1 14 -3 124.73 7.8 0
 1 14 -2 10.47 3.83 0
 1 14 0 -0.75 2.88 0
 1 14 1 34.18 5.06 0
 1 14 2 11.19 3.88 0
 1 14 3 118.22 7.52 0
 1 14 4 16.72 4.09 0
 1 14 5 7.42 3.98 0
 1 14 7 11.8 3.62 0
 1 14 8 73.55 6.17 0
 1 14 9 72.18 6.19 0
 1 14 10 53.83 5.53 0
 1 15 -8 13.77 4.17 0
 1 15 -7 34.49 5.28 0
 1 15 -6 88.11 7.64 0
 1 15 -4 39.53 5.98 0
 1 15 -3 4.53 3.59 0
 1 15 -2 34.59 5.92 0
 1 15 -1 63.33 6.59 0
 1 15 0 3.28 3.62 0
 1 15 1 77.28 7.12 0
 1 15 2 32.68 5.37 0
 1 15 3 7.79 3.64 0
 1 15 4 44.84 5.89 0
 1 15 5 42.27 5.71 0
 1 15 6 83.26 7.27 0
 1 15 7 31.64 5.17 0
 1 15 8 11.36 3.79 0
 1 15 9 127.82 7.84 0
 1 16 -3 14.47 4.55 0
 1 16 -2 8.53 3.83 0
 1 16 -1 135.42 9.29 0
 1 16 1 152.18 9.3 0
 1 16 2 5.24 3.78 0
 1 16 3 24.11 5.1 0
 1 16 4 5.33 3.72 0
 2 2 -4 1041.27 8.45 0
 2 2 -2 1758.28 11.39 0
 2 2 -1 596.52 6.76 0
 2 3 -9 92.76 2.49 0
 2 3 -8 9.81 1.21 0
 2 3 -6 199.16 4.19 0
 2 3 -4 1852.17 12.82 0
 2 3 -3 410.03 6.25 0
 2 3 -2 1222.68 10.75 0
 2 3 -1 1080.49 10.28 0
 2 3 0 27.65 2.23 0
 2 3 1 1067.65 10.53 0
 2 3 2 1183.99 11 0
 2 4 -10 95.55 2.94 0
 2 4 -8 222.92 4.78 0
 2 4 -7 113.54 3.54 0
 2 4 -6 268.38 5.42 0
 2 4 -5 390.11 6.61 0
 2 4 -4 998.56 10.48 0
 2 4 -3 711.72 9.02 0
 2 4 -2 17.12 1.82 0
 2 4 -1 29.24 2.4 0
 2 4 1 25.64 2.31 0
 2 4 2 17.54 1.97 0
 2 4 3 692.33 9.5 0
 2 4 4 1046.12 11.51 0
 2 5 -9 39.19 2.52 0
 2 5 -8 298.34 6.19 0
 2 5 -7 495.14 8.06 0
 2 5 -6 23.51 2.08 0
 2 5 -5 328.94 6.72 0
 2 5 -3 291.94 6.41 0
 2 5 -1 456.65 8.09 0
 2 5 0 32.18 2.62 0
 2 5 1 478.46 8.38 0
 2 5 3 294.13 6.81 0
 2 7 -10 7.12 1.88 0
 2 7 -9 141.42 5.3 0
 2 7 5 36.85 3.32 0
 2 7 6 37.59 3.4 0
 2 8 -11 101.11 4.64 0
 2 8 -10 83.61 4.5 0
 2 8 -9 105.18 5 0
 2 8 -7 254.08 7.64 0
 2 8 -6 173.39 6.26 0
 2 8 -1 478.32 10.22 0
 2 8 0 7.12 2.32 0
 2 8 1 464.4 10.27 0
 2 8 3 136.82 5.8 0
 2 8 5 117.81 5.52 0
 2 8 6 177.55 6.73 0
 2 8 7 251.81 7.74 0
 2 9 -10 2.32 1.94 0
 2 9 -9 86.38 5.09 0
 2 9 -8 50.79 4.34 0
 2 9 -7 40.83 3.91 0
 2 9 -6 131.25 6.14 0
 2 9 -5 541.02 11.58 0
 2 9 -4 54.23 4.26 0
 2 9 -3 226.46 7.62 0
 2 9 0 191.84 7.26 0
 2 9 1 44.95 3.8 0
 2 9 2 99.06 5.38 0
 2 9 3 230.81 7.95 0
 2 9 4 57.99 4.36 0
 2 9 5 547.52 12.05 0
 2 9 8 55.6 4.57 0
 2 10 -9 74.72 5.17 0
 2 10 -8 1.57 2.17 0
 2 10 -7 13.9 3.03 0
 2 10 -6 266.95 8.85 0
 2 10 -5 0.3 2.15 0
 2 10 -4 34.88 3.85 0
 2 10 -3 45.5 4.47 0
 2 10 -1 46.25 4.18 0
 2 10 0 1.45 2.26 0
 2 10 1 48.29 4.15 0
 2 10 2 260.68 8.8 0
 2 10 3 40.29 4.07 0
 2 10 7 11.27 3.24 0
 2 10 8 2.32 2.35 0
 2 11 -11 28.41 3.85 0
 2 11 -9 43.05 4.47 0
 2 11 -7 7.6 2.94 0
 2 11 -6 63.73 5 0
 2 11 -5 94.53 6.09 0
 2 11 -3 75.28 5.49 0
 2 11 -2 38.77 4.18 0
 2 11 1 90.4 5.96 0
 2 11 2 47.81 4.93 0
 2 11 3 74.55 5.71 0
 2 11 5 101.43 6.38 0
 2 11 6 62.17 5.08 0
 2 11 7 6.02 2.74 0
 2 11 8 237.19 9.13 0
 2 12 -11 9.14 2.98 0
 2 12 -9 50.11 4.9 0
 2 12 -8 17.41 3.8 0
 2 12 -6 112.7 6.87 0
 2 12 -5 7.03 2.96 0
 2 12 -4 50.68 4.92 0
 2 12 -3 12.39 3.56 0
 2 12 -1 98.86 6.3 0
 2 12 1 104.32 6.88 0
 2 12 2 171.25 8.26 0
 2 12 3 16.31 3.66 0
 2 12 4 55 5.23 0
 2 12 5 12.52 4.02 0
 2 12 6 111.14 7.05 0
 2 12 8 25.1 4.34 0
 2 12 9 57.95 5.16 0
 2 13 -11 66.45 5.97 0
 2 13 -9 21.67 4.49 0
 2 13 -8 90.11 6.99 0
 2 13 -6 12.17 3.74 0
 2 13 -4 47.49 5.66 0
 2 13 -3 60.1 5.95 0
 2 13 -1 2.48 2.69 0
 2 13 1 1.87 3.14 0
 2 13 3 60.81 5.69 0
 2 13 4 45.9 5.32 0
 2 13 5 53.99 6.05 0
 2 13 6 13.82 3.65 0
 2 13 7 93.1 7.07 0
 2 13 8 89.89 6.71 0
 2 13 9 28.2 4.18 0
 2 14 -10 10.45 3.63 0
 2 14 -9 24.37 4.64 0
 2 14 -8 58.75 5.84 0
 2 14 -7 30.81 5.39 0
 2 14 -6 13.52 4.08 0
 2 14 -5 61.57 6.08 0
 2 14 -4 27.83 4.98 0
 2 14 -3 115.9 8.08 0
 2 14 -2 91.1 7.01 0
 2 14 -1 1.52 3.65 0
 2 14 0 -1.15 2.89 0
 2 14 1 -2.35 2.59 0
 2 14 2 87.04 7.31 0
 2 14 3 115.84 7.81 0
 2 14 4 28.59 5 0
 2 14 5 59.7 6.54 0
 2 14 6 15.77 4.69 0
 2 14 8 49.08 6.03 0
 2 15 -7 45.78 6.05 0
 2 15 -6 192.25 9.99 0
 2 15 -4 33.69 5.58 0
 2 15 -3 35.42 5.43 0
 2 15 -1 53.49 6.6 0
 2 15 1 39.28 6.47 0
 2 15 2 72.18 6.74 0
 2 15 3 32.21 5.55 0
 2 15 4 40.18 5.92 0
 2 15 5 61.5 7.2 0
 2 15 6 172.82 9.61 0
 2 15 7 41.04 5.66 0
 2 15 8 30.04 4.94 0
 3 4 -7 609.3 8.45 0
 3 4 -6 32.59 2.28 0
 3 4 -5 52.08 2.82 0
 3 4 -3 59.8 3.14 0
 3 4 -2 136.12 4.63 0
 3 4 -1 1023.62 12.02 0
 3 4 0 37.34 2.53 0
 3 5 -9 159.65 4.58 0
 3 5 -8 228.97 5.79 0
 3 5 -7 9.66 1.97 0
 3 5 -6 16.74 2.28 0
 3 5 -5 357.8 7.59 0
 3 5 -4 183.74 5.67 0
 3 6 3 241.58 7.03 0
 3 7 -10 101.84 4.54 0
 3 7 -9 128.9 5.22 0
 3 7 -7 16.48 2.55 0
 3 7 -6 53.54 3.71 0
 3 7 -4 16.14 2.76 0
 3 7 -3 104.22 4.95 0
 3 7 -2 207.95 6.92 0
 3 7 -1 334.76 8.67 0
 3 7 0 45.17 3.76 0
 3 7 3 100.45 5.06 0
 3 7 4 14.94 2.63 0
 3 8 -10 37.91 3.34 0
 3 8 -9 43.02 3.67 0
 3 8 -8 89.17 5.07 0
 3 8 -7 6.95 2.17 0
 3 8 -5 85.29 4.91 0
 3 8 -4 276.43 8.37 0
 3 8 -3 40.77 3.88 0
 3 8 -2 243.69 7.98 0
 3 8 -1 293.84 8.69 0
 3 8 0 15.41 2.91 0
 3 8 2 228.28 7.74 0
 3 8 3 41.43 3.89 0
 3 8 4 278.66 8.77 0
 3 8 5 85.06 5.01 0
 3 9 -10 20.69 3.27 0
 3 9 -9 23.98 3.43 0
 3 9 -8 22.28 3.32 0
 3 9 -7 50.75 4.39 0
 3 9 -6 113.98 6.06 0
 3 9 -5 47.87 4.56 0
 3 9 -4 338.58 9.95 0
 3 9 -3 41.53 4.09 0
 3 9 -2 35.53 4.25 0
 3 9 -1 25.26 3.69 0
 3 9 0 120.96 6.35 0
 3 9 1 24.12 3.28 0
 3 9 2 35.07 3.82 0
 3 9 3 47.33 4.35 0
 3 9 4 365.69 10.36 0
 3 9 5 49.64 4.65 0
 3 9 6 114.81 6.35 0
 3 10 -10 2.95 2.19 0
 3 10 -9 54.43 4.66 0
 3 10 -7 12.5 3.03 0
 3 10 -5 75.24 5.33 0
 3 10 -4 7.11 2.73 0
 3 10 -2 127.21 6.69 0
 3 10 -1 165.37 7.52 0
 3 10 0 0.55 2.03 0
 3 10 1 164.07 7.64 0
 3 10 2 117.21 6.45 0
 3 10 3 7.71 2.95 0
 3 10 4 11.47 3.01 0
 3 10 6 45.92 4.68 0
 3 11 -10 20.33 3.6 0
 3 11 -9 366.17 11.1 0
 3 11 -7 52.02 4.91 0
 3 11 -4 11.65 3.49 0
 3 11 -2 52.87 5.27 0
 3 11 -1 530.02 13.64 0
 3 11 0 12.72 3.35 0
 3 11 1 538.38 13.98 0
 3 11 2 64.5 5.43 0
 3 11 3 11.47 3.21 0
 3 11 4 17.04 3.59 0
 3 11 5 45.36 5.04 0
 3 11 6 68.5 5.91 0
 3 12 -10 4.73 2.71 0
 3 12 -9 25.08 4.43 0
 3 12 -7 89.62 6.77 0
 3 12 -6 6.03 3.12 0
 3 12 -5 123.08 7.36 0
 3 12 -4 159.66 8.2 0
 3 12 -3 36.56 5 0
 3 12 -2 90.17 6.83 0
 3 12 -1 11.85 3.45 0
 3 12 1 17.87 3.83 0
 3 12 2 74.97 6.06 0
 3 12 3 46.22 5.06 0
 3 12 5 138.08 7.8 0
 3 12 6 6.88 3.17 0
 3 12 7 92.69 6.52 0
 3 13 -10 17.52 3.91 0
 3 13 -9 120.16 7.64 0
 3 13 -8 72.61 6.44 0
 3 13 -7 12.62 4.02 0
 3 13 -6 25.39 4.59 0
 3 13 -5 119.56 8.02 0
 3 13 -2 86.33 7.13 0
 3 13 0 39.87 5.22 0
 3 13 2 82.35 6.86 0
 3 13 3 2.02 3.4 0
 3 13 4 33.57 5.07 0
 3 13 5 109.79 7.65 0
 3 13 6 30.65 5.29 0
 3 14 -9 34.85 5.29 0
 3 14 -8 5.17 3.39 0
 3 14 -6 48.25 5.89 0
 3 14 -5 38.92 5.74 0
 3 14 -4 10.93 3.89 0
 3 14 -2 121.54 8.57 0
 3 14 -1 6.07 3.62 0
 3 14 0 0.85 3.04 0
 3 14 1 6.39 3.98 0
 3 14 3 37.19 5.36 0
 3 14 4 6.85 3.48 0
 3 14 5 41.64 5.73 0
 3 14 6 49.45 6.04 0
 3 15 -5 12.54 4.32 0
 3 15 -4 15.87 4.59 0
 3 15 -3 25.87 5.32 0
 3 15 -2 -1.92 3.34 0
 3 15 -1 32.32 5.63 0
 3 15 0 42.32 6.23 0
 3 15 2 5.27 4.38 0
 3 15 3 23.1 4.98 0
 3 15 4 13.53 4.26 0
 3 15 5 5.51 3.74 0
 4 7 -7 407.14 9.44 0
 4 7 -6 50.39 4.07 0
 4 7 -5 270.96 8.1 0
 4 7 -4 137.53 6.07 0
 4 7 -2 143.23 6.12 0
 4 7 -1 398.83 9.89 0
 4 7 0 15.6 2.78 0
 4 8 -8 7.12 2.26 0
 4 8 -6 46.04 4.07 0
 4 8 -5 72.85 5.28 0
 4 8 -4 16.53 3.27 0
 4 8 -3 17.49 3.29 0
 4 8 -1 22.54 3.44 0
 4 8 0 187.36 7.56 0
 4 8 1 20.75 3.17 0
 4 9 -9 8.04 2.41 0
 4 9 -8 207.02 7.89 0
 4 9 -7 59.36 4.98 0
 4 9 -6 9.95 3.08 0
 4 9 -5 4.31 2.47 0
 4 9 -4 128.17 6.5 0
 4 9 -2 3.38 2.88 0
 4 9 -1 5.32 2.55 0
 4 9 0 3.52 2.55 0
 4 9 2 9.88 2.78 0
 4 10 -10 42.75 4 0
 4 10 -9 13.19 3 0
 4 10 -7 59 5.28 0
 4 10 -6 150.29 7.48 0
 4 10 -5 43.94 5.07 0
 4 10 -4 84.77 5.83 0
 4 10 -3 55.51 5.05 0
 4 10 -2 181.31 8.25 0
 4 10 -1 7.58 3.07 0
 4 10 0 -0.95 2.02 0
 4 10 1 10.22 3.32 0
 4 10 3 53.76 4.97 0
 4 11 -10 26.52 3.69 0
 4 11 -9 3.07 2.57 0
 4 11 -8 172.23 8.02 0
 4 11 -6 77.82 6.06 0
 4 11 -5 3.7 2.84 0
 4 11 -3 20.82 3.98 0
 4 11 -2 19.51 4.03 0
 4 11 -1 114.77 7.02 0
 4 11 0 8.17 3.34 0
 4 11 2 21.57 4.12 0
 4 11 3 24.21 4.12 0
 4 12 -10 53.59 5.4 0
 4 12 -9 17.34 3.61 0
 4 12 -8 135.62 7.71 0
 4 12 -7 93.57 6.66 0
 4 12 -6 171.02 8.63 0
 4 12 -5 3.85 3.04 0
 4 12 -4 14.76 3.86 0
 4 12 -3 21.69 4.21 0
 4 12 -1 3.28 3.1 0
 4 12 0 28.56 4.75 0
 4 12 1 3.73 3.37 0
 4 12 2 112.27 7.23 0
 4 13 -9 -0.29 2.6 0
 4 13 -8 4.37 2.86 0
 4 13 -7 1.13 2.84 0
 4 13 -6 57.95 6.67 0
 4 13 -5 59.86 5.98 0
 4 13 -4 29.33 4.91 0
 4 13 -3 19.45 4.22 0
 4 13 -2 43.14 6.15 0
 4 13 -1 94.43 7.27 0
 4 13 0 8.88 3.44 0
 4 13 1 107.45 7.44 0
 4 13 2 40 5.5 0
 4 13 3 16.03 4.14 0
 4 14 -7 24.59 4.59 0
 4 14 -6 109.69 7.96 0
 4 14 -5 62.73 6.82 0
 4 14 -4 143.72 8.92 0
 4 14 -3 4.39 3.63 0
 4 14 -2 65.24 7.16 0
 4 14 -1 14.98 4.5 0
 4 14 0 35.03 6.06 0
 4 14 2 81.07 7.23 0
 4 14 3 8.01 3.87 0
 -7 -5 -12 42.39 4.83 0
 -7 -5 -11 21.79 3.73 0
 -7 -5 -10 121.85 5.88 0
 -7 -5 -9 29.82 3.48 0
 -7 -4 -13 52.12 4.77 0
 -7 -4 -12 175.75 7.59 0
 -7 -4 -11 57.49 4.82 0
 -7 -4 -10 58.51 4.52 0
 -7 -4 -9 28.81 3.54 0
 -7 -4 -8 4.08 1.97 0
 -7 -3 -12 7.96 2.69 0
 -7 -3 -11 34.54 4.28 0
 -7 -3 -9 4.48 2.01 0
 -7 -3 -8 55.3 3.94 0
 -7 -3 -7 44.43 3.42 0
 -7 -2 -13 14.56 3.17 0
 -7 -2 -12 13.76 3.11 0
 -7 -2 -11 114.61 6.11 0
 -7 -2 -10 17.31 3.1 0
 -7 -2 -9 34.81 3.62 0
 -7 -2 -8 77.62 4.5 0
 -7 -2 -7 29.49 3.08 0
 -7 -2 -6 8.76 1.77 0
 -7 -1 -13 31.04 4.13 0
 -7 -1 -12 12.09 3.1 0
 -7 -1 -11 84.84 5.49 0
 -7 -1 -10 36.07 3.98 0
 -7 -1 -9 15.15 2.88 0
 -7 -1 -8 170.89 6.33 0
 -7 -1 -6 48.6 3.33 0
 -7 -1 -5 19.17 2.37 0
 -7 0 -13 -1.64 2.28 0
 -7 0 -12 90.82 6.07 0
 -7 0 -11 10.69 3.03 0
 -7 0 -10 31.17 3.83 0
 -7 0 -9 4.32 2.07 0
 -7 0 -7 13.82 2.31 0
 -7 0 -6 25.01 2.9 0
 -7 0 -5 36.9 2.82 0
 -7 1 -12 14.41 3.18 0
 -7 1 -11 80.6 5.59 0
 -7 1 -10 38.11 3.91 0
 -7 1 -9 13.66 2.68 0
 -7 1 -8 190.2 6.88 0
 -7 1 -7 300.21 8 0
 -7 2 -12 14.49 3.37 0
 -7 2 -11 113.24 6.28 0
 -7 2 -10 16.33 3.07 0
 -7 2 -9 34.08 3.58 0
 -7 2 -8 71.89 4.68 0
 -7 2 -7 30.11 3.35 0
 -7 3 -13 25.98 4.16 0
 -7 3 -11 33.54 4.1 0
 -7 3 -10 108.7 5.92 0
 -7 3 -9 4.28 2.39 0
 -6 -10 -10 16.67 3.66 0
 -6 -10 -9 3.3 2.33 0
 -6 -9 -11 56.04 5.01 0
 -6 -9 -9 11.81 3.08 0
 -6 -9 -8 38.67 4.08 0
 -6 -9 -7 2.01 2.17 0
 -6 -8 -12 114.94 6.89 0
 -6 -8 -11 19.55 3.87 0
 -6 -8 -10 7.39 2.65 0
 -6 -8 -9 40.37 4.28 0
 -6 -8 -8 -0.19 1.88 0
 -6 -8 -7 114.56 5.49 0
 -6 -8 -6 9.18 2.31 0
 -6 -8 -5 18.09 2.58 0
 -6 -7 -12 7.95 3.05 0
 -6 -7 -10 6.96 2.71 0
 -6 -7 -9 2.16 2.07 0
 -6 -7 -8 171.23 6.71 0
 -6 -7 -6 16.31 2.47 0
 -6 -7 -5 75.42 4 0
 -6 -7 -4 224.49 6.02 0
 -6 -6 -12 79.03 5.75 0
 -6 -6 -11 15.33 3.33 0
 -6 -6 -10 110.74 5.89 0
 -6 -6 -9 135.47 6.06 0
 -6 -6 -8 72.03 4.41 0
 -6 -6 -7 16.65 2.62 0
 -6 -6 -6 95.45 4.57 0
 -6 -6 -5 10 2 0
 -6 -6 -4 2.38 1.38 0
 -6 -5 -14 13.64 3.53 0
 -6 -5 -13 37.54 4.48 0
 -6 -5 -12 148.71 7.41 0
 -6 -5 -10 25.4 3.42 0
 -6 -5 -9 116.71 5.71 0
 -6 -5 -8 82.74 4.75 0
 -6 -5 -7 59.23 3.76 0
 -6 -5 -6 48.5 3.33 0
 -6 -5 -5 10.35 1.79 0
 -6 -5 -3 217.1 4.92 0
 -6 -4 -14 26.54 4.14 0
 -6 -4 -13 -1.93 2.47 0
 -6 -4 -12 2.55 2.62 0
 -6 -4 -10 27.98 3.97 0
 -6 -4 -9 31.42 3.66 0
 -6 -4 -8 38.38 3.67 0
 -6 -4 -7 3.7 1.91 0
 -6 -4 -5 79.94 3.71 0
 -6 -4 -3 44.42 2.37 0
 -6 -4 -2 56.32 2.26 0
 -6 -3 -15 4.86 3.01 0
 -6 -3 -13 24.68 3.97 0
 -6 -3 -12 66.17 5.26 0
 -6 -3 -11 45.07 4.18 0
 -6 -3 -9 61.75 4.21 0
 -6 -3 -8 79.62 4.47 0
 -6 -3 -7 14.38 2.33 0
 -6 -3 -5 48.77 2.84 0
 -6 -3 -3 9.7 1.42 0
 -6 -3 -2 77.89 2.53 0
 -6 -2 -15 10.66 3.36 0
 -6 -2 -13 391.2 11.33 0
 -6 -2 -12 8.86 2.95 0
 -6 -2 -11 63.66 4.93 0
 -6 -2 -10 17.41 3.03 0
 -6 -2 -9 44.21 3.64 0
 -6 -2 -8 10.86 2.47 0
 -6 -2 -7 101.32 4.51 0
 -6 -2 -6 73.72 3.71 0
 -6 -2 -3 117.66 3.52 0
 -6 -2 -2 5.51 1.06 0
 -6 -1 -15 0.57 2.81 0
 -6 -1 -14 92.98 6.43 0
 -6 -1 -13 3.95 3.13 0
 -6 -1 -12 9.75 2.8 0
 -6 -1 -9 3.68 2.36 0
 -6 -1 -8 134.81 5.52 0
 -6 -1 -7 132.88 5.13 0
 -6 -1 -5 24.09 2.18 0
 -6 -1 -3 136.22 3.85 0
 -6 0 -14 107 6.54 0
 -6 0 -13 80.37 5.89 0
 -6 0 -12 28.84 3.92 0
 -6 0 -11 9.75 2.93 0
 -6 0 -9 124.07 5.7 0
 -6 0 -8 43.49 3.49 0
 -6 0 -7 458.39 9.46 0
 -6 0 -6 0.02 1.25 0
 -6 0 -5 1.9 1.28 0
 -6 0 -3 134.34 3.97 0
 -6 1 -14 94 6.67 0
 -6 1 -13 5.15 2.75 0
 -6 1 -12 8.84 2.81 0
 -6 1 -11 51.12 4.4 0
 -6 1 -9 -0.25 1.77 0
 -6 1 -8 138.78 5.73 0
 -6 1 -7 132.45 5.47 0
 -6 1 -6 234.77 6.66 0
 -6 1 -5 23.38 2.7 0
 -6 2 -15 9.79 3.66 0
 -6 2 -14 42.34 5.05 0
 -6 2 -13 402.81 11.8 0
 -6 2 -12 6.86 2.82 0
 -6 2 -11 67.83 5.06 0
 -6 2 -10 19.43 3.43 0
 -6 2 -9 46.24 4.29 0
 -6 2 -8 10.57 2.5 0
 -6 2 -7 108.22 5.19 0
 -6 2 -6 71.78 3.98 0
 -6 2 -5 359.45 7.76 0
 -6 3 -13 26.35 4.07 0
 -6 3 -12 76.97 5.59 0
 -6 3 -11 42.96 4.74 0
 -6 3 -10 51.51 4.35 0
 -6 3 -9 68.32 4.73 0
 -6 3 -8 82.29 4.95 0
 -6 3 -7 12.52 2.59 0
 -6 3 -6 79.28 4.23 0
 -6 4 -14 23.93 4.15 0
 -6 4 -13 0.53 2.5 0
 -6 4 -12 2.89 2.54 0
 -6 4 -11 25.98 4.16 0
 -6 4 -10 18.74 3.54 0
 -6 4 -9 27.26 3.88 0
 -6 4 -8 45.7 3.94 0
 -6 5 -14 11.37 3.42 0
 -6 5 -13 33.95 4.6 0
 -6 5 -12 146.9 7.52 0
 -6 5 -11 17.1 3.63 0
 -5 -10 -12 6.14 3.08 0
 -5 -9 -13 48.58 5.91 0
 -5 -9 -12 3.39 3.16 0
 -5 -8 -14 64.22 6.26 0
 -5 -8 -13 47.91 5.79 0
 -5 -8 -12 52.08 5.4 0
 -5 -8 -11 26.44 4 0
 -5 -7 -14 153.88 8.27 0
 -5 -7 -13 125.43 7.39 0
 -5 -7 -12 1.1 2.43 0
 -5 -7 -10 83.16 5.72 0
 -5 -6 -15 15.27 4.08 0
 -5 -6 -14 57.97 5.73 0
 -5 -6 -13 10.39 3.39 0
 -5 -6 -12 16.94 3.47 0
 -5 -6 -11 10.69 2.86 0
 -5 -6 -9 21.88 3.46 0
 -5 -6 -8 24.66 3.5 0
 -5 -5 -15 46.66 5.24 0
 -5 -5 -14 25.38 4.17 0
 -5 -5 -13 4.22 2.79 0
 -5 -5 -12 21.57 4.02 0
 -5 -5 -11 24.99 3.64 0
 -5 -5 -10 59.82 4.68 0
 -5 -5 -9 192.6 7.16 0
 -5 -5 -8 108.13 5.31 0
 -5 -5 -7 69.68 4.09 0
 -5 -5 -6 13.35 2.28 0
 -5 -5 -5 6.79 1.73 0
 -5 -5 -1 202.52 4.16 0
 -5 -5 0 90.02 2.4 0
 -5 -5 1 189.47 2.52 0
 -5 -4 -16 14.3 4.31 0
 -5 -4 -15 87.36 6.48 0
 -5 -4 -14 44.28 4.7 0
 -5 -4 -12 11.94 3.02 0
 -5 -4 -11 56.02 4.71 0
 -5 -4 -10 3.41 2.2 0
 -5 -4 -9 25.55 3.37 0
 -5 -4 -8 32.78 3.35 0
 -5 -4 -7 26.52 3.18 0
 -5 -4 -6 12.31 2.08 0
 -5 -4 -3 440.69 6.91 0
 -5 -4 -2 47.16 2.25 0
 -5 -4 -1 16.8 1.32 0
 -5 -4 0 431.94 4.3 0
 -5 -3 -16 64.76 6.13 0
 -5 -3 -15 34.98 4.9 0
 -5 -3 -13 68.66 5.47 0
 -5 -3 -12 62.28 4.91 0
 -5 -3 -11 84.29 5.17 0
 -5 -3 -10 530.55 11.43 0
 -5 -3 -9 224.08 7.18 0
 -5 -3 -8 80.18 4.32 0
 -5 -3 -6 26.47 2.69 0
 -5 -3 -4 36.75 2.51 0
 -5 -3 -2 567.89 6.7 0
 -5 -3 -1 57.54 1.95 0
 -5 -3 0 8.78 0.7 0
 -5 -2 -16 4.31 3.18 0
 -5 -2 -15 29.24 4.42 0
 -5 -2 -14 42.05 5.16 0
 -5 -2 -13 0.88 2.31 0
 -5 -2 -12 68.65 5 0
 -5 -2 -11 4.09 2.28 0
 -5 -2 -10 0.07 1.82 0
 -5 -2 -9 155.01 6.18 0
 -5 -2 -8 338.57 8.2 0
 -5 -2 -7 108.06 4.51 0
 -5 -2 -6 35.32 2.89 0
 -5 -2 -4 1041.97 10.94 0
 -5 -2 -3 262.79 5.13 0
 -5 -2 -2 27.04 1.71 0
 -5 -2 -1 75.6 2.15 0
 -5 -1 -15 25.32 4.12 0
 -5 -1 -14 0.64 2.58 0
 -5 -1 -13 37.99 4.33 0
 -5 -1 -11 120.67 6 0
 -5 -1 -9 5.42 2.09 0
 -5 -1 -8 7.35 2.13 0
 -5 -1 -7 62.34 3.74 0
 -5 -1 -6 43.25 3.1 0
 -5 -1 -4 7.17 1.57 0
 -5 -1 -3 3.13 1 0
 -5 -1 -2 90.59 2.8 0
 -5 -1 -1 16.45 1.21 0
 -5 0 -15 160.91 8.12 0
 -5 0 -14 59.5 5.26 0
 -5 0 -13 28.98 3.91 0
 -5 0 -12 11.88 3.02 0
 -5 0 -11 67.62 4.97 0
 -5 0 -10 12.3 2.7 0
 -5 0 -9 396.41 9.5 0
 -5 0 -8 76.93 4.23 0
 -5 0 -7 296.64 7.39 0
 -5 0 -6 26.26 2.46 0
 -5 0 -4 101.43 3.62 0
 -5 0 -3 446.1 6.8 0
 -5 0 -2 2.62 0.94 0
 -5 0 -1 70.71 2.29 0
 -5 1 -15 20.88 4.26 0
 -5 1 -14 -1.19 2.69 0
 -5 1 -13 39.49 4.36 0
 -5 1 -12 197.83 7.97 0
 -5 1 -11 120.6 6.01 0
 -5 1 -10 54.52 4.15 0
 -5 1 -9 3.95 2.29 0
 -5 1 -8 8.37 2.09 0
 -5 1 -7 65.44 3.93 0
 -5 1 -6 48.79 3.17 0
 -5 1 -3 0.25 1.18 0
 -5 1 -2 96.34 3.11 0
 -5 2 -14 33.35 4.85 0
 -5 2 -13 0.08 2.25 0
 -5 2 -12 67.01 5.01 0
 -5 2 -11 5 2.28 0
 -5 2 -10 1.52 1.97 0
 -5 2 -9 153.29 6.29 0
 -5 2 -8 329.36 8.51 0
 -5 2 -7 101.26 4.6 0
 -5 2 -6 27.69 2.6 0
 -5 2 -3 252.25 5.59 0
 -5 3 -15 34.59 5.04 0
 -5 3 -13 64.11 5.47 0
 -5 3 -12 62.66 5.27 0
 -5 3 -11 85.64 5.65 0
 -5 3 -10 531.39 11.86 0
 -5 3 -9 231.39 7.71 0
 -5 3 -8 78.6 4.56 0
 -5 3 -7 77.92 4.37 0
 -5 3 -5 9.45 1.88 0
 -5 4 -16 15.05 3.92 0
 -5 4 -15 92.36 6.69 0
 -5 4 -14 43.37 5.33 0
 -5 4 -13 22.2 4.07 0
 -5 4 -12 7.62 2.8 0
 -5 4 -11 50.38 4.51 0
 -5 4 -10 5.07 2.43 0
 -5 4 -9 21.09 3.06 0
 -5 4 -8 32.62 3.35 0
 -5 4 -7 26.78 2.88 0
 -5 4 -6 12.96 2.36 0
 -5 5 -15 57.75 5.82 0
 -5 5 -14 25.32 4.21 0
 -5 5 -13 8.47 3.07 0
 -5 5 -12 27.48 4.04 0
 -5 5 -10 55.86 4.76 0
 -5 6 -15 10.5 3.61 0
 -5 6 -14 52.91 5.34 0
 -5 6 -13 13.23 3.55 0
 -5 6 -12 17.27 3.9 0
 -4 -9 -14 30.96 4.82 0
 -4 -8 -14 9.76 3.64 0
 -4 -7 -15 66.19 6.14 0
 -4 -7 -14 26.39 4.34 0
 -4 -7 -13 45.55 5.51 0
 -4 -6 -16 66.26 6.08 0
 -4 -6 -15 -0.24 2.95 0
 -4 -6 -14 3.92 2.88 0
 -4 -6 -13 2.59 2.68 0
 -4 -5 -16 12.5 3.65 0
 -4 -5 -14 21.63 3.71 0
 -4 -5 -13 23.64 4.24 0
 -4 -5 -12 30.49 4.28 0
 -4 -5 -10 7.08 2.44 0
 -4 -4 -17 23.39 4.33 0
 -4 -4 -16 6.69 3.09 0
 -4 -4 -15 12.25 3.42 0
 -4 -4 -13 72.83 5.63 0
 -4 -4 -12 44.79 4.34 0
 -4 -4 -10 10.62 2.53 0
 -4 -4 -9 47.61 3.83 0
 -4 -4 -8 148.1 5.8 0
 -4 -4 2 124.56 1.62 0
 -4 -3 -17 24.34 4.36 0
 -4 -3 -16 19.47 4 0
 -4 -3 -15 68.61 5.43 0
 -4 -3 -14 64.17 5.21 0
 -4 -3 -13 46.5 4.36 0
 -4 -3 -12 36.94 4.57 0
 -4 -3 -11 126.63 6.03 0
 -4 -3 -10 94.85 4.97 0
 -4 -3 -9 76.53 4.51 0
 -4 -3 -8 0.2 1.42 0
 -4 -3 -7 8.84 1.97 0
 -4 -3 -4 53.56 2.76 0
 -4 -3 -3 91.68 3.12 0
 -4 -3 -2 24.59 1.72 0
 -4 -3 -1 452.99 5.35 0
 -4 -3 0 25.24 1.18 0
 -4 -3 1 446.4 3.08 0
 -4 -2 -17 70.92 6.07 0
 -4 -2 -16 14.96 3.65 0
 -4 -2 -15 48.44 4.85 0
 -4 -2 -14 230.16 9.06 0
 -4 -2 -13 119.64 6.3 0
 -4 -2 -12 173.14 7.24 0
 -4 -2 -10 279.24 8.15 0
 -4 -2 -9 62.55 4.13 0
 -4 -2 -7 175.3 5.49 0
 -4 -2 -3 433.42 6.26 0
 -4 -2 -2 32.29 1.78 0
 -4 -2 -1 598.53 5.67 0
 -4 -2 0 181.16 2.57 0
 -4 -1 -17 128.75 7.5 0
 -4 -1 -16 59.87 5.75 0
 -4 -1 -15 6.25 2.91 0
 -4 -1 -14 69.39 5.59 0
 -4 -1 -13 64.86 4.86 0
 -4 -1 -12 98.92 5.69 0
 -4 -1 -11 7.28 2.66 0
 -4 -1 -10 46.39 3.9 0
 -4 -1 -9 179.65 6.16 0
 -4 -1 -8 128.53 5.06 0
 -4 -1 -3 180.71 4.08 0
 -4 -1 -2 28.76 1.63 0
 -4 -1 -1 1086.53 7.64 0
 -4 -1 0 57.98 1.51 0
 -4 0 -17 50.92 5.93 0
 -4 0 -15 318.65 10.75 0
 -4 0 -13 -1.32 1.87 0
 -4 0 -12 -0.12 1.87 0
 -4 0 -11 32.17 3.71 0
 -4 0 -10 171.92 6.35 0
 -4 0 -9 2.05 1.72 0
 -4 0 -8 20.38 2.58 0
 -4 0 -7 159.46 5.28 0
 -4 0 -5 4.9 1.31 0
 -4 0 -4 8.24 1.39 0
 -4 0 -3 131 3.59 0
 -4 0 -2 7.73 1.05 0
 -4 0 -1 6 0.9 0
 -4 1 -17 123.96 7.25 0
 -4 1 -16 55.97 5.38 0
 -4 1 -15 5.03 3.34 0
 -4 1 -14 66.36 5.47 0
 -4 1 -13 65.98 5.17 0
 -4 1 -12 97.53 5.55 0
 -4 1 -11 3.59 2.04 0
 -4 1 -10 49.88 3.79 0
 -4 1 -9 172.88 6.08 0
 -4 1 -8 126.71 5.07 0
 -4 1 -7 132.8 4.85 0
 -4 1 -3 183.3 4.34 0
 -4 1 -2 30.51 1.82 0
 -4 1 -1 1063.41 8.51 0
 -4 2 -17 70.92 5.95 0
 -4 2 -16 17.24 3.92 0
 -4 2 -14 233.06 8.98 0
 -4 2 -13 119.59 6.31 0
 -4 2 -12 180.47 7.4 0
 -4 2 -11 37.9 3.87 0
 -4 2 -10 286.5 8.3 0
 -4 2 -9 58.83 3.83 0
 -4 2 -8 82.86 4.4 0
 -4 2 -7 186.83 5.86 0
 -4 2 -4 689.36 9.29 0
 -4 2 -3 436.36 6.91 0
 -4 3 -17 15.45 3.82 0
 -4 3 -16 11.26 3.7 0
 -4 3 -14 60.1 5.08 0
 -4 3 -12 35.93 4.39 0
 -4 3 -10 93.81 5.16 0
 -4 3 -9 70.73 4.47 0
 -4 3 -8 1.33 1.66 0
 -4 3 -6 78.58 3.87 0
 -4 3 -3 90.05 3.48 0
 -4 4 -17 29.68 5.2 0
 -4 4 -16 5.87 3.25 0
 -4 4 -15 14.43 3.53 0
 -4 4 -14 46.72 5.27 0
 -4 4 -13 63.81 5.19 0
 -4 4 -12 39.74 3.91 0
 -4 4 -11 22.64 3.69 0
 -4 4 -10 9.19 2.49 0
 -4 4 -9 43.49 3.69 0
 -4 4 -8 147.41 5.83 0
 -4 4 -7 23.82 2.76 0
 -4 4 -6 53.66 3.38 0
 -4 5 -16 15.23 3.9 0
 -4 5 -15 1.59 2.93 0
 -4 5 -13 24.67 3.74 0
 -4 5 -12 32.76 4.08 0
 -4 5 -11 123.54 6.55 0
 -4 5 -10 5.27 2.21 0
 -4 5 -9 123.32 5.79 0
 -4 5 -8 53.11 4.15 0
 -4 5 -7 22.85 2.98 0
 -4 5 -6 1.34 1.71 0
 -4 6 -16 72.56 6.04 0
 -4 6 -15 -0.55 3.3 0
 -4 6 -14 2.84 2.66 0
 -4 6 -13 3.43 2.97 0
 -4 6 -12 172.08 7.85 0
 -4 6 -11 119.08 6.31 0
 -4 6 -10 221.3 8.04 0
 -4 6 -9 234.34 8.04 0
 -3 -8 -16 0.67 3.58 0
 -3 -7 -15 50.97 5.76 0
 -3 -6 -17 2.71 3.25 0
 -3 -6 -16 96.48 7.16 0
 -3 -6 -15 126.18 7.37 0
 -3 -6 -14 118.33 7.15 0
 -3 -5 -17 17.13 4.49 0
 -3 -5 -16 30.9 4.82 0
 -3 -5 -15 45.31 5.36 0
 -3 -5 -14 4.78 2.89 0
 -3 -5 -13 71.9 5.42 0
 -3 -4 -18 5.9 3.6 0
 -3 -4 -17 80.74 6.35 0
 -3 -4 -16 26.58 4.24 0
 -3 -4 -15 127.04 7.39 0
 -3 -4 -14 29.52 4.3 0
 -3 -4 -12 36.57 4.41 0
 -3 -4 -11 93.76 5.21 0
 -3 -3 -18 87.53 6.98 0
 -3 -3 -16 37.73 4.56 0
 -3 -3 -15 243.95 9.35 0
 -3 -3 -14 13.96 3.44 0
 -3 -3 -13 34.49 4.21 0
 -3 -3 -11 263.85 8.25 0
 -3 -3 -10 57.57 3.98 0
 -3 -3 -9 49.93 3.56 0
 -3 -2 -18 35.87 5.44 0
 -3 -2 -17 2.96 3.31 0
 -3 -2 -16 52.74 5.22 0
 -3 -2 -15 53.62 5.18 0
 -3 -2 -14 12.38 3.04 0
 -3 -2 -13 104.58 5.92 0
 -3 -2 -12 88.1 5.39 0
 -3 -2 -11 194.56 6.95 0
 -3 -2 -10 58.63 3.9 0
 -3 -2 -9 115.27 5.08 0
 -3 -2 0 554.39 4.38 0
 -3 -2 1 96.27 1.31 0
 -3 -1 -18 5.91 3.34 0
 -3 -1 -17 21.13 3.96 0
 -3 -1 -16 46.96 4.69 0
 -3 -1 -15 367.85 11.07 0
 -3 -1 -14 66.18 5.16 0
 -3 -1 -13 18.26 3.27 0
 -3 -1 -11 159.23 6.26 0
 -3 -1 -9 13.28 2.19 0
 -3 -1 -6 619.24 8.97 0
 -3 -1 -5 420.95 6.85 0
 -3 -1 -4 50.95 2.43 0
 -3 -1 -2 1682.11 10.06 0
 -3 -1 -1 119.46 2.43 0
 -3 -1 0 219.84 2.58 0
 -3 0 -18 22.45 4.18 0
 -3 0 -17 -2.38 2.37 0
 -3 0 -16 14.76 3.49 0
 -3 0 -15 1.8 2.22 0
 -3 0 -14 107.17 6.21 0
 -3 0 -13 35.42 4.09 0
 -3 0 -12 156.44 6.45 0
 -3 0 -11 103.84 5.13 0
 -3 0 -10 39.33 3.26 0
 -3 0 -9 26.44 2.6 0
 -3 0 -6 266.11 5.93 0
 -3 0 -5 299.38 5.75 0
 -3 0 -4 1.34 0.91 0
 -3 0 -3 201.96 4.05 0
 -3 0 -2 1089.59 8.19 0
 -3 0 0 0.04 0.48 0
 -3 1 -18 9.75 3.6 0
 -3 1 -17 18.09 3.75 0
 -3 1 -16 39.44 4.72 0
 -3 1 -14 61.23 4.72 0
 -3 1 -12 92.74 5.13 0
 -3 1 -11 159.53 6.21 0
 -3 1 -10 91.29 4.78 0
 -3 1 -9 11.51 2.15 0
 -3 1 -8 243.65 6.5 0
 -3 1 -5 428.15 6.97 0
 -3 1 -4 45.03 2.26 0
 -3 1 -3 17.97 1.49 0
 -3 1 -2 1706.01 10.82 0
 -3 1 -1 121.62 2.77 0
 -3 2 -18 34.15 4.9 0
 -3 2 -17 1.36 2.96 0
 -3 2 -16 50.36 4.91 0
 -3 2 -15 47.18 4.83 0
 -3 2 -14 9.3 2.59 0
 -3 2 -13 102.09 5.58 0
 -3 2 -12 78.19 4.77 0
 -3 2 -11 180.16 6.67 0
 -3 2 -10 57.16 3.92 0
 -3 2 -9 122.88 5.16 0
 -3 2 -8 183.01 5.75 0
 -3 2 -5 506.26 7.79 0
 -3 2 -4 664.79 8.34 0
 -3 2 -3 316.31 5.5 0
 -3 2 -2 592.79 6.91 0
 -3 3 -17 39.01 5.09 0
 -3 3 -16 29.87 4.29 0
 -3 3 -15 237.9 9.05 0
 -3 3 -14 13.87 3.27 0
 -3 3 -13 36.15 3.79 0
 -3 3 -12 15.14 2.74 0
 -3 3 -11 279.69 8.28 0
 -3 3 -10 54 3.9 0
 -3 3 -9 47.47 3.38 0
 -3 3 -8 129.13 5.06 0
 -3 3 -5 173.53 4.89 0
 -3 3 -4 60.19 2.97 0
 -3 3 -3 750.14 8.87 0
 -3 4 -16 17.47 4.34 0
 -3 4 -15 133.89 7.4 0
 -3 4 -14 28.14 4.06 0
 -3 4 -13 74.48 5.15 0
 -3 4 -12 39.71 4.11 0
 -3 4 -11 84.25 5.04 0
 -3 4 -10 149.26 6.11 0
 -3 4 -9 37.93 3.34 0
 -3 4 -8 246.02 7.04 0
 -3 4 -7 614.17 10.57 0
 -3 5 -17 17.62 4.11 0
 -3 5 -16 34.98 4.68 0
 -3 5 -15 40.33 4.84 0
 -3 5 -14 5.54 2.91 0
 -3 5 -13 85.19 5.78 0
 -3 5 -12 127.11 6.53 0
 -3 5 -11 35.93 3.65 0
 -3 5 -10 1.94 2.07 0
 -3 5 -9 161.95 6.27 0
 -3 5 -8 227.59 6.97 0
 -3 5 -7 13.56 2.23 0
 -3 5 -6 12.57 2.04 0
 -3 6 -16 87.81 6.6 0
 -3 6 -15 124.75 7.09 0
 -3 6 -14 122.15 7.11 0
 -3 6 -13 82.05 5.75 0
 -3 6 -11 38.03 3.72 0
 -3 6 -10 246.6 8.1 0
 -3 6 -9 120.2 5.57 0
 -3 6 -8 53.31 3.73 0
 -3 7 -16 7.11 3.38 0
 -3 7 -14 7 2.78 0
 -3 7 -13 38.4 4.8 0
 -3 7 -12 38.71 4.84 0
 -2 -7 -17 77.39 6.61 0
 -2 -7 -16 42.65 5.29 0
 -2 -6 -17 30.02 4.75 0
 -2 -6 -16 85.09 6.39 0
 -2 -6 -15 10.26 3.08 0
 -2 -5 -18 52.98 5.83 0
 -2 -5 -17 -1.39 2.6 0
 -2 -5 -16 18.35 3.77 0
 -2 -5 -15 105.93 6.62 0
 -2 -5 -14 154.47 7.41 0
 -2 -4 -18 49.77 5.24 0
 -2 -4 -17 52.85 5.42 0
 -2 -4 -16 57.52 5.64 0
 -2 -4 -15 215.05 8.74 0
 -2 -4 -14 144.04 7.31 0
 -2 -4 -13 1.38 2.53 0
 -2 -3 -18 53.06 5.66 0
 -2 -3 -17 15.62 3.71 0
 -2 -3 -16 5.24 2.61 0
 -2 -3 -15 60.5 5.17 0
 -2 -3 -14 41.21 3.99 0
 -2 -3 -13 255.45 8.66 0
 -2 -3 -12 374.23 9.85 0
 -2 -2 -19 45.03 5.61 0
 -2 -2 -18 288.37 10.52 0
 -2 -2 -17 45.39 5.3 0
 -2 -2 -15 53.48 4.52 0
 -2 -2 -14 37.99 3.77 0
 -2 -2 -13 40.53 4.01 0
 -2 -2 -11 76.2 4.52 0
 -2 -2 -9 150.31 5.41 0
 -2 -2 2 1817.36 5.37 0
 -2 -1 -19 35.48 5.05 0
 -2 -1 -18 25.65 4.54 0
 -2 -1 -17 173.39 8.29 0
 -2 -1 -16 1.3 2.45 0
 -2 -1 -15 56.95 4.68 0
 -2 -1 -14 137.04 6.48 0
 -2 -1 -13 36.86 3.72 0
 -2 -1 -10 516.75 9.98 0
 -2 -1 -9 121.17 4.75 0
 -2 -1 -7 332.45 6.83 0
 -2 -1 -6 478.91 7.52 0
 -2 -1 -5 510.01 7.15 0
 -2 -1 0 276.78 2.49 0
 -2 0 -19 46.21 5.73 0
 -2 0 -18 31.71 4.62 0
 -2 0 -17 15.35 3.46 0
 -2 0 -15 52.4 4.96 0
 -2 0 -14 71.39 4.86 0
 -2 0 -13 21.37 3 0
 -2 0 -12 229.79 7.46 0
 -2 0 -11 1.47 1.73 0
 -2 0 -10 53.13 3.43 0
 -2 0 -7 413.16 7.36 0
 -2 0 -6 817.34 9.56 0
 -2 0 -5 58.86 2.57 0
 -2 0 -4 1845.19 12.05 0
 -2 0 -3 1604.02 10.14 0
 -2 0 -2 189.32 3.11 0
 -2 0 -1 3330.75 10.91 0
 -2 1 -18 24.08 4.18 0
 -2 1 -16 4.03 3.05 0
 -2 1 -15 53.73 4.61 0
 -2 1 -14 140.06 6.73 0
 -2 1 -13 34.27 3.57 0
 -2 1 -11 18.08 2.44 0
 -2 1 -10 523.81 9.91 0
 -2 1 -6 471.45 7.39 0
 -2 1 -4 359.41 5.51 0
 -2 1 -3 838.68 7.61 0
 -2 1 -2 3192.89 13.21 0
 -2 1 -1 2570.18 10.66 0
 -2 2 -18 273.46 10.19 0
 -2 2 -16 21.38 3.67 0
 -2 2 -15 58.55 5.03 0
 -2 2 -14 42.19 4.34 0
 -2 2 -13 41.57 3.96 0
 -2 2 -12 42.34 3.95 0
 -2 2 -11 79.31 4.35 0
 -2 2 -10 314.1 7.86 0
 -2 2 -9 146.65 5.21 0
 -2 2 -6 37.62 2.31 0
 -2 2 -4 1034.58 9.56 0
 -2 2 -3 286.93 4.79 0
 -2 2 -2 1747.82 10.71 0
 -2 2 -1 606.3 5.95 0
 -2 3 -19 39.2 5.26 0
 -2 3 -18 48.63 5.62 0
 -2 3 -17 14.31 3.36 0
 -2 3 -14 36.29 4.12 0
 -2 3 -13 244.52 8.09 0
 -2 3 -12 353.39 9.19 0
 -2 3 -11 158.42 6.06 0
 -2 3 -10 81.99 4.26 0
 -2 3 -9 92.72 4.22 0
 -2 3 -6 189.04 4.99 0
 -2 3 -5 336.44 6.25 0
 -2 3 -4 1851.03 13.7 0
 -2 3 -3 397.14 6.01 0
 -2 3 -2 1205.48 9.88 0
 -2 4 -18 48.89 5.95 0
 -2 4 -17 52.83 5.31 0
 -2 4 -16 58.46 5.15 0
 -2 4 -15 224.77 8.79 0
 -2 4 -14 154.35 7.18 0
 -2 4 -13 1.27 1.97 0
 -2 4 -10 92.77 4.61 0
 -2 4 -9 0.7 1.23 0
 -2 4 -8 228.51 6.39 0
 -2 4 -5 395.67 7.15 0
 -2 4 -4 1015.09 10.75 0
 -2 5 -18 49.36 5.61 0
 -2 5 -17 7.8 3.27 0
 -2 5 -16 23.39 4 0
 -2 5 -15 103.36 6.26 0
 -2 5 -14 159.92 7.47 0
 -2 5 -13 24.54 3.68 0
 -2 5 -12 27.6 3.59 0
 -2 5 -11 199.94 7.16 0
 -2 5 -10 325.25 8.65 0
 -2 5 -9 36.74 3.13 0
 -2 5 -8 284.54 7.44 0
 -2 5 -7 485.15 9.19 0
 -2 6 -17 38.29 4.77 0
 -2 6 -16 77.04 6.18 0
 -2 6 -15 14.15 3.32 0
 -2 6 -14 82.69 5.93 0
 -2 6 -12 5.9 2.34 0
 -2 6 -11 76.38 4.79 0
 -2 6 -10 63.93 4.13 0
 -2 6 -8 40.86 3.19 0
 -2 6 -7 51.35 3.37 0
 -2 7 -17 68.68 6.33 0
 -2 7 -16 49.15 5 0
 -2 7 -15 71.94 5.97 0
 -2 7 -14 3.22 2.94 0
 -2 7 -13 78.11 5.69 0
 -2 7 -12 47.42 4.09 0
 -2 7 -11 14.51 3 0
 -1 -7 -17 27.33 4.52 0
 -1 -6 -17 54.12 5.77 0
 -1 -6 -16 118.33 7.45 0
 -1 -5 -17 56.44 5.33 0
 -1 -5 -16 70.49 5.54 0
 -1 -5 -15 167.51 7.71 0
 -1 -4 -19 36.96 5 0
 -1 -4 -18 41.39 4.93 0
 -1 -4 -16 228.04 9.07 0
 -1 -4 -15 32.76 4.19 0
 -1 -3 -19 48.5 5.68 0
 -1 -3 -17 53.81 5.38 0
 -1 -3 -16 7.93 3.28 0
 -1 -3 -14 15.17 2.95 0
 -1 -3 -13 78.34 5.05 0
 -1 -2 -19 47.54 5.19 0
 -1 -2 -17 46.36 4.6 0
 -1 -2 -16 18.13 3.64 0
 -1 -2 -15 11.92 2.83 0
 -1 -2 -14 42.12 4.32 0
 -1 -2 -13 57.48 4.15 0
 -1 -2 -12 1.46 1.71 0
 -1 -2 -11 249.18 7.33 0
 -1 -2 2 3993.63 10.4 0
 -1 -1 -19 18.02 3.89 0
 -1 -1 -18 6.46 2.91 0
 -1 -1 -17 9.56 3.03 0
 -1 -1 -16 6.93 2.89 0
 -1 -1 -15 66.82 4.77 0
 -1 -1 -14 11.84 2.65 0
 -1 -1 -13 78.6 4.75 0
 -1 -1 -12 30.33 3.24 0
 -1 -1 -11 236.4 6.96 0
 -1 -1 -10 154.55 5.34 0
 -1 -1 2 198.46 1.82 0
 -1 0 -19 21.21 4.04 0
 -1 0 -18 6.74 3 0
 -1 0 -17 24.49 3.85 0
 -1 0 -16 2.28 2.38 0
 -1 0 -15 15.24 3.02 0
 -1 0 -14 12.25 2.68 0
 -1 0 -13 138.28 5.91 0
 -1 0 -12 98.81 4.85 0
 -1 0 -11 0.76 1.5 0
 -1 0 -7 444.32 7.21 0
 -1 0 -6 38.93 2.24 0
 -1 0 -5 1552.3 11.4 0
 -1 0 -4 457.56 5.71 0
 -1 0 -3 1244.07 8.12 0
 -1 0 -2 813.64 5.55 0
 -1 0 -1 1067.05 5.08 0
 -1 1 -19 24.63 4.09 0
 -1 1 -18 3.77 2.72 0
 -1 1 -17 15.68 3.38 0
 -1 1 -16 8.38 2.83 0
 -1 1 -15 78.54 5.4 0
 -1 1 -13 74.7 4.64 0
 -1 1 -12 25.69 2.82 0
 -1 1 -11 240.2 6.85 0
 -1 1 -10 152.15 5.27 0
 -1 1 -8 75.04 3.28 0
 -1 1 -7 164.87 4.46 0
 -1 1 -6 375.27 6.17 0
 -1 1 -5 2336.66 13.74 0
 -1 1 -4 619.94 6.51 0
 -1 1 -3 9618.97 22.51 0
 -1 1 -2 196.75 2.97 0
 -1 1 -1 993.86 5.59 0
 -1 2 -19 51.49 5.17 0
 -1 2 -18 29.88 4.48 0
 -1 2 -17 40.29 4.99 0
 -1 2 -16 22.17 3.64 0
 -1 2 -15 8.47 2.9 0
 -1 2 -14 40.34 3.75 0
 -1 2 -13 59.96 4.06 0
 -1 2 -12 0.7 1.62 0
 -1 2 -11 245.36 6.96 0
 -1 2 -10 663.57 10.74 0
 -1 2 -7 347.71 6.46 0
 -1 2 -6 926.75 9.71 0
 -1 2 -3 506.2 5.66 0
 -1 2 -2 3982.05 14.5 0
 -1 3 -19 41.67 5.28 0
 -1 3 -18 27.12 4.17 0
 -1 3 -17 50.1 5.01 0
 -1 3 -16 1.55 2.22 0
 -1 3 -15 41.76 4.34 0
 -1 3 -14 15.4 3.02 0
 -1 3 -13 74.02 4.53 0
 -1 3 -12 179.81 6.41 0
 -1 3 -11 186.73 6.17 0
 -1 3 -10 204.71 6.29 0
 -1 3 -7 748.31 9.67 0
 -1 3 -6 640.16 8.45 0
 -1 3 -5 400.92 6.29 0
 -1 4 -19 31.77 4.84 0
 -1 4 -18 51.28 5.14 0
 -1 4 -17 243.06 9.19 0
 -1 4 -16 220.15 8.68 0
 -1 4 -15 34.73 4.31 0
 -1 4 -14 364.62 9.93 0
 -1 4 -13 156.99 6.59 0
 -1 4 -12 114.89 5.39 0
 -1 4 -11 9.59 2.16 0
 -1 4 -9 537.25 9.6 0
 -1 4 -6 543.97 8.24 0
 -1 4 -5 109.65 3.63 0
 -1 4 -4 66.37 2.69 0
 -1 5 -18 21.9 3.83 0
 -1 5 -17 57.67 5.46 0
 -1 5 -16 79.16 5.89 0
 -1 5 -15 175.9 7.58 0
 -1 5 -13 16.97 2.83 0
 -1 5 -12 112.75 5.51 0
 -1 5 -11 430.33 9.84 0
 -1 5 -8 311.08 7.33 0
 -1 5 -5 90.6 3.61 0
 -1 6 -18 6.65 3.1 0
 -1 6 -17 49.86 5.45 0
 -1 6 -16 124.21 6.97 0
 -1 6 -15 35.51 4.27 0
 -1 6 -14 102.48 5.99 0
 -1 6 -13 119.1 6.12 0
 -1 6 -12 27.86 3.47 0
 -1 6 -11 17.53 2.99 0
 -1 6 -10 14.35 2.39 0
 -1 6 -9 155.51 5.74 0
 -1 6 -8 412.34 8.73 0
 -1 7 -16 110.27 6.91 0
 -1 7 -15 99.51 6.06 0
 -1 7 -14 22.75 3.57 0
 -1 7 -13 48.24 4.32 0
 -1 7 -12 17.08 3.14 0
 0 -6 -18 58.58 5.63 0
 0 -6 -17 6.49 3.1 0
 0 -5 -18 0.86 2.49 0
 0 -5 -17 392.05 12.03 0
 0 -4 -19 26.05 4.22 0
 0 -4 -18 21.28 4.01 0
 0 -4 -17 0.18 2.64 0
 0 -4 -16 6.72 3.24 0
 0 -4 -15 0.28 2.44 0
 0 -3 -18 -3.3 2.13 0
 0 -3 -17 0.41 2.24 0
 0 -3 -15 39.97 4.31 0
 0 -3 -14 18.79 3.08 0
 0 -2 -19 12.23 3.64 0
 0 -2 -18 14.07 3.62 0
 0 -2 -17 6.76 2.71 0
 0 -2 -16 12.82 2.9 0
 0 -2 -13 132.84 5.76 0
 0 -2 -12 155.9 5.91 0
 0 -1 -20 96.5 6.64 0
 0 -1 -18 14.85 3.83 0
 0 -1 -17 12.96 3.06 0
 0 -1 -15 -0.7 1.85 0
 0 -1 -14 24.19 3.4 0
 0 -1 -13 84.34 4.62 0
 0 -1 -12 0.55 1.58 0
 0 -1 -11 6.25 1.85 0
 0 -1 1 751.94 3.82 0
 0 0 -20 111.73 7.02 0
 0 0 -19 4.19 2.75 0
 0 0 -18 227.62 8.85 0
 0 0 -17 -1.4 2.15 0
 0 0 -15 1.97 2.04 0
 0 0 -13 0.2 1.45 0
 0 0 -12 0.21 1.44 0
 0 0 -11 2.53 1.64 0
 0 0 -8 4741.22 23.69 0
 0 0 -7 0.53 1.08 0
 0 0 -6 293.5 5.11 0
 0 1 -20 100.35 6.76 0
 0 1 -19 29.97 4.12 0
 0 1 -18 10.33 2.92 0
 0 1 -17 13.11 3.05 0
 0 1 -16 180.09 7.26 0
 0 1 -15 1.19 1.86 0
 0 1 -13 75.31 4.46 0
 0 1 -12 3.52 1.72 0
 0 1 -11 6.95 1.81 0
 0 1 -8 17.34 1.82 0
 0 1 -7 210.43 4.7 0
 0 1 -6 276.2 5.01 0
 0 1 -5 2190.34 12.15 0
 0 1 -4 25.09 1.49 0
 0 1 -3 11.69 1.05 0
 0 1 -2 612.06 4.17 0
 0 1 -1 705.01 3.67 0
 0 2 -19 10.27 3.39 0
 0 2 -18 11.6 3.28 0
 0 2 -17 7.05 2.65 0
 0 2 -16 17.3 3.06 0
 0 2 -15 51.18 4.48 0
 0 2 -14 191.41 6.85 0
 0 2 -13 139.73 5.69 0
 0 2 -12 161.46 5.78 0
 0 2 -11 165.87 5.51 0
 0 2 -8 297.43 5.99 0
 0 2 -6 4.77 1.11 0
 0 2 -5 266.92 4.47 0
 0 2 -4 1447.08 9.28 0
 0 2 -3 995.35 7 0
 0 2 -2 432.41 4.19 0
 0 3 -19 126.61 6.92 0
 0 3 -18 -0.49 2.31 0
 0 3 -17 -1.21 2.08 0
 0 3 -16 108.78 6.05 0
 0 3 -15 32.74 3.47 0
 0 3 -13 420.08 9.51 0
 0 3 -12 -0.31 1.35 0
 0 3 -11 393.06 8.35 0
 0 3 -10 39.89 2.92 0
 0 3 -8 184.96 4.9 0
 0 3 -7 7.8 1.54 0
 0 3 -6 57.79 2.5 0
 0 3 -5 1693.53 11.88 0
 0 3 -4 1280.77 9.59 0
 0 3 -3 2670.07 12.71 0
 0 4 -19 33.24 4.79 0
 0 4 -18 24.47 3.95 0
 0 4 -17 3.02 2.45 0
 0 4 -16 6.05 2.89 0
 0 4 -15 0.54 2.28 0
 0 4 -14 60.04 4.45 0
 0 4 -13 38.85 3.38 0
 0 4 -12 339.46 8.37 0
 0 4 -11 129.23 5.07 0
 0 4 -10 150.95 5.25 0
 0 4 -7 1.19 1.09 0
 0 4 -6 31.73 2.03 0
 0 4 -5 446.11 6.54 0
 0 5 -19 167.02 7.97 0
 0 5 -18 -0.4 2.2 0
 0 5 -16 13.99 3.09 0
 0 5 -15 22.8 3.51 0
 0 5 -14 295.76 8.98 0
 0 5 -13 424.06 10.11 0
 0 5 -12 123.88 5.47 0
 0 5 -11 696.75 11.86 0
 0 5 -9 389.97 8.14 0
 0 5 -6 1527.7 13.6 0
 0 6 -18 61.83 5.35 0
 0 6 -17 4.7 2.55 0
 0 6 -16 3.72 2.37 0
 0 6 -15 14.4 3.1 0
 0 6 -14 83.22 5.08 0
 0 6 -13 27.67 3.42 0
 0 6 -10 135.62 5.22 0
 0 6 -9 -0.07 1.62 0
 1 -6 -18 4.58 3.09 0
 1 -6 -17 54.25 5.34 0
 1 -5 -18 20.45 4 0
 1 -5 -17 65.02 5.28 0
 1 -5 -16 82.39 5.95 0
 1 -4 -19 34.75 4.57 0
 1 -4 -18 44.41 5.14 0
 1 -4 -17 233.19 8.98 0
 1 -4 -16 212.25 8.17 0
 1 -3 -19 43.6 5.06 0
 1 -3 -18 21.37 3.66 0
 1 -3 -17 54.2 4.63 0
 1 -3 -16 2.39 2.21 0
 1 -3 -15 43.53 4.17 0
 1 -3 -14 16.18 3 0
 1 -2 -19 45.07 4.84 0
 1 -2 -18 39.84 4.4 0
 1 -2 -17 44.06 4.2 0
 1 -2 -16 13.41 2.86 0
 1 -2 -15 8 2.38 0
 1 -2 -14 40.49 3.83 0
 1 -2 -13 61.31 3.99 0
 1 -2 -12 0.88 1.54 0
 1 -1 -20 41.69 5.11 0
 1 -1 -19 22.92 3.62 0
 1 -1 -18 7.76 2.68 0
 1 -1 -16 9.88 2.55 0
 1 -1 -15 79.75 4.81 0
 1 -1 -13 82.42 4.38 0
 1 -1 -12 31.49 2.9 0
 1 -1 -11 233.81 6.34 0
 1 -1 0 1658.84 6.25 0
 1 -1 1 1027.34 5.6 0
 1 0 -20 104.47 6.42 0
 1 0 -19 26.62 3.71 0
 1 0 -18 4.44 2.8 0
 1 0 -17 27.36 3.58 0
 1 0 -16 1.91 2.02 0
 1 0 -15 17.34 3 0
 1 0 -14 13.12 2.47 0
 1 0 -13 133.17 5.28 0
 1 0 -12 102.14 4.48 0
 1 0 -11 1.28 1.58 0
 1 0 -9 309.74 6.23 0
 1 0 -8 226.75 5.02 0
 1 0 -7 440.24 6.33 0
 1 0 1 1099.13 5.26 0
 1 1 -20 37.56 4.52 0
 1 1 -19 16.86 3.57 0
 1 1 -18 7.52 2.79 0
 1 1 -17 11.11 2.68 0
 1 1 -16 6.39 2.23 0
 1 1 -15 70.52 4.41 0
 1 1 -14 10.57 2.32 0
 1 1 -13 76.14 4.22 0
 1 1 -12 27.41 2.84 0
 1 1 -9 103.89 3.68 0
 1 1 -8 71.05 2.92 0
 1 1 -7 159.72 3.74 0
 1 1 -6 386.81 5.25 0
 1 1 -5 2322.91 11.18 0
 1 1 -4 623.86 5.05 0
 1 2 -20 30.01 4.09 0
 1 2 -19 46.96 4.62 0
 1 2 -18 35.3 4.07 0
 1 2 -16 16.08 3 0
 1 2 -15 9.02 2.26 0
 1 2 -14 47.23 3.79 0
 1 2 -13 59.03 3.74 0
 1 2 -12 0.53 1.42 0
 1 2 -9 102.65 3.66 0
 1 2 -8 96.04 3.31 0
 1 2 -7 340.93 5.47 0
 1 2 -6 934.07 8.17 0
 1 2 -5 125.86 2.87 0
 1 2 -4 1664.05 8.69 0
 1 2 -3 497.13 4.25 0
 1 3 -19 36.07 4.38 0
 1 3 -17 58.37 4.75 0
 1 3 -16 6.85 2.36 0
 1 3 -15 33.75 3.48 0
 1 3 -14 14.84 2.6 0
 1 3 -13 75.46 4.15 0
 1 3 -12 179.53 5.77 0
 1 3 -11 194.16 5.62 0
 1 3 -9 338.65 6.56 0
 1 3 -8 88.32 3.23 0
 1 3 -7 741.34 8.28 0
 1 3 -6 632.48 7.13 0
 1 3 -5 407.08 5.31 0
 1 3 -4 276.1 4 0
 1 4 -19 38.96 4.05 0
 1 4 -18 42.53 4.42 0
 1 4 -17 233.29 8.14 0
 1 4 -16 214.81 7.74 0
 1 4 -15 37.15 3.76 0
 1 4 -13 147.86 5.78 0
 1 4 -12 112.31 4.86 0
 1 4 -11 9.98 2.09 0
 1 4 -8 1046.49 11.13 0
 1 4 -6 552.35 7.04 0
 1 5 -19 23.23 3.42 0
 1 5 -18 20.41 3.55 0
 1 5 -17 62.81 4.88 0
 1 5 -16 74.71 5.04 0
 1 5 -15 169.09 6.81 0
 1 5 -14 29.16 3.42 0
 1 5 -13 17 2.59 0
 1 5 -12 116.34 4.93 0
 1 5 -11 441.8 8.89 0
 1 6 -17 59.34 4.98 0
 1 6 -16 131.68 6.28 0
 1 6 -15 34.13 4 0
 1 6 -14 105.74 5.16 0
 1 6 -13 118.32 5.36 0
 1 6 -12 27 3.29 0
 1 6 -11 15.9 2.6 0
 2 -6 -18 120.5 6.95 0
 2 -6 -17 36.07 4.65 0
 2 -5 -18 47.06 4.73 0
 2 -5 -17 4.17 2.67 0
 2 -5 -16 18.9 3.22 0
 2 -4 -19 1.13 2.04 0
 2 -4 -18 47.69 4.69 0
 2 -4 -17 55.36 4.75 0
 2 -4 -16 45.24 4.44 0
 2 -4 -15 220.12 7.69 0
 2 -3 -19 38.35 4.21 0
 2 -3 -18 48.41 4.55 0
 2 -3 -17 11.53 2.78 0
 2 -3 -16 8.39 2.51 0
 2 -3 -15 64.13 4.65 0
 2 -3 -14 40.59 3.53 0
 2 -2 -19 40.11 4.37 0
 2 -2 -18 287.5 9.04 0
 2 -2 -17 54.59 4.53 0
 2 -2 -16 23.88 3.36 0
 2 -2 -15 57.43 4.25 0
 2 -2 -14 34.13 3.34 0
 2 -2 -13 38.72 3.18 0
 2 -2 -12 47 3.38 0
 2 -1 -19 44.22 4.24 0
 2 -1 -18 23.69 3.37 0
 2 -1 -17 160.01 6.64 0
 2 -1 -16 4.1 2.31 0
 2 -1 -15 51.36 3.79 0
 2 -1 -14 141.08 5.45 0
 2 -1 -13 32.47 2.85 0
 2 0 -18 30.84 3.63 0
 2 0 -17 12.51 2.8 0
 2 0 -16 -0.74 1.5 0
 2 0 -15 57.34 3.99 0
 2 0 -14 72.7 4.13 0
 2 0 -13 25.23 2.48 0
 2 0 -12 231.2 6.1 0
 2 0 -10 52.9 2.76 0
 2 0 -9 521.22 7.49 0
 2 0 -8 2.32 0.92 0
 2 0 -7 415.66 5.66 0
 2 0 0 216.9 2.33 0
 2 1 -18 26.55 3.5 0
 2 1 -17 167.77 6.45 0
 2 1 -16 3.83 1.89 0
 2 1 -15 54.17 3.79 0
 2 1 -14 145.71 5.4 0
 2 1 -13 30.97 2.63 0
 2 1 -10 536.9 7.9 0
 2 1 -8 178.87 3.96 0
 2 1 -7 339.09 4.84 0
 2 1 -4 359.54 3.02 0
 2 2 -17 48.83 3.96 0
 2 2 -16 22.72 2.92 0
 2 2 -15 58.65 3.76 0
 2 2 -13 36.07 2.93 0
 2 2 -12 42.12 2.95 0
 2 2 -9 153.1 4 0
 2 2 -8 235.84 4.51 0
 2 2 -7 72.62 2.38 0
 2 2 -4 1007.94 5.49 0
 2 3 -17 13.83 2.55 0
 2 3 -16 8.81 2.18 0
 2 3 -15 60.91 3.94 0
 2 3 -14 44.16 3.33 0
 2 3 -13 249.21 6.55 0
 2 3 -12 365.71 7.49 0
 2 3 -10 81.91 3.23 0
 2 3 -9 98.38 3.29 0
 2 3 -8 11.56 1.4 0
 2 3 -7 633.37 6.92 0
 2 3 -6 190.79 3.46 0
 2 4 -16 52.62 3.82 0
 2 4 -15 206.69 6.64 0
 2 4 -14 152.37 5.59 0
 2 4 -13 3.33 1.53 0
 2 4 -9 0.55 0.98 0
 2 4 -8 227.55 4.75 0
 2 5 -15 98.67 4.79 0
 2 5 -14 153.55 5.5 0
 2 5 -13 27.14 2.52 0
 2 5 -12 29.77 2.7 0
 2 5 -11 183.03 5.32 0
 3 -7 -17 24.02 4.03 0
 3 -6 -17 2.76 2.32 0
 3 -5 -17 15.95 2.97 0
 3 -5 -16 40.87 4.02 0
 3 -4 -16 19.31 2.93 0
 3 -4 -15 128.85 5.75 0
 3 -3 -16 35.33 3.36 0
 3 -3 -15 227.15 7.05 0
 3 -3 -14 16.27 2.41 0
 3 -3 -13 43.42 3.34 0
 3 -2 -15 43.31 3.32 0
 3 -2 -14 11.17 1.99 0
 3 -2 -13 102.66 4.44 0
 3 -2 -12 87.33 3.84 0
 3 -1 -14 69.46 3.69 0
 3 -1 -13 13.58 2.04 0
 3 -1 -12 85.81 3.7 0
 3 -1 -10 95.29 3.41 0
 3 -1 -9 15.88 1.62 0
 3 -1 -2 1673.2 7.18 0
 3 0 -13 42.08 2.78 0
 3 0 -10 39.43 2.18 0
 3 0 -7 116.09 2.62 0
 3 0 -6 262.96 3.35 0
 3 0 -5 299.43 2.94 0
 3 1 -13 18.39 1.97 0
 3 1 -11 151.58 4.11 0
 3 1 -8 260.4 4.04 0
 3 1 -7 1422.29 8.15 0
 3 1 -6 608.89 4.38 0
 3 2 -11 195.06 4.56 0
 3 2 -8 184.39 3.41 0
 3 2 -7 23.98 1.18 0
 3 3 -8 135.09 3.02 0
 4 -1 -8 130.75 2.85 0
 4 -1 -7 131.66 2.57 0
 4 -1 -5 329.52 3.04 0
 4 -1 -4 108.79 1.68 0
 4 -1 -3 187.36 2.27 0
 4 0 -8 17.97 0.9 0
 4 0 -7 158.44 1.89 0
 -8 -6 -9 11.84 3.83 0
 -8 -5 -9 59 5.94 0
 -8 -5 -8 7.14 3.15 0
 -8 -5 -7 71.27 5.57 0
 -8 -4 -10 111.93 7.37 0
 -8 -4 -9 9.6 3.82 0
 -8 -4 -8 74.44 6.08 0
 -7 -9 -9 32.98 5.35 0
 -7 -8 -10 69.08 6.55 0
 -7 -8 -9 3.37 3.24 0
 -7 -8 -8 2.52 2.92 0
 -7 -8 -7 50.8 5.66 0
 -7 -7 -11 16.78 4.51 0
 -7 -7 -10 12.38 4.31 0
 -7 -7 -9 31.03 5.04 0
 -7 -7 -8 7.61 3.62 0
 -7 -7 -7 7.44 2.98 0
 -7 -7 -6 3.14 2.49 0
 -7 -7 -5 45.77 4.51 0
 -7 -6 -11 19.52 4.59 0
 -7 -6 -9 11.39 4.17 0
 -7 -6 -8 2.13 3.08 0
 -7 -6 -7 18.07 3.73 0
 -7 -6 -6 41.65 4.74 0
 -7 -6 -5 118.94 6.3 0
 -7 -6 -4 17.54 3.22 0
 -7 -5 -12 46.21 6.66 0
 -7 -5 -11 22.45 5 0
 -7 -5 -10 132 8.46 0
 -7 -5 -9 25.21 4.66 0
 -7 -5 -8 43.58 5.46 0
 -7 -5 -7 59.21 5.53 0
 -7 -5 -6 73.23 5.58 0
 -7 -5 -5 38.89 4.55 0
 -7 -5 -4 112.05 5.71 0
 -7 -5 -3 1.26 1.85 0
 -7 -4 -12 177.48 10.14 0
 -7 -4 -10 59.6 6.12 0
 -7 -4 -9 26.83 4.74 0
 -7 -4 -8 4.54 3.27 0
 -7 -4 -7 97.47 6.61 0
 -7 -4 -6 185.37 7.92 0
 -7 -4 -5 0.17 2.31 0
 -7 -4 -4 17.31 3.03 0
 -7 -4 -3 72.41 4.43 0
 -7 -3 -12 6.23 3.76 0
 -7 -3 -11 28.92 5.06 0
 -7 -3 -10 106.11 7.64 0
 -7 -3 -9 2.03 2.99 0
 -7 -3 -8 56.56 5.75 0
 -7 -3 -7 40.45 5.03 0
 -7 -3 -6 124.99 6.68 0
 -7 -2 -13 16.8 4.74 0
 -7 -2 -12 20.91 4.75 0
 -7 -2 -11 111.43 8.2 0
 -7 -2 -10 13.8 4.12 0
 -7 -2 -9 31.81 4.7 0
 -7 -2 -8 72.09 6.1 0
 -7 -2 -7 33.21 4.33 0
 -7 -2 -6 10.26 3.01 0
 -7 -1 -13 35.05 5.84 0
 -7 -1 -12 16.13 4.86 0
 -7 -1 -11 77.49 7.12 0
 -7 -1 -10 38.5 5.29 0
 -7 -1 -8 182.9 8.44 0
 -6 -11 -9 29.85 5.46 0
 -6 -11 -8 34.1 5.05 0
 -6 -11 -7 85.69 6.69 0
 -6 -10 -10 19.71 4.63 0
 -6 -10 -9 4.41 3.6 0
 -6 -10 -8 46.89 5.71 0
 -6 -10 -7 8.82 3.39 0
 -6 -10 -5 9.19 3.09 0
 -6 -9 -11 52.73 6.53 0
 -6 -9 -10 98.49 7.61 0
 -6 -9 -9 13.4 4.35 0
 -6 -9 -8 33.68 4.74 0
 -6 -9 -7 3.64 3.43 0
 -6 -9 -6 11.06 3.62 0
 -6 -9 -4 24.23 3.83 0
 -6 -8 -11 19.57 5.22 0
 -6 -8 -10 6.38 4.19 0
 -6 -8 -9 37.81 5.11 0
 -6 -8 -8 4.26 3.39 0
 -6 -8 -7 115.78 7.04 0
 -6 -8 -6 6.64 2.91 0
 -6 -8 -5 13.92 3.22 0
 -6 -8 -4 38.89 4 0
 -6 -8 -3 15.18 2.65 0
 -6 -7 -12 7.48 3.99 0
 -6 -7 -9 3.56 3.08 0
 -6 -7 -8 155.72 8.3 0
 -6 -7 -7 200.9 8.63 0
 -6 -7 -5 81.39 5.16 0
 -6 -7 -4 228.15 7.63 0
 -6 -7 -3 32.62 3.43 0
 -6 -6 -13 46.53 6.27 0
 -6 -6 -10 119.31 8.06 0
 -6 -6 -9 144.41 7.89 0
 -6 -6 -8 70.92 6.04 0
 -6 -6 -6 100.68 5.94 0
 -6 -6 -5 9.71 2.67 0
 -6 -6 -4 1.25 1.89 0
 -6 -6 -3 3.58 1.91 0
 -6 -5 -12 137.91 8.71 0
 -6 -5 -11 19.79 4.92 0
 -6 -5 -10 26.33 4.59 0
 -6 -5 -9 118.86 7.58 0
 -6 -5 -7 62.24 5.46 0
 -6 -5 -6 46.96 4.33 0
 -6 -5 -5 13.12 2.89 0
 -6 -5 -4 27.08 3.52 0
 -6 -5 -3 230.74 7.11 0
 -6 -4 -14 20.96 5.48 0
 -6 -4 -13 -1.1 3.79 0
 -6 -4 -12 3.7 3.99 0
 -6 -4 -10 25.62 4.99 0
 -6 -4 -9 34.75 5.17 0
 -6 -4 -7 4.02 2.79 0
 -6 -4 -6 169.94 7.45 0
 -6 -4 -5 83.25 5.24 0
 -6 -4 -4 23.35 3.34 0
 -6 -4 -3 39.25 3.4 0
 -6 -3 -14 20.53 4.95 0
 -6 -3 -12 71.61 7.22 0
 -6 -3 -11 41.29 5.54 0
 -6 -3 -10 54 6.42 0
 -6 -3 -8 83.58 6.17 0
 -6 -3 -7 12.62 3.24 0
 -6 -3 -6 80.95 5.39 0
 -6 -3 -5 53.12 4.56 0
 -6 -3 -4 14.96 2.97 0
 -6 -3 -3 6.32 2.08 0
 -6 -2 -14 36.95 5.97 0
 -6 -2 -13 378.28 13.48 0
 -6 -2 -12 10.86 4.29 0
 -6 -2 -10 19.47 4.05 0
 -6 -2 -9 41.97 5.03 0
 -6 -2 -8 10.88 3.41 0
 -6 -2 -5 374.97 9.88 0
 -6 -2 -4 78.32 4.6 0
 -6 -2 -3 114.84 5.02 0
 -6 -1 -15 0.99 4.47 0
 -6 -1 -13 4.7 3.7 0
 -6 -1 -12 12.49 4.53 0
 -6 -1 -10 68.69 6.33 0
 -6 -1 -9 2.86 3.47 0
 -6 -1 -8 136.34 7.12 0
 -6 -1 -7 124.81 6.53 0
 -6 -1 -6 234.78 8.36 0
 -6 -1 -5 25.98 3.45 0
 -6 -1 -4 63.07 4.47 0
 -6 0 -15 149.71 9.63 0
 -6 0 -14 103.6 7.7 0
 -6 0 -13 75.63 7.23 0
 -6 0 -12 31.46 5.06 0
 -6 0 -11 10.68 3.71 0
 -6 0 -10 72.61 5.91 0
 -6 0 -9 133.24 7.53 0
 -6 0 -8 49.57 4.74 0
 -6 0 -7 467.35 11.79 0
 -6 0 -6 -1.4 2.32 0
 -6 1 -12 12.06 4.4 0
 -6 1 -11 58.59 6.21 0
 -6 1 -10 75.73 5.9 0
 -5 -13 -7 8.34 3.68 0
 -5 -12 -9 1.87 3.7 0
 -5 -12 -8 135.41 8.51 0
 -5 -12 -7 34.21 5.16 0
 -5 -12 -6 15.19 4.02 0
 -5 -12 -5 3.94 3.36 0
 -5 -11 -10 47.36 6.12 0
 -5 -11 -9 128.48 8.5 0
 -5 -11 -7 -0.01 3.5 0
 -5 -11 -5 317.59 10.5 0
 -5 -11 -4 42.03 4.99 0
 -5 -11 -3 23.6 3.85 0
 -5 -10 -12 3.02 3.93 0
 -5 -10 -10 125.33 8.32 0
 -5 -10 -9 4.74 4.09 0
 -5 -10 -8 -0.6 3.33 0
 -5 -10 -6 21.08 4.22 0
 -5 -10 -5 30.22 4.24 0
 -5 -10 -4 80.1 5.55 0
 -5 -10 -3 139.59 6.48 0
 -5 -10 -2 30.18 3.64 0
 -5 -9 -12 0.62 3.75 0
 -5 -9 -11 73.1 7.38 0
 -5 -9 -10 3.47 3.68 0
 -5 -9 -9 236.7 10.53 0
 -5 -9 -8 3.67 3.52 0
 -5 -9 -7 29.14 4.55 0
 -5 -9 -6 13.92 3.38 0
 -5 -9 -5 13.35 3.44 0
 -5 -9 -4 27.57 3.78 0
 -5 -9 -3 306.44 8.88 0
 -5 -9 -2 90.55 4.72 0
 -5 -9 -1 71.85 4.08 0
 -5 -8 -12 44.13 6.06 0
 -5 -8 -10 85.43 7.35 0
 -5 -8 -9 50.74 5.82 0
 -5 -8 -8 231.3 9.82 0
 -5 -8 -7 57.8 5.72 0
 -5 -8 -6 44.58 4.68 0
 -5 -8 -5 16.27 3.57 0
 -5 -8 -4 29.22 3.82 0
 -5 -8 -3 64.47 4.4 0
 -5 -8 -2 280.19 7.67 0
 -5 -8 0 111.9 4.2 0
 -5 -7 -14 141.37 9.19 0
 -5 -7 -13 134.43 9.32 0
 -5 -7 -12 1.88 3.51 0
 -5 -7 -10 80.73 6.83 0
 -5 -7 -9 219.9 9.74 0
 -5 -7 -8 43.55 5.61 0
 -5 -7 -7 19.96 3.98 0
 -5 -7 -6 114.75 6.35 0
 -5 -7 -5 42.1 3.96 0
 -5 -7 -4 17.83 2.97 0
 -5 -7 -3 5.22 2.23 0
 -5 -7 0 2.34 1.38 0
 -5 -7 1 15.87 1.68 0
 -5 -6 -15 10.75 4.94 0
 -5 -6 -14 53.08 6.73 0
 -5 -6 -13 15.27 4.57 0
 -5 -6 -11 7.21 3.91 0
 -5 -6 -10 13.27 4.35 0
 -5 -6 -9 19.88 4.41 0
 -5 -6 -8 23.06 3.99 0
 -5 -6 -7 3.48 2.73 0
 -5 -6 -6 214.79 7.96 0
 -5 -6 -4 145.34 6.19 0
 -5 -6 -3 12.14 2.49 0
 -5 -6 -1 355.32 7.33 0
 -5 -6 0 84.77 3.37 0
 -5 -5 -15 51.07 6.93 0
 -5 -5 -14 24.54 5.16 0
 -5 -5 -13 9.14 4.55 0
 -5 -5 -12 23.68 4.98 0
 -5 -5 -11 20.25 4.26 0
 -5 -5 -10 61.57 5.59 0
 -5 -5 -9 194.09 8.72 0
 -5 -5 -7 77.86 5.64 0
 -5 -5 -6 14.24 3.15 0
 -5 -5 -5 8.67 2.53 0
 -5 -5 -4 104.15 5.26 0
 -5 -4 -15 87.93 7.71 0
 -5 -4 -14 52.54 6.97 0
 -5 -4 -13 23.64 4.76 0
 -5 -4 -12 10.82 3.79 0
 -5 -4 -11 54.68 5.5 0
 -5 -4 -10 3.57 2.97 0
 -5 -4 -9 29.32 4.61 0
 -5 -4 -8 36.56 4.41 0
 -5 -4 -7 24.35 3.55 0
 -5 -4 -6 11.04 2.71 0
 -5 -4 -5 309.23 8.58 0
 -5 -4 -4 88.93 4.65 0
 -5 -4 -2 47.15 3.22 0
 -5 -4 -1 20.39 2.17 0
 -5 -4 0 435.39 6.97 0
 -5 -4 1 14.92 1.42 0
 -5 -3 -16 63.44 7.05 0
 -5 -3 -15 32.18 6.1 0
 -5 -3 -14 30.68 5.3 0
 -5 -3 -12 60.74 5.86 0
 -5 -3 -11 88.31 6.43 0
 -5 -3 -10 546.46 14.12 0
 -5 -3 -9 219.04 8.76 0
 -5 -3 -8 78.41 5.39 0
 -5 -3 -7 82.3 5.2 0
 -5 -3 -6 22.77 3.41 0
 -5 -3 -4 33.54 3.36 0
 -5 -3 -2 579.57 9.5 0
 -5 -3 -1 56.78 3.14 0
 -5 -3 0 8.99 1.57 0
 -5 -2 -16 5.42 3.98 0
 -5 -2 -15 22.74 5.49 0
 -5 -2 -14 39.47 5.99 0
 -5 -2 -13 0.31 3.32 0
 -5 -2 -11 6.09 3.54 0
 -5 -2 -9 160.12 7.52 0
 -5 -2 -8 340.23 10.16 0
 -5 -2 -7 117.21 6.11 0
 -5 -2 -6 30.35 3.51 0
 -5 -2 -5 104.28 5.23 0
 -5 -2 -2 30.25 2.57 0
 -5 -2 -1 73.22 3.35 0
 -5 -1 -16 18.24 4.89 0
 -5 -1 -15 20.02 5.33 0
 -5 -1 -14 3.4 4.01 0
 -5 -1 -12 198.33 9.28 0
 -5 -1 -11 117.73 7.46 0
 -5 -1 -10 54.14 5.11 0
 -5 -1 -9 7.14 2.82 0
 -5 -1 -8 8.23 2.8 0
 -5 -1 -7 65.9 4.71 0
 -5 -1 -6 47.64 3.9 0
 -5 -1 -5 12.61 2.74 0
 -5 -1 -4 7.12 2.32 0
 -5 -1 -2 93.49 4.09 0
 -5 0 -16 21.07 4.95 0
 -5 0 -15 164.63 9.37 0
 -5 0 -13 27.04 4.74 0
 -5 0 -12 10.68 3.73 0
 -5 0 -11 67.13 6.09 0
 -5 0 -10 17.52 3.74 0
 -5 0 -9 381.4 11.37 0
 -5 0 -8 86.13 5.54 0
 -5 0 -6 28.2 3.58 0
 -5 0 -5 38.05 3.74 0
 -5 0 -4 94.64 4.55 0
 -5 1 -16 22.7 5.42 0
 -5 1 -15 18.47 5.2 0
 -5 1 -14 -2.91 3.26 0
 -5 1 -11 122.56 7.59 0
 -5 1 -10 49.19 5.18 0
 -5 1 -9 3.54 2.6 0
 -5 1 -7 63.65 4.86 0
 -5 1 -6 41.46 3.63 0
 -5 1 -5 16.22 2.74 0
 -5 2 -13 -0.78 3.1 0
 -5 2 -10 4.27 2.86 0
 -5 2 -9 151.02 7.51 0
 -4 -14 -7 29.03 5.56 0
 -4 -14 -5 61.26 6.1 0
 -4 -14 -4 144.49 8.25 0
 -4 -13 -9 2.91 3.88 0
 -4 -13 -8 3.56 4.21 0
 -4 -13 -7 1.18 3.32 0
 -4 -13 -6 51.27 6.35 0
 -4 -13 -5 64.61 6.42 0
 -4 -13 -4 32.42 5.02 0
 -4 -13 -3 18.45 3.79 0
 -4 -12 -9 17.07 4.91 0
 -4 -12 -8 138.19 8.87 0
 -4 -12 -7 100.19 7.29 0
 -4 -12 -6 160.97 8.9 0
 -4 -12 -5 5.38 3.22 0
 -4 -12 -4 13.93 3.42 0
 -4 -11 -12 63.93 7.45 0
 -4 -11 -9 -3.65 3.73 0
 -4 -11 -8 166.99 8.92 0
 -4 -11 -7 52.11 6.47 0
 -4 -11 -6 71.98 6.19 0
 -4 -11 -5 4.93 3.55 0
 -4 -11 -4 151.81 7.66 0
 -4 -11 -3 19.15 3.62 0
 -4 -10 -13 0.76 4 0
 -4 -10 -11 1.65 3.66 0
 -4 -10 -8 111.81 7.83 0
 -4 -10 -7 65.07 5.67 0
 -4 -10 -6 164.84 8.32 0
 -4 -10 -5 44.15 5.34 0
 -4 -10 -4 89.45 5.75 0
 -4 -10 -3 56.86 4.6 0
 -4 -10 -2 171.01 6.91 0
 -4 -9 -14 28.36 5.85 0
 -4 -9 -13 4.34 4.08 0
 -4 -9 -12 198.26 10.58 0
 -4 -9 -11 48.18 6.4 0
 -4 -9 -8 213 9.38 0
 -4 -9 -7 68.58 5.89 0
 -4 -9 -6 9.56 3.13 0
 -4 -9 -5 3.17 3.07 0
 -4 -9 -4 118.54 6.51 0
 -4 -9 -3 13.53 3.18 0
 -4 -9 -2 8.83 2.35 0
 -4 -9 -1 6.27 2.18 0
 -4 -9 1 6.54 1.73 0
 -4 -9 2 7.71 1.63 0
 -4 -8 -14 8.85 4.42 0
 -4 -8 -13 16.86 4.6 0
 -4 -8 -12 191.01 10.14 0
 -4 -8 -11 26.55 5.2 0
 -4 -8 -10 83.76 7.08 0
 -4 -8 -9 17.12 4.09 0
 -4 -8 -7 127.68 6.95 0
 -4 -8 -6 38.58 4.73 0
 -4 -8 -5 66.87 5.16 0
 -4 -8 -4 14.36 3.12 0
 -4 -8 -3 15.89 3.09 0
 -4 -8 0 196.92 5.79 0
 -4 -8 1 19.87 2.2 0
 -4 -8 2 75.86 3 0
 -4 -7 -15 67.12 8.21 0
 -4 -7 -14 23.65 5.39 0
 -4 -7 -13 38.53 5.74 0
 -4 -7 -12 74.91 6.58 0
 -4 -7 -11 185.13 9.34 0
 -4 -7 -9 92.36 6.42 0
 -4 -7 -8 163.97 8.04 0
 -4 -7 -7 401.21 11.15 0
 -4 -7 -6 42.2 4.17 0
 -4 -7 -5 265.75 8.39 0
 -4 -7 -1 422.11 8.36 0
 -4 -7 0 16.16 2.22 0
 -4 -7 1 405.67 6.76 0
 -4 -7 2 149.82 3.62 0
 -4 -7 3 358.09 4.13 0
 -4 -6 -16 74.63 7.91 0
 -4 -6 -15 1.66 4.73 0
 -4 -6 -14 2.32 3.89 0
 -4 -6 -13 7.09 3.92 0
 -4 -6 -11 124.93 8 0
 -4 -6 -10 205.61 9.05 0
 -4 -6 -9 237.53 9.6 0
 -4 -6 -7 79.55 5.35 0
 -4 -6 -6 199.46 7.53 0
 -4 -6 -5 32.74 3.45 0
 -4 -6 -4 19.03 3.04 0
 -4 -6 -1 52.93 3.26 0
 -4 -6 0 18.87 2.12 0
 -4 -6 1 54.39 2.49 0
 -4 -6 2 390.92 5.06 0
 -4 -5 -16 14.55 4.75 0
 -4 -5 -15 -3.99 2.88 0
 -4 -5 -14 23.17 4.75 0
 -4 -5 -13 26.44 4.99 0
 -4 -5 -12 35.42 5.6 0
 -4 -5 -11 125.42 7.43 0
 -4 -5 -10 5.83 3.03 0
 -4 -5 -9 129.29 7.15 0
 -4 -5 -6 2.16 2.38 0
 -4 -5 -5 4.76 2.15 0
 -4 -5 -2 150.22 5.07 0
 -4 -5 0 620.77 8.16 0
 -4 -5 1 227.98 4.36 0
 -4 -5 2 149.71 2.84 0
 -4 -4 -17 28.06 5.52 0
 -4 -4 -16 5 4.18 0
 -4 -4 -15 16.93 4.7 0
 -4 -4 -13 60.47 6 0
 -4 -4 -12 44.94 5.73 0
 -4 -4 -11 22.18 4.15 0
 -4 -4 -9 49.04 4.55 0
 -4 -4 -8 152.52 6.9 0
 -4 -4 -6 51.5 4.39 0
 -4 -4 -3 139.41 5.13 0
 -4 -4 -1 -0.18 1.1 0
 -4 -4 0 1047.11 9.93 0
 -4 -4 1 0.16 0.82 0
 -4 -4 2 127.11 2.41 0
 -4 -3 -17 19.89 5.15 0
 -4 -3 -16 16.85 4.7 0
 -4 -3 -15 78.87 7.22 0
 -4 -3 -13 45.43 5.14 0
 -4 -3 -12 31.43 4.58 0
 -4 -3 -11 115.11 7.11 0
 -4 -3 -9 75.75 5.47 0
 -4 -3 -8 1.98 2.25 0
 -4 -3 -6 73.88 4.74 0
 -4 -3 -2 24.68 2.2 0
 -4 -3 -1 441.13 7.05 0
 -4 -3 0 26.84 1.87 0
 -4 -3 1 452.55 5.57 0
 -4 -2 -17 64.14 7.72 0
 -4 -2 -16 12.02 4.23 0
 -4 -2 -15 52.83 6.56 0
 -4 -2 -14 227.28 10.14 0
 -4 -2 -13 125.11 7.96 0
 -4 -2 -12 178.91 8.79 0
 -4 -2 -11 37.45 4.9 0
 -4 -2 -10 290.33 9.86 0
 -4 -2 -9 63.11 4.79 0
 -4 -2 -8 86.1 5.43 0
 -4 -2 -7 177.74 6.87 0
 -4 -2 -6 127.69 5.64 0
 -4 -2 -3 427.81 8.09 0
 -4 -2 -2 28.18 2.51 0
 -4 -2 -1 614.49 8.23 0
 -4 -2 0 177.52 4.12 0
 -4 -1 -17 124.21 8.57 0
 -4 -1 -16 57.82 7.12 0
 -4 -1 -15 4.33 3.74 0
 -4 -1 -14 70.55 6.92 0
 -4 -1 -13 56.51 5.78 0
 -4 -1 -11 8 3.31 0
 -4 -1 -9 185.89 7.66 0
 -4 -1 -8 135.54 6.44 0
 -4 -1 -7 129.23 5.87 0
 -4 -1 -3 181.97 5.43 0
 -4 -1 -2 30.3 2.63 0
 -4 -1 -1 1089.52 10.93 0
 -4 0 -17 43.43 6.39 0
 -4 0 -16 26.86 5.16 0
 -4 0 -15 307.16 12.22 0
 -4 0 -14 108.84 7.74 0
 -4 0 -13 0.64 3.09 0
 -4 0 -12 4.03 3.54 0
 -4 0 -11 28.67 4.13 0
 -4 0 -8 17.8 3.13 0
 -4 0 -7 151.86 6.23 0
 -4 0 -6 48.26 3.66 0
 -4 0 -3 141.35 4.81 0
 -4 0 -2 8.2 1.64 0
 -4 1 -17 119.48 8.15 0
 -4 1 -15 8.06 4.31 0
 -4 1 -14 71.87 6.77 0
 -4 1 -13 64.83 6.25 0
 -4 1 -12 98.69 6.41 0
 -4 1 -11 5.9 3.16 0
 -4 1 -10 46.76 4.58 0
 -4 1 -9 167.33 7.24 0
 -4 1 -7 129.78 5.84 0
 -4 1 -6 504.37 10.62 0
 -4 2 -17 62.37 6.76 0
 -4 2 -16 13.19 4.24 0
 -4 2 -15 59.48 6.8 0
 -4 2 -14 240.3 10.24 0
 -4 2 -11 33.79 4.81 0
 -4 2 -10 283.27 9.52 0
 -4 2 -9 56.79 4.36 0
 -4 2 -8 82.13 5.23 0
 -4 2 -7 195.14 7.05 0
 -4 3 -12 32.66 4.94 0
 -4 3 -11 119.16 6.92 0
 -4 3 -10 90.45 5.72 0
 -3 -13 -10 15.69 4.96 0
 -3 -13 -9 137.38 9.42 0
 -3 -12 -12 55.76 7.24 0
 -3 -12 -10 3.46 4.04 0
 -3 -12 -9 23.87 5.45 0
 -3 -11 -13 60.93 7.71 0
 -3 -11 -12 16.64 5.42 0
 -3 -11 -11 23.97 5.57 0
 -3 -11 -10 20.3 4.92 0
 -3 -11 -9 377.6 13.36 0
 -3 -10 -14 6.17 4.42 0
 -3 -10 -13 22.24 5.65 0
 -3 -10 -12 9.1 4.21 0
 -3 -10 -11 35.1 5.77 0
 -3 -10 -10 5.01 4.01 0
 -3 -9 -15 31.88 6.38 0
 -3 -9 -12 134.58 8.65 0
 -3 -9 -11 22.37 4.6 0
 -3 -9 -10 22.06 4.78 0
 -3 -8 -15 73.45 8.24 0
 -3 -8 -13 60.43 7 0
 -3 -8 -12 90.49 7.62 0
 -3 -8 -11 60.4 6.48 0
 -3 -8 -10 37.16 5.22 0
 -3 -8 -9 40.83 5.08 0
 -3 -7 -16 16.51 5.66 0
 -3 -7 -15 52.96 6.88 0
 -3 -7 -14 9.34 4.13 0
 -3 -7 -13 39.16 6.06 0
 -3 -7 -12 39.51 5.92 0
 -3 -7 -9 134.72 7.2 0
 -3 -7 -8 27.47 3.97 0
 -3 -7 -7 17.34 3.29 0
 -3 -6 -17 0.43 3.77 0
 -3 -6 -15 130.38 8.8 0
 -3 -6 -14 124.62 8.21 0
 -3 -6 -13 85.42 7 0
 -3 -6 -11 37.21 5.34 0
 -3 -6 -10 257.74 9.94 0
 -3 -6 -8 51.14 5.02 0
 -3 -6 -6 426.02 10.52 0
 -3 -6 4 328.43 3.18 0
 -3 -5 -14 4.24 3.78 0
 -3 -5 -8 236.11 8.41 0
 -3 -5 -7 8.89 2.46 0
 -3 -5 -6 15.43 2.84 0
 -3 -5 -3 61.62 3.53 0
 -3 -5 -1 7.69 1.64 0
 -3 -5 0 787.51 8.91 0
 -3 -5 1 9.93 1.28 0
 -3 -5 2 82.88 2.36 0
 -3 -5 3 62.26 1.56 0
 -3 -4 -18 8.45 4.23 0
 -3 -4 -17 84.23 7.87 0
 -3 -4 -16 23.47 5.3 0
 -3 -4 -14 26.32 4.76 0
 -3 -4 -13 84.34 6.46 0
 -3 -4 -12 39.14 4.9 0
 -3 -4 -11 94.49 6.43 0
 -3 -4 -10 147.82 7.21 0
 -3 -4 -9 36.85 3.94 0
 -3 -4 -8 239.62 8.21 0
 -3 -4 -7 604.01 11.96 0
 -3 -4 -4 471.62 8.97 0
 -3 -4 -3 56.2 3.29 0
 -3 -4 -2 130.45 4.35 0
 -3 -4 -1 998.11 10.2 0
 -3 -4 2 134.42 2.42 0
 -3 -3 -18 84.71 7.77 0
 -3 -3 -17 40.73 6.3 0
 -3 -3 -16 31.81 5.71 0
 -3 -3 -15 246.11 10.83 0
 -3 -3 -14 10.31 3.89 0
 -3 -3 -13 41.07 5.42 0
 -3 -3 -10 54.27 4.77 0
 -3 -3 -8 133.61 5.96 0
 -3 -3 -5 176.65 5.77 0
 -3 -3 -4 61.41 3.47 0
 -3 -3 -3 766.42 10.14 0
 -3 -3 -2 90.53 3.53 0
 -3 -3 -1 513.54 7.02 0
 -3 -3 0 996.34 8.51 0
 -3 -3 1 513.37 5.19 0
 -3 -3 2 91.39 1.7 0
 -3 -2 -18 22.35 5.05 0
 -3 -2 -17 3.41 4.05 0
 -3 -2 -16 54.16 6.59 0
 -3 -2 -15 46.18 5.72 0
 -3 -2 -13 102 6.92 0
 -3 -2 -12 82.58 5.86 0
 -3 -2 -11 184.2 7.94 0
 -3 -2 -10 54.85 4.47 0
 -3 -2 -9 121.67 5.93 0
 -3 -2 -5 501.93 9.33 0
 -3 -2 -4 668.32 9.86 0
 -3 -2 -3 323.23 6.47 0
 -3 -2 -2 581.29 7.83 0
 -3 -2 0 556.85 6.13 0
 -3 -2 1 90.88 2.22 0
 -3 -1 -18 6.42 3.82 0
 -3 -1 -16 50.68 6.46 0
 -3 -1 -15 367.81 12.65 0
 -3 -1 -14 63.47 5.68 0
 -3 -1 -12 87.11 5.78 0
 -3 -1 -11 149.95 6.92 0
 -3 -1 -9 11.03 2.54 0
 -3 -1 -4 46.89 2.83 0
 -3 -1 -3 17.41 2.01 0
 -3 -1 -2 1701.58 13.18 0
 -3 -1 -1 114.29 3.31 0
 -3 0 -18 19.47 4.9 0
 -3 0 -17 0.6 3.23 0
 -3 0 -16 18.16 4.29 0
 -3 0 -15 -1.61 3.4 0
 -3 0 -14 106.55 6.8 0
 -3 0 -12 157.66 7.4 0
 -3 0 -10 38.74 3.71 0
 -3 0 -9 28.71 3.52 0
 -3 0 -8 216.98 7.28 0
 -3 0 -5 300.19 7.04 0
 -3 0 -4 -0 1.33 0
 -3 0 -3 204.73 5.21 0
 -3 0 -2 1094.21 10.84 0
 -3 0 -1 27.82 2.03 0
 -3 1 -18 4.54 3.99 0
 -3 1 -17 16.45 4.31 0
 -3 1 -16 40.25 5.73 0
 -3 1 -15 356.64 12.01 0
 -3 1 -14 64.71 5.95 0
 -3 1 -13 19.33 4.09 0
 -3 1 -12 82.66 5.79 0
 -3 1 -11 152.32 6.92 0
 -3 1 -10 91.56 5.46 0
 -3 1 -8 257.81 7.71 0
 -3 1 -5 424.92 8.41 0
 -3 1 -4 48.57 2.93 0
 -3 1 -3 14.91 1.98 0
 -3 1 -2 1726.06 13.54 0
 -3 2 -17 1.89 3.21 0
 -3 2 -16 47.49 5.78 0
 -3 2 -15 54.71 6.24 0
 -3 2 -14 7.86 3.58 0
 -3 2 -13 104.43 6.76 0
 -3 2 -12 80.29 5.53 0
 -3 2 -11 182.01 7.69 0
 -3 2 -10 59.87 4.8 0
 -3 2 -4 692 9.93 0
 -3 3 -15 244.38 10 0
 -3 3 -14 15.94 3.97 0
 -3 3 -12 14.64 3.56 0
 -3 3 -11 262.69 8.83 0
 -3 3 -10 55.35 4.55 0
 -3 3 -9 44.33 3.77 0
 -3 3 -7 723.63 12.04 0
 -2 -12 -12 40.39 6.95 0
 -2 -11 -12 76.9 8.18 0
 -2 -10 -13 13.29 4.74 0
 -2 -10 -12 91.33 7.7 0
 -2 -9 -15 56.76 7.21 0
 -2 -9 -14 12.77 4.72 0
 -2 -9 -11 23.58 5.11 0
 -2 -8 -13 28.73 5.06 0
 -2 -8 -11 104.41 7.48 0
 -2 -7 -17 65.67 8.16 0
 -2 -7 -16 48.32 6.67 0
 -2 -7 -10 8.42 3.26 0
 -2 -6 -17 38.44 6.7 0
 -2 -6 -16 87.23 7.47 0
 -2 -6 -15 12.27 4.24 0
 -2 -6 -14 78.43 7.27 0
 -2 -6 -13 216.85 9.7 0
 -2 -6 -11 79.59 6.02 0
 -2 -6 -10 65.6 5.23 0
 -2 -6 -9 109.71 6.54 0
 -2 -5 -17 0.91 3.61 0
 -2 -5 -14 144.49 8.25 0
 -2 -5 -13 27.67 4.78 0
 -2 -5 -12 25.12 4.12 0
 -2 -5 -11 179.37 8.14 0
 -2 -5 -8 292.29 8.93 0
 -2 -4 -18 43.25 6.19 0
 -2 -4 -17 49.68 6.64 0
 -2 -4 -15 198.66 9.9 0
 -2 -4 -12 346.17 11.1 0
 -2 -4 -10 95.93 5.71 0
 -2 -4 -9 -0.59 1.77 0
 -2 -4 -8 216.8 7.37 0
 -2 -4 4 1063.01 5.12 0
 -2 -4 5 404 3.11 0
 -2 -3 -19 32 6.02 0
 -2 -3 -18 58.9 6.7 0
 -2 -3 -17 11.31 4.42 0
 -2 -3 -16 6.08 3.58 0
 -2 -3 -15 60.06 5.8 0
 -2 -3 -13 255.74 9.8 0
 -2 -3 -12 354.9 10.78 0
 -2 -3 -11 159.56 7.17 0
 -2 -3 -10 80.71 5.01 0
 -2 -3 -6 191.83 6.03 0
 -2 -3 -4 1812.7 15.78 0
 -2 -3 -3 393.76 6.88 0
 -2 -2 -19 36.74 5.64 0
 -2 -2 -17 48.73 5.74 0
 -2 -2 -16 22.7 4.33 0
 -2 -2 -14 39.06 5.41 0
 -2 -2 -13 37.49 4.68 0
 -2 -2 -6 39.88 2.82 0
 -2 -2 -5 122.1 4.35 0
 -2 -2 -4 1039.86 11.2 0
 -2 -2 -2 1760.19 12.2 0
 -2 -2 -1 598.75 6.31 0
 -2 -2 0 1162.6 7.56 0
 -2 -1 -19 44.25 5.99 0
 -2 -1 -17 167.26 8.81 0
 -2 -1 -16 0.27 3.07 0
 -2 -1 -14 143.13 7.61 0
 -2 -1 -13 31.04 4.18 0
 -2 -1 -12 115.11 6.16 0
 -2 -1 -11 17.85 3.53 0
 -2 -1 -10 519 11.25 0
 -2 -1 -9 115.45 5.33 0
 -2 -1 -6 458.05 8.51 0
 -2 -1 -5 538.12 8.66 0
 -2 -1 -3 811.1 8.91 0
 -2 -1 -2 3171.54 15.76 0
 -2 -1 -1 2522.58 12.38 0
 -2 -1 0 275.85 3.58 0
 -2 0 -19 44.26 6.1 0
 -2 0 -18 30.77 4.8 0
 -2 0 -17 11.94 3.92 0
 -2 0 -16 1.85 2.99 0
 -2 0 -14 66.93 5.8 0
 -2 0 -13 21.14 3.65 0
 -2 0 -12 226.32 8.21 0
 -2 0 -10 51.52 3.96 0
 -2 0 -7 412.29 8.41 0
 -2 0 -6 816.03 11.01 0
 -2 0 -4 1826.32 14.1 0
 -2 0 -3 1607.02 12.34 0
 -2 0 -2 188.07 3.94 0
 -2 0 -1 3353.66 14.53 0
 -2 0 0 207.56 3.27 0
 -2 1 -19 47.46 6.13 0
 -2 1 -18 21.77 4.74 0
 -2 1 -16 3.26 3.49 0
 -2 1 -14 148.63 7.54 0
 -2 1 -7 322.9 7.38 0
 -2 1 -6 481.43 8.43 0
 -2 1 -5 510.87 8.4 0
 -2 1 -4 355.54 6.43 0
 -2 1 -3 807.03 8.89 0
 -2 1 -2 3159.25 15.97 0
 -2 2 -18 294.74 10.97 0
 -2 2 -17 48.15 5.71 0
 -2 2 -15 61.42 5.34 0
 -2 2 -14 40.69 4.93 0
 -2 2 -12 48.46 4.32 0
 -2 2 -10 320.84 8.69 0
 -2 2 -9 140.32 5.67 0
 -2 2 -6 35.53 2.9 0
 -2 2 -5 123.87 4.24 0
 -2 2 -4 1018.16 10.86 0
 -2 2 -3 302.92 5.6 0
 -2 3 -16 8.38 3.68 0
 -2 3 -15 69.56 5.79 0
 -2 3 -14 44.4 4.9 0
 -2 3 -13 250.15 8.96 0
 -2 3 -11 156.35 6.67 0
 -2 3 -10 89.42 4.96 0
 -2 3 -9 97.84 4.79 0
 -2 4 -12 344.42 9.71 0
 -2 4 -11 12.79 2.62 0
 -1 -10 -15 10.31 5.41 0
 -1 -10 -14 52.19 7.44 0
 -1 -9 -15 10.32 4.65 0
 -1 -9 -14 36.47 6.71 0
 -1 -8 -16 71.73 7.1 0
 -1 -8 -15 43.53 6.23 0
 -1 -8 -14 16.57 4.57 0
 -1 -8 -13 35.51 5.45 0
 -1 -7 -17 21.03 5.56 0
 -1 -7 -16 120.91 8.83 0
 -1 -7 -15 88.41 7.84 0
 -1 -7 -14 28.94 5.48 0
 -1 -7 -13 36.19 5.63 0
 -1 -7 -12 10.89 3.68 0
 -1 -6 -18 7.6 4.41 0
 -1 -6 -17 48.3 6.5 0
 -1 -6 -16 118.1 8.52 0
 -1 -6 -15 34.03 5.63 0
 -1 -6 -14 100.46 7.39 0
 -1 -6 -13 128.4 8 0
 -1 -6 -12 32.93 4.99 0
 -1 -5 -14 31.68 4.97 0
 -1 -5 -13 16.29 3.83 0
 -1 -5 -11 429.9 11.85 0
 -1 -4 -19 40.59 6.05 0
 -1 -4 -18 42.94 5.7 0
 -1 -4 -17 237.38 10.44 0
 -1 -4 -16 222.09 10.06 0
 -1 -4 -15 40.97 5.33 0
 -1 -4 -13 157.95 8.02 0
 -1 -4 -12 107.61 6.47 0
 -1 -4 -11 9.06 2.87 0
 -1 -4 -10 350.71 9.88 0
 -1 -3 -19 36.36 5.37 0
 -1 -3 -18 27.83 4.82 0
 -1 -3 -17 55.96 6.59 0
 -1 -3 -15 41.85 5.19 0
 -1 -3 -14 16.51 3.61 0
 -1 -3 -12 175.01 7.61 0
 -1 -3 -11 190.78 7.36 0
 -1 -3 -10 217.25 7.46 0
 -1 -3 3 829.74 5.3 0
 -1 -2 -19 49.93 6.35 0
 -1 -2 -18 35.33 5.23 0
 -1 -2 -17 49.66 5.4 0
 -1 -2 -16 17.69 4.36 0
 -1 -2 -15 8.96 3.19 0
 -1 -2 -13 62.44 5.13 0
 -1 -2 -12 0.52 2.25 0
 -1 -2 -11 251.4 8.09 0
 -1 -2 -10 624.96 12.02 0
 -1 -2 -6 945.64 11.75 0
 -1 -2 4 1710.85 7.57 0
 -1 -1 -19 21.68 4.87 0
 -1 -1 -18 4.58 3.19 0
 -1 -1 -17 15.14 3.91 0
 -1 -1 -16 6.7 3.19 0
 -1 -1 -15 78.95 6.11 0
 -1 -1 -14 15.37 3.27 0
 -1 -1 -13 83.13 5.55 0
 -1 -1 -12 26.27 3.83 0
 -1 -1 -11 225.65 7.58 0
 -1 -1 -8 74.88 3.94 0
 -1 -1 -7 167.85 5.16 0
 -1 -1 -6 384.58 7.22 0
 -1 -1 -5 2329.01 16.02 0
 -1 -1 -4 613.4 7.57 0
 -1 -1 -3 9782.11 26.94 0
 -1 -1 -2 196.86 3.53 0
 -1 -1 -1 1004.44 6.47 0
 -1 -1 0 1604.58 6.22 0
 -1 0 -20 99.3 7.3 0
 -1 0 -19 23.92 4.82 0
 -1 0 -18 4.38 3.19 0
 -1 0 -17 20.12 4.09 0
 -1 0 -16 1.98 3.06 0
 -1 0 -15 21.34 3.81 0
 -1 0 -14 11.31 3.04 0
 -1 0 -12 100.6 5.56 0
 -1 0 -11 2.03 2.23 0
 -1 0 -8 223.18 6.11 0
 -1 0 -4 451.21 6.29 0
 -1 0 -3 1279.54 9.41 0
 -1 0 -2 832.81 6.59 0
 -1 0 -1 1068.78 6.27 0
 -1 1 -20 37.42 5.23 0
 -1 1 -19 18.81 4.08 0
 -1 1 -18 3.95 3.09 0
 -1 1 -17 16.11 4.16 0
 -1 1 -15 70.76 5.5 0
 -1 1 -13 76.63 4.95 0
 -1 1 -12 27.49 3.39 0
 -1 1 -8 76.64 3.67 0
 -1 1 -7 161.78 4.82 0
 -1 1 -6 383.08 6.77 0
 -1 1 -5 2357.01 15.3 0
 -1 1 -4 609.47 7.25 0
 -1 1 -3 9695.3 25.48 0
 -1 1 -2 193.04 3.42 0
 -1 2 -19 44.43 5.25 0
 -1 2 -18 39.22 4.77 0
 -1 2 -16 17.8 3.53 0
 -1 2 -15 13.43 3.38 0
 -1 2 -14 39.56 4.01 0
 -1 2 -12 0.25 2.22 0
 -1 2 -11 260.27 7.72 0
 -1 2 -8 90.31 3.99 0
 -1 2 -7 347.52 7.06 0
 -1 2 -6 934.88 10.58 0
 -1 2 -5 122.02 3.79 0
 -1 2 -4 1759.89 12.45 0
 -1 2 -3 497.08 6.12 0
 -1 3 -17 51.73 5.14 0
 -1 3 -16 5.97 2.86 0
 -1 3 -15 34.58 4.32 0
 -1 3 -14 16.56 3.08 0
 -1 3 -12 174.59 6.82 0
 -1 3 -11 193.9 6.59 0
 -1 3 -8 83.22 3.82 0
 -1 3 -7 742.34 10.22 0
 -1 3 -6 620.96 8.65 0
 -1 4 -13 158.54 6.45 0
 -1 4 -12 109.86 5.47 0
 -1 4 -11 11.96 2.83 0
 -1 4 -10 350.66 8.18 0
 0 -10 -15 37.8 6.94 0
 0 -9 -16 31.59 5.77 0
 0 -9 -15 12.19 5.1 0
 0 -8 -16 23.67 5.21 0
 0 -8 -15 56.08 6.99 0
 0 -7 -18 43.24 6.78 0
 0 -7 -17 1.52 3.6 0
 0 -7 -16 56.65 6.19 0
 0 -7 -15 32.81 5.76 0
 0 -6 -18 68.03 6.95 0
 0 -6 -17 1.72 3.73 0
 0 -6 -15 15.87 4.38 0
 0 -6 -14 84.72 6.98 0
 0 -6 -13 18.98 4.05 0
 0 -5 -19 158.05 9.34 0
 0 -5 -18 2.06 3.68 0
 0 -5 -17 380.43 12.92 0
 0 -5 -16 12.75 4.11 0
 0 -5 -15 22.09 4.67 0
 0 -5 -14 312.67 10.87 0
 0 -5 -13 421.97 12.38 0
 0 -5 -12 118.86 6.63 0
 0 -4 -18 18.28 4.6 0
 0 -4 -17 2.58 3.08 0
 0 -4 -16 6.22 3.31 0
 0 -4 -15 -1.99 3.11 0
 0 -4 -14 58.29 5.46 0
 0 -4 -13 43.75 4.49 0
 0 -4 -12 348.19 10.56 0
 0 -3 -20 21.09 4.58 0
 0 -3 -19 129.4 7.83 0
 0 -3 -18 3.89 3.2 0
 0 -3 -17 0.1 3.22 0
 0 -3 -15 37.83 5.01 0
 0 -3 -13 411.13 11.02 0
 0 -3 -12 -0.78 2.27 0
 0 -3 -11 386.33 10.01 0
 0 -3 -10 44.5 3.67 0
 0 -2 -20 82.23 6.59 0
 0 -2 -18 15.28 3.79 0
 0 -2 -17 2.71 2.98 0
 0 -2 -13 146.46 6.71 0
 0 -2 -12 157.54 6.65 0
 0 -2 -11 163.58 6.53 0
 0 -2 2 418.61 3.95 0
 0 -1 -19 37.87 5.09 0
 0 -1 -18 10.56 3.31 0
 0 -1 -17 10.11 3.38 0
 0 -1 -16 180.84 8.11 0
 0 -1 -15 2.65 2.68 0
 0 -1 -13 76.42 4.84 0
 0 -1 -12 2.58 2.22 0
 0 -1 -11 7.48 2.39 0
 0 -1 -9 47 3.28 0
 0 -1 -8 14.16 2.14 0
 0 -1 -7 206.66 5.44 0
 0 -1 -6 278.36 5.77 0
 0 -1 2 640.97 4.44 0
 0 0 -19 1.95 2.47 0
 0 0 -18 221.34 8.89 0
 0 0 -17 -0.04 2.56 0
 0 0 -16 113.1 6.44 0
 0 0 -15 1.1 2.18 0
 0 0 -14 21.84 3.32 0
 0 0 -13 -0.58 1.96 0
 0 0 -12 -1.15 1.68 0
 0 0 -9 0.32 1.34 0
 0 0 -8 4688.84 24.98 0
 0 0 -7 1.11 1.18 0
 0 0 -6 284.48 5.51 0
 0 0 -5 -0.05 1.26 0
 0 0 -4 2009.77 11.27 0
 0 1 -18 12.68 3.46 0
 0 1 -17 12.76 3.11 0
 0 1 -16 191.79 7.8 0
 0 1 -15 -0.79 1.98 0
 0 1 -14 26.57 3.45 0
 0 1 -13 80.21 4.63 0
 0 1 -12 2.48 1.84 0
 0 1 -10 15.9 2.35 0
 0 1 -9 40.65 2.92 0
 0 1 -8 16.82 2.24 0
 0 1 -7 203.81 4.81 0
 0 1 -6 275 5.18 0
 0 1 -5 2190.51 12.62 0
 0 1 -4 26.81 1.48 0
 0 1 -2 599.41 4.19 0
 0 2 -18 13 2.88 0
 0 2 -17 5.61 2.6 0
 0 2 -15 52.66 4.44 0
 0 2 -14 192.58 6.92 0
 0 2 -13 134.16 5.87 0
 0 2 -9 17.41 2.19 0
 0 2 -8 310.37 6.28 0
 0 2 -7 226.51 5.02 0
 0 2 -6 4.27 1.18 0
 0 2 -5 262.68 4.5 0
 0 2 -4 1484.75 9.49 0
 0 3 -17 -1.48 1.55 0
 0 3 -16 115.34 5.82 0
 0 3 -15 40.2 3.93 0
 0 3 -14 20.77 2.94 0
 0 3 -12 1.87 1.7 0
 0 3 -10 36.74 3.11 0
 0 3 -9 -0.02 1.23 0
 0 3 -7 4.92 1.24 0
 0 3 -6 59.06 2.5 0
 1 -9 -16 10.53 4.27 0
 1 -8 -17 9.36 4.13 0
 1 -8 -16 83.84 7.26 0
 1 -8 -15 34.26 5.78 0
 1 -7 -18 31.06 5.55 0
 1 -7 -16 121.89 8.14 0
 1 -7 -15 101.15 7.55 0
 1 -6 -17 58.34 6.72 0
 1 -6 -16 122.53 7.75 0
 1 -6 -15 33.68 5.21 0
 1 -6 -14 107.03 7.36 0
 1 -5 -18 23.95 4.84 0
 1 -5 -17 52.07 6.4 0
 1 -5 -16 79.88 6.23 0
 1 -5 -15 171.64 8.36 0
 1 -5 -14 28.36 4.67 0
 1 -4 -19 29.38 4.8 0
 1 -4 -18 45.68 5.73 0
 1 -4 -17 237.17 9.71 0
 1 -4 -16 216.24 9.25 0
 1 -4 -15 38.85 5.1 0
 1 -3 -19 45.37 5.48 0
 1 -3 -18 25.68 4.44 0
 1 -3 -17 47.13 5.11 0
 1 -3 -16 4.09 2.81 0
 1 -3 -15 32.34 4.59 0
 1 -3 -14 18.51 3.33 0
 1 -3 -13 73.39 5.1 0
 1 -3 -12 184.36 7.26 0
 1 -2 -18 33.33 4.44 0
 1 -2 -17 45.63 4.84 0
 1 -2 -16 17.32 3.43 0
 1 -2 -15 6.23 2.77 0
 1 -2 -14 37.89 3.89 0
 1 -2 -13 55.08 4.52 0
 1 -2 -12 1.11 2.2 0
 1 -1 -18 6.01 2.44 0
 1 -1 -17 14.4 3.43 0
 1 -1 -16 11.9 2.93 0
 1 -1 -15 82.05 5.04 0
 1 -1 -14 13.45 2.96 0
 1 -1 -13 83.57 4.88 0
 1 -1 -12 28.28 3.23 0
 1 -1 -10 155.48 5.29 0
 1 -1 -9 103.72 4.14 0
 1 0 -17 22.53 3.18 0
 1 0 -16 3.58 2.07 0
 1 0 -15 21.2 3.07 0
 1 0 -14 10.16 2.44 0
 1 0 -13 132.81 5.61 0
 1 0 -9 300.73 6.48 0
 1 0 -8 221.02 5.1 0
 1 0 -7 446.98 6.69 0
 1 0 -6 36.45 1.96 0
 1 0 0 0.31 0.54 0
 1 0 1 1101.81 6.44 0
 1 1 -16 7.68 2.04 0
 1 1 -14 11.39 2.33 0
 1 1 -13 81.37 4.27 0
 1 1 -11 218.5 5.91 0
 1 1 -10 145.29 4.66 0
 1 1 -9 104.85 3.72 0
 1 1 -8 75.11 2.87 0
 1 1 -7 168 3.85 0
 1 1 -6 374.7 5.06 0
 1 2 -15 10.64 2.23 0
 1 2 -14 37.01 3.21 0
 1 2 -11 254.49 6.08 0
 1 2 -10 651.89 9.05 0
 1 2 -9 103.7 3.55 0
 1 2 -8 100.08 3.18 0
 1 2 -7 342.76 5.15 0
 1 3 -14 16.09 2.32 0
 1 3 -11 193.24 5.19 0
 1 3 -10 220.92 5.17 0
 1 3 -9 349.38 6.03 0
 1 3 -8 83.71 2.84 0
 2 -9 -16 40.5 6.38 0
 2 -8 -17 16.11 4.56 0
 2 -8 -16 139.3 8.88 0
 2 -7 -16 40.73 5.78 0
 2 -6 -18 120.14 7.7 0
 2 -6 -17 35.27 4.99 0
 2 -6 -16 83.16 6.38 0
 2 -6 -15 12.95 3.77 0
 2 -5 -18 56.19 5.64 0
 2 -5 -17 3.9 3.01 0
 2 -5 -16 21.5 3.97 0
 2 -5 -15 108.82 6.84 0
 2 -5 -14 156.25 7.93 0
 2 -4 -17 46.85 5.31 0
 2 -4 -16 49.18 5.16 0
 2 -4 -15 219.96 8.66 0
 2 -4 -14 150.6 7.1 0
 2 -3 -16 9.4 2.77 0
 2 -3 -15 62.81 4.88 0
 2 -3 -14 39.21 4.2 0
 2 -3 -13 251.61 8.27 0
 2 -2 -16 21.98 3.09 0
 2 -2 -15 57.3 4.31 0
 2 -2 -13 35.53 3.38 0
 2 -2 -12 46 3.73 0
 2 -1 -15 54.29 3.94 0
 2 -1 -14 142.65 5.76 0
 2 -1 -13 33.22 3.13 0
 2 -1 -10 527.84 9.01 0
 2 0 -14 72.42 3.95 0
 2 0 -11 1 1.34 0
 2 0 -10 53.35 2.94 0
 2 0 -9 497.97 7.4 0
 2 0 -8 0.04 0.95 0
 2 0 -1 3321.16 11.45 0
 2 1 -12 112.69 4.06 0
 2 1 -6 464.3 4.53 0
 2 2 -10 315.18 5.33 0
 2 2 -9 155.31 3.48 0
 2 2 -8 236.98 3.78 0
 2 2 -7 76.5 1.87 0
 2 2 -6 36.51 1.01 0
 3 -8 -16 0.7 3.32 0
 3 -7 -17 23.26 4.39 0
 3 -7 -16 11.67 3.92 0
 3 -6 -16 87.22 6.36 0
 3 -6 -15 119.28 7.24 0
 3 -5 -16 30.89 4.16 0
 3 -4 -15 124.71 6.28 0
 3 -4 -14 23.95 3.65 0
 3 -3 -14 12.78 2.71 0
 3 -3 -13 39.38 3.73 0
 3 -1 -11 157.41 4.86 0
 3 -1 -10 96.29 3.76 0
 3 0 -11 97.59 3.37 0
 3 0 -10 39.76 2.21 0
 3 0 -9 28.51 1.84 0
 3 0 -8 216.58 4.18 0
 3 1 -10 92.71 2.56 0
 3 1 -9 15.21 1.14 0
 3 1 -8 251.1 3.32 0
 3 1 -3 18.11 0.85 0
 4 1 -4 107.92 2.02 0
 -5 -4 2 50.75 4.17 0
 -5 -4 3 443.5 10.65 0
 -5 -4 5 325.14 9.12 0
 -5 -4 6 13.34 2.62 0
 -5 -3 1 62.77 4.54 0
 -5 -3 2 560.45 11.61 0
 -5 -3 3 399.99 10.03 0
 -5 -3 4 37.68 3.93 0
 -5 -3 6 21.33 2.99 0
 -5 -3 7 70.45 4.55 0
 -5 -2 -1 68.04 4.44 0
 -5 -2 0 261.66 8.19 0
 -5 -2 1 66.05 4.48 0
 -5 -2 2 24.7 3.69 0
 -5 -2 3 247.57 7.75 0
 -5 -2 4 1028.05 15.43 0
 -5 -2 5 111.96 5.44 0
 -5 -2 6 34.06 3.41 0
 -5 -2 7 104.1 5.24 0
 -5 -1 -4 2.8 2.03 0
 -5 -1 -3 2.46 2.01 0
 -5 -1 -2 98.48 5.33 0
 -5 -1 0 13.73 3.1 0
 -5 -1 2 97.67 5.41 0
 -5 -1 3 1.24 1.93 0
 -5 -1 4 7.61 2.77 0
 -5 -1 5 12.06 2.96 0
 -5 -1 6 46.46 4.15 0
 -5 0 -8 85.09 4.84 0
 -5 0 -5 36.49 3.71 0
 -5 0 -4 107.47 5.28 0
 -5 0 -3 440.29 10.22 0
 -5 0 -2 1.53 2.11 0
 -5 0 -1 66 4.56 0
 -5 0 0 0.86 1.85 0
 -5 0 1 71.87 4.48 0
 -5 0 2 0.75 1.81 0
 -5 0 3 427.63 10.03 0
 -5 0 4 101.02 5.37 0
 -5 0 5 34.99 3.77 0
 -5 0 6 26.75 3.43 0
 -5 1 -10 57.01 3.97 0
 -5 1 -9 5.44 1.92 0
 -5 1 -8 5.79 2.02 0
 -5 1 -7 64.29 4.16 0
 -5 1 -5 16.52 2.78 0
 -5 1 -4 7.68 2.24 0
 -5 1 -3 1.01 1.8 0
 -5 1 -1 16.58 2.99 0
 -5 1 0 12.04 2.55 0
 -5 1 1 12.44 2.86 0
 -5 1 2 94.95 5.29 0
 -5 1 4 3.09 2.15 0
 -5 1 5 13.87 2.83 0
 -5 2 -10 2.5 1.68 0
 -5 2 -9 152.31 5.83 0
 -5 2 -8 340.58 8.56 0
 -5 2 -7 104.43 4.99 0
 -5 2 -6 33.22 3.63 0
 -5 2 -5 100.06 4.95 0
 -5 2 -4 1025.36 14.92 0
 -5 2 -3 252.46 7.83 0
 -5 2 -2 28.92 3.2 0
 -5 2 -1 74.85 4.46 0
 -5 2 0 248.57 7.63 0
 -5 2 1 73.16 4.79 0
 -5 2 2 28.67 3.38 0
 -5 2 4 992.83 15.5 0
 -5 3 -8 87.74 4.57 0
 -5 3 -7 75.75 4.2 0
 -5 3 -6 28.6 2.97 0
 -5 3 -5 15.22 2.96 0
 -5 3 -4 29.44 3.48 0
 -5 3 -3 400.61 9.51 0
 -5 3 -2 552.18 11.01 0
 -5 3 -1 60.46 4.54 0
 -5 3 1 59.84 4.6 0
 -5 3 2 573.39 11.83 0
 -5 4 -8 27.99 2.81 0
 -5 4 -7 29.38 2.95 0
 -5 4 -6 15.74 2.47 0
 -5 4 -5 309 8.16 0
 -5 4 -4 85.92 4.88 0
 -5 4 -3 419.53 9.86 0
 -5 4 -2 49.15 4.06 0
 -5 4 -1 17.01 2.93 0
 -4 -7 7 407.8 9.02 0
 -4 -7 8 161.94 5.74 0
 -4 -6 5 34.82 3.22 0
 -4 -6 7 79.84 4.08 0
 -4 -6 8 22.12 2.51 0
 -4 -5 5 1.89 1.68 0
 -4 -5 6 -0.16 1.57 0
 -4 -5 7 24.53 2.61 0
 -4 -5 8 57.12 3.61 0
 -4 -5 9 134.07 4.93 0
 -4 -4 4 301.58 7.74 0
 -4 -4 6 51.49 3.4 0
 -4 -4 7 21.72 2.48 0
 -4 -4 8 153.42 5.44 0
 -4 -4 9 44.84 3.23 0
 -4 -3 4 59.75 3.72 0
 -4 -3 5 439.21 9.14 0
 -4 -3 6 75.8 4.02 0
 -4 -3 7 10.45 2.06 0
 -4 -3 8 1.69 1.44 0
 -4 -3 9 72.09 3.97 0
 -4 -2 1 599.02 10.69 0
 -4 -2 2 32.29 3.34 0
 -4 -2 3 435.09 8.96 0
 -4 -2 4 698.47 11.34 0
 -4 -2 5 380.29 8.44 0
 -4 -2 6 133.61 5.18 0
 -4 -2 7 187.82 6.08 0
 -4 -2 8 79.29 4.34 0
 -4 -1 -1 1044.45 13.57 0
 -4 -1 1 1079.55 13.83 0
 -4 -1 2 33.74 3 0
 -4 -1 3 185.93 5.94 0
 -4 -1 4 112.13 5 0
 -4 -1 5 329.36 8.01 0
 -4 -1 7 132.74 5.39 0
 -4 0 -4 7.06 1.96 0
 -4 0 -3 142.85 5.25 0
 -4 0 -2 5.62 1.92 0
 -4 0 -1 8.29 2 0
 -4 0 0 381.68 8.27 0
 -4 0 1 8.29 2.07 0
 -4 0 3 138.32 5.44 0
 -4 0 4 7.14 1.99 0
 -4 0 6 48.73 3.46 0
 -4 1 -11 6.1 1.78 0
 -4 1 -10 45.45 3.17 0
 -4 1 -9 175.68 5.72 0
 -4 1 -7 138.66 5.23 0
 -4 1 -6 505.59 9.33 0
 -4 1 -5 318.99 7.52 0
 -4 1 -4 108.33 4.53 0
 -4 1 -3 178.88 5.69 0
 -4 1 -1 1071.06 13.63 0
 -4 1 1 1050.05 13.66 0
 -4 1 2 27.08 2.94 0
 -4 1 3 182.62 5.93 0
 -4 1 4 105.84 4.73 0
 -4 1 5 313.88 7.88 0
 -4 2 -10 282.81 6.6 0
 -4 2 -9 58.46 3.27 0
 -4 2 -8 84.23 4.02 0
 -4 2 -7 191.21 5.78 0
 -4 2 -6 131.29 4.82 0
 -4 2 -5 395.16 8.17 0
 -4 2 -4 680.07 10.78 0
 -4 2 -3 425.03 8.56 0
 -4 2 -2 31.51 2.87 0
 -4 2 -1 619.66 10.59 0
 -4 2 0 177.92 5.83 0
 -4 2 1 611.58 10.51 0
 -4 2 2 32.62 3.25 0
 -4 3 -8 1.72 1.19 0
 -4 3 -7 11.44 2.19 0
 -4 3 -6 76.85 3.9 0
 -4 3 -5 440.67 8.64 0
 -4 3 -4 57.07 3.62 0
 -4 3 -3 87 4.13 0
 -4 3 -1 444.87 9.1 0
 -4 3 0 28.25 2.83 0
 -4 3 1 465.25 9.66 0
 -4 4 -8 141.89 4.65 0
 -4 4 -7 25.5 2.39 0
 -4 4 -6 53.47 3.34 0
 -4 4 -5 655.65 10.44 0
 -4 4 -4 295.79 7.25 0
 -4 4 -3 139.13 5.29 0
 -4 4 -2 121.83 5.06 0
 -3 -8 7 7.56 1.63 0
 -3 -7 7 16.05 2.16 0
 -3 -7 8 29.74 2.4 0
 -3 -6 6 447.59 8.33 0
 -3 -6 7 140.6 4.65 0
 -3 -6 8 50.84 2.9 0
 -3 -6 9 112.93 3.76 0
 -3 -5 6 13.26 1.84 0
 -3 -5 8 222.03 5.47 0
 -3 -5 9 163.56 4.52 0
 -3 -4 5 52.73 2.98 0
 -3 -4 7 594.52 8.98 0
 -3 -4 9 35.62 2.29 0
 -3 -3 5 183.96 5.22 0
 -3 -3 6 458.61 7.88 0
 -3 -3 8 129.92 4.31 0
 -3 -2 4 670.8 9.55 0
 -3 -2 5 514.9 8.44 0
 -3 -2 7 19.42 1.96 0
 -3 -1 1 122.26 4.22 0
 -3 -1 2 1707.44 14.95 0
 -3 -1 3 19.58 2.06 0
 -3 -1 4 50.01 2.95 0
 -3 -1 6 617.08 9.35 0
 -3 -1 7 1404.74 14.11 0
 -3 0 1 23.17 2.18 0
 -3 0 2 1080.39 11.9 0
 -3 0 4 -0.12 1.15 0
 -3 0 5 309.76 6.8 0
 -3 0 6 267.55 6.4 0
 -3 1 -5 433.93 7.47 0
 -3 1 -4 46.93 2.71 0
 -3 1 -2 1717.44 14.66 0
 -3 1 -1 118.05 4.13 0
 -3 1 0 224.06 5.49 0
 -3 1 2 1672.43 14.95 0
 -3 1 3 17.6 2.15 0
 -3 2 -10 58.56 2.72 0
 -3 2 -8 182.18 4.69 0
 -3 2 -7 23.05 2.09 0
 -3 2 -6 133.02 4.11 0
 -3 2 -5 513.94 7.92 0
 -3 2 -4 679.52 9.15 0
 -3 2 -3 327.6 6.43 0
 -3 2 -1 95.62 3.78 0
 -3 2 2 601.57 9.34 0
 -3 2 3 322.58 7.02 0
 -3 3 -9 45.38 2.22 0
 -3 3 -7 723.47 8.81 0
 -3 3 -6 456.84 7.21 0
 -3 3 -5 179.58 4.61 0
 -3 3 -4 63.29 3.03 0
 -3 3 -3 771.82 9.81 0
 -3 3 -2 89.81 3.74 0
 -3 3 -1 531.22 8.49 0
 -3 3 0 1001.06 11.83 0
 -3 4 -6 35.42 2.32 0
 -3 4 -5 51.71 2.81 0
 -3 4 -4 492.76 7.85 0
 -2 -7 8 199.81 4.25 0
 -2 -6 7 43.63 2.27 0
 -2 -6 8 36.87 1.93 0
 -2 -6 9 104.82 2.56 0
 -2 -5 6 23.22 1.75 0
 -2 -5 7 463.49 6.41 0
 -2 -5 8 285.58 4.71 0
 -2 -4 6 248.61 4.82 0
 -2 -4 7 109.32 3.15 0
 -2 -4 8 231.59 4.38 0
 -2 -3 5 325.23 5.43 0
 -2 -3 7 616.31 7.28 0
 -2 -2 3 284.25 5.22 0
 -2 -2 4 1026.33 9.56 0
 -2 -2 5 118.95 3.44 0
 -2 -2 6 34.95 1.94 0
 -2 -1 2 3105.59 16.34 0
 -2 -1 3 842.9 8.73 0
 -2 -1 5 509.22 6.86 0
 -2 0 1 3417.02 17.01 0
 -2 0 2 184.06 4.11 0
 -2 0 3 1568.74 11.97 0
 -2 0 4 1871.6 13.3 0
 -2 1 -3 805.39 8.09 0
 -2 1 -1 2501.03 14.31 0
 -2 1 0 290.42 5.16 0
 -2 1 1 2464 14.8 0
 -2 1 2 3227.5 17.19 0
 -2 1 3 845.23 9.25 0
 -2 2 -10 328.13 4.47 0
 -2 2 -9 153.52 3.26 0
 -2 2 -8 227.06 4.04 0
 -2 2 -5 119.83 3.1 0
 -2 2 -4 1021.56 8.79 0
 -2 2 -3 292.29 4.9 0
 -2 2 -2 1795.2 12.19 0
 -2 2 0 1160.96 10.25 0
 -2 2 1 620.59 7.84 0
 -2 3 -8 11.4 0.95 0
 -2 3 -7 604.64 5.94 0
 -2 3 -4 1781.63 11.59 0
 -2 3 -3 415.54 6.04 0
 -2 3 -2 1223.73 10.42 0
 -1 -8 8 42.26 1.49 0
 -1 -6 7 88.82 2.16 0
 -1 -5 7 510.2 4.28 0
 -1 -3 5 398.02 4.32 0
 -1 -3 6 614.35 4.93 0
 -1 -2 4 1689.95 8.83 0
 -1 -1 3 9621.74 21.03 0
 -1 -1 4 614.86 5.48 0
 -1 0 1 1062.01 6.79 0
 -1 0 2 835.96 6.27 0
 -1 0 3 1254.83 8.16 0
 -1 1 -2 202.14 2.91 0
 -1 1 0 1598.85 8.45 0
 -1 1 1 1053.03 7.32 0
 -1 2 -8 95.89 1.51 0
 -1 2 -7 348.98 2.97 0
 -1 2 -6 933.09 5 0
 -1 2 -5 125.45 1.98 0
 -1 2 -4 1663.48 7.22 0
 -1 2 -2 3877.78 12.64 0
 0 -9 7 32.89 1.78 0
 0 -8 7 26.68 1.39 0
 0 -7 7 337.06 3.11 0
 0 0 -12 -0.81 0.51 0
 0 0 -11 0.34 0.71 0
 0 1 -10 14.06 1.04 0
 0 1 -9 42.35 1.57 0
 0 1 -8 14.46 0.93 0
 0 1 -7 211.38 2.91 0
 1 -10 5 268.3 6.25 0
 1 -9 6 19.89 1.85 0
 1 -9 7 22.17 1.54 0
 1 -8 5 201.2 4.67 0
 1 -8 7 40.81 1.67 0
 1 -7 5 519.21 6.69 0
 1 -7 6 38.55 1.82 0
 1 -6 4 205.84 4.23 0
 1 -6 5 72.2 2.37 0
 1 -6 6 83.68 2.12 0
 1 -5 4 186.5 3.54 0
 1 -5 5 88.75 2.19 0
 1 -4 3 224.11 3.75 0
 1 -4 4 69.44 2.01 0
 1 -3 -13 79.25 4.18 0
 1 -3 2 371.48 4.49 0
 1 -3 3 791.04 6.08 0
 1 -2 -12 2.14 1.38 0
 1 -2 -11 247.54 6.32 0
 1 -2 1 3411.75 12.72 0
 1 -2 2 3891.99 12.69 0
 1 -1 -12 29.4 2.24 0
 1 -1 -11 221.86 5.37 0
 1 -1 -10 153.2 4.48 0
 1 -1 -9 101.42 3.54 0
 1 -1 -3 9641.2 24.85 0
 1 -1 -2 192.25 3.42 0
 1 -1 -1 1004.79 7.09 0
 1 -1 1 1043.08 6.59 0
 1 0 -11 0.47 0.82 0
 1 0 -10 38.53 2.2 0
 1 0 -8 233.54 4.59 0
 1 0 -7 444.31 5.97 0
 1 0 -6 41.5 1.89 0
 1 0 -5 1563.6 10.09 0
 1 0 -4 457.19 5.33 0
 1 0 -3 1273.18 8.21 0
 1 0 -2 845.87 6.32 0
 1 0 -1 1093.36 6.93 0
 1 1 -9 106.74 2.92 0
 1 1 -8 72.34 2.37 0
 1 1 -7 165.16 3.33 0
 1 1 -6 379.16 4.78 0
 1 1 -5 2365.4 11.27 0
 1 1 -4 625.54 5.63 0
 2 -10 1 46.19 3.57 0
 2 -10 2 252.54 7.26 0
 2 -10 3 41.52 3.42 0
 2 -10 4 37.81 3.07 0
 2 -10 5 0.35 1.45 0
 2 -9 1 54.15 3.58 0
 2 -9 2 101.26 4.5 0
 2 -9 3 234.38 6.44 0
 2 -9 4 60.88 3.5 0
 2 -9 5 547.31 8.85 0
 2 -8 1 493.21 9.41 0
 2 -8 2 432.75 8.57 0
 2 -8 3 134.17 4.72 0
 2 -8 4 163.36 4.86 0
 2 -8 5 126.08 4.11 0
 2 -8 6 164.13 4.29 0
 2 -7 2 167.68 5.03 0
 2 -7 3 45.61 2.78 0
 2 -7 4 412.14 7.19 0
 2 -7 5 32.51 2.27 0
 2 -7 6 38.93 2.16 0
 2 -6 0 368.81 7.55 0
 2 -6 1 49.49 3.12 0
 2 -6 3 673.35 8.95 0
 2 -6 4 26.82 2.05 0
 2 -6 5 285.98 5.3 0
 2 -5 -10 301.69 8.55 0
 2 -5 -1 468.19 8.3 0
 2 -5 1 450.48 7.33 0
 2 -5 2 303.15 5.92 0
 2 -5 3 308.26 5.79 0
 2 -5 4 125.89 3.64 0
 2 -5 5 324.77 5.26 0
 2 -4 -11 14.02 2.83 0
 2 -4 -10 97.82 4.81 0
 2 -4 -9 0.14 1.83 0
 2 -4 -8 218.36 6.62 0
 2 -4 -7 108.56 4.82 0
 2 -4 -6 249.56 6.6 0
 2 -4 -3 717.75 10.16 0
 2 -4 -2 18.89 1.97 0
 2 -4 -1 27.88 2.35 0
 2 -4 0 144.66 4.18 0
 2 -4 1 28.55 2.33 0
 2 -4 2 18.91 1.78 0
 2 -4 3 729.51 8.3 0
 2 -4 4 1020.07 9.27 0
 2 -3 -13 249.62 7.45 0
 2 -3 -12 344.56 8.37 0
 2 -3 -11 153.01 5.57 0
 2 -3 -10 85.24 4.42 0
 2 -3 -9 99.96 4.48 0
 2 -3 -7 618.34 9.95 0
 2 -3 -3 413.1 7.2 0
 2 -3 -2 1190.21 11.6 0
 2 -3 -1 1055.72 10.66 0
 2 -3 0 28.19 2.48 0
 2 -3 1 1077.14 10.13 0
 2 -3 2 1227.23 10.41 0
 2 -2 -13 38.52 3.1 0
 2 -2 -11 84.94 4.09 0
 2 -2 -10 317 7.36 0
 2 -2 -9 154.14 5.06 0
 2 -2 -8 224.44 5.86 0
 2 -2 -7 71.81 3.46 0
 2 -2 -5 125.09 4.12 0
 2 -2 -4 1047.86 10.99 0
 2 -2 -3 283.58 5.7 0
 2 -2 -2 1767.18 13.56 0
 2 -2 -1 614.89 7.92 0
 2 -2 0 1187.86 10.44 0
 2 -2 1 621.19 7.43 0
 2 -1 -12 119.31 4.56 0
 2 -1 -11 23.08 2.49 0
 2 -1 -10 517.43 8.92 0
 2 -1 -9 121.52 4.44 0
 2 -1 -8 183.81 5.13 0
 2 -1 -5 533.1 7.9 0
 2 -1 -4 359.37 6.29 0
 2 -1 -3 803.89 8.9 0
 2 -1 -2 3155.72 17.17 0
 2 -1 -1 2543.2 15.02 0
 2 0 -11 -0.44 0.87 0
 2 0 -10 50.09 2.88 0
 2 0 -9 520.15 8.1 0
 2 0 -6 785.64 9.22 0
 2 0 -5 57.97 2.59 0
 2 0 -4 1906.44 13.65 0
 2 0 -3 1636.42 12.28 0
 2 0 -2 190.18 4.2 0
 2 1 -9 116.83 3.68 0
 3 -10 3 4.27 1.83 0
 3 -10 4 5.91 1.93 0
 3 -9 0 129.95 5.74 0
 3 -9 1 23.84 2.96 0
 3 -9 2 37.55 3.29 0
 3 -9 3 41.25 3.44 0
 3 -9 4 330.34 7.87 0
 3 -9 5 50.37 3.35 0
 3 -8 -2 242.88 7.73 0
 3 -8 -1 278.24 7.88 0
 3 -8 0 19.26 2.71 0
 3 -8 1 301.23 7.87 0
 3 -8 2 244.58 7.04 0
 3 -8 3 39.15 3.38 0
 3 -8 4 282.15 7.03 0
 3 -7 -4 14.91 3 0
 3 -7 -3 101.4 5.17 0
 3 -7 -2 209.73 6.91 0
 3 -7 0 44.66 3.39 0
 3 -7 3 105.07 4.33 0
 3 -7 4 13.96 2.24 0
 3 -7 5 44.17 2.82 0
 3 -6 -6 425.13 10.02 0
 3 -6 -5 293.47 8.27 0
 3 -6 -4 331.78 8.41 0
 3 -6 -2 753.1 12.07 0
 3 -6 -1 267.49 7.21 0
 3 -6 0 58.95 3.63 0
 3 -6 1 271.32 6.99 0
 3 -6 2 793.34 11.37 0
 3 -6 3 259.54 6.47 0
 3 -6 4 335.73 7.07 0
 3 -5 -8 224.75 7.37 0
 3 -5 -7 11.31 2.54 0
 3 -5 -6 10.37 2.47 0
 3 -5 -2 85.53 4.51 0
 3 -5 -1 7.12 1.9 0
 3 -5 0 809.02 11.52 0
 3 -5 1 8.39 1.81 0
 3 -5 2 82.3 3.78 0
 3 -5 3 64.62 3.24 0
 3 -4 -9 34.89 3.72 0
 3 -4 -8 255.14 7.57 0
 3 -4 -7 591.03 11.16 0
 3 -4 -1 989.16 12.46 0
 3 -4 0 33.34 2.57 0
 3 -4 1 985.69 11.88 0
 3 -4 3 53.91 2.91 0
 3 -3 -11 262.12 7.97 0
 3 -3 -9 47.16 3.87 0
 3 -3 -8 125.24 5.29 0
 3 -3 -6 461.49 9.23 0
 3 -3 -5 175.33 5.8 0
 3 -3 -1 520.25 8.83 0
 3 -3 0 1025.88 11.95 0
 3 -3 1 532.29 8.61 0
 3 -2 -12 83.77 4.52 0
 3 -2 -11 183 6.39 0
 3 -2 -10 59.22 3.75 0
 3 -2 -9 110.26 4.85 0
 3 -2 -8 164.29 5.65 0
 3 -2 -7 21.3 2.6 0
 3 -2 -2 597.28 9.25 0
 3 -2 -1 95.97 3.79 0
 3 -2 0 584.08 8.87 0
 3 -1 -12 79.17 4.15 0
 3 -1 -11 148.78 5.54 0
 3 -1 -10 92.08 4.34 0
 3 -1 -9 9.89 2.07 0
 3 -1 -8 252.8 6.66 0
 3 -1 -7 1456.28 15.35 0
 3 -1 -6 626.81 10.03 0
 3 -1 -3 17.28 2.13 0
 3 -1 -2 1752.25 15.43 0
 3 0 -11 94.91 4.26 0
 3 0 -10 37.38 3.03 0
 3 0 -9 31.56 2.7 0
 3 0 -8 217.12 6.09 0
 3 0 -6 261.81 6.41 0
 4 -8 2 80.96 4.61 0
 4 -8 3 15.17 2.6 0
 4 -8 4 17.4 2.54 0
 4 -7 0 14.96 2.7 0
 4 -7 2 148.36 5.82 0
 4 -7 3 364.53 8.61 0
 4 -6 -3 29.86 3.31 0
 4 -6 -2 387.89 9.54 0
 4 -6 -1 47.24 3.65 0
 4 -6 0 16.72 2.68 0
 4 -6 2 380.51 8.73 0
 4 -6 3 30 3.03 0
 4 -5 -5 3.1 2.1 0
 4 -5 -2 147.92 6.08 0
 4 -5 -1 217.81 6.91 0
 4 -5 0 604.23 11.2 0
 4 -5 1 220.53 6.7 0
 4 -4 -6 55.29 4.04 0
 4 -4 -4 295.47 8.14 0
 4 -4 -3 136.79 5.85 0
 4 -4 -2 123.28 5.39 0
 4 -4 -1 0.37 1.65 0
 4 -4 0 1086.07 14.43 0
 4 -4 1 -0.64 1.51 0
 4 -3 -8 1.31 1.91 0
 4 -3 -7 7.41 2.27 0
 4 -3 -6 82.01 4.63 0
 4 -2 -9 67.57 4.7 0
 4 -2 -7 180.63 6.62 0
 4 -2 -5 394.84 9.01 0
 4 -2 -4 667.06 11.43 0
 4 -2 -3 433.86 9.2 0
 4 -1 -10 52.53 4.07 0
 4 -1 -8 133.76 5.58 0
 4 -1 -7 135.33 5.52 0
 4 -1 -6 524.84 10.32 0
 -3 9 6 108.83 4.14 0
 -2 -1 10 513.79 5.96 0
 -2 -1 11 20.16 1.47 0
 -2 -1 12 117.68 3.17 0
 -2 0 9 512.2 4.7 0
 -2 0 10 51.04 1.71 0
 -2 0 11 0.51 0.59 0
 -2 0 12 228.95 3.83 0
 -2 1 9 123.01 1.89 0
 -2 1 10 518.42 4.35 0
 -2 1 11 21.18 1.11 0
 -2 1 12 115.16 2.48 0
 -2 2 9 149.07 1.73 0
 -2 2 11 80.88 1.72 0
 -2 3 4 1846.51 7.85 0
 -2 3 5 343.89 3.07 0
 -2 3 6 191.72 2.07 0
 -2 3 7 636.36 3.66 0
 -2 3 8 11.4 0.63 0
 -2 3 10 83.63 1.7 0
 -2 3 11 158.58 2.32 0
 -2 4 2 18.04 1.46 0
 -2 4 4 1012.84 7.36 0
 -2 4 5 411.19 4.55 0
 -2 4 6 263.69 3.49 0
 -2 4 8 225.73 3.12 0
 -2 4 9 0.06 0.46 0
 -2 4 10 99.86 2.13 0
 -2 5 2 313.76 5.47 0
 -2 5 4 121.9 3.11 0
 -2 5 5 343.14 4.99 0
 -2 5 6 20.26 1.4 0
 -2 5 7 481.92 5.54 0
 -2 5 8 288.74 4.23 0
 -2 5 9 39.56 1.68 0
 -2 5 10 319.41 4.29 0
 -2 6 0 378.2 7 0
 -2 6 1 56.81 2.82 0
 -2 6 2 293.25 5.8 0
 -2 6 3 636.99 7.96 0
 -2 6 4 28.65 1.99 0
 -2 6 5 276.35 5.09 0
 -2 6 6 470.98 6.42 0
 -2 6 7 45.97 2.12 0
 -2 6 8 34.26 1.89 0
 -2 6 9 111.18 3.05 0
 -2 6 10 60.88 2.29 0
 -2 7 -1 343.58 7.4 0
 -2 7 2 167.58 4.83 0
 -2 7 3 46.38 2.8 0
 -2 7 4 414.71 7.01 0
 -2 7 5 35.88 2.24 0
 -2 7 6 38.16 2.32 0
 -2 7 7 207.28 4.74 0
 -2 7 8 196.89 4.49 0
 -2 7 9 140.09 3.8 0
 -2 8 0 9.1 1.97 0
 -2 8 2 430.11 8.21 0
 -2 8 3 138.86 4.57 0
 -2 8 4 163.95 4.97 0
 -2 8 6 163.28 4.76 0
 -2 8 7 260.98 5.78 0
 -2 8 8 123.71 4.04 0
 -2 9 -1 48.93 3.41 0
 -2 9 0 191.43 6.22 0
 -2 9 1 52.69 3.69 0
 -2 9 2 92.44 4.21 0
 -2 9 3 223.21 6.15 0
 -2 9 4 61.98 3.49 0
 -2 9 5 539.46 9.15 0
 -2 9 6 126.46 4.59 0
 -2 9 7 37.91 2.61 0
 -2 9 8 48.98 2.85 0
 -2 10 2 256.17 7.2 0
 -2 10 3 40.88 3.14 0
 -2 10 4 36.33 3.1 0
 -2 10 5 -0.67 1.36 0
 -2 10 6 247.03 6.63 0
 -2 10 7 11.05 1.96 0
 -1 -5 10 23.84 2.79 0
 -1 -5 11 439.12 8.71 0
 -1 -5 12 108.42 4.66 0
 -1 -4 6 555.94 7.75 0
 -1 -4 7 400.17 6.86 0
 -1 -4 8 1029.5 11.25 0
 -1 -4 9 548.44 8.61 0
 -1 -4 11 9.85 1.79 0
 -1 -4 12 113.96 4.54 0
 -1 -4 13 153.05 5.29 0
 -1 -3 5 394.43 5.69 0
 -1 -3 6 602.8 7.33 0
 -1 -3 7 736.73 8.61 0
 -1 -3 8 82.87 3.27 0
 -1 -3 9 341.28 6.44 0
 -1 -3 10 208.77 5.24 0
 -1 -3 11 197.51 5.35 0
 -1 -3 12 179.72 5.18 0
 -1 -3 13 78.92 3.67 0
 -1 -2 4 1674.11 9.63 0
 -1 -2 5 124.07 2.94 0
 -1 -2 6 953.67 8.37 0
 -1 -2 7 356.39 5.47 0
 -1 -2 8 94.61 3.08 0
 -1 -2 9 99.87 3.41 0
 -1 -2 10 675.1 8.79 0
 -1 -2 11 251.18 5.58 0
 -1 -2 12 0.75 0.95 0
 -1 -2 13 60.96 3.18 0
 -1 -1 5 2291.76 10.46 0
 -1 -1 6 376.73 4.73 0
 -1 -1 7 164.44 3.38 0
 -1 -1 8 71.7 2.46 0
 -1 -1 9 102.36 3.09 0
 -1 -1 11 235.46 5.18 0
 -1 -1 12 30.63 2.22 0
 -1 -1 13 84.45 3.45 0
 -1 0 5 1564.16 7.6 0
 -1 0 6 38.54 1.47 0
 -1 0 7 448.06 5.16 0
 -1 0 8 225.26 4.02 0
 -1 0 10 38.39 2.14 0
 -1 0 11 0.73 0.93 0
 -1 0 12 103.47 3.5 0
 -1 0 13 135.24 4.11 0
 -1 1 12 27.23 1.98 0
 -1 1 13 77.95 3.15 0
 -1 2 1 3385.39 10.75 0
 -1 2 2 3993.92 10.55 0
 -1 3 -1 1072.25 8.67 0
 -1 3 1 1102.55 7.59 0
 -1 3 2 376.65 4.25 0
 -1 4 -2 1626.18 12.38 0
 -1 4 -1 625.19 7.35 0
 -1 4 0 707.99 7.47 0
 -1 4 1 636.32 6.88 0
 -1 4 2 1627.25 10.41 0
 -1 4 3 216.89 3.79 0
 -1 5 -3 1833.78 15.02 0
 -1 5 -1 94.77 3.33 0
 -1 5 0 402.16 6.37 0
 -1 5 2 707.02 7.93 0
 -1 5 3 1889.22 12.57 0
 -1 6 -2 152.67 4.65 0
 -1 6 -1 543.67 8.2 0
 -1 6 0 332.27 6.36 0
 -1 6 1 541.87 7.91 0
 -1 6 2 156.44 4.21 0
 -1 6 3 21.13 1.76 0
 -1 6 4 203.49 4.61 0
 -1 7 -4 831.63 11.98 0
 -1 7 -3 2.1 1.4 0
 -1 7 -2 38.52 2.76 0
 -1 7 -1 175.13 5.14 0
 -1 7 0 130.65 4.54 0
 -1 7 1 174.42 5.06 0
 -1 7 2 40.39 2.84 0
 -1 7 6 35.3 2.33 0
 -1 8 -4 9.09 2.09 0
 -1 8 -3 276.89 7.47 0
 -1 8 -2 211.82 6.25 0
 -1 8 -1 42.49 2.98 0
 -1 8 0 536.91 9.4 0
 -1 8 1 41.41 2.86 0
 -1 8 2 218.78 5.92 0
 -1 8 3 279.12 6.5 0
 -1 8 4 10.54 1.78 0
 -1 8 5 199.04 5.51 0
 -1 8 6 21.92 2.13 0
 -1 8 8 43.86 2.93 0
 -1 9 -2 52.51 3.61 0
 -1 9 -1 314.03 7.76 0
 -1 9 0 923.02 13.02 0
 -1 9 1 322.01 7.73 0
 -1 9 2 56.52 3.66 0
 -1 9 3 474.2 9.09 0
 -1 9 4 288.45 7.02 0
 -1 9 5 213.34 6.09 0
 -1 9 6 12.04 2.06 0
 -1 9 7 26.5 2.48 0
 -1 9 8 74.65 3.83 0
 -1 10 2 263.44 7.46 0
 -1 10 4 119.7 4.97 0
 -1 10 5 256.56 7.04 0
 0 -7 6 300.31 7.48 0
 0 -7 7 343.19 8.02 0
 0 -7 8 302.45 7.75 0
 0 -6 4 89.54 3.75 0
 0 -6 5 0.4 1.14 0
 0 -6 7 415.62 8.44 0
 0 -6 8 125.18 4.88 0
 0 -6 9 0.74 1.51 0
 0 -6 10 142.73 5.52 0
 0 -5 3 181.23 4.63 0
 0 -5 5 1363.16 13.15 0
 0 -5 6 1527.13 14.51 0
 0 -5 7 34.08 2.62 0
 0 -5 9 406.06 8.31 0
 0 -5 10 47.89 3.34 0
 0 -5 11 684.95 11.41 0
 0 -4 2 657.27 7.57 0
 0 -4 3 377.39 6.07 0
 0 -4 4 744.44 8.71 0
 0 -4 5 460.76 7.21 0
 0 -4 6 33.09 2.53 0
 0 -4 7 -0.01 1.09 0
 0 -4 8 207.97 5.51 0
 0 -4 9 128.13 4.81 0
 0 -4 10 150.22 5.26 0
 0 -4 11 130.64 4.98 0
 0 -4 12 352.74 8.29 0
 0 -3 2 643.48 6.59 0
 0 -3 3 2657.27 13.98 0
 0 -3 4 1230.5 10.22 0
 0 -3 5 1643.17 12.37 0
 0 -3 6 58.01 2.68 0
 0 -3 7 5.58 1.34 0
 0 -3 8 182.68 4.88 0
 0 -3 9 -0.2 1.08 0
 0 -3 10 42.5 3.11 0
 0 -3 11 391.25 8.1 0
 0 -2 1 534.53 4.83 0
 0 -2 2 428.9 4.68 0
 0 -2 3 983.54 7.6 0
 0 -2 4 1455.46 10.02 0
 0 -2 5 264.8 4.85 0
 0 -2 6 5.81 1.23 0
 0 -2 8 311.31 6.26 0
 0 -2 9 15.78 1.95 0
 0 -2 10 132.15 4.47 0
 0 -2 11 166.7 5.18 0
 0 -2 12 165.96 5.43 0
 0 -2 13 148.42 5.33 0
 0 -2 14 187.95 6.08 0
 0 -1 1 715.57 4.23 0
 0 -1 2 598.5 4.58 0
 0 -1 11 7.85 1.82 0
 0 -1 12 1.74 1.58 0
 0 -1 13 82.86 3.99 0
 0 -1 14 30.15 2.83 0
 0 0 14 23.62 2.45 0
 0 1 -1 745.95 4.3 0
 0 2 -2 417.65 4.57 0
 0 3 -3 2779.21 14.62 0
 0 3 -2 653.25 6.64 0
 0 3 0 0.43 0.73 0
 0 4 -4 725.09 8.78 0
 0 4 -3 374.65 6 0
 0 4 -2 690.25 7.81 0
 0 4 -1 291.74 4.96 0
 0 4 0 355.77 5.22 0
 0 5 -4 81.44 3.42 0
 0 5 -3 189.66 4.72 0
 0 5 -1 741.59 8.68 0
 0 5 0 1 1.1 0
 0 6 -5 -0.12 1.46 0
 0 6 0 7.69 1.6 0
 0 6 1 1016.2 10.8 0
 0 7 -6 295.98 7.45 0
 0 7 -5 132.59 5.14 0
 0 7 -4 99.57 4.41 0
 0 7 0 -0.19 1.25 0
 0 7 1 408.77 7.51 0
 0 7 2 5.51 1.48 0
 0 8 -6 392.78 8.95 0
 0 8 -5 524.45 10.2 0
 0 8 -4 177.43 6 0
 0 8 -3 449.11 9.04 0
 0 8 -2 776.51 11.5 0
 0 8 -1 74.46 3.75 0
 0 8 0 418.79 8.28 0
 0 8 1 75.09 3.72 0
 0 8 2 802.44 11.21 0
 0 8 3 430.56 8.25 0
 0 9 -4 73.32 4.12 0
 0 9 -2 27.17 2.92 0
 0 9 -1 68.46 4.11 0
 0 9 0 0.48 1.51 0
 0 9 1 65.9 4.03 0
 0 9 2 34.32 3.21 0
 0 9 4 73.36 3.97 0
 1 -8 5 206.18 6.46 0
 1 -7 3 1.46 1.5 0
 1 -7 4 815.97 11.65 0
 1 -7 6 38.06 3.42 0
 1 -7 7 90.02 4.53 0
 1 -6 2 148.38 4.47 0
 1 -6 5 71.73 3.67 0
 1 -6 6 84.2 4.03 0
 1 -6 7 92.34 4.49 0
 1 -6 8 424.3 9.06 0
 1 -6 9 154.33 5.98 0
 1 -5 1 95.33 3.49 0
 1 -5 2 700.12 8.87 0
 1 -5 3 1886.09 14.97 0
 1 -5 4 191.3 5.12 0
 1 -5 5 85.63 3.83 0
 1 -5 6 55.04 3.17 0
 1 -5 7 532.58 9.57 0
 1 -5 8 326.71 7.64 0
 1 -5 9 271.9 7.24 0
 1 -5 10 26.03 2.99 0
 1 -4 0 703.88 7.35 0
 1 -4 1 623.93 7.38 0
 1 -4 3 220.7 5.02 0
 1 -4 4 63.02 3.02 0
 1 -4 6 544.83 8.59 0
 1 -4 7 380.51 7.57 0
 1 -4 8 1036.82 12.98 0
 1 -4 10 357.04 8.23 0
 1 -4 11 12.58 2.32 0
 1 -3 0 59.09 2.02 0
 1 -3 1 1090.39 8.66 0
 1 -3 2 370.54 5.43 0
 1 -3 4 282.06 5.55 0
 1 -3 5 403.19 6.96 0
 1 -3 6 618.39 8.88 0
 1 -3 7 738.65 10.18 0
 1 -3 9 341.12 7.59 0
 1 -3 10 221.49 6.47 0
 1 -3 12 171.82 6.31 0
 1 -2 -1 3315.92 10.6 0
 1 -2 1 3250.13 13.2 0
 1 -2 12 0.25 1.51 0
 1 1 -3 9697.11 17.8 0
 1 1 -2 192.66 2.35 0
 1 2 -4 1696.91 9.94 0
 1 2 -2 3981.49 13.77 0
 1 3 -3 815.33 7.63 0
 1 3 -2 368.7 4.98 0
 1 4 -5 110.81 3.5 0
 1 4 -4 69.92 2.78 0
 1 4 -3 222.43 4.72 0
 1 4 -2 1594.42 11.6 0
 1 5 -6 52.29 2.98 0
 1 5 -3 1874.27 14.38 0
 1 5 -2 701.25 8.69 0
 1 6 -7 92.04 4.13 0
 1 6 -6 85.32 4.08 0
 1 6 -5 67.43 3.48 0
 1 6 -4 206.42 5.5 0
 1 7 -7 90.75 4.3 0
 1 7 -6 38.72 3.19 0
 1 7 -5 505.39 9.21 0
 1 7 -4 820.76 11.45 0
 1 7 -3 1.92 1.36 0
 1 8 -7 40.18 3.31 0
 1 8 -6 24.74 3.21 0
 1 8 -5 205.85 6.42 0
 1 8 -4 6.98 1.85 0
 1 8 -3 292.5 7.27 0
 1 8 -2 210.24 6.13 0
 1 8 -1 41.64 3.02 0
 1 8 0 557.4 9.6 0
 1 9 -3 473.5 9.77 0
 1 9 -2 55.56 3.64 0
 1 9 -1 313.44 7.88 0
 1 9 0 924.76 13.22 0
 1 9 1 313.55 7.76 0
 2 -8 2 411.81 8.66 0
 2 -8 3 139.53 5.31 0
 2 -7 1 367.74 7.63 0
 2 -7 3 48.8 3.38 0
 2 -7 5 30.67 3.03 0
 2 -7 6 39.3 3.25 0
 2 -6 0 382.56 6.82 0
 2 -6 1 55.42 2.93 0
 2 -6 2 293.62 6.57 0
 2 -6 3 659.57 10.03 0
 2 -6 4 28.54 2.77 0
 2 -6 5 278.43 7.16 0
 2 -6 6 481.15 9.56 0
 2 -5 -1 454.98 6.62 0
 2 -5 0 27.04 2.12 0
 2 -5 1 449.31 7.14 0
 2 -5 2 313.09 6.36 0
 2 -5 4 122.1 4.36 0
 2 -5 6 21.1 2.43 0
 2 -5 7 494.03 9.54 0
 2 -4 -1 25.19 1.72 0
 2 -4 2 19.57 1.76 0
 2 -4 3 708.95 9.25 0
 2 -4 4 992.31 11.57 0
 2 -4 5 395.9 7.83 0
 2 -4 6 254.13 6.58 0
 2 -4 8 217.46 6.65 0
 2 -4 9 0.73 1.64 0
 2 -3 -1 1040.53 7.91 0
 2 -3 0 27.81 1.71 0
 2 -3 1 1068.06 9.56 0
 2 -3 2 1186.49 10.6 0
 2 -2 -1 596.32 5.38 0
 2 1 -5 521.1 4.48 0
 2 1 -4 375.02 3.7 0
 2 2 -5 119.83 2.74 0
 2 2 -4 1036.91 7.67 0
 2 3 -6 200.77 4.24 0
 2 3 -4 1846.76 11.85 0
 2 4 -3 696.49 8.21 0
 2 5 -7 494.81 8.31 0
 2 5 -6 24.74 2.04 0
 2 5 -5 333.04 6.48 0
 2 6 -8 34.79 2.65 0
 2 6 -7 51.7 3.18 0
 2 6 -6 464.97 8.35 0
 2 6 -5 278.73 6.37 0
 2 6 -4 26.26 2.42 0
 2 6 -3 656.89 9.41 0
 2 7 -8 192.73 6.17 0
 2 7 -6 39.81 2.97 0
 2 7 -4 418.41 8.25 0
 2 7 -3 45.76 3.19 0
 2 7 -2 171.86 5.3 0
 2 8 -6 168.54 6.01 0
 2 8 -5 121.21 5.13 0
 2 8 -4 156.56 5.7 0
 2 8 -3 136.23 5.17 0
 2 8 -2 440.92 8.92 0
 2 8 -1 466.89 9.28 0
 2 9 0 180.17 6.19 0
 3 -8 1 293.45 7.3 0
 3 -8 2 230.45 6.74 0
 3 -8 3 37.54 3.21 0
 3 -7 0 44.92 2.85 0
 3 -7 1 338.93 7.53 0
 3 -7 2 203.94 6.04 0
 3 -7 3 100.39 4.53 0
 3 -7 4 14.19 2.37 0
 3 -6 -1 271.51 5.8 0
 3 -6 0 58.82 3 0
 3 -6 1 282.4 6.42 0
 3 -6 2 789.36 11.17 0
 3 -6 4 339.21 7.98 0
 3 -6 5 289.03 7.52 0
 3 -6 6 436.09 9.52 0
 3 -5 -2 80.5 2.84 0
 3 -5 -1 9.24 1.42 0
 3 -5 0 808.02 9.65 0
 3 -5 1 9.56 1.6 0
 3 -5 2 85.45 3.66 0
 3 -5 3 60.11 3.56 0
 3 -5 4 188.29 5.89 0
 3 -5 5 368.85 8.28 0
 3 -4 -2 132.39 3.21 0
 3 -4 -1 1032.58 9.61 0
 3 -4 0 37.42 2.24 0
 3 -4 1 1031.47 10.86 0
 3 -4 2 127.77 4.23 0
 3 -4 3 54.4 3.23 0
 3 -4 4 486.25 8.71 0
 3 -4 5 55.1 3.42 0
 3 -4 8 235.8 7.31 0
 3 -3 -3 753.94 5.89 0
 3 -3 -1 507.9 6.28 0
 3 -3 0 1005.87 9.55 0
 3 -2 -3 320.74 3.37 0
 3 1 -5 425.03 4.08 0
 3 2 -6 130.81 2.85 0
 3 2 -5 503.83 5.55 0
 3 4 -8 245.86 5.31 0
 3 4 -7 611.86 8.14 0
 3 4 -6 31.06 2.07 0
 3 4 -5 52.68 2.45 0
 3 5 -8 231.89 5.71 0
 3 5 -7 10.21 1.63 0
 3 5 -6 14.25 1.93 0
 3 5 -5 367.27 6.91 0
 3 5 -4 182.63 4.78 0
 3 6 -8 52.43 3.17 0
 3 6 -7 138.77 4.76 0
 3 6 -6 442.05 8.23 0
 3 6 -5 271.69 6.34 0
 3 6 -4 333.39 7 0
 3 7 -9 128.88 5.14 0
 3 7 -8 26.74 2.77 0
 3 7 -7 17.21 2.33 0
 3 7 -5 40.64 2.92 0
 3 7 -4 18.45 2.59 0
 3 7 -3 103.61 4.34 0
 3 8 -4 283.64 7.51 0
 3 8 -3 34.94 2.93 0
 4 -8 0 194.19 6.1 0
 4 -8 1 23.34 2.94 0
 4 -7 -1 398.79 7.66 0
 4 -7 0 14.68 2.09 0
 4 -7 2 139.69 5.47 0
 4 -7 3 356.92 8.57 0
 4 -6 -2 397.56 6.81 0
 4 -6 1 50.39 3.07 0
 4 -6 2 384.8 8.19 0
 4 -6 3 28.72 3.25 0
 4 -6 4 17.43 2.96 0
 4 -5 -2 147.87 3.96 0
 4 -5 0 622.98 9.09 0
 4 -5 1 219.42 5.82 0
 4 -5 2 152.42 5.19 0
 4 -5 4 252.59 7.12 0
 4 -5 5 5.38 2.09 0
 4 -4 -2 127.51 3.48 0
 4 -4 -1 -0.16 0.78 0
 4 -4 0 1070.98 11.39 0
 4 -4 1 -0.08 1.17 0
 4 -4 2 115.98 4.53 0
 4 -3 -3 87.45 2.38 0
 4 -3 -1 458.04 6.76 0
 4 -2 -4 679.42 4.47 0
 4 -2 -3 439.7 5.06 0
 4 0 -5 4.86 0.45 0
 4 1 -6 525.59 4.16 0
 4 1 -5 325.2 3.91 0
 4 3 -7 12.59 1.19 0
 4 3 -6 81.23 2.73 0
 4 3 -5 438.47 6.28 0
 4 4 -7 23.43 1.83 0
 4 4 -6 51.19 2.52 0
 4 4 -5 634.86 8.3 0
 4 5 -7 25.87 2.01 0
 4 5 -6 1.56 0.98 0
 4 5 -5 3.47 1.14 0
 4 6 -7 71.8 3.55 0
 4 6 -5 30.98 2.63 0
 4 6 -4 17.95 2.17 0
 4 7 -8 157.02 5.37 0
 4 7 -7 393.67 8.3 0
 4 7 -6 42.78 3.17 0
 4 7 -5 258.49 6.86 0
 5 -7 -1 14.48 2.07 0
 5 -7 0 2.61 1.67 0
 5 -7 1 13.59 2.39 0
 5 -6 -2 162.17 4.54 0
 5 -6 -1 335.61 6.98 0
 5 -6 0 85.57 3.88 0
 5 -6 1 355.5 7.97 0
 5 -6 2 154.61 5.66 0
 5 -5 -2 185.63 4.64 0
 5 -5 -1 182.87 5.05 0
 5 -5 0 97.06 4.07 0
 5 -5 1 185.39 5.61 0
 5 -5 2 183.71 6.05 0
 5 -5 3 44.73 3.6 0
 5 -4 -3 433.29 6 0
 5 -4 -1 19.16 1.81 0
 5 -4 2 44.93 3.16 0
 5 -3 -3 399.82 5.53 0
 5 -3 -1 53.74 2.78 0
 5 -2 -4 1028.86 6.97 0
 5 4 -5 316.46 6.25 0
 5 5 -5 10.57 1.78 0
 5 6 -5 54.15 3.24 0
 6 -6 0 10.91 1.96 0
 6 -5 -1 151.03 4.81 0
 6 -5 0 448.63 8.69 0
 6 -4 -1 82.91 3.59 0
 6 -4 0 409.63 8.24 0
 6 -3 -1 90.17 3.72 0
 -2 -9 3 233.96 8.35 0
 -2 -9 4 59.83 4.53 0
 -2 -9 6 123.96 6.21 0
 -2 -8 0 7.35 2.43 0
 -2 -8 1 479.84 10.94 0
 -2 -8 3 127.93 6.04 0
 -2 -8 4 157.21 6.33 0
 -2 -8 5 114.5 5.42 0
 -2 -8 6 164.58 6.45 0
 -2 -8 7 265.65 7.84 0
 -2 -8 8 121.21 5.54 0
 -2 -8 9 121.23 5.4 0
 -2 -7 0 484.87 10.65 0
 -2 -7 2 159.11 6.07 0
 -2 -7 3 44.09 3.48 0
 -2 -7 4 424.13 9.53 0
 -2 -7 5 35.94 3.68 0
 -2 -7 6 33.78 3.19 0
 -2 -7 7 210.26 6.66 0
 -2 -7 8 205.59 6.4 0
 -2 -6 1 53.61 3.95 0
 -2 -6 2 299.77 7.55 0
 -2 -6 4 29.79 2.76 0
 -2 -6 6 475.29 9.07 0
 -2 -6 7 47.96 3.28 0
 -2 -6 8 38.38 2.97 0
 -2 -5 3 281.81 6.72 0
 -2 -5 4 130.69 4.72 0
 -2 -5 5 335.77 7.26 0
 -2 -5 6 21.39 2.3 0
 -1 -9 -3 473.73 11.34 0
 -1 -9 -2 61.79 5.06 0
 -1 -9 -1 324.04 9.61 0
 -1 -9 0 954.11 15.96 0
 -1 -9 2 53.58 4.28 0
 -1 -9 3 479.23 11.05 0
 -1 -9 5 222.71 7.62 0
 -1 -9 6 20.18 3.11 0
 -1 -9 7 21.95 3.46 0
 -1 -9 8 81.36 5.15 0
 -1 -8 -4 9.29 2.6 0
 -1 -8 -3 280.34 8.28 0
 -1 -8 -1 40.9 3.71 0
 -1 -8 1 37.28 3.45 0
 -1 -8 2 216.09 7.31 0
 -1 -8 4 8.86 2.29 0
 -1 -8 5 201.34 6.93 0
 -1 -8 6 21.17 2.98 0
 -1 -8 7 39.02 3.41 0
 -1 -8 8 44.17 3.57 0
 -1 -7 -3 1.45 1.88 0
 -1 -7 -2 44.27 3.53 0
 -1 -7 0 127.52 5.24 0
 -1 -7 1 163.82 5.76 0
 -1 -7 2 40.76 3.4 0
 -1 -7 3 1.22 2.08 0
 -1 -7 4 838.71 12.6 0
 -1 -7 5 514.52 9.89 0
 -1 -7 6 39.42 3.38 0
 -1 -7 7 92.07 4.34 0
 -1 -7 8 95.89 4.4 0
 -1 -6 -4 208.28 6.38 0
 -1 -6 -3 22.86 2.59 0
 -1 -6 -2 147.99 5.31 0
 -1 -6 0 328.63 7.54 0
 -1 -6 1 547.94 9.59 0
 -1 -6 2 147.87 4.99 0
 -1 -6 5 71.86 3.81 0
 -1 -6 6 83.11 4.01 0
 -1 -6 7 98.19 4.06 0
 -1 -6 8 423.51 8.16 0
 -1 -6 9 156.42 4.96 0
 -1 -6 10 12.68 2.04 0
 -1 -5 0 389.38 7.53 0
 -1 -5 1 97.63 4.21 0
 -1 -5 2 696.76 9.76 0
 -1 -5 3 1851.34 15.48 0
 -1 -5 4 178.08 5 0
 -1 -5 5 85.11 3.45 0
 -1 -5 6 48.34 2.71 0
 -1 -5 8 322.98 6.41 0
 -1 -5 10 27.07 2.08 0
 -1 -5 11 431.84 6.85 0
 -1 -4 0 678.97 8.85 0
 -1 -4 1 635.17 8.49 0
 -1 -4 2 1647.86 13.35 0
 -1 -4 3 225.49 5.06 0
 -1 -4 4 66.5 2.76 0
 -1 -4 5 108.74 3.51 0
 -1 -4 6 545.61 7.43 0
 -1 -4 7 393.63 6.25 0
 -1 -4 8 1015.1 9.82 0
 -1 -4 9 525.55 6.96 0
 -1 -4 11 11.14 1.25 0
 -1 -3 -1 1057.46 10.04 0
 -1 -3 0 61.3 2.57 0
 -1 -3 1 1116.97 9.91 0
 -1 -3 2 383.01 5.73 0
 -1 -3 4 277.44 4.76 0
 -1 -3 7 724.15 7.17 0
 -1 -3 8 81.85 2.43 0
 -1 -3 9 339.29 4.54 0
 -1 -3 10 215.17 3.21 0
 -1 -2 1 3300.79 14.5 0
 -1 -2 2 3954.5 15.33 0
 -1 -2 3 480.34 5.24 0
 -1 -2 4 1683.43 9.52 0
 -1 -2 6 915.85 6.48 0
 -1 -2 7 339.32 3.76 0
 -1 -2 8 99.16 1.9 0
 0 -9 -7 30.12 3.76 0
 0 -9 -6 654.94 13.14 0
 0 -9 -5 61.47 4.47 0
 0 -9 -3 236.17 7.9 0
 0 -9 0 1.75 2.2 0
 0 -9 1 66.17 4.45 0
 0 -9 2 32.14 3.43 0
 0 -9 3 238.15 7.82 0
 0 -9 4 72.72 4.64 0
 0 -9 5 65.16 4.54 0
 0 -9 6 667.13 12.99 0
 0 -8 -7 27.59 3.28 0
 0 -8 -5 542.15 11.4 0
 0 -8 -4 172.78 6.4 0
 0 -8 -3 445.19 10.04 0
 0 -8 -2 790.59 13.12 0
 0 -8 -1 77.41 4.44 0
 0 -8 1 75.24 4.29 0
 0 -8 3 435.25 9.66 0
 0 -8 4 167.75 6.22 0
 0 -8 5 538.47 10.73 0
 0 -8 6 400.2 9.3 0
 0 -8 7 20.91 2.86 0
 0 -8 8 118.65 5.32 0
 0 -8 9 -0.46 1.54 0
 0 -7 -7 333.46 8.43 0
 0 -7 -6 302.61 7.83 0
 0 -7 -5 130.12 5.52 0
 0 -7 -4 99.82 4.7 0
 0 -7 -1 408.61 8.66 0
 0 -7 0 -1.72 1.95 0
 0 -7 1 424.17 8.91 0
 0 -7 2 4.14 1.86 0
 0 -7 3 71.9 3.94 0
 0 -7 4 99.11 4.65 0
 0 -7 5 124.38 4.97 0
 0 -7 7 324.84 7.76 0
 0 -7 8 292.5 7.4 0
 0 -7 9 18.56 2.45 0
 0 -6 -6 658.55 10.48 0
 0 -6 -5 -0.21 1.36 0
 0 -6 -2 68.3 3.45 0
 0 -6 -1 973.66 12.3 0
 0 -6 0 9.09 2.03 0
 0 -6 1 1020.53 12.36 0
 0 -6 2 71.49 3.55 0
 0 -6 3 240 6.07 0
 0 -6 4 90.64 3.87 0
 0 -6 5 -1.25 1.42 0
 0 -6 6 676.07 10.1 0
 0 -6 7 410.82 7.91 0
 0 -6 8 134.54 4.77 0
 0 -6 9 -0.22 1.18 0
 0 -5 -6 1526.46 14.69 0
 0 -5 -5 1334.65 13.64 0
 0 -5 -4 84.76 3.59 0
 0 -5 -2 524.02 8.27 0
 0 -5 -1 756.13 9.77 0
 0 -5 1 762.9 9.64 0
 0 -4 -5 433.75 7.06 0
 0 -4 -4 722.13 8.92 0
 0 -4 -3 378.01 6.44 0
 0 -4 -2 667.36 8.21 0
 0 -4 -1 282.93 5.57 0
 0 -4 1 280.21 5.23 0
 0 -3 -4 1225.49 10.08 0
 0 -3 -3 2737.79 14.71 0
 0 -3 -2 652.68 7.01 0
 0 -3 -1 1177.96 9.33 0
 0 -3 0 0.01 0.8 0
 0 -3 12 0.23 0.48 0
 0 -2 -3 970.87 7.41 0
 0 -2 -2 418.95 4.65 0
 0 -2 -1 513.71 5.03 0
 0 -2 0 4710.72 14.38 0
 0 -1 -1 718.42 4.32 0
 0 0 9 3.24 0.64 0
 0 0 10 212.69 2.95 0
 0 0 11 1.22 0.39 0
 0 1 1 748.44 4.38 0
 0 1 2 609.3 4.2 0
 0 1 3 12.93 0.87 0
 0 1 4 24.9 1.13 0
 0 1 5 2216.39 9.65 0
 0 1 6 281.2 3.67 0
 0 1 8 15.82 1.14 0
 0 1 9 42.06 1.56 0
 0 1 10 13.12 0.98 0
 0 2 2 418.48 4.52 0
 0 2 3 993.45 7.2 0
 0 2 4 1422.07 8.8 0
 0 2 5 266.58 4.07 0
 0 2 6 4.31 0.95 0
 0 2 7 234.05 3.9 0
 0 2 8 302.05 4.41 0
 0 2 9 13.95 1.23 0
 0 2 10 129.39 2.81 0
 0 3 3 2705.89 13.87 0
 0 3 4 1241.91 9.65 0
 0 3 5 1666.71 11.34 0
 0 3 6 57.76 2.3 0
 0 3 7 6.75 1.13 0
 1 -9 -8 81.99 5.08 0
 1 -9 -7 25.44 3.33 0
 1 -9 -6 15.31 2.82 0
 1 -9 -5 219.92 7.53 0
 1 -9 -4 286.15 8.6 0
 1 -9 -2 53.78 4.58 0
 1 -9 -1 326.2 8.95 0
 1 -9 0 956.38 15.14 0
 1 -9 1 317.97 8.85 0
 1 -9 2 59.05 4.17 0
 1 -9 3 465.53 10.51 0
 1 -9 4 290.1 8.31 0
 1 -8 -9 37.95 3.25 0
 1 -8 -5 213.16 6.88 0
 1 -8 -4 7.72 2.13 0
 1 -8 -3 292.07 8.02 0
 1 -8 -2 211.13 6.95 0
 1 -8 -1 38.3 3.24 0
 1 -8 0 542.88 10.74 0
 1 -7 -8 92.78 4.49 0
 1 -7 -7 88.84 4.42 0
 1 -7 -6 38.35 3.36 0
 1 -7 -5 507.46 9.75 0
 1 -7 -4 819.6 12.17 0
 1 -7 -3 -0.18 1.41 0
 1 -7 -2 42.77 3.33 0
 1 -7 -1 163.01 5.62 0
 1 -6 -8 415.18 8.04 0
 1 -6 -7 95.37 4.07 0
 1 -6 -6 78.52 3.68 0
 1 -6 -5 72.08 3.58 0
 1 -6 -4 193.9 5.57 0
 1 -6 -2 153.67 4.8 0
 1 -5 -8 330.89 6.57 0
 1 -5 -7 520.14 8.23 0
 1 -5 -6 48.55 2.66 0
 1 -5 -5 79.81 3.3 0
 1 -5 -4 178.65 4.76 0
 1 -5 -3 1809.94 14.53 0
 1 -4 -6 545.85 7.28 0
 1 -4 -5 108.32 3.41 0
 1 -4 -4 65.45 2.73 0
 1 -3 -7 732.96 7.18 0
 1 -3 -5 387.12 5.26 0
 1 -3 -4 278.92 4.54 0
 1 -2 -6 918.36 6.18 0
 1 0 13 127.2 3.65 0
 1 1 -3 9884.68 17.32 0
 1 1 -2 203.02 2.83 0
 1 1 11 232.48 5.16 0
 1 1 12 29.08 2.12 0
 1 2 -2 3981.15 14.88 0
 1 2 -1 3347.5 14.25 0
 1 2 0 148.17 3.27 0
 1 2 1 3458.52 15.79 0
 1 2 2 3941.75 17.52 0
 1 2 7 348.9 6.3 0
 1 2 8 97.41 3.54 0
 1 2 9 97.85 3.61 0
 1 2 10 644.35 8.7 0
 1 2 11 251.99 5.53 0
 1 2 12 -0.08 1.03 0
 1 3 -2 369.2 5.4 0
 1 3 -1 1076.95 9.34 0
 1 3 1 1107.74 10 0
 1 3 2 377.23 6.14 0
 1 3 3 832.34 9.18 0
 1 3 4 287.5 5.64 0
 1 3 5 383.2 6.68 0
 1 3 6 634.13 8.62 0
 1 3 7 741.33 9.46 0
 1 3 8 84.38 3.57 0
 1 3 9 338.58 6.6 0
 1 3 10 213.74 5.33 0
 1 3 11 189.82 4.97 0
 1 4 -1 615.76 8.02 0
 1 4 0 683.94 8.58 0
 1 4 1 626.44 8.34 0
 1 4 2 1605.59 13.45 0
 1 4 4 69.86 3.15 0
 1 4 5 113.41 3.92 0
 1 4 6 546.54 8.39 0
 1 4 8 986.2 11.58 0
 1 4 9 542.22 8.84 0
 1 4 10 352.83 7.15 0
 1 4 11 11.57 1.95 0
 1 4 12 111.64 4.09 0
 1 5 0 391.27 7.2 0
 1 5 1 97.14 3.89 0
 1 5 2 698.37 9.76 0
 1 5 3 1876.59 16.13 0
 1 5 4 185.87 5.42 0
 1 5 5 91.19 3.86 0
 1 5 6 49.58 3.03 0
 1 5 7 535.8 9.24 0
 1 5 8 323.73 7.28 0
 1 5 9 265.23 6.55 0
 1 5 10 21.46 2.62 0
 1 5 11 440.66 8.29 0
 1 5 12 111.53 4.27 0
 1 6 2 148.79 4.85 0
 1 6 4 199.02 5.86 0
 1 6 5 69.02 3.65 0
 1 6 6 80.39 4.05 0
 1 6 8 415.92 8.51 0
 1 6 9 160.91 5.49 0
 1 7 5 524.32 9.66 0
 1 7 6 35.93 3.08 0
 1 7 7 83.21 4.22 0
 2 -9 -7 36.56 3.78 0
 2 -9 -6 128.71 6.08 0
 2 -9 -5 553.63 11.89 0
 2 -9 -4 60.55 4.35 0
 2 -9 -3 231.78 7.83 0
 2 -9 -2 97.14 5.15 0
 2 -8 -9 114.73 5.1 0
 2 -8 -8 117.65 5.24 0
 2 -8 -7 255.65 7.43 0
 2 -8 -6 163.1 6.04 0
 2 -8 -5 122.04 5.52 0
 2 -8 -4 169 6.36 0
 2 -8 -3 134.13 5.36 0
 2 -7 -9 149.73 5.27 0
 2 -7 -7 204.23 6.09 0
 2 -7 -6 36.9 3.24 0
 2 -7 -5 33.07 3.21 0
 2 -7 -4 403.94 8.36 0
 2 -6 -8 35.13 2.64 0
 2 -6 -7 48.5 3.08 0
 2 -6 -6 459.56 8.36 0
 2 -6 -5 279.22 6.47 0
 2 -5 -9 38.05 2.23 0
 2 -5 -7 482.1 7.7 0
 2 -5 -6 24.63 2.24 0
 2 -4 -9 0.83 0.67 0
 2 -4 -8 218.65 4.45 0
 2 -4 -6 251.16 4.97 0
 2 -3 -8 12.17 1.02 0
 2 -3 -7 608.31 6.34 0
 2 -2 -7 72.11 1.68 0
 2 1 -5 538.17 5.11 0
 2 1 -4 364.64 4.77 0
 2 2 -5 121.29 2.85 0
 2 2 -4 1036.69 8.67 0
 2 2 -3 288.17 4.99 0
 2 2 -2 1798.57 12.65 0
 2 2 11 76.99 4.08 0
 2 2 12 41.86 3.14 0
 2 3 -5 326.45 5.22 0
 2 3 -4 1804.78 12.67 0
 2 3 -3 398.76 6.35 0
 2 3 -2 1214.7 11.3 0
 2 3 -1 1076.4 11.09 0
 2 3 1 1072.08 11.63 0
 2 3 2 1185.92 12.63 0
 2 3 8 10.77 2.11 0
 2 3 9 99.3 4.54 0
 2 3 10 81.27 4.26 0
 2 3 11 156.57 5.62 0
 2 3 12 368.19 8.31 0
 2 4 -4 987.49 10.31 0
 2 4 -3 702.41 9.05 0
 2 4 -2 18.81 1.91 0
 2 4 -1 27.73 2.2 0
 2 4 0 139.74 4.71 0
 2 4 2 16.35 2.22 0
 2 4 3 709.41 10.48 0
 2 4 4 1029.61 12.75 0
 2 4 5 382.32 8 0
 2 4 6 248.77 6.71 0
 2 4 7 111.33 4.67 0
 2 4 8 229.17 6.73 0
 2 4 9 -0.98 1.4 0
 2 4 10 100.59 4.59 0
 2 4 11 14.25 2.49 0
 2 5 3 281.09 6.96 0
 2 5 4 131.98 5.03 0
 2 5 6 19.18 2.57 0
 2 5 7 480.56 9.75 0
 2 5 8 296.32 7.72 0
 2 5 9 32.38 3.18 0
 2 5 10 304.1 7.96 0
 2 5 12 24.73 3.06 0
 2 6 -2 295.35 7.09 0
 2 6 -1 54.44 3.3 0
 2 6 3 638.29 11.1 0
 2 6 4 25.61 3.04 0
 2 6 5 269.17 7.38 0
 2 6 6 443.06 9.52 0
 2 6 7 43.68 3.57 0
 2 6 8 38.9 3.74 0
 2 6 9 107.25 5.15 0
 2 6 10 60.89 4.12 0
 2 6 12 4.31 2.14 0
 2 7 0 477.08 9.62 0
 2 7 1 358.04 8.45 0
 2 7 2 155.5 5.92 0
 2 7 4 411.68 9.56 0
 2 7 5 38.03 3.3 0
 2 7 7 217.56 7.34 0
 2 8 1 474.04 10.04 0
 2 8 2 411.16 9.7 0
 2 8 3 131.68 5.87 0
 2 8 4 161.83 6.47 0
 2 8 6 174.98 6.71 0
 3 -8 -7 8.96 2.47 0
 3 -8 -6 211.98 7.03 0
 3 -7 -9 121.68 4.64 0
 3 -7 -8 25.34 2.67 0
 3 -7 -7 17.64 2.62 0
 3 -7 -6 52.86 3.38 0
 3 -6 -8 46.5 2.99 0
 3 -6 -7 137.7 4.76 0
 3 -5 -9 156.57 4.15 0
 3 -4 -9 32.21 1.71 0
 3 -4 -8 244.76 4.86 0
 3 -3 -8 123.4 2.95 0
 3 -2 -8 171.35 2.75 0
 3 0 -7 112.77 2.48 0
 3 1 -7 1408.34 8.9 0
 3 1 -6 631.74 6.99 0
 3 2 -6 125.77 3.38 0
 3 2 -5 513.93 7.21 0
 3 2 -4 667.5 8.63 0
 3 2 13 98.89 5.27 0
 3 3 10 52.23 4.26 0
 3 3 11 263.96 7.92 0
 3 3 12 14.8 2.93 0
 3 4 -6 30.68 2.11 0
 3 4 -5 54.29 2.93 0
 3 4 -4 476.29 8.2 0
 3 4 4 490.23 10.12 0
 3 4 5 53.47 4.13 0
 3 4 6 35.52 3.23 0
 3 4 7 593.09 11.48 0
 3 4 8 249.54 7.64 0
 3 4 9 33.8 3.84 0
 3 4 10 153.75 6.24 0
 3 4 11 83.54 5 0
 3 5 -5 378.19 7.57 0
 3 5 -3 67.96 3.59 0
 3 5 -1 10.44 2.05 0
 3 5 0 815.86 12.4 0
 3 5 4 184.81 6.48 0
 3 5 5 346.35 8.86 0
 3 5 7 8.91 2.87 0
 3 5 8 224.57 7.7 0
 3 5 9 164.43 6.6 0
 3 6 -5 271.54 6.81 0
 3 6 -3 247.02 6.83 0
 3 6 -2 771.58 12.26 0
 3 6 0 58.21 4.04 0
 3 6 2 719.62 12.37 0
 3 6 4 333.35 8.95 0
 3 6 5 270.26 8.14 0
 3 6 6 427.44 10.34 0
 3 6 7 145.61 6.22 0
 3 6 8 49.17 4.38 0
 3 7 -4 19.17 2.54 0
 3 7 -3 100.58 4.72 0
 3 7 -1 337.82 8.82 0
 3 7 0 43.76 3.63 0
 3 7 1 321.21 8.83 0
 3 7 2 196.57 6.87 0
 3 7 3 99.77 5.11 0
 3 7 4 11.87 2.91 0
 3 7 5 41.64 3.83 0
 3 8 -2 239.64 7.46 0
 3 8 -1 291.08 8.52 0
 3 8 0 17.19 3.35 0
 4 -7 -8 154.15 5.5 0
 4 -6 -8 21.83 2.24 0
 4 1 -7 131.72 3.77 0
 4 2 -7 177.7 4.5 0
 4 2 -6 129.99 4.21 0
 4 2 -5 371.94 7.29 0
 4 3 -8 0.37 0.72 0
 4 3 -7 10.53 1.47 0
 4 3 -6 83.1 3.61 0
 4 3 -5 443.95 8.39 0
 4 3 -4 59 3.46 0
 4 3 -3 89.02 4.27 0
 4 4 -7 22.57 2.14 0
 4 4 -6 49.31 3.08 0
 4 4 -5 636.26 10.16 0
 4 4 -4 292.52 7.37 0
 4 4 -3 139.2 5.5 0
 4 4 -1 -0.32 1.57 0
 4 4 1 1.61 1.87 0
 4 5 -7 23.02 2.28 0
 4 5 -6 1.51 1.34 0
 4 5 -5 1.8 1.76 0
 4 5 -3 29.32 3.46 0
 4 5 -2 151.73 6.08 0
 4 5 -1 214.99 7.02 0
 4 5 0 602.89 11.69 0
 4 5 1 212.42 7.21 0
 4 5 2 152.56 6.28 0
 4 5 3 32.35 3.68 0
 4 5 4 239.71 7.97 0
 4 5 5 2.85 2.22 0
 4 6 -5 28.54 2.77 0
 4 6 -4 23.02 2.82 0
 4 6 -3 32.89 3.43 0
 4 6 -2 381.67 9.31 0
 4 6 -1 52.43 3.93 0
 4 6 0 21.73 3.11 0
 4 6 1 51.42 4.43 0
 4 7 -5 259.79 7.49 0
 4 7 -4 152.85 6.24 0
 4 7 -3 354.47 9.17 0
 4 7 -2 149.39 6.42 0
 4 7 -1 396.09 9.96 0
 5 2 -6 32.13 2.74 0
 5 3 -6 25.14 2.44 0
 5 3 -5 12.85 2.13 0
 5 3 -4 34.07 3.08 0
 5 4 -6 12.53 2.24 0
 5 4 -5 310.22 7.99 0
 5 4 -4 86.52 4.57 0
 5 4 -2 45.52 3.79 0
 5 4 -1 16.78 2.88 0
 5 4 0 433.21 10.69 0
 5 5 -6 12.72 2.24 0
 5 5 -5 7.45 1.96 0
 5 5 -3 43.08 3.7 0
 5 5 -2 172.01 7.02 0
 6 3 -5 49.49 3.84 0
 6 3 -4 13.75 2.61 0
 -5 -5 -4 98.48 5.41 0
 -5 -5 -3 48.31 4.08 0
 -5 -4 -2 51.68 3.94 0
 -5 -4 -1 16.62 3.07 0
 -5 -4 0 437.22 10.5 0
 -4 -7 -8 157.49 5.84 0
 -4 -7 -7 415.72 9.38 0
 -4 -7 -5 282.34 8.01 0
 -4 -7 -2 135.93 6.41 0
 -4 -6 -8 22.69 2.48 0
 -4 -6 -7 77.3 4.13 0
 -4 -6 -6 206.42 6.59 0
 -4 -6 -5 29.54 3.34 0
 -4 -6 -4 18.99 2.72 0
 -4 -6 -3 29.56 3.16 0
 -4 -6 -2 393.5 9.44 0
 -4 -6 -1 52.69 4.29 0
 -4 -6 0 17.38 2.82 0
 -4 -6 1 57.41 4.25 0
 -4 -6 2 403.79 9.91 0
 -4 -5 -8 60.38 3.39 0
 -4 -5 -7 24.49 2.36 0
 -4 -5 -6 0.23 1.31 0
 -4 -5 -4 259.06 7.28 0
 -4 -5 -3 27.5 3.11 0
 -4 -5 -2 159.99 6 0
 -4 -5 -1 222.6 7.05 0
 -4 -5 0 607.91 11.51 0
 -4 -5 1 226.65 7.17 0
 -4 -5 2 151.35 6.04 0
 -4 -5 3 31.32 3.18 0
 -4 -5 5 1.79 1.96 0
 -4 -4 -6 53.75 3.45 0
 -4 -4 -5 680.97 10.67 0
 -4 -4 -4 297.5 7.21 0
 -4 -4 -3 140.58 5.43 0
 -4 -4 -2 123.05 5.17 0
 -4 -4 -1 0.81 1.63 0
 -4 -4 0 1075.06 14.58 0
 -4 -4 1 0.1 1.71 0
 -4 -4 4 295.39 8.12 0
 -4 -4 5 662.16 12.37 0
 -4 -4 7 24.82 3.44 0
 -4 -3 -4 54.79 3.49 0
 -4 -3 -3 91.66 4.28 0
 -4 -3 -2 24.48 2.6 0
 -4 -3 -1 453.81 9.13 0
 -4 -3 0 26.23 2.76 0
 -4 -3 1 447.68 9.37 0
 -4 -3 2 23.37 2.86 0
 -4 -3 3 85.96 4.48 0
 -3 -8 -9 40.57 3.09 0
 -3 -8 -8 85.66 4.32 0
 -3 -8 -7 6.87 2.03 0
 -3 -8 -6 202.49 6.7 0
 -3 -8 -5 84.68 4.63 0
 -3 -8 -4 291.51 8.11 0
 -3 -8 -3 37.66 3.87 0
 -3 -8 -2 248.29 7.91 0
 -3 -8 -1 287.41 8.38 0
 -3 -7 -9 121.84 4.63 0
 -3 -7 -8 23.68 2.6 0
 -3 -7 -7 18.13 2.45 0
 -3 -7 -6 50.84 3.65 0
 -3 -7 -5 44.04 3.36 0
 -3 -7 -4 16.45 2.48 0
 -3 -7 -3 98.83 4.93 0
 -3 -7 -2 215.64 6.81 0
 -3 -7 -1 334.64 8.57 0
 -3 -7 0 44.46 3.59 0
 -3 -7 1 318.61 8.43 0
 -3 -7 2 207.81 6.93 0
 -3 -7 3 104.81 5.45 0
 -3 -7 5 41.12 4.09 0
 -3 -6 -9 112.3 4.1 0
 -3 -6 -7 146.44 4.93 0
 -3 -6 -6 438.49 8.6 0
 -3 -6 -5 281.4 7 0
 -3 -6 -4 329.61 7.71 0
 -3 -6 -3 260.19 6.92 0
 -3 -6 -2 801.18 12.11 0
 -3 -6 -1 276.84 7.31 0
 -3 -6 0 57.69 3.9 0
 -3 -6 3 244.04 7.27 0
 -3 -6 5 289.83 8.16 0
 -3 -6 6 447.74 10.01 0
 -3 -6 7 138.41 6.06 0
 -3 -6 8 49.21 4.15 0
 -3 -5 -8 229.52 5.47 0
 -3 -5 -7 10.36 1.69 0
 -3 -5 -6 11.8 2.05 0
 -3 -5 -4 189.76 5.54 0
 -3 -5 -3 61.07 3.48 0
 -3 -5 -2 81.85 4.03 0
 -3 -5 -1 8.93 1.93 0
 -3 -5 0 789.48 11.69 0
 -3 -5 2 84.2 4.44 0
 -3 -5 5 372.92 8.66 0
 -3 -5 6 16.5 2.77 0
 -3 -5 7 13.4 2.54 0
 -3 -5 8 231.46 7.26 0
 -3 -5 9 170.53 6.23 0
 -3 -4 -7 605.73 8.5 0
 -3 -4 -6 32.4 2.36 0
 -3 -4 -4 482.94 8.22 0
 -3 -4 -3 52.77 3.22 0
 -3 -4 -2 135.68 4.61 0
 -3 -4 -1 1010.54 12.32 0
 -3 -4 0 36.37 2.81 0
 -3 -4 1 1032.36 12.85 0
 -3 -4 2 128.04 4.8 0
 -3 -4 7 613.43 10.92 0
 -3 -4 8 243.7 7.15 0
 -3 -4 9 36.86 3.17 0
 -3 -3 -6 472.39 7.21 0
 -3 -3 -5 181.07 4.6 0
 -3 -3 -4 60.54 3.07 0
 -3 -3 -3 784.27 9.98 0
 -3 -3 -1 534.6 8.71 0
 -3 -3 0 1011.28 11.97 0
 -3 -3 1 511.71 8.83 0
 -3 -3 2 89.27 4.11 0
 -3 -3 3 786.54 11.16 0
 -3 -3 4 63.05 3.5 0
 -3 -3 6 470.86 9.29 0
 -3 -3 7 740.88 11.86 0
 -3 -2 -4 680.87 8.86 0
 -3 -2 -3 322.28 6.31 0
 -3 -2 -2 608.76 8.59 0
 -3 -2 -1 93.26 3.63 0
 -3 -2 0 548.38 8.5 0
 -3 -2 1 94.44 4.02 0
 -3 -2 2 605.3 9.42 0
 -3 -2 3 332.26 7.35 0
 -3 -2 4 680.7 10.49 0
 -2 -7 -9 146.44 4.86 0
 -2 -7 4 416.17 9.31 0
 -2 -7 5 35.89 3.26 0
 -2 -7 6 36.43 3.3 0
 -2 -7 10 5.25 1.85 0
 -2 -6 3 670.81 10.99 0
 -2 -6 6 471.03 9.5 0
 -2 -6 7 43.41 3.25 0
 -2 -6 8 40.64 3.24 0
 -2 -6 9 112.35 5 0
 -2 -6 10 67.83 3.91 0
 -2 -6 11 76.1 4.29 0
 -2 -5 -7 499.38 7.58 0
 -2 -5 -6 22.92 2.07 0
 -2 -5 1 483.54 8.56 0
 -2 -5 2 287.73 6.76 0
 -2 -5 3 308.47 6.92 0
 -2 -5 4 127.78 4.79 0
 -2 -5 6 24.02 2.89 0
 -2 -5 7 475.37 9.03 0
 -2 -5 8 290.2 7.16 0
 -2 -5 9 33.03 2.72 0
 -2 -5 10 313.8 7.59 0
 -2 -5 11 198.36 6.25 0
 -2 -4 -9 0.48 0.6 0
 -2 -4 -6 260.98 5.09 0
 -2 -4 -5 398.56 6.49 0
 -2 -4 -4 1013.81 10.3 0
 -2 -4 -2 17.83 1.88 0
 -2 -4 -1 26.44 2.18 0
 -2 -4 0 143.78 4.32 0
 -2 -4 1 24.71 2.15 0
 -2 -4 2 17.24 2 0
 -2 -4 3 695.08 9.78 0
 -2 -4 4 1010.16 11.94 0
 -2 -4 5 391.92 7.71 0
 -2 -4 6 256.11 6.23 0
 -2 -4 7 111.8 4.47 0
 -2 -4 8 224.3 6.11 0
 -2 -4 9 0.13 1.13 0
 -2 -3 -8 10.26 1 0
 -2 -3 -7 625.26 6.57 0
 -2 -3 -5 332.99 5.33 0
 -2 -3 -4 1815.82 12.58 0
 -2 -3 -3 386.82 6.16 0
 -2 -3 -2 1184.76 10.72 0
 -2 -3 -1 1065.61 10.41 0
 -2 -3 0 27.5 2.27 0
 -2 -3 1 1002.39 10.49 0
 -2 -3 2 1203.29 11.69 0
 -2 -3 3 409.77 7.2 0
 -2 -3 4 1817.7 14.93 0
 -2 -3 5 333.35 6.77 0
 -2 -3 6 193.45 5.19 0
 -2 -3 8 11.6 1.79 0
 -2 -3 9 94.5 4.06 0
 -2 -2 -6 40.37 1.71 0
 -2 -2 -4 1027.32 8.65 0
 -2 -2 -3 295.21 4.92 0
 -2 -2 -2 1772 12.06 0
 -2 -2 -1 605.25 7.3 0
 -2 -2 0 1180.77 10.45 0
 -2 -2 3 298.99 5.93 0
 -2 -2 4 1042.8 10.87 0
 -2 -2 5 127.84 4.1 0
 -2 -2 6 41.15 2.46 0
 -2 -2 7 69.69 3.19 0
 -2 -1 -3 820.17 7.55 0
 -2 -1 -2 3166.63 15.24 0
 -2 -1 0 273.78 4.87 0
 -2 -1 1 2603.33 15.05 0
 -2 -1 3 810.14 9.16 0
 -1 -6 10 11.82 2.24 0
 -1 -6 11 20.89 2.57 0
 -1 -5 7 545.72 8.81 0
 -1 -5 8 331.56 7 0
 -1 -5 9 260.25 6.19 0
 -1 -5 10 24.21 2.42 0
 -1 -5 11 432.73 8.02 0
 -1 -5 12 113.13 4.21 0
 -1 -4 -10 373.98 4.47 0
 -1 -4 5 108.48 3.74 0
 -1 -4 6 566.49 8.17 0
 -1 -4 7 397.68 6.99 0
 -1 -4 8 1018.9 11.17 0
 -1 -4 10 359.84 6.75 0
 -1 -4 11 8.71 1.59 0
 -1 -3 -9 351.7 3.45 0
 -1 -3 4 283.52 5.14 0
 -1 -3 5 397.27 6.24 0
 -1 -3 6 614.99 7.8 0
 -1 -3 7 742.21 8.79 0
 -1 -3 8 79.49 3.16 0
 -1 -2 -7 345.27 3.05 0
 -1 -2 -6 939.88 5.8 0
 -1 -2 1 3347.78 14.59 0
 -1 -2 2 3898.83 16.01 0
 -1 -2 3 483.68 5.91 0
 -1 -2 4 1678.48 11.22 0
 -1 -2 5 123.75 3.29 0
 -1 -2 6 935.92 8.85 0
 -1 -2 7 356.32 5.62 0
 -1 -2 8 95.52 3.17 0
 -1 -1 -4 621.81 4.03 0
 -1 -1 -1 997.67 6.33 0
 -1 -1 0 1603.76 8.42 0
 -1 -1 1 999.51 7.02 0
 -1 -1 2 192.26 3.3 0
 -1 -1 3 9536.53 23.59 0
 -1 -1 4 629.52 6.37 0
 -1 -1 5 2350.19 12.82 0
 0 -5 10 50.75 2.65 0
 0 -5 11 686.7 8.84 0
 0 -4 8 194.02 4.46 0
 0 -4 9 122.9 3.63 0
 0 -4 10 158.39 3.95 0
 0 -4 11 123.06 3.37 0
 0 -3 7 6.17 1 0
 0 -3 8 187.34 3.86 0
 0 -3 9 0.04 0.65 0
 0 -3 10 39.07 1.82 0
 0 -2 -9 15.25 0.9 0
 0 -2 6 5.18 0.85 0
 0 -2 7 226.59 3.54 0
 0 -2 8 301.14 4.01 0
 0 -1 -7 213.72 2.45 0
 0 -1 4 26.72 0.99 0
 0 -1 5 2168.28 8.43 0
 0 -1 6 286.2 3.19 0
 1 -5 11 422.31 6.24 0
 1 -4 10 351.29 5.05 0
 1 -4 11 9.14 1.12 0
 1 -3 9 349.85 4.26 0
 1 -3 10 211.91 2.74 0
 1 -2 -11 254.37 4.39 0
 1 -2 8 96.42 1.69 0
 1 -1 -8 74.76 2.47 0
 1 -1 -7 163.84 3.51 0
 1 0 -9 313.59 4.73 0
 1 0 -7 457.89 5.68 0
 1 0 -6 38.66 1.78 0
 1 0 -5 1577.34 9.99 0
 1 0 -4 444.4 5.12 0
 1 0 -3 1268.2 8.17 0
 1 0 -2 840.85 6.48 0
 1 0 -1 1083.81 7.01 0
 1 0 0 0.52 0.56 0
 1 0 1 1106.18 6.2 0
 1 0 2 848.4 5.02 0
 1 0 3 1259.49 5.44 0
 1 1 -5 2361.09 12.34 0
 1 1 -4 635.8 6.33 0
 1 1 -3 9712.85 23.37 0
 1 1 -1 1055.38 7.24 0
 1 1 0 1572 8.25 0
 1 1 1 1026.54 6.31 0
 2 -4 11 14.97 1.05 0
 2 -3 -11 151.92 4.57 0
 2 -3 -10 87.44 3.66 0
 2 -2 -11 79.76 3.28 0
 2 -2 -10 325.91 6.51 0
 2 -2 -8 226.71 5.42 0
 2 -1 -11 21.14 1.87 0
 2 -1 -10 517.27 7.9 0
 2 -1 -9 121.44 3.91 0
 2 -1 -6 478.54 7.33 0
 2 -1 6 474.42 4.81 0
 2 -1 7 335.57 3.41 0
 2 0 -11 -0.12 0.82 0
 2 0 -10 48.71 2.66 0
 2 0 -9 514.7 7.79 0
 2 0 -6 816.85 9.39 0
 2 0 -5 58.12 2.67 0
 2 0 -4 1827.38 13.32 0
 2 0 -3 1619.5 12.19 0
 2 0 -2 186.9 4.27 0
 2 0 -1 3357.89 16.74 0
 2 0 0 212.93 4.29 0
 2 0 1 3302.53 15.48 0
 2 0 2 192.82 3.78 0
 2 0 3 1616.94 10.08 0
 2 0 5 57.9 1.79 0
 2 0 6 807.68 5.51 0
 2 1 -9 126.24 4 0
 2 1 -8 184.63 4.78 0
 2 1 -6 464.11 7.13 0
 2 1 -4 371.73 6.22 0
 2 1 -3 821.92 8.92 0
 2 1 -1 2579.59 14.83 0
 2 1 0 290.72 4.94 0
 2 1 2 3183.42 14.89 0
 2 1 3 834.26 7.38 0
 2 1 4 358.11 4.63 0
 2 2 -4 1049.35 10.56 0
 2 2 -3 296.96 5.7 0
 2 2 -2 1809.17 13.28 0
 2 2 -1 594.84 7.52 0
 2 2 1 627.53 7.37 0
 3 -3 -11 262.39 6.94 0
 3 -3 -10 50.85 3.52 0
 3 -3 -9 53.32 3.59 0
 3 -3 10 54.02 1.88 0
 3 -2 -11 183.92 5.77 0
 3 -2 -10 54.2 3.5 0
 3 -2 -9 110.68 4.6 0
 3 -2 -8 183.04 5.7 0
 3 -2 -7 20.56 2.54 0
 3 -2 8 183.3 3.82 0
 3 -2 9 117.29 2.65 0
 3 -1 -11 153.45 5.14 0
 3 -1 -10 94.61 4.1 0
 3 -1 -7 1397.22 14.7 0
 3 -1 -6 615.19 9.77 0
 3 -1 4 50.41 2.63 0
 3 -1 5 428.51 6.38 0
 3 -1 6 622.47 7.32 0
 3 -1 7 1431.92 10.35 0
 3 -1 8 258.18 4 0
 3 0 -10 37.19 2.86 0
 3 0 -9 32.1 2.63 0
 3 0 -8 223.18 6.04 0
 3 0 -7 111.46 4.3 0
 3 0 -6 261.23 6.41 0
 3 0 -2 1094.15 11.91 0
 3 0 -1 23.49 2.06 0
 3 0 0 -0.46 1.17 0
 3 0 1 25.93 2.46 0
 3 0 2 1121.33 10.99 0
 3 0 3 204.14 4.68 0
 3 0 4 1.24 0.95 0
 3 0 5 306.92 5.25 0
 3 0 6 265.14 4.69 0
 3 1 -10 92.92 4.24 0
 3 1 -8 250.03 6.4 0
 3 1 -7 1415.9 14.82 0
 3 1 -6 637.33 9.91 0
 3 1 -3 16.69 2.02 0
 3 1 -2 1757.57 15.06 0
 3 1 -1 113.59 3.96 0
 3 1 0 220.7 5.34 0
 3 1 2 1723.93 13.66 0
 3 1 3 17.97 1.77 0
 3 1 4 49.7 2.52 0
 3 1 5 438.84 6.29 0
 3 2 -7 23.04 2.41 0
 3 2 -5 512.28 8.98 0
 3 2 -2 582.59 8.95 0
 3 2 -1 93.53 3.85 0
 3 2 0 570.61 8.56 0
 3 2 1 93.76 3.56 0
 3 2 2 596.15 8.3 0
 3 2 3 323.35 6.01 0
 4 -3 -9 73.24 4.37 0
 4 -3 -8 2.03 1.82 0
 4 -3 -7 8.9 2.19 0
 4 -3 8 0.24 1.04 0
 4 -3 9 69.81 3 0
 4 -2 -10 281.47 8 0
 4 -2 -9 64.51 4.31 0
 4 -2 -8 74.4 4.48 0
 4 -2 -7 191.59 6.4 0
 4 -2 -6 126.23 5.51 0
 4 -2 5 379.31 7.52 0
 4 -2 6 127.5 4.3 0
 4 -2 7 186.34 4.89 0
 4 -2 8 79.43 3.22 0
 4 -2 9 61.9 2.63 0
 4 -1 -11 3.17 1.64 0
 4 -1 -10 40.86 3.46 0
 4 -1 -9 175.93 6.35 0
 4 -1 -8 133.7 5.42 0
 4 -1 -7 131.46 5.46 0
 4 -1 -6 512.19 10.04 0
 4 -1 -5 330.66 7.96 0
 4 -1 -4 103.32 4.83 0
 4 -1 -3 177.08 5.8 0
 4 -1 1 1076.77 13.06 0
 4 -1 2 25.93 2.62 0
 4 -1 4 108.41 4.07 0
 4 -1 5 320.65 6.75 0
 4 -1 6 527.13 8.16 0
 4 -1 7 131.08 4.07 0
 4 -1 9 178.04 3.92 0
 4 0 -11 30.36 3.09 0
 4 0 -10 172.46 6.14 0
 4 0 -9 0.84 1.6 0
 4 0 -8 16.62 2.86 0
 4 0 -7 158.19 5.77 0
 4 0 -5 4.01 1.87 0
 4 0 -4 7.05 1.98 0
 4 0 0 400.83 8.09 0
 4 0 1 7.29 1.92 0
 4 0 3 139.43 4.65 0
 4 0 4 9.19 1.94 0
 4 0 5 3.6 1.65 0
 4 0 6 45.13 2.75 0
 4 0 7 158.02 4.27 0
 4 0 8 17.02 1.68 0
 4 1 -11 5.14 2.1 0
 4 1 -10 51.05 3.92 0
 4 1 -9 173.41 6.24 0
 4 1 -8 129.78 5.34 0
 4 1 -7 138.39 5.44 0
 4 1 -6 514.5 10.14 0
 4 1 -5 308.94 7.7 0
 4 1 -4 107.06 4.88 0
 4 1 0 63.53 3.78 0
 4 1 1 1067.74 12.88 0
 4 1 3 183.76 5.38 0
 4 1 4 98.9 3.88 0
 4 1 5 329.93 6.72 0
 4 1 6 512.58 7.86 0
 4 2 -9 58.01 3.99 0
 4 2 -8 79.55 4.34 0
 4 2 -5 380.18 8.61 0
 4 2 -4 701.05 11.41 0
 4 2 -3 423.96 8.97 0
 4 2 -1 603.78 10.27 0
 4 2 0 176.47 5.55 0
 4 2 3 433.07 8.03 0
 4 2 4 676.97 9.85 0
 4 3 -5 425.8 9.37 0
 4 3 -3 89.81 4.37 0
 4 3 -1 462.8 9.26 0
 4 3 0 27.3 2.76 0
 5 -4 7 25.97 3.02 0
 5 -4 8 32.74 3.01 0
 5 -3 5 11.38 2.57 0
 5 -3 6 26.26 2.72 0
 5 -3 7 77.36 3.96 0
 5 -3 8 87.78 4.09 0
 5 -2 -4 1007.09 15.39 0
 5 -2 -3 256.05 7.92 0
 5 -2 0 259.65 7.66 0
 5 -2 1 70.93 4.27 0
 5 -2 2 25.77 2.98 0
 5 -2 3 257.61 7.3 0
 5 -2 4 1027.2 13.92 0
 5 -2 5 99.61 4.5 0
 5 -2 6 28.42 2.74 0
 5 -2 7 115.17 4.6 0
 5 -2 8 338.93 7.24 0
 5 -1 -5 17.04 3.1 0
 5 -1 -3 2.52 1.78 0
 5 -1 -1 13.48 2.47 0
 5 -1 0 12.99 2.47 0
 5 -1 1 15.22 2.81 0
 5 -1 2 100.22 4.82 0
 5 -1 3 3.32 2.15 0
 5 -1 4 5.73 1.88 0
 5 -1 5 13.35 2.45 0
 5 -1 6 42.99 3.3 0
 5 -1 7 59.21 3.42 0
 5 -1 8 6.62 1.55 0
 5 0 -5 33.41 3.69 0
 5 0 -4 98.93 5.03 0
 5 0 -3 419.56 9.77 0
 5 0 -2 3.16 1.91 0
 5 0 -1 69.18 4.34 0
 5 0 2 1.36 1.66 0
 5 0 4 98.5 4.57 0
 5 0 5 36.27 3.04 0
 5 0 6 23.3 2.7 0
 5 0 7 303.42 6.87 0
 5 0 8 78.19 3.5 0
 5 1 -5 15.34 2.95 0
 5 1 -4 4.12 2.33 0
 5 1 -3 -0.12 1.72 0
 5 1 -2 87.08 4.89 0
 5 1 -1 11.74 2.46 0
 5 1 0 16.95 2.67 0
 5 1 1 14.62 2.69 0
 5 1 2 94.67 4.75 0
 5 1 4 6 1.97 0
 5 1 5 12.37 2.11 0
 5 1 6 43.85 3.2 0
 5 2 -4 997.13 15.06 0
 5 2 -3 249.33 7.6 0
 5 2 -2 31.35 3.07 0
 5 2 -1 68.17 4.22 0
 5 2 0 247.48 7.42 0
 5 2 1 76.96 4.54 0
 5 2 3 258.55 7.19 0
 5 2 4 1045.3 13.69 0
 5 3 -2 549.47 11.21 0
 5 3 -1 61.72 4.11 0
 5 3 0 7.74 2.65 0
 5 3 1 56.57 4.27 0
 6 -2 7 95.68 4.76 0
 6 -1 6 228.75 6.99 0
 6 -1 7 124.66 5.23 0
 6 0 5 0.52 1.9 0
 6 0 6 0.78 1.85 0
 6 1 5 22.44 2.84 0
 -5 2 6 31.85 1.06 0
 -5 2 7 107.66 2.34 0
 -5 3 -2 553.08 7.12 0
 -5 3 -1 63.44 2.4 0
 -5 3 0 8.36 1.09 0
 -5 3 1 57.57 1.92 0
 -5 3 3 403.55 4.18 0
 -5 4 -5 313.95 6.86 0
 -5 4 -4 87.54 3.74 0
 -5 4 -3 432.52 7.24 0
 -5 4 -2 51.03 2.56 0
 -5 4 -1 14.77 1.76 0
 -5 4 0 432.85 6.18 0
 -5 4 1 19.67 1.52 0
 -5 4 2 51.54 2.09 0
 -5 5 -6 17.61 2.34 0
 -5 5 -5 8.56 1.98 0
 -5 5 -4 96.89 4.03 0
 -5 5 -3 51.62 2.9 0
 -5 5 -2 176.83 4.88 0
 -5 5 -1 189.07 4.75 0
 -5 5 0 91.45 3.31 0
 -5 5 1 192.35 4.49 0
 -5 6 -5 52.85 3.48 0
 -5 6 -4 140.4 5.08 0
 -5 6 -3 15.74 2.16 0
 -5 6 -2 157.68 4.86 0
 -5 6 -1 339.94 6.91 0
 -5 6 0 81.14 3.48 0
 -5 6 1 351.8 6.65 0
 -5 7 -3 4.41 1.63 0
 -5 7 -2 84.84 4 0
 -5 7 -1 14.37 2.14 0
 -5 7 0 1.26 1.19 0
 -4 -1 10 50.23 2.54 0
 -4 -1 11 5.62 1.27 0
 -4 0 6 43.12 1.38 0
 -4 0 7 159.8 3.13 0
 -4 0 8 20.83 1.54 0
 -4 0 9 2.59 1.04 0
 -4 0 10 170.77 4.44 0
 -4 0 11 31.76 2.34 0
 -4 1 5 319.22 3.34 0
 -4 1 6 500.69 5.08 0
 -4 1 7 134.18 3.1 0
 -4 1 8 129.08 3.38 0
 -4 1 9 172.67 4.24 0
 -4 1 10 50.53 2.67 0
 -4 1 11 4.98 1.46 0
 -4 2 -1 605.91 6.2 0
 -4 2 0 174.29 3.02 0
 -4 2 1 605.83 5.02 0
 -4 2 2 30 1.15 0
 -4 2 8 79.01 2.94 0
 -4 2 9 64.11 2.87 0
 -4 2 10 285.43 6.06 0
 -4 2 11 35.27 2.63 0
 -4 3 -5 450.84 7.85 0
 -4 3 -4 59.35 2.95 0
 -4 3 -2 21.43 1.76 0
 -4 3 -1 453.12 6.04 0
 -4 3 1 458.62 5.37 0
 -4 3 10 90.24 3.71 0
 -4 3 11 122.79 4.52 0
 -4 4 -7 26.91 2.93 0
 -4 4 -6 51.1 3.12 0
 -4 4 -5 643.14 9.57 0
 -4 4 -4 294.48 6.27 0
 -4 4 -3 136.32 4.1 0
 -4 4 -2 125.42 3.83 0
 -4 4 -1 0.57 1.02 0
 -4 4 0 1088.61 9.75 0
 -4 5 -7 26.97 2.77 0
 -4 5 -6 0.01 1.35 0
 -4 5 -5 2.21 1.45 0
 -4 5 -4 249.32 6.18 0
 -4 5 -3 29.76 2.47 0
 -4 5 -2 149.78 4.45 0
 -4 5 -1 221.12 5.12 0
 -4 6 -5 33.59 2.82 0
 -4 6 -4 23.36 2.82 0
 -4 6 -3 27.92 2.6 0
 -4 6 -2 404.51 7.69 0
 -4 6 -1 54.08 2.91 0
 -4 7 -4 142.3 5.34 0
 -4 7 -3 362.85 7.84 0
 -4 7 -2 149.56 5.02 0
 -4 8 -2 72.27 4.03 0
 -3 -2 9 122.09 3.78 0
 -3 -2 10 61.72 2.96 0
 -3 -2 11 187.4 5.28 0
 -3 -2 12 83.78 3.82 0
 -3 -1 6 607.75 6.11 0
 -3 -1 7 1441.69 10.63 0
 -3 -1 8 257.98 5.04 0
 -3 -1 9 14.2 1.76 0
 -3 -1 10 95.95 3.73 0
 -3 -1 11 160.69 4.89 0
 -3 -1 12 80.58 3.8 0
 -3 0 4 0.81 0.32 0
 -3 0 5 302.42 3.79 0
 -3 0 6 263.77 4.15 0
 -3 0 7 117.58 3.22 0
 -3 0 8 218.83 4.68 0
 -3 0 9 29.39 2.16 0
 -3 0 10 34.12 2.5 0
 -3 0 11 104.11 4.01 0
 -3 0 12 162.17 5.3 0
 -3 1 -2 1694.17 9.99 0
 -3 1 -1 120.9 2.46 0
 -3 1 0 226.55 2.74 0
 -3 1 7 1399.79 10.97 0
 -3 1 8 245.2 5.09 0
 -3 1 9 11.5 1.76 0
 -3 1 11 164.02 5.14 0
 -3 1 12 90.45 4.13 0
 -3 2 -5 521.87 7.72 0
 -3 2 -4 695.6 8.3 0
 -3 2 -3 321.52 5.24 0
 -3 2 -2 605.27 6.57 0
 -3 2 -1 94.57 2.47 0
 -3 2 11 189.27 5.6 0
 -3 2 12 88.23 4.14 0
 -3 3 -7 746.94 10.67 0
 -3 3 -6 467.67 8.11 0
 -3 3 -5 184.18 4.86 0
 -3 3 -4 62.53 2.81 0
 -3 3 -2 88.16 2.86 0
 -3 3 -1 521.51 6.22 0
 -3 4 -8 252.33 6.96 0
 -3 4 -7 609.56 10.15 0
 -3 4 -6 37.4 2.7 0
 -3 4 -5 55.95 3.2 0
 -3 4 -4 477.99 7.72 0
 -3 4 -2 133.44 3.72 0
 -3 5 -8 225.88 6.69 0
 -3 5 -7 11.77 2.1 0
 -3 5 -6 14.8 2.39 0
 -3 5 -5 374.62 7.59 0
 -3 5 -4 186.83 5.28 0
 -3 5 -3 62.96 3.12 0
 -3 5 -2 84.31 3.38 0
 -3 6 -7 141.4 5.39 0
 -3 6 -6 441.37 8.91 0
 -3 6 -5 268.05 6.69 0
 -3 6 -4 325.77 7.11 0
 -3 6 -3 250.39 6.1 0
 -3 7 -5 37.3 3.02 0
 -3 7 -4 15.28 2.36 0
 -3 7 -3 101.12 4.21 0
 -3 8 -3 35.68 2.93 0
 -2 -3 10 87.28 3.82 0
 -2 -3 11 158.95 5.36 0
 -2 -2 6 37.53 1.85 0
 -2 -2 7 71.15 2.7 0
 -2 -2 8 234.83 5.22 0
 -2 -2 9 155.12 4.54 0
 -2 -2 12 42.42 3.23 0
 -2 -1 4 357.87 4.02 0
 -2 -1 5 528.86 5.68 0
 -2 -1 6 468.06 6.01 0
 -2 -1 7 332.5 5.66 0
 -2 -1 8 181.31 4.57 0
 -2 -1 9 124.77 4.07 0
 -2 -1 10 512.73 8.64 0
 -2 -1 11 20.79 2.59 0
 -2 -1 12 121.1 4.79 0
 -2 0 3 1554.76 6.77 0
 -2 0 4 1811.43 9 0
 -2 0 6 795.72 7.83 0
 -2 0 7 405.94 6.17 0
 -2 0 8 1.27 0.88 0
 -2 0 9 518.15 8.21 0
 -2 0 10 50.64 3.12 0
 -2 0 11 0.93 1.28 0
 -2 0 12 224.62 6.45 0
 -2 1 -3 845.07 7.58 0
 -2 1 -2 3144.38 12.74 0
 -2 1 -1 2559.52 9.93 0
 -2 1 0 284.47 2.88 0
 -2 1 8 185.28 4.65 0
 -2 1 9 125.86 4.16 0
 -2 1 10 505.12 8.75 0
 -2 1 11 20.85 2.46 0
 -2 1 12 113.97 4.83 0
 -2 2 -5 126.03 3.74 0
 -2 2 -4 1041.4 9.62 0
 -2 2 -3 293.65 4.89 0
 -2 2 -2 1796.67 10.65 0
 -2 2 -1 594.16 5.61 0
 -2 2 11 73.83 3.98 0
 -2 2 12 41.35 3.3 0
 -2 3 -7 639.47 9.72 0
 -2 3 -6 197.16 5.11 0
 -2 3 -5 327.71 6.16 0
 -2 3 -4 1778.99 13.22 0
 -2 3 -3 404.65 6 0
 -2 3 -2 1193.82 9.56 0
 -2 4 -9 -0.23 1.51 0
 -2 4 -8 228.51 6.33 0
 -2 4 -7 113.85 4.35 0
 -2 4 -6 258.26 6.07 0
 -2 4 -5 389.18 7.13 0
 -2 4 -4 1034.08 10.84 0
 -2 4 -3 719.33 8.6 0
 -2 5 -9 32.34 2.99 0
 -2 5 -8 284.04 7.29 0
 -2 5 -7 473.59 8.89 0
 -2 5 -6 19.68 2.21 0
 -2 5 -5 342.19 7 0
 -2 5 -4 125.97 4.16 0
 -2 5 -3 304.85 6.02 0
 -2 6 -8 33.06 3.03 0
 -2 6 -7 41.43 3.39 0
 -2 6 -6 458.79 8.87 0
 -2 6 -5 268.46 6.51 0
 -2 6 -4 24.57 2.58 0
 -2 7 -6 36.89 2.97 0
 -2 7 -5 34.03 2.81 0
 -2 7 -4 424.74 8.42 0
 -2 8 -5 116.5 4.89 0
 -2 8 -4 166.46 5.59 0
 -1 -3 7 739.35 9.14 0
 -1 -3 8 78.72 3.52 0
 -1 -3 10 213.83 5.96 0
 -1 -3 11 202.77 6.11 0
 -1 -2 4 1726.59 10.34 0
 -1 -2 5 124.15 3.19 0
 -1 -2 6 939.7 9.3 0
 -1 -2 7 343.61 6.11 0
 -1 -2 8 88.6 3.57 0
 -1 -2 9 96.08 3.85 0
 -1 -2 10 666.53 10.37 0
 -1 -1 2 196.73 2.33 0
 -1 -1 3 9548.9 19.48 0
 -1 -1 4 635.35 5.99 0
 -1 -1 5 2276.92 12.66 0
 -1 -1 6 371.36 5.77 0
 -1 -1 7 163.73 4.18 0
 -1 -1 8 73.04 3.19 0
 -1 -1 9 105.97 4.11 0
 -1 -1 10 158.31 5.22 0
 -1 -1 11 225.54 6.35 0
 -1 -1 12 29.64 2.87 0
 -1 0 5 1537.72 10.4 0
 -1 0 8 222.25 5.24 0
 -1 0 9 313.51 6.59 0
 -1 0 10 37.03 2.72 0
 -1 0 11 2.41 1.53 0
 -1 1 -4 649.24 6.91 0
 -1 1 -3 9759.98 23.71 0
 -1 1 -2 200.73 3.09 0
 -1 1 9 102.87 3.98 0
 -1 1 10 154.98 5.26 0
 -1 1 11 228.38 6.45 0
 -1 2 -6 962.67 10.3 0
 -1 2 -5 123.59 3.53 0
 -1 2 -4 1735.88 11.8 0
 -1 2 -3 492.64 5.73 0
 -1 2 -2 3985.27 14.66 0
 -1 3 -5 400.94 6.61 0
 -1 3 -4 277.62 5.18 0
 -1 3 -3 823.8 8.05 0
 -1 4 -9 541.69 9.85 0
 -1 4 -8 1040.18 12.81 0
 -1 4 -4 69.49 2.83 0
 -1 4 -3 217.74 4.61 0
 -1 5 -9 250.38 6.87 0
 -1 5 -8 312.94 7.41 0
 -1 6 -7 88.37 4.04 0
 -1 6 -6 84.82 4 0
 -1 7 -7 91.8 4.34 0
 -1 7 -6 36.01 2.82 0
 -1 7 -5 498.01 9.08 0
 -1 8 -6 24.12 2.91 0
 -1 8 -5 202.39 6.1 0
 0 -3 6 60.79 2.79 0
 0 -3 7 5.47 1.56 0
 0 -3 9 -1.07 1.32 0
 0 -3 10 37 2.87 0
 0 -2 4 1428.99 10.09 0
 0 -2 5 264.56 4.95 0
 0 -2 6 4.29 1.17 0
 0 -2 7 226.77 5.19 0
 0 -2 9 12.25 2.17 0
 0 -2 11 171.09 6.04 0
 0 -1 2 610.9 4.69 0
 0 -1 4 23.92 1.48 0
 0 -1 5 2138.46 13.07 0
 0 -1 6 283.18 5.34 0
 0 -1 9 41.44 2.98 0
 0 -1 10 18.41 2.56 0
 0 -1 11 4.23 1.78 0
 0 0 5 0.38 0.81 0
 0 0 6 291.79 5.43 0
 0 0 7 1.41 1.18 0
 0 0 8 4718.78 24.44 0
 0 0 10 204.13 6.01 0
 0 0 11 0.76 1.56 0
 0 1 -3 12.58 1.05 0
 0 1 -2 635.93 4.76 0
 0 1 9 45.17 2.83 0
 0 1 10 12.22 2.34 0
 0 1 11 4.06 1.79 0
 0 2 -6 3.93 1.2 0
 0 2 -5 255.68 4.8 0
 0 2 -4 1405.81 9.97 0
 0 2 -3 954.47 7.42 0
 0 2 -2 432.35 4.52 0
 0 2 11 165.34 5.77 0
 0 3 -8 189.96 5.27 0
 0 3 -6 60.12 2.99 0
 0 3 -5 1645.62 12.4 0
 0 3 -4 1221.54 9.96 0
 0 3 -3 2669.46 13.63 0
 0 4 -8 205.98 5.63 0
 0 4 -7 2.4 1.28 0
 0 4 -5 451.07 6.97 0
 0 4 -4 741.04 8.45 0
 0 5 -10 52.42 3.62 0
 0 5 -9 377.5 8.15 0
 0 5 -8 114.38 4.49 0
 0 5 -7 33.07 2.65 0
 0 5 -6 1517.54 14.13 0
 0 6 -9 0.5 1.44 0
 0 6 -8 130.56 4.98 0
 0 6 -7 401.19 8.08 0
 0 6 -6 655.28 9.86 0
 0 6 -5 0.26 1.1 0
 0 7 -8 291.4 7.5 0
 0 7 -7 322.43 7.58 0
 0 7 -6 291.71 7.13 0
 0 7 -5 129.2 4.77 0
 0 8 -6 398.94 8.54 0
 0 8 -5 511.67 9.41 0
 1 -3 6 631.87 8.67 0
 1 -3 7 727.66 9.8 0
 1 -3 8 85.6 3.76 0
 1 -3 9 345.56 7.62 0
 1 -3 10 217.45 6.42 0
 1 -2 3 487.88 5.7 0
 1 -2 4 1653.55 11.4 0
 1 -2 5 118.86 3.51 0
 1 -2 6 933.21 10.17 0
 1 -2 8 95.73 3.89 0
 1 -2 10 649.56 10.78 0
 1 -2 11 248.53 7.16 0
 1 -1 2 198.68 3.09 0
 1 -1 3 9767.35 23.72 0
 1 -1 4 603.25 6.71 0
 1 -1 5 2307.31 14.22 0
 1 -1 6 378.05 6.37 0
 1 -1 7 171.06 4.67 0
 1 -1 8 75.77 3.62 0
 1 -1 9 99.14 4.15 0
 1 -1 11 232.7 7.04 0
 1 0 1 1053.66 4.94 0
 1 0 2 834.82 5.74 0
 1 0 3 1233.28 8.31 0
 1 0 4 453.17 5.73 0
 1 0 5 1550.28 11.61 0
 1 0 6 35.08 2.25 0
 1 0 10 35.87 3.29 0
 1 0 11 -0.48 1.65 0
 1 1 -3 9755.65 19.82 0
 1 1 -2 202.26 2.37 0
 1 1 8 79.21 3.5 0
 1 1 9 107.37 4.53 0
 1 1 10 153.92 5.42 0
 1 1 11 222.82 6.71 0
 1 2 -6 958.13 9.39 0
 1 2 -5 125.41 3.19 0
 1 2 -4 1728.88 10.39 0
 1 2 -3 487.67 4.98 0
 1 3 -5 401.16 5.97 0
 1 3 -4 286.33 4.69 0
 1 3 -3 808.35 7.16 0
 1 4 -9 526.8 9.05 0
 1 4 -8 1059.12 12.18 0
 1 4 -5 114.37 3.55 0
 1 4 -4 65.17 2.54 0
 1 5 -10 22.72 2.59 0
 1 5 -9 262.17 6.67 0
 1 5 -8 310.28 6.87 0
 1 5 -7 533 8.68 0
 1 5 -6 51.4 2.82 0
 1 6 -9 154.4 5.41 0
 1 6 -8 425.74 8.47 0
 1 6 -7 89.81 4.08 0
 1 6 -5 68.05 3.32 0
 1 7 -8 91.53 4.32 0
 1 7 -7 91.44 4.27 0
 1 7 -6 37.28 3.01 0
 1 7 -5 506.58 8.7 0
 1 8 -7 42.26 3.24 0
 1 8 -6 24.11 2.83 0
 1 8 -5 205.72 5.94 0
 1 9 -5 209.23 6.31 0
 2 -3 6 192.52 5.03 0
 2 -3 7 636.8 9.52 0
 2 -3 8 11.24 2.31 0
 2 -3 10 83.14 4.42 0
 2 -2 4 1034.64 9.55 0
 2 -2 5 124.78 3.75 0
 2 -2 7 77.35 3.58 0
 2 -2 8 234.53 6.11 0
 2 -2 9 156.29 5.37 0
 2 -1 2 3104.73 12.55 0
 2 -1 3 831.25 7.46 0
 2 -1 4 351.47 5.44 0
 2 -1 5 519.11 7.22 0
 2 -1 6 465.19 7.43 0
 2 -1 7 333.96 6.68 0
 2 -1 8 181.73 5.33 0
 2 -1 9 124.82 4.9 0
 2 -1 10 522.5 9.98 0
 2 0 2 188.8 3.06 0
 2 0 3 1574.39 9.92 0
 2 0 4 1814.66 11.94 0
 2 0 5 56.96 2.51 0
 2 0 6 811.68 9.64 0
 2 0 7 421.61 7.5 0
 2 0 8 0.48 1.32 0
 2 0 9 517.22 9.42 0
 2 0 10 52.82 3.5 0
 2 1 6 463.42 7.31 0
 2 1 7 337.25 6.74 0
 2 1 8 184.4 5.39 0
 2 1 9 126.17 4.81 0
 2 1 10 535.93 10.17 0
 2 2 -4 1035.64 7.4 0
 2 2 -3 295.87 3.52 0
 2 2 -2 1729.73 7.25 0
 2 2 10 318.48 7.91 0
 2 3 -5 334.82 5.07 0
 2 3 -4 1811.15 10.77 0
 2 3 -3 397.4 4.68 0
 2 4 -8 227.85 5.51 0
 2 4 -7 108.21 3.63 0
 2 4 -4 1010.81 8.94 0
 2 5 -9 36.18 2.92 0
 2 5 -8 284.85 6.43 0
 2 5 -7 489.28 8.02 0
 2 5 -6 24.66 1.95 0
 2 6 -10 57.14 3.52 0
 2 6 -9 112.05 4.49 0
 2 6 -8 33.34 2.8 0
 2 6 -7 51.19 2.95 0
 2 6 -6 470.93 7.98 0
 2 7 -9 139.32 5.34 0
 2 7 -8 194.21 5.86 0
 2 7 -7 217.64 6.09 0
 2 7 -6 37.45 2.89 0
 2 7 -5 33.99 2.5 0
 2 8 -7 256.78 6.8 0
 2 8 -6 159.82 5.39 0
 2 8 -5 118.82 4.47 0
 2 9 -5 539.38 9.89 0
 3 -3 9 52.18 3.74 0
 3 -2 5 503.32 7.54 0
 3 -2 6 127.73 4.15 0
 3 -2 7 21.87 2.49 0
 3 -2 8 183.84 5.75 0
 3 -1 3 19.7 1.47 0
 3 -1 4 46.68 2.22 0
 3 -1 5 425.71 6.76 0
 3 -1 6 624.73 8.9 0
 3 -1 7 1421.95 14.11 0
 3 -1 8 256.34 6.46 0
 3 -1 9 15.43 2.39 0
 3 0 1 27.17 1.08 0
 3 0 4 1.04 0.82 0
 3 0 6 266.23 5.9 0
 3 0 7 111.89 4.27 0
 3 0 9 30.47 2.98 0
 3 0 10 38.98 3.55 0
 3 1 1 118.26 2.14 0
 3 1 3 19.71 1.37 0
 3 1 4 47.3 2.18 0
 3 1 5 424.36 6.76 0
 3 1 6 617.91 8.76 0
 3 1 7 1398.11 14.02 0
 3 1 8 248.64 6.36 0
 3 1 10 89.32 4.54 0
 3 2 8 181.35 5.56 0
 3 2 9 116.57 4.81 0
 3 3 -4 60.26 1.84 0
 3 3 -3 772.5 5.78 0
 3 4 -7 593.45 7.72 0
 3 4 -6 32.85 1.84 0
 3 4 -4 486.49 5.78 0
 3 4 -3 58.51 2 0
 3 5 -8 235.55 5.57 0
 3 5 -7 10 1.53 0
 3 5 -6 17.17 1.53 0
 3 5 -5 376.27 5.99 0
 3 6 -9 107.29 4.22 0
 3 6 -8 49.92 2.87 0
 3 6 -7 142.88 4.39 0
 3 6 -6 446.62 7.43 0
 3 6 -5 287.18 5.7 0
 3 7 -9 121.49 4.62 0
 3 7 -8 24.81 2.46 0
 3 7 -7 20.36 2.23 0
 3 7 -6 49.95 2.96 0
 3 7 -5 40.83 2.68 0
 3 7 -4 16.16 1.8 0
 3 8 -8 82.92 4.11 0
 3 8 -7 7.1 1.6 0
 3 8 -6 200.44 5.67 0
 3 8 -5 90.96 3.92 0
 3 9 -6 104.65 4.49 0
 3 9 -5 53.46 3.32 0
 4 -2 7 195.14 5.68 0
 4 -2 8 78.14 3.97 0
 4 -1 4 104.71 3.22 0
 4 -1 5 331.69 6.21 0
 4 -1 6 517.6 8.21 0
 4 -1 9 179.28 5.96 0
 4 0 3 133.76 3.19 0
 4 0 4 10.27 1.38 0
 4 0 5 3.61 1.1 0
 4 0 6 44.99 2.83 0
 4 0 7 161.77 4.98 0
 4 0 8 13.86 2.11 0
 4 0 9 4.54 1.75 0
 4 1 1 1072.92 6.06 0
 4 1 2 29.71 1.42 0
 4 1 3 183.37 3.73 0
 4 1 4 112.06 3.34 0
 4 1 5 334.58 6.17 0
 4 1 7 130.75 4.7 0
 4 1 8 138.41 4.95 0
 4 1 9 172.52 5.83 0
 4 2 0 170.38 1.78 0
 4 2 1 597.15 5 0
 4 2 3 436.94 5.92 0
 4 2 4 695.25 8.22 0
 4 2 5 380.91 6.74 0
 4 2 6 126.28 4.28 0
 4 2 7 192.07 5.57 0
 4 2 8 77.92 4.04 0
 4 2 9 69.32 3.96 0
 4 3 7 9.28 1.85 0
 4 3 8 -0.33 1.36 0
 4 4 -4 291.26 3.79 0
 4 4 -3 140.59 2.55 0
 4 4 -2 125.11 2.38 0
 4 5 -6 0.68 0.57 0
 4 5 -5 3.33 0.79 0
 4 5 -4 251.77 4.22 0
 4 6 -5 31.31 1.9 0
 4 6 -4 20.22 1.53 0
 4 6 -3 29.48 1.81 0
 4 7 -4 143.09 4.03 0
 5 -1 7 68.95 3.6 0
 5 -1 8 5.56 1.7 0
 5 0 5 37.53 2.2 0
 5 0 6 26.18 2.35 0
 5 0 7 301.67 6.79 0
 5 0 8 81.47 3.97 0
 5 1 3 2.21 0.73 0
 5 1 5 16.7 1.9 0
 5 1 6 48.64 2.8 0
 5 1 7 61.87 3.25 0
 5 1 8 8.18 1.92 0
 5 2 2 29.1 1.36 0
 5 2 3 258.32 4.46 0
 5 2 5 100.66 3.55 0
 5 2 6 34.18 2.47 0
 5 2 7 114.07 4.39 0
 5 2 8 338.33 7.84 0
 5 3 1 59.07 1.59 0
 5 3 2 558.32 5.95 0
 5 3 4 34.01 2.14 0
 5 3 5 15.78 1.95 0
 5 3 6 23.99 2.14 0
 5 3 7 77.7 3.79 0
 5 3 8 83.15 4.15 0
 5 4 5 327.63 6.61 0
 5 4 6 11.88 1.98 0
 5 4 7 24.62 2.48 0
 6 1 6 225.96 5.37 0
 6 1 7 124.5 4.41 0
 -9 2 -7 18.39 4.27 0
 -9 3 -6 31.29 4.86 0
 -9 3 -4 0.78 2.62 0
 -9 4 -5 2.23 3.09 0
 -9 4 -4 9.93 3.51 0
 -9 4 -3 26.46 4.86 0
 -9 5 -4 11.49 3.87 0
 -9 5 -3 29.86 4.94 0
 -9 5 -2 46.75 5.79 0
 -8 -3 -11 104.08 7.18 0
 -8 -2 -11 -1.37 2.96 0
 -8 -2 -10 20.55 4.09 0
 -8 -2 -9 29.22 4.54 0
 -8 -2 -7 10.56 3.25 0
 -8 -1 -11 13.64 4.18 0
 -8 -1 -9 72.71 6.19 0
 -8 -1 -7 3.34 2.64 0
 -8 -1 -6 64.6 5.05 0
 -8 -1 -5 46.61 4.53 0
 -8 0 -11 13.17 4.22 0
 -8 0 -9 21.91 4.12 0
 -8 0 -8 45.75 4.99 0
 -8 0 -7 2.79 2.67 0
 -8 0 -6 22.01 3.77 0
 -8 0 -4 470.15 11.09 0
 -8 0 -3 -0.6 1.94 0
 -8 1 -11 11.46 4.09 0
 -8 1 -10 20.27 4.53 0
 -8 1 -9 75.76 6.15 0
 -8 1 -8 12.8 3.96 0
 -8 1 -7 1.19 2.71 0
 -8 1 -6 55.03 4.93 0
 -8 1 -5 50.01 4.91 0
 -8 1 -4 58.64 5.03 0
 -8 1 -3 49.8 4.59 0
 -8 1 -1 44.45 4.15 0
 -8 2 -10 17.91 4.28 0
 -8 2 -9 29.57 5.02 0
 -8 2 -8 -1.82 2.65 0
 -8 2 -7 4.22 3.27 0
 -8 2 -6 3.95 2.74 0
 -8 2 -5 122.58 7.21 0
 -8 2 -4 62.59 5.18 0
 -8 2 -3 24.87 4.13 0
 -8 2 -2 69.34 5.02 0
 -8 2 -1 11.02 3.26 0
 -8 2 0 71.6 4.99 0
 -8 3 -10 67.95 6.42 0
 -8 3 -9 7.17 3.68 0
 -8 3 -8 61.02 6.32 0
 -8 3 -7 57.44 5.67 0
 -8 3 -6 32.08 5.2 0
 -8 3 -5 17.41 3.97 0
 -8 3 -4 115.74 6.87 0
 -8 3 -3 79.18 6.09 0
 -8 3 -2 74.52 5.5 0
 -8 4 -9 7.78 4.05 0
 -8 4 -7 80.31 6.63 0
 -8 4 -5 120.67 7.81 0
 -8 4 -4 31.43 4.75 0
 -8 4 -3 37.19 4.83 0
 -8 5 -8 9.68 4.19 0
 -8 5 -7 75.76 7.19 0
 -8 5 -6 60.64 6.49 0
 -8 5 -5 27.92 4.73 0
 -8 5 -4 14.74 3.81 0
 -8 6 -8 6.33 4.38 0
 -8 6 -7 41.86 6.2 0
 -8 6 -6 8.81 4.49 0
 -8 6 -5 20.43 4.41 0
 -8 7 -6 56.76 6.7 0
 -7 -6 -12 47.73 5.75 0
 -7 -6 -11 17.85 3.74 0
 -7 -5 -11 22.39 4.2 0
 -7 -5 -9 23.34 3.84 0
 -7 -5 -8 54.44 4.83 0
 -7 -5 -7 60.81 4.73 0
 -7 -4 -13 50.45 6.33 0
 -7 -4 -12 173.9 8.72 0
 -7 -4 -10 50.27 5.75 0
 -7 -4 -9 30.13 4.3 0
 -7 -4 -8 4.65 2.75 0
 -7 -4 -7 110.36 5.98 0
 -7 -4 -5 4.16 2.05 0
 -7 -3 -13 28.4 4.94 0
 -7 -3 -12 8.84 3.79 0
 -7 -3 -11 33.87 5.15 0
 -7 -3 -10 108.99 6.71 0
 -7 -3 -9 6.18 3.48 0
 -7 -3 -8 54.4 4.95 0
 -7 -3 -7 41.82 4.21 0
 -7 -3 -6 140.67 6.29 0
 -7 -3 -5 72.13 4.49 0
 -7 -3 -4 59.7 3.95 0
 -7 -3 -3 170.48 5.62 0
 -7 -2 -13 13.83 4.05 0
 -7 -2 -12 16.03 4.22 0
 -7 -2 -11 115.89 7.21 0
 -7 -2 -10 16.74 3.77 0
 -7 -2 -9 28.31 4.32 0
 -7 -2 -7 29.43 3.87 0
 -7 -2 -6 10 2.73 0
 -7 -2 -4 45.27 3.82 0
 -7 -2 -3 109.14 4.83 0
 -7 -1 -13 34.92 5.49 0
 -7 -1 -12 13.1 4.19 0
 -7 -1 -11 77.46 6.75 0
 -7 -1 -10 33.95 5 0
 -7 -1 -9 18.4 3.95 0
 -7 -1 -8 180.02 7.98 0
 -7 -1 -7 308 9.71 0
 -7 -1 -5 18.48 3.1 0
 -7 -1 -4 88.28 4.89 0
 -7 0 -13 0.36 3.53 0
 -7 0 -12 98.86 7.2 0
 -7 0 -11 9.58 4.17 0
 -7 0 -9 5.75 3.13 0
 -7 0 -8 106.69 6.77 0
 -7 0 -7 11.14 3.08 0
 -7 0 -6 31.89 4.18 0
 -7 0 -5 37.59 4.16 0
 -7 0 -3 59.46 4.5 0
 -7 0 -2 20.58 2.85 0
 -7 0 -1 91.29 4.8 0
 -7 0 0 -0.9 1.44 0
 -7 1 -12 11.21 4.39 0
 -7 1 -11 93.13 7.1 0
 -7 1 -10 38.34 5.22 0
 -7 1 -9 14.28 3.88 0
 -7 1 -8 176.97 8.1 0
 -7 1 -7 302.88 10.17 0
 -7 1 -6 47.26 4.68 0
 -7 1 -5 21.39 3.67 0
 -7 1 -3 79.82 5.26 0
 -7 1 -2 21.82 3.18 0
 -7 1 -1 177.49 6.37 0
 -7 2 -12 13.17 4.08 0
 -7 2 -11 117.45 8.12 0
 -7 2 -10 20.2 4.34 0
 -7 2 -9 33.98 4.78 0
 -7 2 -8 69.06 5.96 0
 -7 2 -7 28.22 4.49 0
 -7 2 -5 107.87 6.51 0
 -7 2 -4 40.89 4.98 0
 -7 2 -3 112.05 6.11 0
 -7 3 -12 10.54 4.31 0
 -7 3 -11 26.52 5.31 0
 -7 3 -10 106.56 7.58 0
 -7 3 -9 2.37 3.07 0
 -7 3 -5 68.6 5.49 0
 -7 3 -4 51.87 5.07 0
 -7 4 -12 183.86 9.91 0
 -7 4 -11 56.17 6.09 0
 -7 4 -10 49.07 6.03 0
 -7 4 -9 32.28 5.05 0
 -7 4 -8 3.15 3.38 0
 -7 4 -6 175.3 8.58 0
 -7 4 -5 3.88 3.18 0
 -7 5 -11 20.8 5.28 0
 -7 5 -10 115.36 8.33 0
 -7 5 -9 25.81 5.47 0
 -7 5 -8 44.77 6.15 0
 -7 5 -7 56.6 6.59 0
 -7 6 -11 27.18 5.48 0
 -7 6 -10 124.03 8.8 0
 -7 6 -9 14.36 4.95 0
 -7 6 -8 4.44 3.89 0
 -7 6 -7 17.68 4.38 0
 -7 7 -10 7.1 4.24 0
 -7 7 -9 32.07 5.56 0
 -7 7 -8 8.39 4.37 0
 -7 7 -7 8.78 4.44 0
 -7 8 -8 2.14 3.86 0
 -6 -8 -12 111.63 7.28 0
 -6 -8 -11 17.23 3.71 0
 -6 -8 -10 10.43 3.31 0
 -6 -8 -9 47.67 4.79 0
 -6 -7 -13 47.44 5.89 0
 -6 -7 -12 7.63 3.25 0
 -6 -7 -10 8.1 2.94 0
 -6 -7 -9 4.8 2.44 0
 -6 -7 -8 158.91 6.9 0
 -6 -7 -7 204.08 7.18 0
 -6 -7 -6 17.29 2.91 0
 -6 -6 -14 45.99 5.77 0
 -6 -6 -13 42.06 5.3 0
 -6 -6 -12 84.09 6.59 0
 -6 -6 -11 19.19 3.68 0
 -6 -6 -10 119.33 6.83 0
 -6 -6 -9 145.86 7.03 0
 -6 -6 -8 76.19 5.28 0
 -6 -6 -7 19.15 3.12 0
 -6 -6 -6 96.89 4.97 0
 -6 -6 -5 9.47 2.28 0
 -6 -5 -14 14.19 4.21 0
 -6 -5 -13 34.25 4.94 0
 -6 -5 -11 14.63 3.92 0
 -6 -5 -10 23.58 4.23 0
 -6 -5 -8 92.9 5.52 0
 -6 -5 -7 63.61 4.75 0
 -6 -5 -6 54.22 4.18 0
 -6 -5 -5 14.58 2.45 0
 -6 -4 -13 1.68 3.27 0
 -6 -4 -12 3.39 3.52 0
 -6 -4 -11 26.3 4.27 0
 -6 -4 -10 23.5 3.94 0
 -6 -4 -9 35.52 4.63 0
 -6 -4 -8 46.32 4.68 0
 -6 -4 -7 3.19 2.69 0
 -6 -4 -6 157.86 6.29 0
 -6 -4 -5 84.57 4.56 0
 -6 -4 -2 55.32 2.89 0
 -6 -4 -1 81.8 2.97 0
 -6 -3 -15 5.33 4.33 0
 -6 -3 -14 29.22 5.38 0
 -6 -3 -13 20.23 4.53 0
 -6 -3 -12 67.42 5.87 0
 -6 -3 -10 50.69 5.34 0
 -6 -3 -9 66.51 5.34 0
 -6 -3 -8 77.26 5.36 0
 -6 -3 -6 82.99 4.95 0
 -6 -3 -5 50.23 3.83 0
 -6 -3 -2 73.68 3.46 0
 -6 -3 -1 90.34 3.4 0
 -6 -3 0 39.95 2.15 0
 -6 -2 -14 39.06 5.86 0
 -6 -2 -13 405.47 13.34 0
 -6 -2 -12 7.51 3.78 0
 -6 -2 -11 63.59 6.04 0
 -6 -2 -10 17.49 3.96 0
 -6 -2 -9 44.88 4.98 0
 -6 -2 -7 100.28 5.92 0
 -6 -2 -5 388.62 9.21 0
 -6 -2 -2 5.39 1.87 0
 -6 -2 -1 91.21 3.62 0
 -6 -2 0 132.46 3.95 0
 -6 -2 1 85.27 2.95 0
 -6 -2 2 3.23 0.85 0
 -6 -1 -15 4.61 3.9 0
 -6 -1 -14 96.34 7.27 0
 -6 -1 -13 5.08 4.24 0
 -6 -1 -12 11.59 3.89 0
 -6 -1 -11 54.24 5.28 0
 -6 -1 -10 78.93 6.35 0
 -6 -1 -9 0.03 2.51 0
 -6 -1 -8 142.78 6.83 0
 -6 -1 -7 131.23 6.55 0
 -6 -1 -6 242.24 7.9 0
 -6 -1 -5 20.55 2.92 0
 -6 -1 -4 59.05 4.19 0
 -6 -1 -1 91.66 4.02 0
 -6 -1 0 300.68 6.62 0
 -6 -1 1 100.07 3.72 0
 -6 0 -15 155.82 9.14 0
 -6 0 -14 117.23 8.29 0
 -6 0 -12 30.11 4.99 0
 -6 0 -11 9.39 3.63 0
 -6 0 -10 67.77 5.57 0
 -6 0 -9 119.79 7 0
 -6 0 -8 46.41 4.52 0
 -6 0 -7 452.97 11.24 0
 -6 0 -5 2.35 2.11 0
 -6 0 -4 43.2 3.68 0
 -6 0 -3 140.14 5.7 0
 -6 1 -15 6.45 4.14 0
 -6 1 -14 89.59 7.17 0
 -6 1 -13 7.79 4.01 0
 -6 1 -12 7.4 3.9 0
 -6 1 -11 57.3 5.54 0
 -6 1 -10 78.77 5.97 0
 -6 1 -9 -0.38 2.56 0
 -6 1 -8 138.14 7.13 0
 -6 1 -7 132.93 6.82 0
 -6 1 -6 230.73 8.39 0
 -6 1 -5 20.5 3.41 0
 -6 1 -3 126.64 5.66 0
 -6 2 -15 14.04 4.64 0
 -6 2 -14 42.2 5.84 0
 -6 2 -12 7.87 3.86 0
 -6 2 -9 46.86 5.72 0
 -6 2 -8 11.5 3.5 0
 -6 2 -7 110.46 6.43 0
 -6 2 -6 71.99 5.19 0
 -6 3 -14 28.02 5.59 0
 -6 3 -13 22.43 4.93 0
 -6 3 -12 62.78 6.64 0
 -6 3 -10 50.06 5.44 0
 -6 3 -9 61.78 5.44 0
 -6 3 -8 75.77 5.93 0
 -6 3 -7 20.72 4.26 0
 -6 3 -6 83.18 5.62 0
 -6 4 -13 0.66 3.36 0
 -6 4 -12 1.01 3.25 0
 -6 4 -11 24.92 4.92 0
 -6 4 -9 30.29 4.7 0
 -6 4 -8 48.34 5.72 0
 -6 4 -7 2.82 3.04 0
 -6 5 -14 11.45 4.23 0
 -6 5 -13 31.23 5.46 0
 -6 5 -12 143.54 8.87 0
 -6 5 -11 17.36 4.37 0
 -6 5 -10 25.16 4.76 0
 -6 5 -9 118.97 8.01 0
 -6 5 -7 63.34 5.69 0
 -6 6 -11 23.52 4.93 0
 -6 6 -10 109.18 7.66 0
 -6 6 -9 149.12 8.9 0
 -6 6 -8 72.17 6.07 0
 -6 7 -12 5.6 3.75 0
 -6 7 -11 124.66 8.78 0
 -6 7 -10 7.58 4.16 0
 -6 7 -9 1.19 3.26 0
 -6 7 -8 151.26 8.77 0
 -6 8 -11 19.25 4.95 0
 -6 8 -9 44.98 6.46 0
 -6 10 -9 2.68 3.71 0
 -5 -8 -13 28.82 5.2 0
 -5 -8 -11 25.52 4.63 0
 -5 -8 -10 82.2 6.12 0
 -5 -8 -9 51.96 4.62 0
 -5 -8 -8 234.82 8.22 0
 -5 -7 -14 151.78 8.9 0
 -5 -7 -12 -0.58 3.36 0
 -5 -7 -11 129.89 7.09 0
 -5 -7 -10 78.93 5.77 0
 -5 -7 -9 208.42 8.11 0
 -5 -7 -8 36.2 3.76 0
 -5 -7 -7 20.9 3.21 0
 -5 -7 -6 111.64 5.09 0
 -5 -7 -5 41.98 3.36 0
 -5 -6 -15 16.41 4.45 0
 -5 -6 -14 52.62 6.48 0
 -5 -6 -13 10.59 3.96 0
 -5 -6 -12 18.08 4.18 0
 -5 -6 -11 10.28 3.67 0
 -5 -6 -10 13.44 3.27 0
 -5 -6 -9 18.28 3.58 0
 -5 -6 -8 21.88 3.36 0
 -5 -6 -7 4.14 2.47 0
 -5 -6 -3 9.3 1.65 0
 -5 -6 -2 157.62 4.12 0
 -5 -5 -15 49.03 6.42 0
 -5 -5 -14 27.44 4.83 0
 -5 -5 -13 5.28 3.6 0
 -5 -5 -12 21.06 4.54 0
 -5 -5 -11 20.4 3.97 0
 -5 -5 -10 59.47 5.06 0
 -5 -5 -9 183.75 7.73 0
 -5 -5 -8 101.16 5.81 0
 -5 -5 -7 71.65 4.68 0
 -5 -5 -6 14.17 2.45 0
 -5 -5 -3 44.16 2.84 0
 -5 -5 -2 175.98 4.41 0
 -5 -5 -1 187.45 3.86 0
 -5 -4 -16 17.6 5.06 0
 -5 -4 -15 94.4 7.8 0
 -5 -4 -14 49.73 6.2 0
 -5 -4 -13 24.8 4.5 0
 -5 -4 -11 56.68 5.19 0
 -5 -4 -10 4.05 3.17 0
 -5 -4 -9 26.93 3.84 0
 -5 -4 -7 24.57 3.25 0
 -5 -4 -3 432.87 7.66 0
 -5 -4 -2 48.72 2.62 0
 -5 -4 -1 19.75 1.65 0
 -5 -4 0 438.45 5.22 0
 -5 -3 -16 65.65 7.59 0
 -5 -3 -15 27.33 5.38 0
 -5 -3 -14 31.7 5.44 0
 -5 -3 -13 67.91 6.61 0
 -5 -3 -12 62.86 5.99 0
 -5 -3 -11 88.73 6.22 0
 -5 -3 -10 560.96 13.16 0
 -5 -3 -8 84.03 5.38 0
 -5 -3 -3 414.36 7.77 0
 -5 -3 -2 549.12 8.14 0
 -5 -3 -1 56.25 2.64 0
 -5 -3 0 10.12 1.31 0
 -5 -3 1 59.58 1.92 0
 -5 -2 -16 5.4 3.86 0
 -5 -2 -15 28.23 5.65 0
 -5 -2 -13 0.76 3 0
 -5 -2 -12 69.09 5.8 0
 -5 -2 -11 7.71 3.02 0
 -5 -2 -10 -0.64 2.25 0
 -5 -2 -9 161.43 7.26 0
 -5 -2 -6 33.71 3.52 0
 -5 -2 -3 251.12 6.18 0
 -5 -2 -2 29.15 2.25 0
 -5 -2 -1 70.15 2.92 0
 -5 -2 0 246.96 4.88 0
 -5 -2 1 72.13 2.53 0
 -5 -2 2 32.01 1.62 0
 -5 -2 3 261.67 3.62 0
 -5 -2 4 1024.92 5.8 0
 -5 -1 -16 18.8 5.01 0
 -5 -1 -15 20.98 4.68 0
 -5 -1 -14 4.35 4 0
 -5 -1 -13 40.18 5.21 0
 -5 -1 -12 207.71 9.28 0
 -5 -1 -10 51.84 4.68 0
 -5 -1 -9 4.01 2.71 0
 -5 -1 -8 10.69 2.85 0
 -5 -1 -7 62.7 4.54 0
 -5 -1 -6 41.35 3.65 0
 -5 -1 -3 1.66 1.58 0
 -5 -1 -2 90.57 3.84 0
 -5 -1 -1 15.33 2.17 0
 -5 -1 0 17.56 1.91 0
 -5 0 -16 22.53 4.9 0
 -5 0 -15 171.33 9.68 0
 -5 0 -14 63.06 6.06 0
 -5 0 -13 29.55 4.94 0
 -5 0 -12 6.68 3.66 0
 -5 0 -11 68.44 5.43 0
 -5 0 -10 14.65 3.35 0
 -5 0 -9 384.29 10.74 0
 -5 0 -8 88.16 5.55 0
 -5 0 -7 304.72 8.78 0
 -5 0 -6 29.77 3.61 0
 -5 0 -5 41.93 3.71 0
 -5 0 -2 2.14 1.8 0
 -5 1 -16 19.38 4.57 0
 -5 1 -15 25.21 5.15 0
 -5 1 -13 39.76 5.24 0
 -5 1 -12 199 8.86 0
 -5 1 -11 118.4 6.88 0
 -5 1 -10 54.4 4.86 0
 -5 1 -9 3.23 2.47 0
 -5 1 -7 65.97 4.86 0
 -5 1 -6 47.29 4.04 0
 -5 1 -5 15.29 2.98 0
 -5 2 -15 16.63 4.8 0
 -5 2 -13 -0.6 3.11 0
 -5 2 -11 5.88 3.2 0
 -5 2 -10 2.67 2.52 0
 -5 2 -9 157.59 7.32 0
 -5 2 -8 350.4 10.43 0
 -5 2 -7 113.3 6.08 0
 -5 3 -16 66.63 6.82 0
 -5 3 -13 67.85 6.48 0
 -5 3 -12 66.29 6.04 0
 -5 3 -11 79.72 5.85 0
 -5 3 -10 537.45 13.59 0
 -5 3 -8 87.16 5.97 0
 -5 3 -7 70.07 5.04 0
 -5 3 -6 24.08 3.44 0
 -5 4 -13 24.53 4.43 0
 -5 4 -12 9.42 3.98 0
 -5 4 -11 53.63 5.34 0
 -5 4 -10 6.26 3.02 0
 -5 4 -9 27.56 4.22 0
 -5 4 -8 29.57 4.43 0
 -5 4 -7 25.42 3.88 0
 -5 5 -15 59.29 7.09 0
 -5 5 -14 29.42 5.19 0
 -5 5 -13 4.97 3.99 0
 -5 5 -12 25.16 4.63 0
 -5 5 -11 23.46 4.33 0
 -5 5 -10 55.48 5.43 0
 -5 5 -8 101.02 6.41 0
 -5 6 -15 6.48 4.46 0
 -5 6 -14 56.45 6.46 0
 -5 6 -13 21.1 4.71 0
 -5 6 -12 21.53 4.49 0
 -5 6 -11 11.75 4.32 0
 -5 6 -10 15.76 3.85 0
 -5 6 -9 16.45 3.74 0
 -5 7 -14 138.3 9.03 0
 -5 7 -13 134.19 8.41 0
 -5 7 -12 0.72 4.08 0
 -5 7 -11 133.45 8.2 0
 -5 7 -10 86.66 7.11 0
 -5 7 -9 206.79 9.6 0
 -5 8 -13 41.45 5.87 0
 -5 8 -12 44.78 6.07 0
 -5 8 -11 32.17 5.99 0
 -5 8 -9 45.69 5.68 0
 -5 9 -11 55 7.11 0
 -5 9 -10 2.36 3.39 0
 -5 10 -11 88.45 7.38 0
 -5 11 -10 57.46 6.18 0
 -4 -8 -13 16.12 4.05 0
 -4 -8 -12 195.58 9.23 0
 -4 -8 -11 26.06 4.38 0
 -4 -8 -10 78.41 6.07 0
 -4 -7 -15 55.26 6.37 0
 -4 -7 -14 25.62 4.59 0
 -4 -7 -13 37.74 5.07 0
 -4 -7 -11 178.02 8.04 0
 -4 -7 -10 64.01 5.35 0
 -4 -7 -9 89.72 5.69 0
 -4 -7 -8 166.71 6.75 0
 -4 -7 -7 419.04 9.96 0
 -4 -7 -6 48.46 3.63 0
 -4 -6 -16 64.94 6.44 0
 -4 -6 -14 4.79 3.62 0
 -4 -6 -13 8.91 3.68 0
 -4 -6 -12 171.63 8.49 0
 -4 -6 -11 119.32 7.1 0
 -4 -6 -9 225.28 8.25 0
 -4 -6 -7 73.86 4.62 0
 -4 -6 -6 199.94 6.51 0
 -4 -6 -4 22.66 2.45 0
 -4 -6 -3 29.72 2.32 0
 -4 -5 -16 18.9 4.57 0
 -4 -5 -15 -3.19 3.3 0
 -4 -5 -14 22.35 4.42 0
 -4 -5 -12 28.42 4.57 0
 -4 -5 -11 121.42 6.71 0
 -4 -5 -10 9.28 2.95 0
 -4 -5 -8 55.22 4.3 0
 -4 -5 -7 25.88 3.44 0
 -4 -5 -4 248.5 6.17 0
 -4 -5 -3 23.62 2.22 0
 -4 -5 -2 144.78 3.89 0
 -4 -5 -1 215.26 4.08 0
 -4 -4 -17 33.27 5.53 0
 -4 -4 -15 21.29 4.87 0
 -4 -4 -14 38.13 5.68 0
 -4 -4 -12 47.18 5.61 0
 -4 -4 -11 22.34 3.81 0
 -4 -4 -10 9.56 3.34 0
 -4 -4 -7 23.1 2.97 0
 -4 -4 -4 298.43 6.6 0
 -4 -4 -2 119.01 3.63 0
 -4 -4 -1 -0.02 0.9 0
 -4 -3 -17 23.54 5.52 0
 -4 -3 -16 16.02 4.5 0
 -4 -3 -15 89.72 7.29 0
 -4 -3 -14 63.03 6.05 0
 -4 -3 -13 36.51 5.18 0
 -4 -3 -12 34.53 4.92 0
 -4 -3 -11 130.71 7.06 0
 -4 -3 -8 0.18 2.17 0
 -4 -3 -7 11.26 2.39 0
 -4 -3 -5 425.01 8.49 0
 -4 -3 -4 52.88 3 0
 -4 -3 -2 25.47 2.02 0
 -4 -3 -1 452.72 6.07 0
 -4 -3 0 26.77 1.51 0
 -4 -3 1 452.22 4.22 0
 -4 -2 -17 70.83 6.72 0
 -4 -2 -16 10.46 4.65 0
 -4 -2 -15 54.72 6.18 0
 -4 -2 -14 225.76 9.8 0
 -4 -2 -12 184.74 8.16 0
 -4 -2 -11 38.83 4.69 0
 -4 -2 -10 291.2 9.36 0
 -4 -2 -9 63.94 4.61 0
 -4 -2 -8 82.75 4.78 0
 -4 -2 -7 185.23 6.36 0
 -4 -2 -4 668.44 9.82 0
 -4 -2 -3 426.88 7.33 0
 -4 -2 -2 32.72 2.31 0
 -4 -2 0 174.81 3.7 0
 -4 -2 1 598.5 5.94 0
 -4 -2 2 31.47 1.37 0
 -4 -2 3 448.74 3.8 0
 -4 -2 5 401.04 3.28 0
 -4 -2 6 124.62 2.15 0
 -4 -1 -17 129.67 8.94 0
 -4 -1 -16 55.07 6.42 0
 -4 -1 -15 7.91 3.99 0
 -4 -1 -14 70.49 6.07 0
 -4 -1 -13 66.84 5.77 0
 -4 -1 -12 102.56 6.6 0
 -4 -1 -11 4.71 2.64 0
 -4 -1 -10 47.96 4.61 0
 -4 -1 -9 177.46 7 0
 -4 -1 -8 136.1 5.88 0
 -4 -1 -3 185.06 5.08 0
 -4 -1 -1 1061.47 10.35 0
 -4 0 -16 27.43 4.89 0
 -4 0 -15 317.83 11.73 0
 -4 0 -14 123.3 7.78 0
 -4 0 -13 1.79 2.72 0
 -4 0 -12 0.97 2.73 0
 -4 0 -11 32.84 4.36 0
 -4 0 -9 3.06 2.51 0
 -4 0 -8 15.73 2.97 0
 -4 0 -7 162.98 6.21 0
 -4 0 -3 126.84 4.42 0
 -4 1 -16 54.12 6.45 0
 -4 1 -15 6.01 3.33 0
 -4 1 -13 62.28 5.52 0
 -4 1 -12 101.29 6.24 0
 -4 1 -11 4.54 2.63 0
 -4 1 -9 166.61 6.77 0
 -4 1 -8 123.55 5.86 0
 -4 2 -17 62.99 6.47 0
 -4 2 -16 12.56 4.19 0
 -4 2 -15 47.94 5.8 0
 -4 2 -14 237.94 10 0
 -4 2 -13 121.41 7.23 0
 -4 2 -12 186.38 8.4 0
 -4 2 -11 38.41 4.3 0
 -4 2 -10 282.24 9.14 0
 -4 2 -9 64.79 4.99 0
 -4 2 -8 81.5 5.02 0
 -4 2 -6 126.49 5.63 0
 -4 3 -17 18.39 5.02 0
 -4 3 -16 14.03 4.41 0
 -4 3 -15 76.97 6.51 0
 -4 3 -14 62.85 5.8 0
 -4 3 -13 38.35 5.15 0
 -4 3 -11 111.84 6.38 0
 -4 3 -10 94.08 5.91 0
 -4 3 -9 73.24 5.25 0
 -4 3 -8 0.13 2.1 0
 -4 3 -7 12.03 2.89 0
 -4 4 -17 27.97 5.53 0
 -4 4 -16 11.45 4.17 0
 -4 4 -14 36.94 5.43 0
 -4 4 -13 51.87 5.19 0
 -4 4 -12 39.58 5.01 0
 -4 4 -11 20.11 3.56 0
 -4 4 -10 11.09 2.93 0
 -4 4 -9 44.61 4.34 0
 -4 4 -8 148.33 6.66 0
 -4 5 -17 36.94 6.49 0
 -4 5 -16 16.29 4.52 0
 -4 5 -15 1.1 3.99 0
 -4 5 -14 25.32 4.8 0
 -4 5 -13 23.38 4.84 0
 -4 5 -12 40.05 4.94 0
 -4 5 -10 8.17 2.95 0
 -4 5 -9 133.37 7.1 0
 -4 6 -15 2.87 3.68 0
 -4 6 -14 6.03 3.48 0
 -4 6 -13 1.93 3.56 0
 -4 6 -10 215.73 9.07 0
 -4 7 -16 9.83 4.38 0
 -4 7 -15 62.48 6.21 0
 -4 7 -14 17.54 4.74 0
 -4 7 -13 46.99 5.82 0
 -4 7 -11 184.46 9 0
 -4 7 -10 55.67 5.45 0
 -4 7 -9 104.66 6.41 0
 -4 8 -14 5.17 3.49 0
 -4 8 -13 18.37 4.66 0
 -4 8 -12 178.57 9.6 0
 -4 8 -11 35.75 5.36 0
 -4 8 -10 85.08 6.77 0
 -4 9 -14 23.39 4.87 0
 -4 9 -13 0.46 3.48 0
 -4 9 -11 39.29 5.78 0
 -4 9 -10 133.54 8.14 0
 -4 10 -13 2.04 3.48 0
 -4 10 -12 155.66 9.18 0
 -4 10 -11 3.61 3.39 0
 -4 10 -10 39.09 5.25 0
 -4 11 -12 64.18 7.59 0
 -4 11 -11 13.21 4.82 0
 -4 11 -10 38.24 5.54 0
 -4 12 -11 26.75 5.37 0
 -4 12 -10 58.08 6.69 0
 -3 -7 -15 54.97 6.55 0
 -3 -7 -13 33.85 5.01 0
 -3 -7 -12 32.32 4.92 0
 -3 -7 -11 23.3 4.07 0
 -3 -7 -10 104.93 6.17 0
 -3 -7 -8 20.35 3.51 0
 -3 -7 -7 19.25 3.24 0
 -3 -7 -6 56.87 3.91 0
 -3 -6 -17 5.05 3.94 0
 -3 -6 -16 85.25 7.33 0
 -3 -6 -15 113.05 8.03 0
 -3 -6 -14 111.63 7.63 0
 -3 -6 -13 83.2 6.47 0
 -3 -6 -12 70.88 5.98 0
 -3 -6 -11 40.1 4.66 0
 -3 -6 -8 48.51 3.89 0
 -3 -6 -7 143.12 5.9 0
 -3 -6 -4 332.13 7.09 0
 -3 -6 -3 244.46 5.66 0
 -3 -5 -17 11.11 4.43 0
 -3 -5 -15 43.99 5.68 0
 -3 -5 -13 77.15 6.32 0
 -3 -5 -11 31.56 4.24 0
 -3 -5 -10 3.21 2.64 0
 -3 -5 -8 234.67 7.65 0
 -3 -5 -5 367.42 7.8 0
 -3 -5 -4 185.95 5.15 0
 -3 -5 -3 59.74 2.77 0
 -3 -5 -2 81.67 2.93 0
 -3 -4 -18 10.73 4.86 0
 -3 -4 -16 22.19 4.59 0
 -3 -4 -15 133.74 7.88 0
 -3 -4 -14 22.85 4.64 0
 -3 -4 -13 89.07 6.19 0
 -3 -4 -12 43.55 5.08 0
 -3 -4 -11 98.25 5.86 0
 -3 -4 -9 33.99 3.52 0
 -3 -4 -8 243.22 7.46 0
 -3 -4 -6 32.55 2.85 0
 -3 -4 -5 52.72 3.22 0
 -3 -4 -4 478.7 7.88 0
 -3 -4 -3 57.58 2.79 0
 -3 -4 -2 127.81 3.48 0
 -3 -4 -1 993.09 8.1 0
 -3 -4 0 36.57 1.44 0
 -3 -3 -17 45.47 5.79 0
 -3 -3 -16 37.2 5.31 0
 -3 -3 -15 241.15 10.15 0
 -3 -3 -14 15.03 3.89 0
 -3 -3 -9 52.99 4.31 0
 -3 -3 -8 128.11 5.45 0
 -3 -3 -6 444.81 8.72 0
 -3 -3 -3 773.34 8.91 0
 -3 -3 -2 86.82 2.88 0
 -3 -3 -1 521.38 5.82 0
 -3 -3 0 999.06 6.7 0
 -3 -3 1 508.69 3.42 0
 -3 -2 -18 34.41 5.61 0
 -3 -2 -17 3.07 3.52 0
 -3 -2 -16 47.59 6.36 0
 -3 -2 -15 57.22 5.83 0
 -3 -2 -14 9.91 3.36 0
 -3 -2 -10 62.72 4.65 0
 -3 -2 -9 119.03 5.68 0
 -3 -2 -6 127.05 4.79 0
 -3 -2 -5 502.76 8.52 0
 -3 -2 -4 665.03 8.96 0
 -3 -2 -3 307.51 5.65 0
 -3 -2 -1 92.45 2.57 0
 -3 -2 0 557.71 5.32 0
 -3 -2 1 96.85 1.96 0
 -3 -2 2 586.62 3.65 0
 -3 -2 5 520.32 4.06 0
 -3 -1 -18 6.44 3.94 0
 -3 -1 -17 16.1 4.72 0
 -3 -1 -16 43.18 5.62 0
 -3 -1 -15 379.74 12.58 0
 -3 -1 -13 16.13 3.53 0
 -3 -1 -11 155.18 6.86 0
 -3 -1 -10 98.68 5.49 0
 -3 -1 -9 15.36 2.71 0
 -3 -1 -4 45.61 2.64 0
 -3 -1 -3 18.38 1.87 0
 -3 -1 -2 1718.02 12.61 0
 -3 -1 -1 112.78 3 0
 -3 0 -17 0.89 3.37 0
 -3 0 -16 14.13 4.4 0
 -3 0 -15 -1.52 2.75 0
 -3 0 -14 102.69 6.88 0
 -3 0 -13 42.81 4.85 0
 -3 0 -11 99.84 5.63 0
 -3 0 -10 38.07 3.72 0
 -3 0 -9 28.73 3.16 0
 -3 0 -5 301.16 6.78 0
 -3 0 -3 196.73 4.93 0
 -3 1 -17 14.87 4.57 0
 -3 1 -16 42.45 6.08 0
 -3 1 -15 377.18 12.44 0
 -3 1 -13 14.93 3.36 0
 -3 1 -12 90.56 5.74 0
 -3 1 -11 152.78 6.87 0
 -3 1 -9 15.44 2.56 0
 -3 1 -6 623.54 10.52 0
 -3 1 -5 428.07 8.33 0
 -3 2 -18 32.38 6.14 0
 -3 2 -17 2.58 4.17 0
 -3 2 -14 11.46 3.78 0
 -3 2 -13 100.94 6.34 0
 -3 2 -12 81.14 5.52 0
 -3 2 -11 181.25 7.5 0
 -3 2 -10 53.44 4.18 0
 -3 2 -9 122.37 5.65 0
 -3 2 -8 162.76 6.17 0
 -3 3 -18 73.11 7.17 0
 -3 3 -17 42.98 5.81 0
 -3 3 -16 29.83 4.96 0
 -3 3 -15 244.06 10.37 0
 -3 3 -13 37.76 4.6 0
 -3 3 -12 16.81 3.61 0
 -3 3 -11 263.74 8.71 0
 -3 3 -10 50.08 4.03 0
 -3 3 -9 51.25 3.98 0
 -3 3 -8 129.99 5.78 0
 -3 4 -18 9.06 4.06 0
 -3 4 -17 72.98 6.89 0
 -3 4 -16 20.04 4.75 0
 -3 4 -15 122.18 7.56 0
 -3 4 -14 21.85 4.42 0
 -3 4 -12 40.1 4.63 0
 -3 4 -11 99.16 6.04 0
 -3 4 -9 35.73 4.13 0
 -3 5 -18 24.34 5.38 0
 -3 5 -17 14.4 4.27 0
 -3 5 -16 35.37 5.71 0
 -3 5 -15 50.02 5.66 0
 -3 5 -14 2.28 2.89 0
 -3 5 -13 79.46 6.35 0
 -3 5 -12 136.47 7.29 0
 -3 5 -11 39.42 4.64 0
 -3 6 -17 4.99 3.77 0
 -3 6 -16 96.08 7.65 0
 -3 6 -15 122.93 7.65 0
 -3 6 -14 111.57 7.12 0
 -3 6 -13 96.08 6.71 0
 -3 6 -12 73.75 6.08 0
 -3 6 -10 254.5 9.15 0
 -3 6 -9 121.18 6.47 0
 -3 7 -16 11.12 3.94 0
 -3 7 -15 49.17 6 0
 -3 7 -13 34.09 5.29 0
 -3 7 -12 37.47 5.17 0
 -3 7 -11 24.17 4.41 0
 -3 7 -10 102.2 6.19 0
 -3 8 -16 0.13 3.05 0
 -3 8 -15 73.19 6.36 0
 -3 8 -14 72.23 6.19 0
 -3 8 -13 62.63 5.83 0
 -3 8 -12 88.9 6.57 0
 -3 8 -11 64.52 5.75 0
 -3 8 -10 40.26 5.23 0
 -3 9 -15 34.44 5.34 0
 -3 9 -14 30.1 4.93 0
 -3 9 -13 135.35 7.88 0
 -3 9 -11 16.18 4.12 0
 -3 10 -15 21.72 4.7 0
 -3 10 -14 7.64 3.73 0
 -3 10 -13 14.13 4.02 0
 -3 10 -12 5.48 3.54 0
 -3 10 -11 33.23 4.81 0
 -3 10 -10 4.42 3.29 0
 -3 11 -14 83.74 6.66 0
 -3 11 -13 60.28 5.97 0
 -3 11 -12 6.68 3.61 0
 -3 11 -11 25.55 5.12 0
 -3 11 -10 11.18 4.01 0
 -3 12 -10 6.12 3.72 0
 -3 13 -11 15.01 4.21 0
 -3 13 -10 17.88 4.15 0
 -2 -7 -13 69.81 5.71 0
 -2 -7 -12 45.17 5.61 0
 -2 -7 -11 11.79 3.23 0
 -2 -7 -10 4.84 2.56 0
 -2 -7 -9 149.54 6.91 0
 -2 -6 -17 34.04 5.41 0
 -2 -6 -16 84.37 7.46 0
 -2 -6 -15 8.21 3.94 0
 -2 -6 -14 82.36 6.38 0
 -2 -6 -13 213.01 9.27 0
 -2 -6 -12 6.06 3.41 0
 -2 -6 -10 58.74 4.53 0
 -2 -6 -9 117.33 5.8 0
 -2 -6 -8 33.51 3.46 0
 -2 -5 -18 52.39 6.53 0
 -2 -5 -17 4.84 3.77 0
 -2 -5 -16 22.85 5.09 0
 -2 -5 -15 98.6 6.89 0
 -2 -5 -14 143.36 7.62 0
 -2 -5 -13 25.06 4.08 0
 -2 -5 -11 183.2 7.48 0
 -2 -5 -10 328.97 9.48 0
 -2 -5 -9 34.27 3.47 0
 -2 -5 -6 22.84 2.6 0
 -2 -5 -4 120.23 4.13 0
 -2 -5 -3 298.18 5.91 0
 -2 -4 -18 48.28 6.35 0
 -2 -4 -16 58.67 5.99 0
 -2 -4 -15 207.02 9.23 0
 -2 -4 -14 156.62 8.02 0
 -2 -4 -13 3.75 2.85 0
 -2 -4 -12 348.59 10.42 0
 -2 -4 -9 1.69 1.9 0
 -2 -4 -6 265.32 6.66 0
 -2 -4 -5 397.96 7.57 0
 -2 -4 -4 998.25 10.82 0
 -2 -4 -2 17.75 1.51 0
 -2 -3 -19 36.75 5.78 0
 -2 -3 -18 47.93 6.21 0
 -2 -3 -17 12.09 4 0
 -2 -3 -16 9.29 3.63 0
 -2 -3 -15 60.26 5.65 0
 -2 -3 -14 43.5 5.28 0
 -2 -3 -12 359.53 10.42 0
 -2 -3 -10 84.84 4.95 0
 -2 -3 -9 99.13 4.91 0
 -2 -3 -6 198.13 5.57 0
 -2 -3 -5 343.23 6.77 0
 -2 -3 -4 1778.62 13.9 0
 -2 -3 -3 391.67 6.05 0
 -2 -3 -2 1197.19 9.29 0
 -2 -3 -1 1039.57 7.49 0
 -2 -3 0 26.54 1.13 0
 -2 -2 -19 46.72 6.32 0
 -2 -2 -18 281.13 11.72 0
 -2 -2 -17 45.35 6.16 0
 -2 -2 -15 58.09 5.84 0
 -2 -2 -14 41.15 5.06 0
 -2 -2 -13 40.77 4.42 0
 -2 -2 -12 41.95 4.23 0
 -2 -2 -10 322.46 8.81 0
 -2 -2 -7 77.71 3.73 0
 -2 -2 -5 128.04 4.13 0
 -2 -2 -3 295.17 5.12 0
 -2 -2 -2 1734.31 10.74 0
 -2 -2 -1 589.87 5.39 0
 -2 -2 0 1160.69 6.08 0
 -2 -1 -19 39.84 5.73 0
 -2 -1 -18 22.11 5.06 0
 -2 -1 -17 170.65 9.32 0
 -2 -1 -16 1.06 3.09 0
 -2 -1 -14 134.54 7.35 0
 -2 -1 -13 35.4 4.41 0
 -2 -1 -12 115.17 6.26 0
 -2 -1 -11 21.2 3.28 0
 -2 -1 -10 515.26 10.83 0
 -2 -1 -6 477.17 8.17 0
 -2 -1 -5 520.31 7.86 0
 -2 -1 -2 3112.47 14.32 0
 -2 -1 -1 2520.31 11.43 0
 -2 0 -19 40.06 5.95 0
 -2 0 -17 15.58 4.14 0
 -2 0 -16 -0.71 3.49 0
 -2 0 -15 59.04 5.39 0
 -2 0 -14 68.9 5.77 0
 -2 0 -13 23.74 3.67 0
 -2 0 -11 0.31 2.03 0
 -2 0 -10 46.65 3.95 0
 -2 0 -5 53.9 2.87 0
 -2 0 -4 1841.54 13.95 0
 -2 0 -3 1583.58 11.8 0
 -2 1 -19 39.39 5.74 0
 -2 1 -18 25.82 5.04 0
 -2 1 -17 175.19 9.08 0
 -2 1 -16 0.54 3.1 0
 -2 1 -15 47.9 5.9 0
 -2 1 -14 135.24 7.15 0
 -2 1 -13 35.06 4.44 0
 -2 1 -12 122.75 6.17 0
 -2 1 -11 20.73 3.17 0
 -2 1 -10 529.01 11.06 0
 -2 1 -5 539.57 8.48 0
 -2 1 -4 359.36 6.35 0
 -2 2 -17 53.36 6.65 0
 -2 2 -16 28.72 5.06 0
 -2 2 -13 37.23 4.37 0
 -2 2 -12 41.24 4.09 0
 -2 2 -10 332.37 8.81 0
 -2 3 -19 35.11 5.73 0
 -2 3 -17 18.43 4.46 0
 -2 3 -16 10.49 3.82 0
 -2 3 -15 65.2 5.99 0
 -2 3 -14 37.6 4.59 0
 -2 3 -13 255.03 9.11 0
 -2 3 -12 375.26 10.27 0
 -2 3 -11 164.29 6.86 0
 -2 4 -19 0.65 3.41 0
 -2 4 -17 58.32 6.67 0
 -2 4 -16 48.46 5.79 0
 -2 4 -15 215.51 9.22 0
 -2 4 -14 157.74 7.83 0
 -2 4 -13 3.96 2.84 0
 -2 4 -12 344.76 9.92 0
 -2 4 -9 1.24 1.81 0
 -2 5 -18 50.5 6.09 0
 -2 5 -17 1.25 3.61 0
 -2 5 -16 19.85 4.03 0
 -2 5 -15 97.82 7.04 0
 -2 5 -14 152.9 7.74 0
 -2 5 -13 26.51 3.97 0
 -2 5 -12 23.59 3.6 0
 -2 5 -9 31.8 3.97 0
 -2 5 -8 280.56 7.96 0
 -2 6 -17 32.99 5.31 0
 -2 6 -16 80.85 6.65 0
 -2 6 -15 13.95 4.07 0
 -2 6 -14 79.64 6.32 0
 -2 6 -13 218.82 8.82 0
 -2 6 -12 6.85 3.11 0
 -2 6 -11 74.99 5.12 0
 -2 6 -10 66.1 5.16 0
 -2 6 -9 106.57 5.46 0
 -2 7 -15 67.55 6.14 0
 -2 7 -14 4.72 3.15 0
 -2 7 -13 67.24 5.77 0
 -2 7 -12 42.13 5.2 0
 -2 7 -11 11.74 3.12 0
 -2 7 -10 7.72 2.88 0
 -2 8 -17 14.96 4.29 0
 -2 8 -16 143.73 8.22 0
 -2 8 -14 12.02 3.49 0
 -2 8 -13 30.54 4.4 0
 -2 8 -12 27.79 4.23 0
 -2 8 -11 105.91 6.62 0
 -2 8 -10 98.35 6.26 0
 -2 9 -16 54.1 6.12 0
 -2 9 -15 42.88 5.59 0
 -2 9 -13 14.68 3.61 0
 -2 9 -11 22.03 3.94 0
 -2 9 -10 2.4 2.75 0
 -2 10 -14 14.85 3.83 0
 -2 10 -13 13.75 3.57 0
 -2 10 -12 91.31 6.74 0
 -2 10 -11 186.78 8.58 0
 -2 10 -10 28.84 4.57 0
 -2 11 -13 10.95 3.31 0
 -2 11 -12 75.28 6.27 0
 -2 11 -11 29.01 4.57 0
 -2 12 -11 9.8 3.33 0
 -2 12 -10 45.59 5.5 0
 -2 13 -10 165.65 8.13 0
 -1 -6 -13 127.75 7.58 0
 -1 -6 -12 32.5 4.3 0
 -1 -6 -11 14.15 3.34 0
 -1 -6 -10 13.44 2.92 0
 -1 -6 -9 163.8 6.64 0
 -1 -6 -8 417.17 9.8 0
 -1 -5 -17 59.63 6.92 0
 -1 -5 -16 72.93 6.83 0
 -1 -5 -15 158.83 8.43 0
 -1 -5 -14 38.5 4.94 0
 -1 -5 -13 21.62 3.78 0
 -1 -5 -12 122.11 6.72 0
 -1 -5 -10 23.45 3.55 0
 -1 -5 -9 263.96 8.01 0
 -1 -5 -6 53.62 3.35 0
 -1 -5 -5 83.83 3.75 0
 -1 -4 -19 37.63 5.97 0
 -1 -4 -16 213.42 9.95 0
 -1 -4 -15 37.44 4.92 0
 -1 -4 -14 363.97 11.29 0
 -1 -4 -13 146.7 7.21 0
 -1 -4 -11 9.69 2.68 0
 -1 -4 -10 364.7 9.36 0
 -1 -4 -7 391.79 8.18 0
 -1 -4 -6 548.73 9.03 0
 -1 -4 -5 107.02 3.96 0
 -1 -4 -4 69.03 2.99 0
 -1 -3 -19 41.66 6.23 0
 -1 -3 -17 54.29 6.12 0
 -1 -3 -15 36.74 4.95 0
 -1 -3 -14 21.66 3.79 0
 -1 -3 -13 75.77 5.7 0
 -1 -3 -12 173.67 7.17 0
 -1 -3 -11 193.5 7.35 0
 -1 -3 -6 639.95 9.49 0
 -1 -3 -5 383.13 6.95 0
 -1 -3 -4 276.87 5.43 0
 -1 -3 -3 808.44 8.2 0
 -1 -3 -2 373.37 4.96 0
 -1 -3 -1 1061.57 7.33 0
 -1 -2 -19 47.3 6.19 0
 -1 -2 -16 16.62 4.36 0
 -1 -2 -15 7.3 3.64 0
 -1 -2 -14 41.78 5.12 0
 -1 -2 -13 54.96 4.64 0
 -1 -2 -12 -0.36 1.84 0
 -1 -2 -11 246.49 8.09 0
 -1 -2 -10 659 12.07 0
 -1 -2 -5 117.45 3.76 0
 -1 -2 -4 1709.72 12.34 0
 -1 -2 -3 501.2 6.07 0
 -1 -2 -2 3965.98 14.65 0
 -1 -2 -1 3348.73 11.25 0
 -1 -1 -19 15.55 4.2 0
 -1 -1 -18 10.71 4.23 0
 -1 -1 -17 17.41 4.39 0
 -1 -1 -16 6.25 3.18 0
 -1 -1 -14 11.59 3.22 0
 -1 -1 -12 25.96 3.67 0
 -1 -1 -11 235.81 7.74 0
 -1 -1 -6 384.27 6.95 0
 -1 -1 -5 2379.29 15.52 0
 -1 -1 -4 624.99 7.37 0
 -1 -1 -3 9743.71 24.96 0
 -1 -1 -2 191.9 3.13 0
 -1 -1 3 9946.62 17.25 0
 -1 0 -19 26.99 5.03 0
 -1 0 -18 0.85 3.1 0
 -1 0 -17 17.38 4.11 0
 -1 0 -16 3.83 3 0
 -1 0 -14 13.21 3.16 0
 -1 0 -13 134.17 6.67 0
 -1 0 -12 100.17 5.37 0
 -1 0 -11 0.11 1.93 0
 -1 0 -7 446.24 7.92 0
 -1 0 -6 36.74 2.64 0
 -1 0 -5 1514.5 12.14 0
 -1 0 -3 1248.62 9 0
 -1 0 -2 818.21 6.42 0
 -1 0 2 849.7 4.96 0
 -1 1 -20 43.42 6.16 0
 -1 1 -19 15.76 4.15 0
 -1 1 -18 6.21 3.45 0
 -1 1 -17 15.8 4.22 0
 -1 1 -16 7.08 3.37 0
 -1 1 -14 11.95 3.21 0
 -1 1 -12 29.36 3.77 0
 -1 1 -5 2309.62 15.19 0
 -1 1 -4 640.39 7.55 0
 -1 2 -20 34.79 5.56 0
 -1 2 -19 47.7 6.57 0
 -1 2 -18 37.19 5.49 0
 -1 2 -17 49 5.88 0
 -1 2 -16 14.11 3.68 0
 -1 2 -15 6.77 3.07 0
 -1 2 -14 40.74 4.81 0
 -1 2 -13 60.36 4.93 0
 -1 2 -12 2.37 2.56 0
 -1 2 -8 98.21 4.15 0
 -1 2 -6 928.05 10.78 0
 -1 2 -5 122.44 3.95 0
 -1 3 -19 41.82 5.85 0
 -1 3 -18 26.88 4.87 0
 -1 3 -17 54.51 5.57 0
 -1 3 -16 4.01 2.9 0
 -1 3 -15 36.46 4.52 0
 -1 3 -14 21.46 3.93 0
 -1 3 -12 186.48 7.22 0
 -1 3 -11 192.92 6.76 0
 -1 3 -8 86 3.97 0
 -1 4 -19 39.57 5.74 0
 -1 4 -18 40.29 5.19 0
 -1 4 -17 231.77 9.6 0
 -1 4 -16 213.65 9.21 0
 -1 4 -14 372.86 10.88 0
 -1 4 -13 160.25 6.94 0
 -1 4 -12 111.02 5.64 0
 -1 4 -11 11.73 2.64 0
 -1 4 -8 999.94 13.2 0
 -1 4 -7 390.35 7.9 0
 -1 5 -19 23.13 4.23 0
 -1 5 -18 23.41 4.49 0
 -1 5 -17 53.55 5.82 0
 -1 5 -16 81.28 6.24 0
 -1 5 -15 164.47 7.95 0
 -1 5 -14 34.51 4.31 0
 -1 5 -13 24.15 3.59 0
 -1 5 -12 104.23 5.53 0
 -1 5 -11 441.23 10.23 0
 -1 5 -10 25.68 3.08 0
 -1 6 -18 5.76 2.85 0
 -1 6 -17 55.66 5.4 0
 -1 6 -16 119.07 7.18 0
 -1 6 -15 32.46 4.74 0
 -1 6 -14 107.25 6.41 0
 -1 6 -11 14.37 2.79 0
 -1 6 -10 14.37 2.82 0
 -1 6 -9 152.95 5.97 0
 -1 7 -16 122.31 6.9 0
 -1 7 -15 99.56 6.32 0
 -1 7 -14 22.18 3.65 0
 -1 7 -13 46.3 4.62 0
 -1 7 -12 16.36 3.17 0
 -1 7 -11 10.09 2.8 0
 -1 7 -10 21.54 3.43 0
 -1 7 -9 61 4.18 0
 -1 8 -15 33.06 4.46 0
 -1 8 -14 14.61 3.18 0
 -1 8 -13 28.19 3.79 0
 -1 8 -12 72.51 5.18 0
 -1 8 -11 24.34 3.68 0
 -1 8 -10 153.68 6.69 0
 -1 8 -9 40.93 3.7 0
 -1 9 -13 21.12 3.72 0
 -1 9 -11 12.11 2.94 0
 -1 9 -10 7.61 2.51 0
 -1 10 -11 171.44 7.31 0
 -1 10 -10 92.51 5.5 0
 -1 11 -10 153.1 7.08 0
 0 -5 -12 113.48 6.14 0
 0 -5 -11 708.79 13.89 0
 0 -5 -10 48.52 3.87 0
 0 -4 -16 2.08 3.25 0
 0 -4 -15 0.49 3.1 0
 0 -4 -14 60.97 5.75 0
 0 -4 -13 39.31 4.95 0
 0 -4 -12 348.77 10.18 0
 0 -4 -11 126.59 6.04 0
 0 -4 -10 164.17 6.39 0
 0 -3 -18 -2.44 3.6 0
 0 -3 -17 1.77 3.13 0
 0 -3 -15 34.19 4.6 0
 0 -3 -14 20.93 3.97 0
 0 -3 -13 397.44 10.84 0
 0 -3 -12 2.02 2.02 0
 0 -3 -11 374.52 9.6 0
 0 -3 -10 36.12 3.35 0
 0 -3 -4 1239.01 11.11 0
 0 -2 -19 17.96 5 0
 0 -2 -18 16.48 4.77 0
 0 -2 -17 7.79 3.5 0
 0 -2 -15 51.42 4.99 0
 0 -2 -14 200.78 8.23 0
 0 -2 -13 149.91 6.78 0
 0 -2 -12 153.88 6.45 0
 0 -2 -11 169.35 6.57 0
 0 -2 -6 5.55 1.5 0
 0 -2 -5 259.57 5.26 0
 0 -2 -4 1449.09 10.98 0
 0 -2 -3 971.36 8.15 0
 0 -2 -2 435.38 4.98 0
 0 -1 -19 36.86 5.21 0
 0 -1 -18 11.87 3.81 0
 0 -1 -17 12.39 3.79 0
 0 -1 -16 183.95 8.48 0
 0 -1 -15 1.44 2.67 0
 0 -1 -14 25.16 3.7 0
 0 -1 -13 80.16 5.14 0
 0 -1 -12 1.65 2.23 0
 0 -1 -11 8.94 2.33 0
 0 -1 -9 41.14 3.05 0
 0 -1 -7 203.1 5.21 0
 0 -1 -6 287.83 5.83 0
 0 -1 -5 2181.32 14 0
 0 -1 -4 25.52 1.73 0
 0 -1 -3 13.03 1.31 0
 0 -1 -2 628.94 5.05 0
 0 -1 -1 734.27 4.41 0
 0 0 -20 111.21 7.65 0
 0 0 -19 2.23 3.53 0
 0 0 -18 237.16 9.77 0
 0 0 -17 -0.67 2.58 0
 0 0 -16 111.68 6.97 0
 0 0 -14 25.4 3.75 0
 0 0 -13 1.62 2.17 0
 0 0 -12 1.91 2.03 0
 0 0 -9 2.55 1.55 0
 0 0 -7 -0.8 0.97 0
 0 0 -5 0.05 0.98 0
 0 0 -4 2002.94 11.35 0
 0 0 -3 1.39 0.84 0
 0 0 -2 66.86 1.75 0
 0 0 2 65.31 1.55 0
 0 1 -20 105.74 7.44 0
 0 1 -19 32.81 4.8 0
 0 1 -18 18.24 4.51 0
 0 1 -17 9.69 3.38 0
 0 1 -16 189.35 8.53 0
 0 1 -15 -0.7 2.24 0
 0 1 -14 33.91 4.34 0
 0 1 -13 82.35 5.03 0
 0 1 -12 4.98 2.32 0
 0 1 -9 39.99 2.95 0
 0 1 -7 202.76 4.93 0
 0 1 -6 287.37 5.55 0
 0 1 -5 2180.55 13.03 0
 0 1 -3 12.52 1.13 0
 0 2 -19 15.79 3.94 0
 0 2 -18 17.84 3.93 0
 0 2 -17 4.94 3.01 0
 0 2 -16 22.17 4.07 0
 0 2 -15 57.43 4.8 0
 0 2 -14 199.64 7.6 0
 0 2 -13 145.04 6.42 0
 0 2 -12 159.17 6.29 0
 0 2 -9 14.84 2.12 0
 0 2 -6 4.58 1.25 0
 0 2 -5 258.87 4.69 0
 0 2 -4 1445.17 9.8 0
 0 3 -18 3.1 2.73 0
 0 3 -16 115.44 6.44 0
 0 3 -15 33.91 4.17 0
 0 3 -14 17.83 3.2 0
 0 3 -13 408.81 10.03 0
 0 3 -12 0.74 1.97 0
 0 3 -9 -0.53 1.23 0
 0 3 -8 189.26 5.1 0
 0 3 -6 53.73 2.71 0
 0 3 -5 1637.08 11.85 0
 0 4 -16 6.76 3.23 0
 0 4 -15 -0.44 2.18 0
 0 4 -13 43.91 4.23 0
 0 4 -9 127.72 4.61 0
 0 4 -8 200.65 5.36 0
 0 5 -15 25.19 3.58 0
 0 5 -12 113.29 5.49 0
 0 5 -8 113.94 4.32 0
 0 5 -7 31.75 2.55 0
 0 6 -14 81.67 4.91 0
 0 6 -13 26.88 3.3 0
 0 6 -12 129.88 5.75 0
 0 6 -11 17.8 2.52 0
 0 6 -8 130.48 4.83 0
 0 7 -13 250.89 7.94 0
 0 7 -12 4.7 2.02 0
 0 7 -11 5.69 2.12 0
 0 8 -11 59.59 3.9 0
 0 8 -10 17.02 2.69 0
 0 9 -10 25.62 2.77 0
 1 -3 -13 80.33 5.51 0
 1 -3 -11 193.59 7.05 0
 1 -2 -16 19.91 4.25 0
 1 -2 -15 13.4 3.41 0
 1 -2 -14 34.52 4.09 0
 1 -2 -13 62.6 4.62 0
 1 -2 -12 0.08 2.02 0
 1 -2 -11 249.34 7.66 0
 1 -2 -9 101.03 4.48 0
 1 -2 -8 90.03 3.93 0
 1 -2 -6 961.48 10.81 0
 1 -1 -17 16.2 3.99 0
 1 -1 -16 6.47 3.23 0
 1 -1 -15 72.88 5.28 0
 1 -1 -14 9.98 3.24 0
 1 -1 -13 81.54 5.04 0
 1 -1 -12 28.62 3.27 0
 1 -1 -9 99.04 4.2 0
 1 -1 -6 377.69 6.25 0
 1 -1 -5 2245.83 13.82 0
 1 -1 -4 637.37 6.83 0
 1 0 -19 23.13 4.16 0
 1 0 -18 1 2.78 0
 1 0 -17 26.5 4.39 0
 1 0 -16 4.95 2.67 0
 1 0 -14 12.28 2.84 0
 1 0 -12 96.88 4.89 0
 1 0 -10 37.11 3.18 0
 1 0 -9 297.25 6.79 0
 1 0 -7 437.49 7.04 0
 1 0 -6 41.53 2.23 0
 1 0 -5 1570.91 10.75 0
 1 0 -3 1280.82 7.33 0
 1 1 -18 8.79 3.39 0
 1 1 -17 14.13 3.52 0
 1 1 -16 5.66 2.49 0
 1 1 -15 77.31 4.99 0
 1 1 -14 8.33 2.4 0
 1 1 -13 77.52 4.59 0
 1 1 -12 24.57 3.07 0
 1 1 -10 152.36 5.24 0
 1 1 -9 105.88 4.1 0
 1 1 -7 170.4 4.29 0
 1 1 -6 368.48 5.59 0
 1 1 -5 2364.5 12.36 0
 1 1 -4 627.45 5.55 0
 1 1 -3 9597.08 17.07 0
 1 2 -17 45.85 4.23 0
 1 2 -16 19.51 3.39 0
 1 2 -15 11.22 2.78 0
 1 2 -14 40.66 3.93 0
 1 2 -13 61.82 4.37 0
 1 2 -10 653.55 10.11 0
 1 2 -9 100.92 3.81 0
 1 2 -7 342.74 5.76 0
 1 2 -6 925.55 8.42 0
 1 2 -5 121.92 2.83 0
 1 2 -4 1699.92 8.5 0
 1 3 -15 40.51 3.98 0
 1 3 -14 21.58 3.18 0
 1 3 -13 82.36 4.48 0
 1 3 -10 211.59 5.79 0
 1 3 -9 354.19 6.98 0
 1 3 -7 741.32 8.27 0
 1 3 -6 609 6.78 0
 1 3 -4 285.06 3.69 0
 1 4 -14 372.06 9.28 0
 1 4 -10 351 7.27 0
 1 4 -9 537.7 8.36 0
 1 4 -8 1002.93 10.5 0
 1 4 -6 540.07 6.46 0
 1 4 -5 112.75 2.87 0
 1 5 -10 22.91 2.41 0
 1 5 -8 315.4 5.99 0
 1 6 -10 14.47 2.06 0
 1 6 -9 155.74 4.63 0
 1 6 -8 408.07 6.94 0
 1 6 -7 92.21 3.33 0
 1 7 -9 54.45 2.98 0
 1 7 -8 93.21 3.67 0
 1 7 -7 96.72 3.62 0
 1 8 -8 49.1 2.86 0
 1 8 -7 42.66 2.56 0
 2 0 -12 224.86 7.03 0
 2 0 -10 55.83 3.29 0
 2 0 -8 1.06 1.2 0
 2 1 -15 51.01 4.13 0
 2 1 -14 144.91 6.18 0
 2 1 -13 38.97 3.35 0
 2 1 -11 17.43 2.35 0
 2 1 -10 509.24 8.63 0
 2 1 -9 122.39 4.02 0
 2 1 -7 331.68 5.56 0
 2 1 -6 462.1 5.92 0
 2 2 -13 41.81 3.29 0
 2 2 -11 75.47 3.64 0
 2 2 -10 315.11 6.52 0
 2 2 -7 75.5 2.52 0
 2 2 -6 39.46 1.67 0
 2 3 -11 160.08 4.85 0
 2 3 -9 95.5 3.33 0
 2 3 -7 610.28 6.48 0
 2 3 -6 193.14 3.18 0
 2 3 -5 322.79 3.22 0
 2 3 0 27.57 1.18 0
 2 4 -11 15.13 1.87 0
 2 4 -9 0.26 0.92 0
 2 4 -7 105.43 2.67 0
 2 4 -5 395.89 3.42 0
 2 4 -1 29.47 1.04 0
 2 5 -9 35.49 1.99 0
 2 5 -7 474.74 5.37 0
 2 5 -6 20.61 1.15 0
 2 5 -5 332.53 3.36 0
 2 5 -4 121.06 1.75 0
 2 5 -2 313.21 3.22 0
 2 6 -8 36.76 1.75 0
 2 6 -6 450.82 4.79 0
 2 6 -5 271.62 3.47 0
 -5 9 -5 10.58 2.52 0
 -5 9 -4 29.13 3.39 0
 -5 9 -3 318.61 8.16 0
 -5 9 -2 91.78 4.44 0
 -5 10 -6 16.26 3.32 0
 -5 10 -5 28.32 3.9 0
 -5 10 -4 84.77 5.12 0
 -5 10 -3 140.98 5.89 0
 -5 11 -7 2.16 2.88 0
 -5 11 -6 13.25 3.25 0
 -5 11 -4 41.82 3.87 0
 -5 11 -3 17.58 3.01 0
 -5 12 -5 2.24 2.48 0
 -4 5 -3 30.86 2.5 0
 -4 5 -2 151.32 4.45 0
 -4 6 -7 75.28 4.72 0
 -4 6 -6 204.22 7.02 0
 -4 6 -5 28.72 2.9 0
 -4 6 -3 28.96 2.57 0
 -4 6 -2 387.02 7.39 0
 -4 6 -1 52.36 2.72 0
 -4 6 0 21.82 1.75 0
 -4 6 1 50.15 2.15 0
 -4 6 2 389.42 4.62 0
 -4 7 -8 164.23 7.14 0
 -4 7 -5 296.11 8.17 0
 -4 7 -2 140.46 4.76 0
 -4 7 -1 402.76 7.28 0
 -4 7 0 16.69 1.85 0
 -4 7 1 390.91 5.99 0
 -4 7 2 137.74 3.22 0
 -4 7 3 360.89 4.29 0
 -4 8 -9 17.57 3.72 0
 -4 8 -8 7.84 2.92 0
 -4 8 -7 134.44 6.61 0
 -4 8 -6 47.95 4.16 0
 -4 8 -5 75.73 4.56 0
 -4 8 -4 15.42 2.56 0
 -4 8 -3 16.63 2.51 0
 -4 8 -1 18.61 2.08 0
 -4 8 0 185.2 4.89 0
 -4 8 1 17.99 1.69 0
 -4 8 3 18.21 1.36 0
 -4 9 -9 10.27 3.24 0
 -4 9 -8 224.47 8.87 0
 -4 9 -7 64.99 5.16 0
 -4 9 -4 121 5.41 0
 -4 9 -3 10.75 2.27 0
 -4 9 -2 4.86 1.82 0
 -4 9 1 4.96 1.28 0
 -4 9 2 6.35 1.24 0
 -4 10 -11 2.96 3.51 0
 -4 10 -10 32.22 5.07 0
 -4 10 -9 20.13 4.13 0
 -4 10 -8 111.14 6.86 0
 -4 10 -7 59.54 5.1 0
 -4 10 -6 153.18 7.08 0
 -4 10 -5 44.09 4.29 0
 -4 10 -4 96.07 5.29 0
 -4 10 -1 8.27 2.13 0
 -4 10 0 -0.18 1.22 0
 -4 11 -11 14.07 3.85 0
 -4 11 -10 29.44 4.98 0
 -4 11 -9 -0.05 2.87 0
 -4 11 -8 167.96 8.31 0
 -4 11 -7 50.74 5.12 0
 -4 11 -6 77.17 5.66 0
 -4 11 -5 5.29 2.83 0
 -4 11 -4 139.81 6.35 0
 -4 11 -3 17.77 2.69 0
 -4 11 -2 20.91 2.97 0
 -4 11 -1 112.89 5.03 0
 -4 11 0 6.37 1.82 0
 -4 12 -11 31.59 5.26 0
 -4 12 -10 55.07 5.69 0
 -4 12 -9 19.91 3.85 0
 -4 12 -8 138.17 7.54 0
 -4 12 -7 97.55 6.26 0
 -4 12 -6 159.86 7.41 0
 -4 12 -5 5.51 2.49 0
 -4 12 -4 10.38 2.93 0
 -4 12 -3 19.46 3.27 0
 -4 12 -2 114.38 5.39 0
 -4 12 -1 4.93 2.11 0
 -4 13 -9 0.52 2.83 0
 -4 13 -8 2.42 2.78 0
 -4 13 -7 2.06 2.49 0
 -4 13 -6 47.9 4.71 0
 -4 13 -5 60.55 5.11 0
 -4 13 -4 29.22 4.01 0
 -4 13 -3 13.29 2.73 0
 -4 13 -2 40.23 3.92 0
 -4 14 -7 23.7 4.51 0
 -4 14 -6 107.12 6.81 0
 -4 14 -5 46.95 4.84 0
 -4 14 -4 147.02 7.01 0
 -3 3 -3 737.99 9.02 0
 -3 3 -2 86.8 2.96 0
 -3 4 -5 56.59 3.4 0
 -3 4 -4 492.6 8.48 0
 -3 4 -3 55.17 2.78 0
 -3 4 -1 988.87 9.09 0
 -3 4 0 34.9 1.64 0
 -3 4 2 130.78 2.12 0
 -3 5 -9 171.91 6.96 0
 -3 5 -8 232.05 7.76 0
 -3 5 -4 186.87 5.36 0
 -3 5 -3 59.64 2.98 0
 -3 5 -2 78.29 3.13 0
 -3 5 -1 6.79 1.31 0
 -3 5 1 6.79 0.94 0
 -3 5 2 76.25 2.03 0
 -3 5 3 60.14 1.56 0
 -3 5 4 190.63 2.19 0
 -3 6 -11 33.84 4.19 0
 -3 6 -10 256.61 8.99 0
 -3 6 -8 49.72 4.05 0
 -3 6 -7 145.31 5.99 0
 -3 6 -3 240.78 5.86 0
 -3 6 -2 738.62 9.56 0
 -3 6 -1 278.04 5.59 0
 -3 6 0 57.77 2.49 0
 -3 6 1 279.26 4.83 0
 -3 6 2 773.95 7.28 0
 -3 6 3 257.07 3.91 0
 -3 6 4 334.98 4.02 0
 -3 6 5 276.47 3.34 0
 -3 6 6 426.11 3.82 0
 -3 6 7 139.16 2.15 0
 -3 7 -12 36.6 4.63 0
 -3 7 -11 27.31 4.2 0
 -3 7 -10 100.35 6.12 0
 -3 7 -9 126.62 6.42 0
 -3 7 -7 14.32 2.54 0
 -3 7 -6 52.71 3.98 0
 -3 7 -5 36.22 3 0
 -3 7 -2 198.05 5.4 0
 -3 7 0 46.73 2.51 0
 -3 7 1 333.25 5.88 0
 -3 7 2 212.09 4.41 0
 -3 7 3 95.47 2.83 0
 -3 7 4 16.95 1.31 0
 -3 7 5 40.6 1.7 0
 -3 7 6 51.18 1.78 0
 -3 7 7 19.76 1.17 0
 -3 8 -12 94.98 6.6 0
 -3 8 -11 64.13 5.82 0
 -3 8 -10 35.54 4.36 0
 -3 8 -8 90.47 5.38 0
 -3 8 -7 6.51 2.55 0
 -3 8 -6 195.69 6.9 0
 -3 8 -5 85.68 4.71 0
 -3 8 -4 283.19 7.48 0
 -3 8 1 285.39 5.95 0
 -3 8 2 235.97 5.12 0
 -3 8 3 35.51 2.1 0
 -3 8 4 275.97 4.98 0
 -3 8 5 91.71 2.82 0
 -3 8 6 200.19 3.89 0
 -3 9 -13 141.94 8.31 0
 -3 9 -11 19.5 3.96 0
 -3 9 -10 19.3 4.2 0
 -3 9 -9 33.92 4.11 0
 -3 9 -8 21.55 3.71 0
 -3 9 -7 40.25 3.85 0
 -3 9 -6 117.57 5.94 0
 -3 9 -5 51.78 4.05 0
 -3 9 -2 41.56 3.35 0
 -3 9 1 21.03 2.33 0
 -3 9 2 33.02 2.42 0
 -3 9 3 43.51 2.55 0
 -3 9 4 337.99 6.09 0
 -3 9 5 49.68 2.41 0
 -3 9 6 115.22 3.37 0
 -3 10 -13 21.23 4.59 0
 -3 10 -12 7.7 3.92 0
 -3 10 -11 41.24 5.27 0
 -3 10 -10 -0.12 2.77 0
 -3 10 -9 51.65 4.9 0
 -3 10 -8 48.73 4.77 0
 -3 10 -7 12.87 2.92 0
 -3 10 -6 46.03 4.26 0
 -3 10 -5 80.74 5.13 0
 -3 10 -4 8.83 2.26 0
 -3 10 -3 6.17 2.35 0
 -3 10 0 0.3 1.62 0
 -3 10 5 79.04 3.28 0
 -3 11 -12 8.32 3.8 0
 -3 11 -11 30.34 4.69 0
 -3 11 -10 17.98 4.13 0
 -3 11 -9 374.61 11.66 0
 -3 11 -8 66.84 5.63 0
 -3 11 -7 44.47 4.37 0
 -3 11 -6 74.6 5.55 0
 -3 11 -5 53.24 4.43 0
 -3 11 -4 12.12 2.9 0
 -3 11 -3 12.52 2.6 0
 -3 11 -2 55.24 4.25 0
 -3 11 0 15.32 2.47 0
 -3 11 2 57.9 3.51 0
 -3 11 3 13.49 2.28 0
 -3 11 4 9.82 1.81 0
 -3 12 -12 55.24 6.72 0
 -3 12 -11 36.02 5.18 0
 -3 12 -10 3.96 3.17 0
 -3 12 -8 -2.61 2.35 0
 -3 12 -7 94.88 6.15 0
 -3 12 -6 6.49 2.86 0
 -3 12 -5 125.21 6.44 0
 -3 12 -4 139.81 6.77 0
 -3 12 -3 44.02 4.23 0
 -3 12 -2 89.48 5.08 0
 -3 12 -1 15.75 2.96 0
 -3 12 0 4.21 1.97 0
 -3 12 1 19.52 2.75 0
 -3 12 2 89.3 4.39 0
 -3 12 3 42.96 3.12 0
 -3 13 -10 15.62 3.96 0
 -3 13 -9 127.24 7.82 0
 -3 13 -8 75.77 6.46 0
 -3 13 -7 10.19 3.06 0
 -3 13 -6 23.57 4.14 0
 -3 13 -5 110.34 6.66 0
 -3 13 -4 41.96 4.26 0
 -3 13 -3 3.65 2.37 0
 -3 13 -2 85.63 5.56 0
 -3 13 -1 113.88 5.94 0
 -3 13 0 41 3.96 0
 -3 13 1 106.28 5.36 0
 -3 13 2 85.75 4.7 0
 -3 14 -8 2.24 2.76 0
 -3 14 -6 42.19 5.22 0
 -3 14 -5 35.43 4.53 0
 -3 14 -4 9.46 2.96 0
 -3 14 -3 47.27 4.66 0
 -3 14 -2 118.59 6.42 0
 -3 14 -1 3.04 2.19 0
 -3 14 0 6.47 2.31 0
 -3 15 -6 15.73 3.57 0
 -3 15 -5 8.41 2.99 0
 -3 15 -4 14.27 3.38 0
 -3 15 -3 23.12 3.62 0
 -3 15 -2 1.86 2.2 0
 -3 15 -1 25.73 3.86 0
 -2 2 -6 34.74 2.52 0
 -2 2 -5 123.2 4.09 0
 -2 2 -4 1023.99 10.53 0
 -2 2 -3 302.72 5.3 0
 -2 2 -2 1799.92 11.33 0
 -2 2 -1 603.61 5.8 0
 -2 2 0 1160.57 6.67 0
 -2 2 1 582.24 3.62 0
 -2 3 -9 103.37 4.91 0
 -2 3 -6 193.19 5.47 0
 -2 3 -5 319.69 6.57 0
 -2 3 -4 1771.56 13.91 0
 -2 3 -1 1021.93 7.9 0
 -2 3 0 27.34 1.38 0
 -2 3 1 1037.18 5.97 0
 -2 3 2 1159.11 5.21 0
 -2 3 3 395.08 2.67 0
 -2 4 -10 95.36 5.21 0
 -2 4 -9 0.73 1.77 0
 -2 4 -6 252.92 6.35 0
 -2 4 -3 685.88 8.46 0
 -2 4 -2 15.2 1.54 0
 -2 4 -1 25.74 1.7 0
 -2 4 0 147.07 3.11 0
 -2 4 1 25.27 1.34 0
 -2 4 2 16.66 0.98 0
 -2 4 3 701.12 5.07 0
 -2 5 -12 28.75 4.03 0
 -2 5 -11 194.12 7.72 0
 -2 5 -10 324.14 9.32 0
 -2 5 -9 37.29 3.69 0
 -2 5 -5 324.03 6.99 0
 -2 5 -4 126.14 4.27 0
 -2 5 -1 457.42 6.49 0
 -2 5 0 28.21 1.66 0
 -2 5 1 441.97 5.49 0
 -2 5 2 296.26 4.19 0
 -2 5 3 296.32 4.07 0
 -2 6 -13 212.66 9.07 0
 -2 6 -12 3.58 2.46 0
 -2 6 -11 79.16 5.27 0
 -2 6 -10 62.73 4.56 0
 -2 6 -9 113.64 5.53 0
 -2 6 -8 38.36 3.41 0
 -2 6 -3 657.25 9.49 0
 -2 6 -2 296.95 6.14 0
 -2 6 -1 56.33 2.65 0
 -2 6 0 362.99 5.94 0
 -2 6 1 50.12 2.2 0
 -2 6 2 281.05 4.75 0
 -2 6 3 663.76 6.94 0
 -2 7 -14 1.13 2.51 0
 -2 7 -13 76.98 6 0
 -2 7 -12 41.84 4.94 0
 -2 7 -11 17.78 3.82 0
 -2 7 -10 8.5 3.1 0
 -2 7 -9 143.53 6.48 0
 -2 7 -8 207.94 7.41 0
 -2 7 -7 211.74 7.1 0
 -2 7 -6 41.74 3.33 0
 -2 7 -3 42.92 2.92 0
 -2 7 -2 165.72 4.93 0
 -2 7 -1 355.79 6.81 0
 -2 7 0 485.84 7.49 0
 -2 7 1 346.79 6.07 0
 -2 7 2 168.02 4.16 0
 -2 7 3 51.5 2.43 0
 -2 7 4 412.35 6.12 0
 -2 8 -13 36.08 5.03 0
 -2 8 -11 98.41 6.59 0
 -2 8 -10 92.42 5.97 0
 -2 8 -9 111.07 6.12 0
 -2 8 -8 126.49 6.21 0
 -2 8 -7 249.74 8.03 0
 -2 8 -6 175.36 6.42 0
 -2 8 -5 116.58 5.12 0
 -2 8 -4 153.87 5.54 0
 -2 8 1 467.35 7.69 0
 -2 8 2 415.41 7.09 0
 -2 8 3 132.84 3.96 0
 -2 8 4 159.8 4.34 0
 -2 9 -14 10.78 3.78 0
 -2 9 -13 16.77 3.83 0
 -2 9 -12 20.19 4.1 0
 -2 9 -11 28.69 4.16 0
 -2 9 -10 3 2.54 0
 -2 9 -8 48.77 4.22 0
 -2 9 -7 43.54 4.01 0
 -2 9 -6 123.02 5.79 0
 -2 9 -2 103.82 4.64 0
 -2 9 4 54.58 2.88 0
 -2 10 -15 15.8 4.48 0
 -2 10 -14 17.93 4.97 0
 -2 10 -13 9.45 3.75 0
 -2 10 -12 92.76 6.69 0
 -2 10 -11 184.05 8.59 0
 -2 10 -8 3.62 2.48 0
 -2 10 -7 10.09 2.75 0
 -2 10 -6 285.85 8.88 0
 -2 10 -5 2 1.88 0
 -2 10 -4 35.4 3.61 0
 -2 10 -3 42.5 3.85 0
 -2 10 -2 271.75 7.62 0
 -2 10 -1 50.98 3.7 0
 -2 10 0 2.27 1.59 0
 -2 10 1 51.82 3.28 0
 -2 10 2 245.42 6.5 0
 -2 10 7 13.88 2.05 0
 -2 11 -14 2.27 3.53 0
 -2 11 -13 13.49 4.15 0
 -2 11 -12 72.3 6.19 0
 -2 11 -9 34.11 4.8 0
 -2 11 -8 245.27 9.35 0
 -2 11 -6 59.29 4.92 0
 -2 11 -5 97.75 5.85 0
 -2 11 -4 18.51 3.04 0
 -2 11 -3 78.09 5.02 0
 -2 11 -1 90.92 4.96 0
 -2 11 0 208.99 6.8 0
 -2 11 1 97.53 4.77 0
 -2 11 3 83.96 4.26 0
 -2 11 4 23.43 2.85 0
 -2 11 5 107.28 4.57 0
 -2 11 7 8.62 2 0
 -2 12 -12 43.75 5.48 0
 -2 12 -11 7.04 3.25 0
 -2 12 -9 52.29 5.59 0
 -2 12 -8 22.49 4.3 0
 -2 12 -7 40.26 4.68 0
 -2 12 -6 110.96 6.39 0
 -2 12 -5 11.78 2.93 0
 -2 12 -4 49.11 4.28 0
 -2 12 -2 178.92 7.16 0
 -2 12 -1 103.64 5.6 0
 -2 12 0 14.29 2.63 0
 -2 12 2 177.28 6.4 0
 -2 12 3 14.21 2.46 0
 -2 12 5 9.21 2.02 0
 -2 12 6 107.64 4.76 0
 -2 12 7 37.01 3.12 0
 -2 13 -11 67.75 6.28 0
 -2 13 -10 174.35 9.09 0
 -2 13 -9 19.44 4.28 0
 -2 13 -8 82.74 6.39 0
 -2 13 -7 92.93 6.28 0
 -2 13 -6 24.34 4.15 0
 -2 13 -5 56.2 5.27 0
 -2 13 -4 43.51 4.38 0
 -2 13 -3 61.42 5.1 0
 -2 13 -2 24.4 3.69 0
 -2 13 -1 1.11 2.13 0
 -2 13 0 45.91 4.26 0
 -2 13 1 3.13 2.04 0
 -2 13 2 27.41 3.51 0
 -2 13 3 62.54 4.34 0
 -2 13 4 45.91 3.57 0
 -2 13 5 52.68 3.67 0
 -2 14 -9 24.54 4.44 0
 -2 14 -8 53.45 6.22 0
 -2 14 -7 24.47 4.19 0
 -2 14 -6 9.92 3.3 0
 -2 14 -5 50.06 5.76 0
 -2 14 -4 29.88 4.2 0
 -2 14 -3 121.89 6.96 0
 -2 14 -1 0.06 2.23 0
 -2 14 0 1.5 2.33 0
 -2 14 1 2.26 2.11 0
 -2 14 2 91.29 5.2 0
 -2 14 3 121.24 5.84 0
 -2 14 4 20.96 2.94 0
 -2 15 -7 36.07 5.07 0
 -2 15 -6 175.98 8.75 0
 -2 15 -5 63.22 5.57 0
 -2 15 -3 43.57 5.24 0
 -2 15 -2 65.51 5.44 0
 -2 15 -1 41.71 4.95 0
 -2 15 0 96.37 6.12 0
 -2 15 1 53.42 4.76 0
 -2 15 2 62.84 4.95 0
 -2 15 3 42.25 4.2 0
 -2 16 -3 20.65 3.87 0
 -2 16 -1 110.82 6.75 0
 -2 16 0 4.51 2.63 0
 -2 16 1 122.36 6.46 0
 -1 1 -6 378.2 6.86 0
 -1 1 -5 2350.06 15.38 0
 -1 1 -4 644.7 7.38 0
 -1 1 -3 9562.54 24.78 0
 -1 1 -2 202.49 3.35 0
 -1 1 -1 987.21 5.68 0
 -1 1 3 9999.99 15.18 0
 -1 2 -6 930.11 10.75 0
 -1 2 -5 119.85 3.66 0
 -1 2 -4 1669.61 11.9 0
 -1 2 -2 4015.95 14.81 0
 -1 2 -1 3414.65 11.8 0
 -1 2 1 3223.27 8.06 0
 -1 3 -5 385.52 6.56 0
 -1 3 -4 274.23 5.28 0
 -1 3 -3 838.06 8.28 0
 -1 3 -2 377.67 5.13 0
 -1 3 -1 1079.54 7.61 0
 -1 3 0 62.89 1.77 0
 -1 4 -12 114.68 6.02 0
 -1 4 -11 8.04 2.47 0
 -1 4 -5 110.34 3.8 0
 -1 4 -4 68.99 2.94 0
 -1 4 -2 1666.42 11.63 0
 -1 4 -1 608.64 6.54 0
 -1 4 0 707.58 6.56 0
 -1 5 -13 24.3 3.89 0
 -1 5 -12 118.87 6.41 0
 -1 5 -11 441.2 11.03 0
 -1 5 -10 26.32 2.98 0
 -1 5 -9 254.99 7.51 0
 -1 5 -5 87.77 3.81 0
 -1 5 -4 179.85 4.93 0
 -1 5 -3 1864.62 14.33 0
 -1 5 -2 713.34 8.39 0
 -1 5 0 385.43 5.6 0
 -1 5 1 100.81 2.84 0
 -1 6 -14 109.33 6.8 0
 -1 6 -13 126.07 7.01 0
 -1 6 -12 31.02 4.13 0
 -1 6 -11 20.13 3.49 0
 -1 6 -9 160.69 6.41 0
 -1 6 -8 424 9.51 0
 -1 6 -4 197.37 5.41 0
 -1 6 -3 19.17 2 0
 -1 6 -2 152.88 4.32 0
 -1 6 -1 530.71 7.51 0
 -1 6 0 324.72 5.76 0
 -1 6 1 529.1 7.12 0
 -1 7 -15 90.49 7.09 0
 -1 7 -13 48.31 5.25 0
 -1 7 -11 13.38 3.03 0
 -1 7 -10 24.55 3.72 0
 -1 7 -9 60.45 4.23 0
 -1 7 -8 89.67 4.88 0
 -1 7 -7 88.69 4.74 0
 -1 7 -6 37.26 3.23 0
 -1 7 -3 0.57 1.19 0
 -1 7 -2 44.26 2.7 0
 -1 7 -1 171.28 4.75 0
 -1 7 1 168.15 4.54 0
 -1 8 -16 81.03 6.73 0
 -1 8 -15 38.31 5.31 0
 -1 8 -14 15.51 3.81 0
 -1 8 -13 29.87 4.94 0
 -1 8 -11 21.01 3.35 0
 -1 8 -10 165.97 7.28 0
 -1 8 -9 39.21 3.72 0
 -1 8 -7 46.53 3.66 0
 -1 8 -6 24.07 2.77 0
 -1 8 -5 212.34 6.7 0
 -1 8 0 535.38 8.71 0
 -1 8 1 42.71 2.83 0
 -1 8 2 218.67 5.53 0
 -1 9 -16 14.92 4.7 0
 -1 9 -15 8.8 3.67 0
 -1 9 -14 37.16 5.41 0
 -1 9 -13 25.07 4.36 0
 -1 9 -12 16.33 3.66 0
 -1 9 -11 13.15 3.21 0
 -1 9 -10 6.15 2.87 0
 -1 9 -9 262.1 8.88 0
 -1 9 -8 78.53 5.2 0
 -1 9 -6 17.06 2.89 0
 -1 9 -3 485.22 9.95 0
 -1 10 -15 11.09 4.17 0
 -1 10 -14 48.16 5.97 0
 -1 10 -13 54.21 5.41 0
 -1 10 -12 38.78 4.85 0
 -1 10 -10 83.65 6.11 0
 -1 10 -9 85.91 5.74 0
 -1 10 -8 10.67 2.8 0
 -1 10 -7 5.5 2.28 0
 -1 10 -2 279.31 7.71 0
 -1 10 -1 170.21 6.01 0
 -1 10 0 -0.97 1.44 0
 -1 10 1 187.44 6.13 0
 -1 10 2 274.07 7.05 0
 -1 11 -14 92.29 7.66 0
 -1 11 -12 5.88 3.58 0
 -1 11 -11 19.6 3.97 0
 -1 11 -10 144.31 7.61 0
 -1 11 -9 10.46 2.98 0
 -1 11 -8 43.34 4.96 0
 -1 11 -7 44.53 4.52 0
 -1 11 -6 88.58 5.55 0
 -1 11 -5 79.38 5.47 0
 -1 11 -3 26.67 3.49 0
 -1 11 -1 10.42 2.36 0
 -1 11 0 -0.81 1.55 0
 -1 11 1 7.29 2.07 0
 -1 11 3 28.49 3.07 0
 -1 11 4 118.01 5.04 0
 -1 12 -13 103.96 7.41 0
 -1 12 -12 76.38 6.4 0
 -1 12 -11 27.77 4.6 0
 -1 12 -10 31.75 4.68 0
 -1 12 -9 38.45 4.84 0
 -1 12 -8 37.15 4.79 0
 -1 12 -7 65.57 5.62 0
 -1 12 -6 10.2 3.21 0
 -1 12 -5 5.14 2.47 0
 -1 12 -4 37.29 4.17 0
 -1 12 -3 11.58 2.83 0
 -1 12 -2 46.5 4.28 0
 -1 12 -1 6.07 2.41 0
 -1 12 0 157.78 6.5 0
 -1 12 1 5.74 2.17 0
 -1 12 3 10.98 2.45 0
 -1 12 4 50.55 3.97 0
 -1 12 5 7.19 2.09 0
 -1 12 6 9.55 2.53 0
 -1 13 -10 29.6 4.71 0
 -1 13 -9 69.79 6.01 0
 -1 13 -6 3.95 2.75 0
 -1 13 -5 159.62 7.61 0
 -1 13 -4 83.46 5.62 0
 -1 13 -3 29.03 3.87 0
 -1 13 -2 87.78 5.53 0
 -1 13 -1 136.8 6.58 0
 -1 13 0 21.16 3.51 0
 -1 13 1 134.53 6.42 0
 -1 13 2 79.71 4.89 0
 -1 13 4 91.38 5.06 0
 -1 13 5 153.17 6.4 0
 -1 13 7 15.96 2.89 0
 -1 13 8 113.12 5.37 0
 -1 14 -9 75.5 6.64 0
 -1 14 -8 75.09 6.23 0
 -1 14 -7 12.6 3.65 0
 -1 14 -6 54.07 5.35 0
 -1 14 -5 9.1 3.39 0
 -1 14 -4 19.02 3.98 0
 -1 14 -2 7.77 2.87 0
 -1 14 -1 31.46 4.33 0
 -1 14 0 2.95 2.36 0
 -1 14 1 41.76 4.39 0
 -1 14 2 6.06 2.45 0
 -1 14 3 122.59 6.32 0
 -1 14 4 15.14 3.07 0
 -1 14 5 11.38 2.73 0
 -1 14 6 48.61 4.33 0
 -1 14 7 12.27 2.61 0
 -1 15 -8 11.03 3.66 0
 -1 15 -6 87.86 6.9 0
 -1 15 -5 44.42 5.53 0
 -1 15 -4 44.64 5.49 0
 -1 15 -3 8.82 3.64 0
 -1 15 -2 40.95 4.8 0
 -1 15 -1 79.19 6.01 0
 -1 15 0 3.43 2.39 0
 -1 15 2 41.03 4.8 0
 -1 15 3 4.9 2.73 0
 -1 15 4 46.44 4.53 0
 -1 15 5 42.34 4.13 0
 -1 15 6 97.07 5.62 0
 -1 16 -5 6.7 3.72 0
 -1 16 -4 2.38 2.76 0
 -1 16 -3 22.64 4.49 0
 -1 16 -2 6.04 2.91 0
 -1 16 -1 152.71 7.73 0
 -1 16 0 23.31 3.75 0
 -1 16 2 10.22 3.24 0
 -1 16 3 17.64 3.32 0
 -1 16 4 2.13 2.07 0
 0 -1 2 606.39 4.59 0
 0 0 -4 2040.66 11.12 0
 0 0 -3 0.4 0.85 0
 0 0 -2 62.99 1.56 0
 0 1 -7 218.14 5.28 0
 0 1 -6 284.43 5.41 0
 0 1 -5 2124.06 13.05 0
 0 1 -4 24.28 1.47 0
 0 1 -3 12.46 1.06 0
 0 1 -2 599.44 4.62 0
 0 1 -1 739.07 4.06 0
 0 2 -11 158.12 5.91 0
 0 2 -9 14.75 2.31 0
 0 2 -8 300.02 6.63 0
 0 2 -5 260.8 4.87 0
 0 2 -4 1407.43 10.16 0
 0 2 -3 952.07 7.61 0
 0 2 -2 437.39 4.57 0
 0 2 -1 522.74 4.42 0
 0 3 -12 0.61 1.91 0
 0 3 -11 394.94 9.56 0
 0 3 -6 55.2 2.7 0
 0 3 -5 1632.81 12.84 0
 0 3 -4 1208.2 10.36 0
 0 3 -3 2765.94 14.23 0
 0 3 -1 1197.95 8.02 0
 0 4 -13 41.57 4.19 0
 0 4 -12 355.36 9.71 0
 0 4 -11 128.24 5.7 0
 0 4 -10 157.66 6.01 0
 0 4 -7 0.94 1.4 0
 0 4 -5 459.94 7.44 0
 0 4 -4 728.33 8.71 0
 0 4 -2 669.88 7.34 0
 0 4 -1 293.8 4.64 0
 0 5 -11 708.18 13.23 0
 0 5 -10 47.78 3.83 0
 0 5 -9 385.72 8.91 0
 0 5 -3 185.62 4.59 0
 0 5 -2 522.36 7.16 0
 0 5 -1 770.9 8.42 0
 0 6 -14 83.4 6.1 0
 0 6 -13 26.12 3.92 0
 0 6 -12 129.98 6.43 0
 0 6 -11 19.13 3.4 0
 0 6 -10 138.97 6.03 0
 0 6 -9 0.33 1.78 0
 0 6 -8 133.97 5.4 0
 0 6 -2 71.61 3.08 0
 0 6 -1 1008.39 10.55 0
 0 7 -16 52.28 5.67 0
 0 7 -13 246.15 9.41 0
 0 7 -12 5.6 2.5 0
 0 7 -11 5.47 2.5 0
 0 7 -7 343.26 8.55 0
 0 7 -2 4.89 1.42 0
 0 7 -1 418.86 7.58 0
 0 8 -16 17.49 4.17 0
 0 8 -15 54.26 6.05 0
 0 8 -14 34.28 4.82 0
 0 8 -13 3.05 3.18 0
 0 8 -12 3.37 2.64 0
 0 8 -10 12.44 3.31 0
 0 8 -8 115.84 5.77 0
 0 8 -7 29.86 3.51 0
 0 8 -5 517.73 10.2 0
 0 9 -16 34.4 5.65 0
 0 9 -15 10.13 3.54 0
 0 9 -14 56.51 5.91 0
 0 9 -13 38.79 4.81 0
 0 9 -12 25.74 4.2 0
 0 9 -11 18.59 3.4 0
 0 9 -8 3.18 2.09 0
 0 9 -7 31.92 3.71 0
 0 9 -6 677.22 12.74 0
 0 9 -5 64.17 4.18 0
 0 9 -4 71.3 4.1 0
 0 9 -3 230.6 6.81 0
 0 9 -2 33.17 3.07 0
 0 9 -1 70.37 3.86 0
 0 9 0 0.24 1.44 0
 0 10 -15 38.91 5.56 0
 0 10 -14 18.33 4.62 0
 0 10 -13 66.83 5.91 0
 0 10 -12 2.06 2.72 0
 0 10 -11 0.11 2.33 0
 0 10 -10 9.68 3.13 0
 0 10 -7 36.66 4.08 0
 0 10 -6 353 9.82 0
 0 10 -5 0.58 1.87 0
 0 10 -4 19.14 2.89 0
 0 10 -3 33.18 3.1 0
 0 10 -2 276.96 7.85 0
 0 10 -1 57.7 3.9 0
 0 10 0 264.7 7.46 0
 0 11 -14 4.08 3.21 0
 0 11 -12 3.07 2.84 0
 0 11 -11 113.54 7 0
 0 11 -10 111.48 6.94 0
 0 11 -9 127.03 6.96 0
 0 11 -8 6.7 2.92 0
 0 11 -7 98.35 5.96 0
 0 11 -6 22.56 3.31 0
 0 11 -5 14.17 3.15 0
 0 11 -4 1.26 1.86 0
 0 11 -3 11.39 2.52 0
 0 11 -2 136.68 6.2 0
 0 11 -1 82.64 4.85 0
 0 11 0 -0.95 1.56 0
 0 11 1 74.85 4.56 0
 0 11 2 142.2 5.75 0
 0 12 -11 8.23 3.41 0
 0 12 -10 2.67 2.75 0
 0 12 -8 43.65 4.86 0
 0 12 -7 679.43 15.21 0
 0 12 -6 4.02 2.46 0
 0 12 -4 0.33 2.02 0
 0 12 -3 7.51 2.77 0
 0 12 -1 358.36 9.78 0
 0 12 0 5.36 2.63 0
 0 12 1 343.14 9.45 0
 0 12 2 82.92 5.07 0
 0 12 3 9.61 2.53 0
 0 13 -11 9.7 3.59 0
 0 13 -10 120.13 7.71 0
 0 13 -9 242.19 10.38 0
 0 13 -8 17.18 4.07 0
 0 13 -7 7.26 3.01 0
 0 13 -6 9.71 3.05 0
 0 13 -5 101.03 6.54 0
 0 13 -4 1.83 2.73 0
 0 13 -3 -0.44 2.16 0
 0 13 -2 1.33 2.26 0
 0 13 -1 48.4 4.31 0
 0 13 0 -0.36 1.9 0
 0 13 1 47.21 4.32 0
 0 13 2 1.14 2.17 0
 0 13 3 -1.39 1.82 0
 0 13 4 0.88 1.93 0
 0 14 -10 6.42 3.67 0
 0 14 -9 3.54 3.29 0
 0 14 -7 8.87 3.51 0
 0 14 -6 30.7 4.71 0
 0 14 -5 48.29 4.88 0
 0 14 -4 108.59 6.7 0
 0 14 -3 61.73 5.42 0
 0 14 -2 106.21 6.51 0
 0 14 -1 96.65 6.25 0
 0 14 0 1.58 2.41 0
 0 14 1 98.32 5.93 0
 0 14 2 114.16 6.47 0
 0 14 3 62 4.82 0
 0 14 4 102.86 5.96 0
 0 14 7 6.77 2.57 0
 0 15 -8 23.09 4.84 0
 0 15 -7 5.1 3.78 0
 0 15 -6 88.38 7 0
 0 15 -4 48.64 5.06 0
 0 15 -3 49.89 5.59 0
 0 15 -2 156.33 8.12 0
 0 15 -1 0.95 2.53 0
 0 15 0 -2.42 2.35 0
 0 15 1 1.85 2.49 0
 0 15 2 144.62 7.43 0
 0 15 3 54.97 5.2 0
 0 15 4 50.58 5.02 0
 0 15 5 5.64 2.75 0
 0 15 6 94.18 5.98 0
 0 15 7 2.03 2.38 0
 0 15 8 23.37 3.48 0
 0 16 -5 33.1 5.33 0
 0 16 -4 125.26 7.62 0
 0 16 -3 14.36 3.98 0
 0 16 -2 2.56 2.71 0
 0 16 0 16 3.56 0
 0 16 1 -2.78 1.92 0
 0 16 2 -0.96 2.18 0
 0 16 3 19.75 3.62 0
 0 16 4 122.63 6.77 0
 0 16 5 28.92 4.29 0
 0 16 6 14.29 3.3 0
 1 -1 1 1053.74 5.83 0
 1 0 -7 431.66 6.44 0
 1 0 -6 34.98 1.82 0
 1 0 -5 1557.39 9.68 0
 1 0 -4 434.1 4.39 0
 1 1 -10 152.57 5.05 0
 1 1 -5 2279.63 12.28 0
 1 1 -4 618.89 5.8 0
 1 1 -3 9605.49 19.67 0
 1 1 -2 196.09 2.51 0
 1 2 -9 103.45 4.19 0
 1 2 -6 944.01 9.51 0
 1 2 -5 122.3 3.27 0
 1 2 -4 1737.18 10.75 0
 1 2 -3 501.44 5.33 0
 1 2 -2 3976.07 13.76 0
 1 3 -13 80.16 5.04 0
 1 3 -12 183.27 6.67 0
 1 3 -11 193.12 6.4 0
 1 3 -8 86.28 3.69 0
 1 3 -6 608.36 8.22 0
 1 3 -5 402.43 6.25 0
 1 3 -4 272.69 4.81 0
 1 3 -3 798.41 7.62 0
 1 3 -2 372.15 4.94 0
 1 4 -14 369.51 10.44 0
 1 4 -13 155.94 6.76 0
 1 4 -12 113.1 5.62 0
 1 4 -11 9.55 2.27 0
 1 4 -7 398.78 7.63 0
 1 4 -4 64.43 2.74 0
 1 5 -15 177.15 7.97 0
 1 5 -14 29.57 4.29 0
 1 5 -13 21.84 3.66 0
 1 5 -11 437.89 10.15 0
 1 5 -9 257.81 7.23 0
 1 5 -6 51.01 2.95 0
 1 6 -15 29.65 4.19 0
 1 6 -14 99.14 6.34 0
 1 6 -13 129.6 6.79 0
 1 6 -12 28.24 3.8 0
 1 6 -11 21.62 3.31 0
 1 6 -10 13.62 2.53 0
 1 6 -9 169.86 6.35 0
 1 6 -8 425.19 9.29 0
 1 7 -16 123.34 7.87 0
 1 7 -15 98.38 6.73 0
 1 7 -13 39.31 4.58 0
 1 7 -12 10.65 2.8 0
 1 7 -11 14.29 2.84 0
 1 7 -10 19.07 2.97 0
 1 7 -9 55.54 4.3 0
 1 7 -8 96.17 4.9 0
 1 7 -7 96.58 4.63 0
 1 7 -6 33.75 2.78 0
 1 8 -17 5.31 3.39 0
 1 8 -16 75.24 6.78 0
 1 8 -14 14.67 3.47 0
 1 8 -13 28.34 4.25 0
 1 8 -12 69.97 5.43 0
 1 8 -11 20.11 3.52 0
 1 8 -10 166.13 7.12 0
 1 8 -9 39.37 3.79 0
 1 8 -8 50.64 4.02 0
 1 8 -7 44.58 3.53 0
 1 8 -5 215.42 6.69 0
 1 8 -4 9.27 2.11 0
 1 9 -16 9.5 3.54 0
 1 9 -15 10.85 3.6 0
 1 9 -14 36.84 4.91 0
 1 9 -13 25.45 4.06 0
 1 9 -12 16.08 3.38 0
 1 9 -9 271.53 8.99 0
 1 9 -8 81.52 5 0
 1 9 -6 16.85 2.98 0
 1 9 -5 216.79 7.03 0
 1 9 -4 302.52 8.13 0
 1 9 -2 54.66 3.6 0
 1 9 -1 337.27 8.14 0
 1 10 -15 11.64 4.02 0
 1 10 -14 53.89 6.17 0
 1 10 -13 51.63 5.17 0
 1 10 -12 28.49 4.47 0
 1 10 -11 167.96 8.13 0
 1 10 -10 92.92 6.15 0
 1 10 -9 80.2 5.5 0
 1 10 -8 12.08 2.82 0
 1 10 -7 6.27 2.51 0
 1 10 -6 125.38 6.03 0
 1 10 -5 264.76 8.41 0
 1 10 -3 545.91 11.23 0
 1 10 -1 178.61 6.34 0
 1 10 0 0.58 1.66 0
 1 11 -14 89.75 6.67 0
 1 11 -11 24.57 4.22 0
 1 11 -10 152 7.92 0
 1 11 -8 35.21 4.17 0
 1 11 -7 44.85 4.43 0
 1 11 -6 82.41 5.54 0
 1 11 -5 78.32 5.29 0
 1 11 -3 24.2 3.22 0
 1 11 -2 82.76 4.95 0
 1 11 -1 8.63 2.37 0
 1 11 0 0.22 1.59 0
 1 12 -12 69.97 6.03 0
 1 12 -11 31.17 4.77 0
 1 12 -10 27.16 4.49 0
 1 12 -9 46.96 5.09 0
 1 12 -8 46.01 5.22 0
 1 12 -7 64.54 5.3 0
 1 12 -6 10.77 3.4 0
 1 12 -5 8.64 2.62 0
 1 12 -3 14.77 3.06 0
 1 12 -2 51.17 4.36 0
 1 12 -1 4.94 2.22 0
 1 12 1 3.37 2.11 0
 1 13 -12 64.51 6.12 0
 1 13 -11 12.43 3.96 0
 1 13 -10 31.09 5.02 0
 1 13 -9 80.24 6.36 0
 1 13 -8 112.32 7.28 0
 1 13 -7 19.19 3.98 0
 1 13 -5 158.72 7.89 0
 1 13 -4 80.71 5.67 0
 1 13 -3 25.23 3.79 0
 1 13 -2 85.78 5.91 0
 1 13 0 22.12 3.62 0
 1 13 2 79.77 5.58 0
 1 13 3 28.24 3.59 0
 1 14 -10 49.82 5.9 0
 1 14 -9 78.62 6.53 0
 1 14 -7 8.97 3.79 0
 1 14 -6 53.97 5.45 0
 1 14 -5 12.89 3.46 0
 1 14 -4 14.76 3.41 0
 1 14 -3 114.47 6.75 0
 1 14 -2 6.89 2.8 0
 1 14 -1 41.03 4.53 0
 1 14 0 2.26 2.42 0
 1 14 1 28.93 4.23 0
 1 14 2 5.84 2.63 0
 1 14 3 117.33 6.8 0
 1 14 4 23.1 3.84 0
 1 15 -7 27.94 4.76 0
 1 15 -6 98.55 6.92 0
 1 15 -5 43.8 5.37 0
 1 15 -3 10.8 3.41 0
 1 15 0 1.59 2.41 0
 1 15 1 79.69 6.12 0
 1 15 2 39.81 4.67 0
 1 15 3 6.82 2.97 0
 1 15 4 46.74 5 0
 1 15 5 39.59 4.89 0
 1 15 6 88.13 5.93 0
 1 16 -4 4.49 3.14 0
 1 16 -3 17.1 4.48 0
 1 16 -2 10.38 3.46 0
 1 16 -1 137.86 7.95 0
 1 16 0 21.98 4.1 0
 1 16 1 154.51 8.22 0
 1 16 2 9.71 3.49 0
 1 16 4 3.16 3.03 0
 1 16 5 3.12 3.11 0
 2 -1 -1 2643.53 7.06 0
 2 0 -7 424.62 5.79 0
 2 0 -6 784.7 6.9 0
 2 0 -5 55.72 1.68 0
 2 0 -4 1848.98 7.83 0
 2 0 -3 1567.42 6.12 0
 2 1 -10 534.96 8.78 0
 2 1 -9 119.24 4.02 0
 2 1 -6 477.41 5.92 0
 2 1 -5 541.12 5.73 0
 2 1 -3 830.22 5.9 0
 2 2 -10 315.91 6.98 0
 2 2 -5 124.03 3.16 0
 2 2 -4 1004.02 8.15 0
 2 2 -3 286.55 4.19 0
 2 3 -9 97.9 3.96 0
 2 3 -8 12.58 1.8 0
 2 3 -7 617.71 8.62 0
 2 3 -5 328.86 5.59 0
 2 3 -4 1759.31 12.13 0
 2 3 -3 386.56 5.55 0
 2 4 -13 1.32 1.92 0
 2 4 -12 331.18 8.58 0
 2 4 -11 13.04 2.36 0
 2 4 -8 218.66 5.93 0
 2 4 -6 255.18 5.67 0
 2 4 -3 681.95 8.13 0
 2 5 -15 101.69 6.18 0
 2 5 -14 147.89 7.02 0
 2 5 -13 21.43 3.4 0
 2 5 -12 29.2 3.23 0
 2 5 -11 181.58 6.59 0
 2 5 -10 336.22 8.45 0
 2 5 -9 36.31 3.15 0
 2 5 -4 121.87 4.06 0
 2 6 -16 90.11 6.27 0
 2 6 -14 78.31 5.67 0
 2 6 -13 196.02 7.77 0
 2 6 -12 6.57 2.39 0
 2 6 -10 66.53 4.52 0
 2 6 -9 120 5.45 0
 2 6 -8 40.2 3.25 0
 2 6 -4 28.73 2.58 0
 2 6 -3 652.15 9.53 0
 2 7 -17 65.3 5.67 0
 2 7 -16 48.12 5.06 0
 2 7 -15 64.75 5.35 0
 2 7 -14 1.3 2.27 0
 2 7 -13 68.42 5.06 0
 2 7 -12 41.07 4.56 0
 2 7 -11 13.97 2.83 0
 2 7 -10 6.14 2.58 0
 2 7 -8 199.45 6.74 0
 2 7 -7 219.08 6.89 0
 2 7 -6 34.75 2.88 0
 2 7 -5 31.37 2.71 0
 2 8 -17 14.59 3.83 0
 2 8 -16 128.55 7.58 0
 2 8 -15 14.11 3.46 0
 2 8 -14 11.2 3.18 0
 2 8 -13 37.34 4.49 0
 2 8 -12 24.51 3.64 0
 2 8 -11 102.88 6.06 0
 2 8 -10 94.73 5.42 0
 2 8 -8 128.67 5.84 0
 2 8 -6 166.22 6.11 0
 2 8 -5 120.21 5.17 0
 2 8 -4 157.83 5.65 0
 2 8 -3 127.5 5.04 0
 2 9 -15 53.86 6.06 0
 2 9 -14 13.76 3.76 0
 2 9 -13 9.92 3.34 0
 2 9 -12 17.91 3.99 0
 2 9 -11 27.83 4.12 0
 2 9 -10 4.22 2.48 0
 2 9 -9 86.2 5.3 0
 2 9 -8 59.87 4.85 0
 2 9 -6 124.41 5.86 0
 2 9 -5 550.97 11.3 0
 2 9 -3 236.5 7.28 0
 2 10 -15 17.86 4.5 0
 2 10 -14 12.82 3.76 0
 2 10 -13 11.83 3.31 0
 2 10 -11 183.38 8.22 0
 2 10 -9 75.72 5.53 0
 2 10 -8 4.98 2.69 0
 2 10 -7 10.32 2.8 0
 2 10 -6 258.21 8.39 0
 2 10 -5 2.22 1.83 0
 2 10 -4 29.42 3.61 0
 2 10 -3 41.41 3.5 0
 2 10 -2 261.32 7.93 0
 2 10 -1 52.3 3.75 0
 2 11 -14 5.96 3.2 0
 2 11 -13 10.65 3.7 0
 2 11 -12 78.15 6.42 0
 2 11 -9 39.46 4.86 0
 2 11 -8 262.99 9.46 0
 2 11 -7 8.79 2.7 0
 2 11 -5 101.68 5.78 0
 2 11 -4 21.5 3.33 0
 2 11 -2 38.1 3.77 0
 2 11 -1 96.68 5.58 0
 2 12 -13 25.24 4.53 0
 2 12 -11 6.52 3.25 0
 2 12 -10 40.79 5 0
 2 12 -9 57.65 5.92 0
 2 12 -8 19.76 4.2 0
 2 12 -5 6.49 2.83 0
 2 12 -4 45.31 4.22 0
 2 12 -2 173.06 7.56 0
 2 12 -1 105.3 5.83 0
 2 12 0 19.02 3.23 0
 2 13 -10 184.12 9.26 0
 2 13 -9 21.49 4.19 0
 2 13 -8 87.84 6.69 0
 2 13 -7 87.67 6.23 0
 2 13 -6 19.18 4.28 0
 2 13 -5 52.52 4.86 0
 2 13 -4 50.09 4.88 0
 2 13 -3 62.43 5.44 0
 2 13 -2 29.07 4.02 0
 2 13 -1 0.43 1.97 0
 2 13 0 56.05 4.78 0
 2 13 1 1.46 2.27 0
 2 14 -9 28.11 5.11 0
 2 14 -7 23.53 4.6 0
 2 14 -6 10.64 3.51 0
 2 14 -5 45.37 5.15 0
 2 14 -4 23.83 3.97 0
 2 14 -3 115.48 7.19 0
 2 14 -2 93.72 6.48 0
 2 14 -1 2.65 3.22 0
 2 14 0 1.41 2.54 0
 2 14 2 94.59 6.42 0
 2 14 3 114.26 6.63 0
 2 15 -6 171.41 8.84 0
 2 15 -5 58.9 5.64 0
 2 15 -4 44.28 5.11 0
 2 15 -3 39.83 4.92 0
 2 15 -2 66.44 5.72 0
 2 15 -1 48.47 5.81 0
 2 15 0 96.59 6.66 0
 2 15 2 63.56 5.59 0
 2 15 3 38.27 5.07 0
 2 15 4 41.41 5.37 0
 2 16 -2 1.77 2.97 0
 2 16 -1 121.83 7.64 0
 2 16 0 2.03 2.87 0
 2 16 1 112.3 7.5 0
 3 -2 -1 98.8 1.79 0
 3 -1 -2 1783.16 6.07 0
 3 0 -7 113.34 2.69 0
 3 0 -6 256.15 3.46 0
 3 0 -5 292.61 3.25 0
 3 0 -4 1.1 0.37 0
 3 0 -3 201.16 2.42 0
 3 1 -10 92.45 3.49 0
 3 1 -9 10.33 1.43 0
 3 1 -8 237.42 4.63 0
 3 1 -6 622.94 6.46 0
 3 1 -5 426.72 4.96 0
 3 1 -4 48.28 1.67 0
 3 2 -9 111.47 3.77 0
 3 2 -8 176.44 4.38 0
 3 2 -7 19.79 1.66 0
 3 2 -4 645.29 6.77 0
 3 3 -12 14.29 2.18 0
 3 3 -9 48.53 2.98 0
 3 3 -8 134.53 4.24 0
 3 3 -7 750.94 9.39 0
 3 3 -6 446.12 6.93 0
 3 4 -13 91.2 4.89 0
 3 4 -12 40.2 3.44 0
 3 4 -11 89.58 4.4 0
 3 4 -7 610.34 9.12 0
 3 4 -6 35.83 2.47 0
 3 4 -5 54.06 2.65 0
 3 4 -4 465.98 7.25 0
 3 5 -13 71.21 4.57 0
 3 5 -12 129.95 5.74 0
 3 5 -10 3.13 1.67 0
 3 5 -9 162.07 5.76 0
 3 5 -6 13.79 2.28 0
 3 5 -5 357.07 7.14 0
 3 6 -14 122.5 6.25 0
 3 6 -13 87.57 5.11 0
 3 6 -12 69.76 4.74 0
 3 6 -11 40.46 3.77 0
 3 6 -10 256.56 7.71 0
 3 6 -9 121.23 5.29 0
 3 6 -8 55.06 3.79 0
 3 7 -15 46.07 4.64 0
 3 7 -14 5.87 2.43 0
 3 7 -13 38.87 4.57 0
 3 7 -12 36.98 3.8 0
 3 7 -11 20.44 3.05 0
 3 7 -10 98.57 5.41 0
 3 7 -9 131.7 5.79 0
 3 7 -8 21.8 2.85 0
 3 7 -7 17.27 2.74 0
 3 7 -6 53.51 3.53 0
 3 7 -5 41.95 3.3 0
 3 7 -4 15.12 2.22 0
 3 7 -3 94.67 4.27 0
 3 8 -14 77.28 5.59 0
 3 8 -13 64.39 5.3 0
 3 8 -12 97.5 5.78 0
 3 8 -11 70.17 5.27 0
 3 8 -9 36.57 3.63 0
 3 8 -8 88.79 5.04 0
 3 8 -7 8.18 2.18 0
 3 8 -6 211.61 6.87 0
 3 8 -4 282.84 7.66 0
 3 8 -3 33.24 3.15 0
 3 9 -15 34.21 4.52 0
 3 9 -14 22.92 4.17 0
 3 9 -13 141.43 7.49 0
 3 9 -12 136.62 7 0
 3 9 -11 17.27 3.72 0
 3 9 -10 22.03 3.6 0
 3 9 -9 24.3 3.77 0
 3 9 -7 42.87 4.1 0
 3 9 -6 113.44 5.72 0
 3 9 -5 53.71 4.02 0
 3 9 -3 41.61 3.55 0
 3 10 -15 27.12 4.53 0
 3 10 -14 8.5 3.65 0
 3 10 -13 14.78 3.64 0
 3 10 -12 7.14 3.06 0
 3 10 -11 40.2 4.54 0
 3 10 -10 0.18 2.29 0
 3 10 -9 53.42 5.06 0
 3 10 -8 48.1 4.41 0
 3 10 -5 72.43 4.73 0
 3 10 -4 9.48 2.54 0
 3 10 -3 6.24 2.5 0
 3 10 -2 120.47 5.99 0
 3 11 -13 53.64 5.28 0
 3 11 -12 12.88 3.48 0
 3 11 -11 29.87 4.52 0
 3 11 -10 21.17 3.84 0
 3 11 -8 66.17 5.37 0
 3 11 -7 51.34 4.86 0
 3 11 -6 66 5.24 0
 3 11 -5 50.59 4.7 0
 3 11 -3 9.15 2.68 0
 3 11 -2 61.95 4.55 0
 3 11 -1 543.14 12.2 0
 3 12 -12 53.08 5.44 0
 3 12 -11 40.3 5.08 0
 3 12 -10 5.39 3.15 0
 3 12 -9 20.83 4.14 0
 3 12 -8 -0.67 3.09 0
 3 12 -7 98.42 6.62 0
 3 12 -5 127.46 6.76 0
 3 12 -2 87.16 5.71 0
 3 13 -10 25.31 4.61 0
 3 13 -8 77.57 6.5 0
 3 13 -7 11.77 3.58 0
 3 13 -6 22.2 4.24 0
 3 13 -5 114.77 6.8 0
 3 13 -3 -1.49 2.45 0
 3 13 -2 80.13 5.65 0
 3 13 -1 104.45 6.61 0
 3 13 0 41.13 5.1 0
 3 14 -8 2.75 3.06 0
 3 14 -6 49.66 5.67 0
 3 14 -5 33.25 4.71 0
 3 14 -4 11.08 3.86 0
 3 14 -3 40.41 4.98 0
 3 14 -2 117.74 7.23 0
 3 14 -1 2.64 3.16 0
 3 14 0 4.51 3.52 0
 3 14 2 127.43 7.48 0
 3 15 -5 7.6 3.41 0
 3 15 -4 10.23 3.44 0
 3 15 -3 31.25 4.79 0
 3 15 -2 -0.3 2.42 0
 3 15 0 52.52 5.9 0
 3 15 1 35.85 4.81 0
 3 15 2 0.04 2.62 0
 3 15 3 24.77 4.69 0
 4 -2 -2 33.38 0.78 0
 4 0 -6 44.63 1.19 0
 4 0 -5 5.34 0.57 0
 4 0 -4 8.47 0.61 0
 4 1 -5 333.81 4.37 0
 4 1 -4 102.29 2.47 0
 4 2 -8 88.35 3 0
 4 2 -7 188.95 4.2 0
 4 2 -6 128.24 3.37 0
 4 3 -8 0.02 0.87 0
 4 3 -6 75.85 3.02 0
 4 3 -5 450 6.81 0
 4 3 -4 58.36 2.54 0
 4 4 -6 53.18 2.89 0
 4 4 -5 657.57 9.04 0
 4 4 -4 291.19 5.99 0
 4 5 -10 7.66 1.89 0
 4 5 -9 131.28 5.1 0
 4 6 -10 210.31 7.01 0
 4 6 -8 23.53 2.65 0
 4 6 -7 80.16 4.2 0
 4 6 -5 30.58 2.83 0
 4 7 -11 174.93 6.94 0
 4 7 -10 54.92 4.29 0
 4 7 -9 101.68 5.11 0
 4 7 -8 167.95 6.42 0
 4 7 -7 402.04 9.18 0
 4 7 -6 45.07 3.65 0
 4 7 -5 288.65 7.67 0
 4 7 -4 146.24 5.44 0
 4 8 -12 191.61 7.75 0
 4 8 -11 33 3.98 0
 4 8 -10 79.79 5.03 0
 4 8 -9 17.46 3.02 0
 4 8 -8 6.83 2.35 0
 4 8 -7 123.82 5.72 0
 4 8 -6 41.13 3.86 0
 4 8 -5 71.95 4.56 0
 4 8 -3 18.99 2.67 0
 4 9 -13 4.61 2.32 0
 4 9 -11 44.31 4.4 0
 4 9 -10 127.2 6.62 0
 4 9 -9 6.75 2.73 0
 4 9 -8 217.06 8.03 0
 4 9 -7 60.84 4.45 0
 4 9 -6 6.89 2.32 0
 4 9 -5 5.74 2.48 0
 4 9 -4 131.57 5.89 0
 4 9 -3 11.04 2.52 0
 4 10 -13 1.49 2.39 0
 4 10 -11 0.07 2.36 0
 4 10 -10 37.78 4.51 0
 4 10 -9 14.49 3.34 0
 4 10 -8 113.5 6.26 0
 4 10 -7 66.7 5.15 0
 4 10 -6 160.92 6.97 0
 4 10 -5 40.06 3.87 0
 4 10 -3 53.83 4.47 0
 4 10 -2 169.9 6.9 0
 4 11 -13 29.59 4.68 0
 4 11 -12 56.47 5.66 0
 4 11 -11 15.65 3.86 0
 4 11 -10 24.86 4.15 0
 4 11 -9 0.43 2.46 0
 4 11 -8 185.94 8.34 0
 4 11 -7 46.81 5.26 0
 4 11 -6 72.06 5.41 0
 4 11 -4 137.24 6.95 0
 4 11 -3 17.2 3.45 0
 4 11 -2 15.7 3.28 0
 4 12 -11 28.16 4.72 0
 4 12 -8 135.37 7.62 0
 4 12 -7 97.54 6.63 0
 4 12 -6 171.24 8.16 0
 4 12 -5 8.03 2.97 0
 4 12 -4 10.27 3.03 0
 4 12 -3 19.68 4 0
 4 12 -2 110.66 6.38 0
 4 12 -1 7.76 2.82 0
 4 13 -9 0.78 2.93 0
 4 13 -8 3.44 3 0
 4 13 -7 -1.85 2.17 0
 4 13 -6 51.91 5.47 0
 4 13 -4 26.56 4.25 0
 4 13 -3 17.09 3.56 0
 4 13 -2 35.43 4.78 0
 4 13 -1 100.34 6.71 0
 4 14 -6 104.61 7.1 0
 4 14 -5 68.99 6.08 0
 4 14 -4 133.13 7.86 0
 4 14 -3 5.21 3.25 0
 4 14 -2 72.18 6.2 0
 4 14 -1 14.52 3.78 0
 4 14 0 31.53 4.94 0
 4 14 1 11.8 3.41 0
 5 -2 -2 30.62 0.83 0
 5 2 -5 102.21 2.95 0
 5 2 -4 1020.61 9.32 0
 5 3 -5 14.67 1.52 0
 5 3 -4 35.44 2.18 0
 5 4 -6 16.33 1.73 0
 5 4 -5 308.38 6.41 0
 5 4 -4 87.22 3.5 0
 5 5 -7 70.62 3.59 0
 5 6 -7 5.43 1.76 0
 5 6 -6 225.61 6.56 0
 5 6 -5 55 3.41 0
 5 7 -8 41.1 3.57 0
 5 7 -7 19.11 2.77 0
 5 7 -6 113.69 5.15 0
 5 7 -5 43.35 3.62 0
 5 8 -9 52.09 4.07 0
 5 8 -8 245.65 8 0
 5 8 -7 55.59 4.3 0
 5 8 -6 50.55 4.14 0
 5 8 -5 15.32 2.77 0
 5 8 -4 27.81 3.45 0
 5 8 -3 66.53 4.46 0
 5 9 -10 1.74 2.1 0
 5 9 -9 237.93 8.57 0
 5 9 -8 3.27 2.1 0
 5 9 -7 30.98 3.78 0
 5 9 -6 11.28 2.7 0
 5 9 -4 25.48 3.53 0
 5 9 -3 324.68 9.26 0
 5 10 -9 12.19 3.35 0
 5 10 -8 2.3 2.33 0
 5 10 -7 -0.37 2.33 0
 5 10 -5 22.94 3.76 0
 5 10 -4 79.05 5.48 0
 5 10 -3 145.02 6.73 0
 5 10 -2 33.76 4.09 0
 5 11 -10 55.58 5.34 0
 5 11 -9 138.71 7.21 0
 5 11 -8 10.15 3.25 0
 5 11 -7 2.21 2.56 0
 5 11 -6 10.08 3.05 0
 5 11 -4 40.27 4.62 0
 5 11 -3 23.04 3.79 0
 5 11 -2 6.47 3.13 0
 5 12 -9 4.79 3.2 0
 5 12 -8 135.04 7.64 0
 5 12 -6 18.4 3.71 0
 5 12 -5 1.25 2.48 0
 5 12 -4 134.41 7.16 0
 5 12 -3 13.7 3.66 0
 5 12 -2 12.7 3.23 0
 5 12 -1 63.81 5.52 0
 5 13 -5 24.25 4.21 0
 5 13 -4 15.96 3.58 0
 5 13 -3 53.58 5.33 0
 5 13 -2 2.08 3.08 0
 5 13 -1 12.74 3.67 0
 5 13 0 3.48 3.31 0
 5 14 -1 95.85 6.9 0
 5 14 0 69.17 6.33 0
 6 6 -4 3.43 1.54 0
 6 7 -4 232.55 7.24 0
 6 7 -3 41.42 3.47 0
 6 8 -5 17.51 2.87 0
 6 8 -3 14.02 2.96 0
 6 9 -6 7.85 2.31 0
 6 9 -5 53.8 4.51 0
 6 9 -4 19.24 3.06 0
 6 9 -3 51.31 4.59 0
 6 10 -7 15.19 3.09 0
 6 10 -6 151.83 7.02 0
 6 10 -5 8.62 2.77 0
 6 10 -4 46.69 4.76 0
 6 10 -3 6.11 2.77 0
 6 10 -2 147.52 7.21 0
 6 11 -7 93.62 6.23 0
 6 11 -6 7.44 3.11 0
 6 11 -5 9.43 2.95 0
 6 11 -4 91.19 6.07 0
 6 11 -3 62.1 5.37 0
 6 11 -2 11.64 3.37 0
 6 11 -1 26.47 3.86 0
 6 12 -7 35.7 4.68 0
 6 12 -6 198 8.72 0
 6 12 -4 5.91 2.81 0
 6 12 -3 20.27 3.99 0
 6 12 -2 38.93 4.63 0
 6 12 -1 3.32 2.55 0
 7 9 -2 11.29 3.03 0
 7 10 -3 73.56 5.36 0
 7 10 -2 40.45 4.74 0
 7 11 -3 0.51 2.33 0
 7 11 -2 6.88 2.86 0
 7 11 -1 163.44 7.9 0
 -1 3 1 1083.51 7.91 0
 -1 3 2 371.69 4.38 0
 -1 3 3 786.82 5.83 0
 -1 4 -1 639.51 7.89 0
 -1 4 0 726.11 7.89 0
 -1 4 1 617.81 6.99 0
 -1 4 2 1603.97 10.55 0
 -1 4 3 222.73 3.81 0
 -1 4 4 69.74 2.14 0
 -1 5 -2 689.03 9.17 0
 -1 5 0 386.29 6.47 0
 -1 5 1 95.99 3.24 0
 -1 5 2 718.99 8.12 0
 -1 5 3 1856.58 12.45 0
 -1 5 4 191.95 3.96 0
 -1 5 5 86.4 2.51 0
 -1 5 6 49.79 1.85 0
 -1 6 -1 526.55 8.62 0
 -1 6 0 336.11 6.63 0
 -1 6 1 540.77 8.23 0
 -1 6 2 147.25 4.28 0
 -1 6 3 20.86 1.83 0
 -1 6 4 204.88 4.57 0
 -1 6 5 76.07 2.76 0
 -1 6 6 81.85 2.76 0
 -1 7 -2 43.4 2.96 0
 -1 7 -1 170.78 5.35 0
 -1 7 1 169.88 5.19 0
 -1 7 2 39.89 2.8 0
 -1 7 3 2.31 1.22 0
 -1 7 4 810.63 10.06 0
 -1 7 5 501.72 7.62 0
 -1 7 6 37.26 2.33 0
 -1 7 7 86.85 3 0
 -1 8 2 203.07 6 0
 -1 8 3 289.08 6.79 0
 -1 8 4 7.64 1.7 0
 -1 8 5 212.18 5.5 0
 -1 8 7 39.51 2.52 0
 -1 9 -4 286.02 8.53 0
 -1 9 -3 464.11 10.75 0
 -1 9 -2 57.25 4.18 0
 -1 9 0 961.86 14.17 0
 -1 9 7 25.13 2.49 0
 -1 10 -3 530.31 11.97 0
 -1 10 -2 284.33 8.91 0
 -1 10 -1 174.79 6.91 0
 -1 10 1 179.87 6.81 0
 -1 10 2 280.74 8 0
 -1 10 3 540.42 10.74 0
 -1 10 4 128.17 5.32 0
 -1 10 5 261.69 7.18 0
 -1 10 6 126.55 5 0
 -1 11 -2 89.76 5.46 0
 -1 11 -1 10.66 2.91 0
 -1 11 0 -1.6 1.67 0
 -1 11 1 5.45 2.35 0
 -1 11 2 81.73 5.14 0
 -1 11 3 30.34 3.55 0
 -1 11 5 82.57 4.73 0
 -1 11 7 42.58 3.51 0
 -1 12 -1 5.92 2.66 0
 -1 12 0 156.6 7.39 0
 -1 12 1 4.11 2.44 0
 -1 12 2 43.19 4.54 0
 -1 12 3 9.31 2.78 0
 -1 12 4 47.86 4.09 0
 -1 12 5 4.92 2.22 0
 -1 12 6 6.16 2.24 0
 -1 13 1 140.15 7.27 0
 -1 13 2 86.95 6 0
 -1 13 3 27.86 4.05 0
 0 -2 -1 541.4 4.36 0
 0 -1 2 637.55 4.37 0
 0 0 5 1.23 0.47 0
 0 1 -3 13.27 0.98 0
 0 2 -4 1475.06 9.66 0
 0 2 -3 978.44 7.38 0
 0 2 -2 443.99 4.74 0
 0 2 -1 523.75 4.71 0
 0 2 0 4679.97 13.06 0
 0 2 1 532.07 4.22 0
 0 2 2 428.48 3.66 0
 0 2 3 990.7 5.54 0
 0 2 4 1419.94 6.61 0
 0 3 -5 1644.9 12.18 0
 0 3 -4 1258.92 10.22 0
 0 3 -3 2763.68 14.43 0
 0 3 -2 662.45 6.75 0
 0 3 0 -0.04 0.69 0
 0 3 1 1175.78 7.89 0
 0 3 2 656.99 5.72 0
 0 3 3 2691 11.19 0
 0 3 4 1235.8 7.48 0
 0 3 5 1633.76 8.47 0
 0 3 6 58.26 1.69 0
 0 3 7 7.5 0.89 0
 0 3 8 185.78 2.79 0
 0 3 9 0.7 0.4 0
 0 3 10 40.8 1.15 0
 0 4 -5 439.07 7.07 0
 0 4 -4 704.36 8.64 0
 0 4 -3 379.21 6.13 0
 0 4 -2 664.24 7.78 0
 0 4 -1 280.69 4.86 0
 0 4 1 288.69 4.69 0
 0 4 2 682.12 7.02 0
 0 4 3 381.8 5.12 0
 0 4 4 730.25 6.84 0
 0 4 5 448.69 5.25 0
 0 4 6 34.21 1.56 0
 0 4 7 1.68 0.62 0
 0 4 8 202.89 3.3 0
 0 4 9 125.47 2.47 0
 0 4 10 154.66 2.34 0
 0 5 -7 34.63 2.68 0
 0 5 -6 1505.13 14.72 0
 0 5 -4 78.81 3.43 0
 0 5 -3 193.92 4.91 0
 0 5 -2 519.16 7.66 0
 0 5 -1 751.8 8.94 0
 0 5 0 0.69 1.01 0
 0 5 1 739.78 8.36 0
 0 5 2 524.26 6.95 0
 0 5 3 181.77 4.14 0
 0 5 4 84.68 2.76 0
 0 5 5 1346.14 10.36 0
 0 5 6 1533.22 10.78 0
 0 5 7 35.33 1.85 0
 0 5 8 112.24 2.81 0
 0 5 9 396.88 4.85 0
 0 5 10 46.46 1.59 0
 0 6 -5 -0.09 1.24 0
 0 6 -1 1000.87 11.31 0
 0 6 0 6.96 1.56 0
 0 6 1 996.67 10.8 0
 0 6 2 68.15 2.95 0
 0 6 3 229.82 5.09 0
 0 6 4 86.49 3.19 0
 0 6 5 -0.4 0.97 0
 0 6 6 667.35 8.02 0
 0 6 7 414.1 6.18 0
 0 6 8 130.43 3.42 0
 0 6 9 -0.31 0.66 0
 0 6 10 141.22 3.1 0
 0 7 -1 399.26 7.91 0
 0 7 0 0.07 1.2 0
 0 7 1 425.25 7.82 0
 0 7 2 3.66 1.35 0
 0 7 5 133.06 4.21 0
 0 7 6 299.74 6.03 0
 0 7 7 330.54 6.12 0
 0 7 8 298.14 5.64 0
 0 7 9 16.25 1.61 0
 0 7 10 332.79 5.33 0
 0 8 -7 21.51 3.09 0
 0 8 -6 412.32 9.8 0
 0 8 -4 162.86 5.95 0
 0 8 4 164.56 5.28 0
 0 8 5 515.89 8.76 0
 0 8 6 408.87 7.71 0
 0 8 8 123.28 4.05 0
 0 8 9 0.45 1.03 0
 0 8 10 12.49 1.55 0
 0 9 -7 31.59 3.61 0
 0 9 -5 65.81 4.74 0
 0 9 -4 78.22 4.72 0
 0 9 -3 239.94 7.52 0
 0 9 -2 30.4 3.05 0
 0 9 -1 67.77 4.24 0
 0 9 1 60.79 3.8 0
 0 10 -5 0.17 2 0
 0 10 -4 14.73 3.06 0
 0 10 -2 282.48 8.56 0
 0 10 -1 62.39 4.32 0
 0 10 1 63.31 4.48 0
 0 10 2 276.55 8.06 0
 0 10 3 25.53 3.06 0
 0 10 4 19.27 2.75 0
 0 10 5 1.45 1.68 0
 0 10 6 346.39 8.29 0
 0 10 7 32.5 3.18 0
 0 10 9 126.04 4.74 0
 0 11 -7 100.26 6.25 0
 0 11 -6 20.16 3.82 0
 0 11 -5 13.39 2.91 0
 0 11 -4 -0.95 1.96 0
 0 11 -3 9.41 2.95 0
 0 11 -2 132.89 6.55 0
 0 11 -1 83.69 5.33 0
 0 11 0 -0.15 1.96 0
 0 11 1 81.31 5.01 0
 0 11 3 13.64 2.77 0
 0 11 4 -1.14 1.66 0
 0 11 5 11.64 2.45 0
 0 11 7 95.29 4.96 0
 0 11 8 9.68 2.09 0
 0 12 -5 9.3 3.16 0
 0 12 -4 0.91 2.3 0
 0 12 -2 84.16 5.66 0
 0 12 0 3.23 2.82 0
 0 12 2 86.63 5.4 0
 0 12 4 0.41 2.16 0
 0 12 5 6.13 2.37 0
 0 12 6 6.6 2.68 0
 0 12 7 687.67 12.83 0
 0 12 8 39.33 3.62 0
 0 13 -5 102.14 7.16 0
 0 13 -4 1.15 2.97 0
 0 13 -3 1.69 3.04 0
 0 13 -2 3.43 2.9 0
 0 13 -1 49.68 4.9 0
 0 13 0 0.23 2.4 0
 0 13 1 43.41 4.73 0
 0 13 2 2.9 2.53 0
 0 13 3 3.3 2.87 0
 0 13 4 0.56 2.66 0
 0 13 5 104.67 5.91 0
 0 13 6 5.91 2.53 0
 0 13 7 7.98 2.49 0
 0 14 -2 110.81 7.46 0
 0 14 -1 101.16 7.03 0
 0 14 0 -0.42 2.99 0
 0 14 1 101.12 6.62 0
 0 14 2 107.32 7 0
 0 14 3 57.3 5.52 0
 0 14 4 114.54 6.77 0
 0 14 5 45.5 4.63 0
 0 14 6 32.22 3.91 0
 0 14 7 8.36 2.7 0
 0 15 -3 57.96 5.96 0
 0 15 -2 156.7 8.75 0
 0 15 -1 4 3.09 0
 0 15 1 2.72 3.46 0
 0 15 2 163.41 8.47 0
 0 15 3 48.74 5.7 0
 0 15 4 66.26 5.96 0
 0 15 5 5.08 2.69 0
 0 15 6 91.45 5.94 0
 0 16 0 15.63 4.15 0
 0 16 1 2.56 3.38 0
 0 16 2 -2.45 2.43 0
 0 16 3 17.93 3.96 0
 0 16 4 125.75 7.58 0
 1 -3 -4 281.66 3.11 0
 1 0 -5 1551.11 5.67 0
 1 0 -3 1245.56 5.02 0
 1 1 -6 383.63 4.26 0
 1 1 -5 2305.94 9.77 0
 1 1 -4 615.2 4.95 0
 1 1 -3 9691.59 19 0
 1 1 -2 201.29 2.87 0
 1 2 -7 339.93 5.09 0
 1 2 -6 930.54 8.01 0
 1 2 -4 1709.09 10.05 0
 1 2 -3 494.26 5.38 0
 1 2 -2 3961.23 14.66 0
 1 2 0 150.22 2.98 0
 1 3 -6 629.63 7.59 0
 1 3 -4 278.44 4.8 0
 1 3 -3 792.72 7.92 0
 1 3 -2 373.97 5.38 0
 1 3 -1 1066.97 8.78 0
 1 3 0 60.83 2.4 0
 1 3 2 373.53 5.24 0
 1 4 -9 520.8 8.38 0
 1 4 -8 1015.02 11.31 0
 1 4 -5 106.16 3.51 0
 1 4 -4 70.88 2.94 0
 1 4 -3 225.06 4.78 0
 1 4 -2 1600.19 12.4 0
 1 4 0 686.98 7.94 0
 1 4 1 636.92 7.58 0
 1 4 2 1678.98 12.32 0
 1 4 5 115.3 3.43 0
 1 4 6 548.02 7.16 0
 1 4 7 391.64 6.12 0
 1 4 8 996.04 9.71 0
 1 4 9 532.2 7.18 0
 1 4 11 11.03 1.44 0
 1 4 12 110.36 3.18 0
 1 5 -7 525.58 8.79 0
 1 5 -6 51.3 2.89 0
 1 5 -3 1870.03 14.95 0
 1 5 -2 686.43 9.04 0
 1 5 -1 101.51 3.63 0
 1 5 1 98.04 3.45 0
 1 5 2 694.54 8.67 0
 1 5 3 1825.6 13.91 0
 1 5 4 185.06 4.59 0
 1 5 5 88.7 3.31 0
 1 5 6 48.88 2.67 0
 1 5 7 531.51 7.67 0
 1 5 9 260.53 5.34 0
 1 5 10 24.14 1.85 0
 1 5 11 427.68 6.42 0
 1 5 12 107.24 3.21 0
 1 6 -5 73.33 3.72 0
 1 6 -4 192.97 5.54 0
 1 6 0 335.42 6.81 0
 1 6 1 556.29 8.71 0
 1 6 2 153.66 4.59 0
 1 6 3 21.39 2 0
 1 6 4 202.32 5.22 0
 1 6 5 69 3.19 0
 1 6 6 83.76 3.55 0
 1 6 7 93.25 3.59 0
 1 6 8 411.08 7.09 0
 1 6 9 163.26 4.54 0
 1 6 10 15.49 1.92 0
 1 6 11 19.44 1.79 0
 1 7 -10 20.31 2.81 0
 1 7 -9 55.68 3.82 0
 1 7 -7 84.02 4.53 0
 1 7 0 126.79 4.73 0
 1 7 1 175.02 5.38 0
 1 7 2 41.21 2.82 0
 1 7 3 0.21 1.43 0
 1 7 4 839.38 11.23 0
 1 7 5 495.41 8.59 0
 1 7 6 36.32 2.61 0
 1 7 7 87.7 3.69 0
 1 7 8 93.65 3.87 0
 1 7 9 57.95 3.12 0
 1 7 10 20.71 2.15 0
 1 8 -10 158.72 6.69 0
 1 8 -9 37.08 3.74 0
 1 8 -7 44.59 3.96 0
 1 8 -6 20.83 2.91 0
 1 8 -4 11.47 2.07 0
 1 9 -10 8.18 2.61 0
 1 9 -8 87.51 5.25 0
 1 9 -7 22.2 3.34 0
 1 9 -5 218.92 7.55 0
 1 9 -4 297.1 8.48 0
 1 9 -3 472.42 10.74 0
 1 9 -2 60.21 3.99 0
 1 9 -1 338.56 8.58 0
 1 9 0 945.64 14.07 0
 1 9 1 332.68 8.36 0
 1 9 2 62.14 3.84 0
 1 9 3 485.98 9.92 0
 1 9 4 307.04 7.8 0
 1 9 5 224.64 6.84 0
 1 9 6 13.53 2.42 0
 1 9 7 22.59 2.77 0
 1 9 8 81.72 4.14 0
 1 9 9 263.99 6.74 0
 1 9 10 8.92 1.88 0
 1 10 -8 11.32 3.02 0
 1 10 -7 5.52 2.6 0
 1 10 -6 130.31 6.57 0
 1 10 -5 256.06 8.71 0
 1 10 -3 530.66 11.85 0
 1 10 -2 283.72 8.58 0
 1 10 -1 183.58 6.86 0
 1 10 0 -0.55 1.7 0
 1 10 1 175.49 6.56 0
 1 10 2 278.46 8.19 0
 1 10 4 127.75 5.58 0
 1 10 6 120.99 5.28 0
 1 10 7 7.11 2.1 0
 1 10 8 9.25 2.09 0
 1 10 9 78.4 4.26 0
 1 10 10 85.88 4.25 0
 1 11 -9 11.15 3.54 0
 1 11 -8 34.69 4.59 0
 1 11 -7 44.8 5.04 0
 1 11 -6 82.62 5.64 0
 1 11 -4 120.98 6.55 0
 1 11 -3 27.9 3.99 0
 1 11 -2 78.26 5.35 0
 1 11 0 -1.05 1.89 0
 1 11 1 9.83 2.72 0
 1 11 2 87.7 5.14 0
 1 11 3 23.47 3.58 0
 1 11 4 121.17 5.77 0
 1 11 5 85.31 5.04 0
 1 11 6 84.3 4.8 0
 1 11 7 46.01 3.95 0
 1 11 8 35.55 3.56 0
 1 11 9 8.33 2.14 0
 1 12 -9 46.45 5.56 0
 1 12 -8 43.59 4.94 0
 1 12 -7 69.64 6.07 0
 1 12 -6 9.13 3.14 0
 1 12 -5 8.83 3.09 0
 1 12 -4 46.43 4.69 0
 1 12 -3 12.96 3.4 0
 1 12 -2 49.25 4.7 0
 1 12 -1 3.85 2.6 0
 1 12 0 152.06 7.39 0
 1 12 1 1.95 2.51 0
 1 12 2 50.85 4.93 0
 1 12 3 15.37 3.07 0
 1 12 4 50.7 4.76 0
 1 12 5 3.27 2.64 0
 1 12 6 12.82 2.75 0
 1 12 9 37.4 3.64 0
 1 13 -8 107.97 7.54 0
 1 13 -7 21.74 4.71 0
 1 13 -6 4.37 2.92 0
 1 13 -5 150.08 8 0
 1 13 -3 24.99 4.26 0
 1 13 -2 87.72 6.16 0
 1 13 -1 125.84 7.4 0
 1 13 0 27.48 4.47 0
 1 13 1 131.04 7.35 0
 1 13 3 25.03 4.17 0
 1 13 4 89.92 5.92 0
 1 13 5 156.13 7.39 0
 1 13 6 6.01 2.71 0
 1 13 7 18.22 3.42 0
 1 13 8 124.96 6.32 0
 1 14 -7 15.78 4.45 0
 1 14 -6 52.28 6.31 0
 1 14 -5 11.29 4.22 0
 1 14 -4 16.2 4.08 0
 1 14 -3 130.09 7.78 0
 1 14 -2 5.13 3.29 0
 1 14 -1 35.74 5.35 0
 1 14 0 3.79 3.44 0
 1 14 1 36.85 4.81 0
 1 14 2 9.2 3.22 0
 1 14 3 121.12 7.24 0
 1 14 4 20.87 3.86 0
 1 14 5 12.79 3.38 0
 1 14 6 47.59 5.26 0
 1 14 7 15.14 3.28 0
 1 15 -6 88.64 7.44 0
 1 15 -5 39.95 5.64 0
 1 15 -4 47.47 6.13 0
 1 15 -3 8.69 3.68 0
 1 15 -2 36.04 5.46 0
 1 15 -1 74.12 6.71 0
 1 15 1 72.02 6.27 0
 1 15 2 37.21 5.32 0
 1 15 3 8.89 3.34 0
 1 15 4 45.88 5.28 0
 1 15 5 47.34 5.29 0
 1 15 6 90.48 6.02 0
 1 16 -4 4.74 3.5 0
 1 16 -3 18.34 4.76 0
 1 16 -2 4.48 3.49 0
 1 16 -1 128.57 8.44 0
 1 16 0 19.72 4.82 0
 1 16 1 147.68 8.39 0
 1 16 2 11.65 4.15 0
 1 16 3 21.64 4.53 0
 1 16 4 1.47 3.23 0
 1 16 5 2.7 2.49 0
 1 16 6 30.95 4.7 0
 2 -2 -5 128.76 1.93 0
 2 0 -7 416.66 3.52 0
 2 0 -6 775.69 5.22 0
 2 0 -5 53.27 1.6 0
 2 1 -7 330.75 4.22 0
 2 1 -6 463.3 5.1 0
 2 1 -5 525.63 5.52 0
 2 1 -4 358.13 4.78 0
 2 2 -7 74.32 2.49 0
 2 2 -6 39.17 1.92 0
 2 2 -5 120.7 3.11 0
 2 2 -4 1026.36 8.9 0
 2 3 -10 81.79 3.08 0
 2 3 -9 94.2 3.3 0
 2 3 -8 8.33 1.38 0
 2 3 -5 332.74 5.73 0
 2 3 -4 1803.33 13.13 0
 2 3 -2 1217.1 11 0
 2 3 -1 1046.67 10.12 0
 2 4 -10 96.36 3.8 0
 2 4 -9 0.77 1.3 0
 2 4 -8 218.3 5.37 0
 2 4 -7 108.45 3.76 0
 2 4 -6 251.19 5.53 0
 2 4 -3 712.43 9.08 0
 2 4 -2 17.24 1.82 0
 2 4 -1 29.88 2.26 0
 2 4 0 150.07 4.34 0
 2 5 -9 39.16 2.93 0
 2 5 -8 293.5 6.79 0
 2 5 -7 471.06 8.43 0
 2 5 -6 22.29 2.24 0
 2 5 -5 335.66 7.03 0
 2 5 -4 122.72 4.28 0
 2 5 -1 435.74 7.71 0
 2 5 1 475.38 8.21 0
 2 5 2 286.94 6.43 0
 2 5 5 330.94 6.98 0
 2 5 6 18.69 2.33 0
 2 5 7 466.67 8.24 0
 2 5 8 279.13 6.45 0
 2 5 9 31.84 2.74 0
 2 6 -11 73.12 4.17 0
 2 6 -4 27.81 2.73 0
 2 6 -3 662.07 10.45 0
 2 6 1 50.78 3.01 0
 2 6 2 294.21 6.87 0
 2 6 4 28.06 2.52 0
 2 6 5 275.93 6.79 0
 2 6 7 42.92 3.05 0
 2 7 -11 13.52 2.47 0
 2 7 -9 152.31 6.1 0
 2 7 -7 213.41 6.85 0
 2 7 -6 35.87 3.28 0
 2 7 11 12.2 2.23 0
 2 7 12 42.31 3.06 0
 2 8 -11 96.39 5.25 0
 2 8 -10 84.37 5.18 0
 2 8 -9 111.33 5.76 0
 2 8 -8 123.02 5.77 0
 2 8 -7 266.59 8.17 0
 2 8 -5 118.7 5.35 0
 2 8 -3 130.29 5.43 0
 2 8 -2 432.85 9.57 0
 2 8 -1 470.37 9.95 0
 2 8 0 8.21 1.89 0
 2 8 1 475.08 9.89 0
 2 8 2 412.77 9.15 0
 2 8 3 136.86 5.6 0
 2 8 4 155.86 5.85 0
 2 8 5 114.84 5.06 0
 2 8 6 170.09 6.05 0
 2 8 7 266.41 7.3 0
 2 8 8 122.03 5.21 0
 2 8 9 114.84 4.94 0
 2 8 10 90.98 4.49 0
 2 8 11 102.62 4.52 0
 2 9 -10 3.58 2.52 0
 2 9 -9 88.95 5.65 0
 2 9 -8 48.89 4.48 0
 2 9 -7 43.6 4.21 0
 2 9 -6 135.86 6.19 0
 2 9 -5 556.28 11.81 0
 2 9 -3 237.06 7.62 0
 2 9 -1 54.78 4.14 0
 2 9 1 50.16 4.25 0
 2 9 2 92.76 4.91 0
 2 9 3 236.45 7.49 0
 2 9 4 66.95 4.39 0
 2 9 5 565.13 11.23 0
 2 9 7 43.32 3.66 0
 2 9 8 50.64 3.79 0
 2 9 9 93.45 4.64 0
 2 9 10 4.84 1.95 0
 2 9 11 28.8 3.19 0
 2 10 -10 30.7 4.44 0
 2 10 -9 78.86 5.38 0
 2 10 -8 4.79 2.93 0
 2 10 -7 14.67 3.24 0
 2 10 -5 -0.66 2.28 0
 2 10 -4 30.54 3.65 0
 2 10 -3 40.37 4.09 0
 2 10 -2 265.8 8.51 0
 2 10 -1 50.44 4.19 0
 2 10 0 3.98 2.01 0
 2 10 1 49.92 4.32 0
 2 10 2 262.16 8.41 0
 2 10 3 38.23 3.72 0
 2 10 4 39.27 3.98 0
 2 10 5 -0.13 1.79 0
 2 10 6 281.41 8.39 0
 2 10 7 13.22 2.73 0
 2 10 8 6.73 2.5 0
 2 10 9 81.78 4.86 0
 2 10 10 28.87 3.46 0
 2 11 -11 30.89 4.57 0
 2 11 -10 39.24 4.69 0
 2 11 -9 39.05 5 0
 2 11 -8 247.53 9.55 0
 2 11 -7 4.85 3.02 0
 2 11 -6 60.8 5.34 0
 2 11 -5 101.11 6.08 0
 2 11 -4 21.83 3.61 0
 2 11 -3 70.07 5.3 0
 2 11 -2 38.91 4.6 0
 2 11 0 214.54 7.99 0
 2 11 2 41.9 4.41 0
 2 11 3 80.01 5.43 0
 2 11 4 20.14 3.28 0
 2 11 6 70.79 5.05 0
 2 11 7 7.94 2.46 0
 2 11 8 253.85 8.24 0
 2 11 9 37.35 3.88 0
 2 12 -10 39.49 5.31 0
 2 12 -9 49.87 5.8 0
 2 12 -7 34.9 4.99 0
 2 12 -6 104.14 6.62 0
 2 12 -4 46.7 5.1 0
 2 12 -2 173.45 8.07 0
 2 12 -1 100.77 6.08 0
 2 12 0 20.8 3.93 0
 2 12 1 105.49 6.48 0
 2 12 2 176.71 7.8 0
 2 12 3 21.33 3.77 0
 2 12 4 53.02 4.53 0
 2 12 5 9.03 2.75 0
 2 12 6 106.25 5.85 0
 2 12 7 40.91 4.56 0
 2 12 8 19.76 3.19 0
 2 12 9 59.75 4.49 0
 2 13 -10 178.61 9.07 0
 2 13 -9 25.99 4.57 0
 2 13 -8 80.96 6.86 0
 2 13 -7 97.96 6.87 0
 2 13 -5 46.9 5.33 0
 2 13 -4 46.39 5.34 0
 2 13 -3 69.03 6.12 0
 2 13 -2 23.83 4.09 0
 2 13 1 2.27 2.57 0
 2 13 2 26.34 4.06 0
 2 13 3 57.72 5.53 0
 2 13 4 45.25 4.9 0
 2 13 5 50.02 4.66 0
 2 13 6 16.58 3.33 0
 2 13 7 92.75 6.03 0
 2 13 8 84.92 5.69 0
 2 14 -9 29.76 5.14 0
 2 14 -8 60.49 6.82 0
 2 14 -7 26.46 4.99 0
 2 14 -6 10.21 3.81 0
 2 14 -5 57.56 5.81 0
 2 14 -1 -0.81 3.36 0
 2 14 0 -0.02 3.1 0
 2 14 1 0.7 3.31 0
 2 14 2 83.03 6.38 0
 2 14 4 21.66 3.81 0
 2 14 5 51.99 4.97 0
 2 14 6 14.31 3.63 0
 2 14 7 23.92 3.86 0
 2 14 8 52.68 4.96 0
 2 15 -6 183.45 9.81 0
 2 15 -5 55.48 6.3 0
 2 15 -4 50.54 5.59 0
 2 15 -1 44.25 5.63 0
 2 15 0 102.49 7.31 0
 2 15 1 40.07 5.18 0
 2 15 2 59 6.13 0
 2 15 3 46.36 5.28 0
 2 15 4 46.84 5.4 0
 2 15 6 184.52 8.73 0
 2 15 7 36.54 4.64 0
 2 16 -2 0.91 3.28 0
 2 16 -1 128.17 8.28 0
 2 16 1 119.59 8.29 0
 2 16 2 -3.1 2.56 0
 2 16 3 16.78 4.17 0
 2 16 4 30.52 5.39 0
 3 -2 -7 21.47 0.92 0
 3 -2 -7 20.3 0.87 0
 3 -1 -7 1431.95 7.72 0
 3 0 -9 29.61 0.96 0
 3 0 -8 216.43 3.16 0
 3 0 -7 110.42 2.57 0
 3 0 -6 266.26 4.31 0
 3 1 -5 419.38 6.12 0
 3 2 -9 116.57 3.24 0
 3 2 -8 170.87 3.99 0
 3 3 -9 48.79 2.53 0
 3 3 -8 125.91 3.86 0
 3 3 -7 741.06 9.39 0
 3 3 -6 457.69 7.39 0
 3 3 -5 180.36 4.76 0
 3 4 -10 145.63 4.57 0
 3 4 -9 38.7 2.64 0
 3 4 -8 238.21 5.83 0
 3 4 -7 607.8 9.22 0
 3 4 -6 29.71 2.34 0
 3 4 -5 52.82 2.91 0
 3 4 -4 488.25 8.45 0
 3 4 -3 59.11 3.34 0
 3 5 -4 179.86 5.63 0
 3 5 -2 84.21 3.9 0
 3 5 -1 11.34 2.14 0
 3 5 13 78.48 4.37 0
 3 6 -10 258.42 7.19 0
 3 6 -8 48.6 3.49 0
 3 6 7 148.67 5.8 0
 3 6 8 50.09 3.85 0
 3 6 9 119.39 5.32 0
 3 6 10 252.89 7.6 0
 3 6 11 39.8 3.55 0
 3 7 -10 98.24 4.94 0
 3 7 -9 123.9 5.51 0
 3 7 -7 20.15 2.82 0
 3 7 -6 55.06 3.99 0
 3 7 -5 44.15 3.55 0
 3 7 -4 14.79 2.4 0
 3 7 -2 208.83 6.82 0
 3 7 -1 323.69 8.33 0
 3 7 1 316.19 8.21 0
 3 7 2 218.22 6.94 0
 3 7 4 15.33 2.5 0
 3 7 6 58.2 4.24 0
 3 7 8 24.16 3.05 0
 3 7 9 128.76 5.86 0
 3 7 12 34.2 3.49 0
 3 8 -11 67.98 4.71 0
 3 8 -10 32.84 3.63 0
 3 8 -9 37.77 3.95 0
 3 8 -8 79.49 5.03 0
 3 8 -7 8.88 2.63 0
 3 8 -6 208.91 7.39 0
 3 8 -5 89.76 4.9 0
 3 8 -4 284.63 8.35 0
 3 8 -2 244.09 7.72 0
 3 8 0 15.55 2.63 0
 3 8 1 299.54 8.39 0
 3 8 3 35.2 3.31 0
 3 8 4 280.39 8.25 0
 3 8 5 90.97 4.94 0
 3 8 7 7.33 2.3 0
 3 8 9 34.49 3.55 0
 3 8 10 41.09 3.83 0
 3 8 11 65.75 4.25 0
 3 9 -11 18.85 3.26 0
 3 9 -10 17.87 3.4 0
 3 9 -9 26.14 3.92 0
 3 9 -8 16.81 3.5 0
 3 9 -7 46.08 4.07 0
 3 9 -4 350.36 9.85 0
 3 9 -3 38.72 3.9 0
 3 9 -2 37.07 3.53 0
 3 9 -1 21.6 3.2 0
 3 9 0 134.51 6.27 0
 3 9 1 29.04 3.51 0
 3 9 2 38.96 3.79 0
 3 9 3 39.87 3.83 0
 3 9 4 340.99 9.42 0
 3 9 5 51.12 4.53 0
 3 9 6 121.75 5.89 0
 3 9 7 47.37 3.89 0
 3 9 8 20.94 3.11 0
 3 9 10 24.28 3.57 0
 3 9 11 24.61 3.22 0
 3 10 -12 5.99 2.4 0
 3 10 -11 35.01 4.3 0
 3 10 -10 4.02 2.53 0
 3 10 -9 50.47 5.13 0
 3 10 -8 54.12 4.78 0
 3 10 -7 12.38 3.56 0
 3 10 -6 57.16 5.05 0
 3 10 -5 82.05 5.6 0
 3 10 -4 6.15 2.56 0
 3 10 -3 5.69 2.28 0
 3 10 -2 118.46 6.18 0
 3 10 -1 165.36 7.11 0
 3 10 0 0.31 2.08 0
 3 10 1 160.73 7.15 0
 3 10 2 118.63 6.14 0
 3 10 3 5.52 2.4 0
 3 10 4 8.02 2.6 0
 3 10 5 82.75 5.64 0
 3 10 6 45.11 4.18 0
 3 10 7 12.38 2.83 0
 3 10 8 48.73 4.62 0
 3 10 9 48.53 4.3 0
 3 10 10 4.03 2.26 0
 3 10 11 42.05 4.24 0
 3 11 -12 11.85 3.3 0
 3 11 -11 23.94 4.16 0
 3 11 -10 19.87 3.83 0
 3 11 -9 382.52 11.95 0
 3 11 -8 66.56 5.41 0
 3 11 -7 56.1 5.06 0
 3 11 -6 76.58 5.51 0
 3 11 -5 49.85 5.11 0
 3 11 -4 14.01 3.21 0
 3 11 -3 9.85 3.03 0
 3 11 -2 64.14 5.38 0
 3 11 -1 525.82 12.92 0
 3 11 0 14.09 3.19 0
 3 11 1 534.11 13.06 0
 3 11 2 60.85 5.32 0
 3 11 3 13.21 3.56 0
 3 11 4 11.93 3.03 0
 3 11 5 43.41 4.54 0
 3 11 6 70.98 5.12 0
 3 11 7 53.32 4.72 0
 3 11 10 12.88 2.95 0
 3 12 -11 46.04 5.63 0
 3 12 -10 1.49 2.68 0
 3 12 -9 24.86 4.82 0
 3 12 -7 99.06 6.95 0
 3 12 -6 2.5 2.81 0
 3 12 -5 136.16 7.82 0
 3 12 -4 142.43 7.47 0
 3 12 -3 40.81 4.68 0
 3 12 -2 80.35 5.75 0
 3 12 -1 17.83 4.13 0
 3 12 0 10.07 3.24 0
 3 12 1 19.38 3.73 0
 3 12 2 84.57 6.11 0
 3 12 3 38.78 4.45 0
 3 12 5 131.66 7 0
 3 12 6 9.01 3 0
 3 12 7 100.03 6.12 0
 3 12 8 -0.06 2.4 0
 3 12 9 27.77 4.08 0
 3 12 10 5.31 2.55 0
 3 13 -11 14.96 3.91 0
 3 13 -10 23.8 4.45 0
 3 13 -9 128.74 8.19 0
 3 13 -8 72.7 6.19 0
 3 13 -6 31.15 4.86 0
 3 13 -5 113.35 7.66 0
 3 13 -4 41.96 5.63 0
 3 13 -3 2.99 3.4 0
 3 13 -2 91.27 6.81 0
 3 13 -1 113.26 6.94 0
 3 13 0 37.81 4.8 0
 3 13 1 108.76 7.13 0
 3 13 2 74.61 6.02 0
 3 13 3 5.18 3.01 0
 3 13 4 32.1 4.82 0
 3 13 7 10.35 3.46 0
 3 13 8 76.19 5.62 0
 3 13 9 132.42 6.81 0
 3 14 -8 3.49 3.67 0
 3 14 -7 27.92 4.81 0
 3 14 -6 55.53 6.3 0
 3 14 -4 11.97 4.19 0
 3 14 -3 51.32 5.95 0
 3 14 -2 115.75 7.47 0
 3 14 -1 8.38 3.47 0
 3 14 0 8.52 3.85 0
 3 14 1 2.19 3.26 0
 3 14 3 37.83 4.82 0
 3 14 4 7.58 3.3 0
 3 14 5 31.62 4.96 0
 3 14 6 49.53 5.73 0
 3 14 7 29.71 4.43 0
 3 14 8 4.16 2.87 0
 3 15 -5 12.3 4.5 0
 3 15 -4 17.83 5.04 0
 3 15 -3 27.98 4.96 0
 3 15 -2 0.09 3.46 0
 3 15 -1 28.83 5.05 0
 3 15 1 28.24 4.96 0
 3 15 2 3.25 3.43 0
 3 15 3 20.54 4.1 0
 3 15 4 15.79 4.02 0
 3 15 5 8.28 3.48 0
 3 15 7 13.2 3.57 0
 4 -1 -7 129.63 3.26 0
 4 0 -8 19.35 1.36 0
 4 0 -7 155.97 3.92 0
 4 1 -8 130.59 3.63 0
 4 1 -7 138.48 3.94 0
 4 1 -6 531.29 8 0
 4 2 -8 86.08 3.29 0
 4 2 -6 128.94 4.26 0
 4 3 -9 71.89 3.22 0
 4 3 -8 0.72 1.08 0
 4 3 -7 9.57 1.79 0
 4 3 -6 73.63 3.51 0
 4 3 -4 51.46 3.19 0
 4 3 -3 85.73 3.98 0
 4 5 -8 54.18 3.61 0
 4 5 14 23.54 3.19 0
 4 6 -9 225.08 6.91 0
 4 6 -7 72.38 4.26 0
 4 6 -6 203.58 6.92 0
 4 6 -5 30.03 3.2 0
 4 6 -4 18.98 2.9 0
 4 6 -3 29.21 3.09 0
 4 6 0 17.47 2.75 0
 4 6 2 382 9.63 0
 4 6 3 30.48 3.15 0
 4 6 4 22.32 2.98 0
 4 6 5 33.34 3.45 0
 4 6 10 223.4 7.77 0
 4 6 11 118.25 5.85 0
 4 6 12 172.22 7.13 0
 4 6 13 6.59 2.46 0
 4 7 -10 57.3 4.02 0
 4 7 -9 100.02 5.14 0
 4 7 -8 154.77 6.39 0
 4 7 -7 407.78 9.92 0
 4 7 -4 150.08 6.44 0
 4 7 0 15.36 2.75 0
 4 7 1 420.04 10.4 0
 4 7 2 150.26 6.54 0
 4 7 6 50.85 4.4 0
 4 7 8 170.55 7.11 0
 4 7 9 105.66 6.12 0
 4 7 10 55.8 4.59 0
 4 7 11 183.43 7.51 0
 4 7 12 76.91 5.37 0
 4 7 13 45.89 4.4 0
 4 8 -10 79.89 5.02 0
 4 8 -9 16.14 3.17 0
 4 8 -8 3.07 2.21 0
 4 8 -7 133.03 6.19 0
 4 8 -6 43.99 4.24 0
 4 8 -5 73.86 4.75 0
 4 8 -4 20.15 3.23 0
 4 8 -3 19.84 3.2 0
 4 8 -2 89.41 5.22 0
 4 8 -1 24.95 3.44 0
 4 8 1 24.76 3.52 0
 4 8 2 74.12 4.88 0
 4 8 4 17.8 3.32 0
 4 8 5 75.73 5.39 0
 4 8 6 43.35 4.15 0
 4 8 8 9.01 2.83 0
 4 8 10 77.83 5.27 0
 4 8 11 35.99 4.14 0
 4 8 12 185.4 7.55 0
 4 9 -10 131.08 6.79 0
 4 9 -9 9.74 3.15 0
 4 9 -8 205.61 8.18 0
 4 9 -7 63.08 4.81 0
 4 9 -6 8.53 2.79 0
 4 9 -5 7.35 2.87 0
 4 9 -4 128.55 6.69 0
 4 9 -3 8.66 2.68 0
 4 9 -2 5.7 2.52 0
 4 9 -1 4.05 2.48 0
 4 9 0 3.66 2.44 0
 4 9 2 7.98 2.39 0
 4 9 3 11.17 3.17 0
 4 9 4 129.51 6.85 0
 4 9 5 7.14 2.67 0
 4 9 6 7.01 2.89 0
 4 9 7 67.59 5.35 0
 4 9 8 214.75 8.4 0
 4 9 9 3.93 2.42 0
 4 9 10 119.67 6.56 0
 4 9 11 41.01 4.39 0
 4 9 12 186.94 7.57 0
 4 10 -11 2.31 2.09 0
 4 10 -10 34.87 4.46 0
 4 10 -8 113.88 6.81 0
 4 10 -7 61.34 5.1 0
 4 10 -6 157.91 7.44 0
 4 10 -5 46.14 4.64 0
 4 10 -3 54.8 5.2 0
 4 10 -2 166.91 7.79 0
 4 10 -1 10.88 3.01 0
 4 10 0 2.6 3.13 0
 4 10 1 8.75 2.65 0
 4 10 2 175.72 7.9 0
 4 10 3 61.22 5.26 0
 4 10 4 92.67 6.19 0
 4 10 5 40.94 4.38 0
 4 10 6 164.55 7.81 0
 4 10 7 56.67 5.17 0
 4 10 8 109.41 6.42 0
 4 10 9 18.19 3.54 0
 4 10 10 39.01 4.22 0
 4 10 11 0.32 2.11 0
 4 11 -11 9.06 3.45 0
 4 11 -10 27 4.27 0
 4 11 -9 0.46 2.64 0
 4 11 -8 162.55 7.98 0
 4 11 -7 44.75 5.34 0
 4 11 -6 79.01 5.93 0
 4 11 -5 2.57 2.59 0
 4 11 -4 145.75 7.63 0
 4 11 -2 20.57 3.68 0
 4 11 -1 115.98 7.14 0
 4 11 0 3.18 2.6 0
 4 11 1 120.83 7.01 0
 4 11 2 23.13 3.93 0
 4 11 3 21.64 3.92 0
 4 11 4 150.31 7.89 0
 4 11 5 7.21 2.96 0
 4 11 6 75.89 6.12 0
 4 11 7 47.85 5.51 0
 4 11 8 174.33 8.06 0
 4 11 9 2.38 2.83 0
 4 12 -11 30.26 4.78 0
 4 12 -10 62.41 5.66 0
 4 12 -9 19.44 4.4 0
 4 12 -8 133.83 8.16 0
 4 12 -6 169.6 8.46 0
 4 12 -4 15 3.7 0
 4 12 -3 18.41 3.84 0
 4 12 -1 6.94 3.07 0
 4 12 0 32.45 4.72 0
 4 12 1 8.02 3.61 0
 4 12 2 119.71 7.53 0
 4 12 3 21.57 4.57 0
 4 12 4 17.55 3.79 0
 4 12 6 155.08 8.05 0
 4 12 8 147.62 7.84 0
 4 12 9 14.19 3.45 0
 4 12 10 49.74 5.12 0
 4 13 -9 2.93 3.09 0
 4 13 -8 0.94 3.14 0
 4 13 -6 53.61 5.73 0
 4 13 -5 62.02 6.35 0
 4 13 -4 30.24 5.07 0
 4 13 -3 17.23 4.48 0
 4 13 -1 92.64 6.55 0
 4 13 1 103.28 7.28 0
 4 13 2 35.17 5.22 0
 4 13 3 21.12 4.06 0
 4 13 4 31.31 4.79 0
 4 13 5 59.74 5.57 0
 4 13 6 50.56 5.26 0
 4 13 7 1.89 2.56 0
 4 13 8 5.9 3.2 0
 4 14 -5 59.8 6.86 0
 4 14 -2 75.11 6.81 0
 4 14 -1 19.94 4.28 0
 4 14 0 27.27 5.14 0
 4 14 1 18.07 4.8 0
 4 14 2 68.03 6.54 0
 4 14 3 5.35 3.3 0
 4 14 4 151.08 8.59 0
 4 14 5 55.4 5.89 0
 4 14 6 111.38 7.45 0
 4 14 7 28.79 4.92 0
 5 0 -7 308.5 6.37 0
 5 1 -7 66.31 3.31 0
 5 1 -6 47.07 2.91 0
 5 4 -8 30.98 2.91 0
 5 4 -7 27.71 3.05 0
 5 4 -6 11.3 2.39 0
 5 4 -5 335.13 8.55 0
 5 4 -4 95.41 5.05 0
 5 4 -3 439.68 10.06 0
 5 4 -2 53.99 3.82 0
 5 5 -8 109.77 5.2 0
 5 5 -7 70.43 4.36 0
 5 5 -6 15.85 2.98 0
 5 5 -5 8.36 2.31 0
 5 5 -4 105.7 5.5 0
 5 5 -1 185.48 7.08 0
 5 5 0 98 5.24 0
 5 6 -9 17.59 2.74 0
 5 6 -8 21.81 3.32 0
 5 6 -7 8.16 2.29 0
 5 6 -6 231.24 7.82 0
 5 6 -5 54.42 4.43 0
 5 6 -4 146.57 6.29 0
 5 6 -2 163.43 7.05 0
 5 6 -1 361.22 10.05 0
 5 6 0 91.96 5.55 0
 5 6 1 355.91 10.13 0
 5 6 3 14.7 2.97 0
 5 6 12 19.28 3.7 0
 5 6 13 17.08 3.52 0
 5 6 14 60.33 4.96 0
 5 7 -9 208.89 7.34 0
 5 7 -8 38.5 4.08 0
 5 7 -7 18.96 3.06 0
 5 7 -6 107.55 5.83 0
 5 7 -5 47.75 4.55 0
 5 7 -4 20.34 3.28 0
 5 7 -2 89.6 5.6 0
 5 7 -1 15.66 3.02 0
 5 7 0 1.88 1.93 0
 5 7 1 18.69 3.11 0
 5 7 3 3.98 2.3 0
 5 7 5 43.23 4.32 0
 5 7 6 117.19 6.6 0
 5 7 7 21.83 3.72 0
 5 7 8 32.73 4.21 0
 5 7 9 220.9 8.97 0
 5 7 10 76.92 5.66 0
 5 7 12 2.33 2.55 0
 5 8 -8 237.28 8.5 0
 5 8 -5 12.23 3.13 0
 5 8 -4 25.2 3.83 0
 5 8 -3 69.46 5.43 0
 5 8 -2 276.63 9.36 0
 5 8 -1 26.47 4.08 0
 5 8 0 110.67 6.38 0
 5 8 2 285.24 9.79 0
 5 8 3 66.53 5.09 0
 5 8 4 27.57 3.98 0
 5 8 5 18.06 3.59 0
 5 8 6 51.69 5.24 0
 5 8 7 50.28 5.34 0
 5 8 8 258.17 9.91 0
 5 8 9 51.55 5.04 0
 5 8 10 89.23 6.47 0
 5 8 11 27.78 4.63 0
 5 8 12 50.68 5.44 0
 5 8 13 49.15 5.2 0
 5 9 -10 2.34 1.94 0
 5 9 -9 228.83 8.58 0
 5 9 -8 1.17 2.21 0
 5 9 -7 21.3 3.93 0
 5 9 -6 13.78 3.2 0
 5 9 -5 13.59 3.37 0
 5 9 -4 26.6 3.87 0
 5 9 -3 322.07 10.71 0
 5 9 -1 69.87 5.26 0
 5 9 0 -0.62 2.17 0
 5 9 1 69.27 5.61 0
 5 9 2 99.4 6.09 0
 5 9 3 326.94 10.71 0
 5 9 5 7.39 2.98 0
 5 9 6 14.16 3.41 0
 5 9 7 24.92 4.15 0
 5 9 8 5.35 2.93 0
 5 9 9 244.36 9.54 0
 5 9 10 1.05 2.58 0
 5 9 12 -0.32 2.08 0
 5 10 -10 121.48 6.92 0
 5 10 -9 11.37 3.49 0
 5 10 -8 4.29 2.66 0
 5 10 -7 -0.39 2.84 0
 5 10 -6 20.62 4.12 0
 5 10 -5 24.37 4.45 0
 5 10 -4 86.23 6.12 0
 5 10 -2 32.54 4.52 0
 5 10 -1 34.06 4.5 0
 5 10 0 -0.16 2.54 0
 5 10 1 33.37 4.3 0
 5 10 2 29.4 4.3 0
 5 10 3 140.35 7.74 0
 5 10 4 80.59 6.07 0
 5 10 5 34.79 4.73 0
 5 10 6 18.7 3.84 0
 5 10 7 5.1 2.94 0
 5 10 8 1.68 2.63 0
 5 10 9 12.45 3.54 0
 5 10 10 123.89 6.99 0
 5 10 11 91.47 6.11 0
 5 11 -10 54.17 5.46 0
 5 11 -8 11.45 3.51 0
 5 11 -7 2.9 3.02 0
 5 11 -6 14.93 3.78 0
 5 11 -5 325.54 11.27 0
 5 11 -4 39 5.39 0
 5 11 -3 25.28 4.42 0
 5 11 -2 8.95 3.26 0
 5 11 -1 26.01 4.61 0
 5 11 0 11.76 3.32 0
 5 11 1 24.98 4.54 0
 5 11 2 3.38 2.71 0
 5 11 3 18.76 3.94 0
 5 11 6 17.41 4.22 0
 5 11 7 1.61 3.42 0
 5 11 8 8.46 3.18 0
 5 11 9 135.58 7.73 0
 5 11 10 59.52 5.36 0
 5 11 11 6.27 3.02 0
 5 12 -9 1.36 2.8 0
 5 12 -7 30.98 4.83 0
 5 12 -6 20.08 4.16 0
 5 12 -4 146.42 8.14 0
 5 12 -2 21.77 4.3 0
 5 12 -1 55.1 5.78 0
 5 12 0 210.32 9.54 0
 5 12 1 70.4 6.43 0
 5 12 3 10.76 4.22 0
 5 12 4 131.81 7.86 0
 5 12 5 1.76 3.32 0
 5 12 7 37.84 5.41 0
 5 12 8 137.33 8.16 0
 5 12 9 0.53 2.53 0
 5 13 -6 37.24 5.4 0
 5 13 -5 21.81 4.46 0
 5 13 -4 18.09 4.63 0
 5 13 -3 47.23 5.98 0
 5 13 -2 1.98 2.88 0
 5 13 -1 12.9 3.78 0
 5 13 0 0.82 3.14 0
 5 13 2 3.25 3.24 0
 5 13 4 13.95 4.02 0
 5 13 5 24.49 4.38 0
 5 13 6 49.66 6.18 0
 5 13 7 7.65 3.39 0
 6 1 -6 236.44 6.82 0
 6 3 -7 16.66 2.67 0
 6 3 -6 83.66 4.79 0
 6 3 -5 50.89 4.1 0
 6 3 -4 12.29 2.62 0
 6 4 -7 4.18 1.92 0
 6 4 -6 162.61 6.64 0
 6 4 -4 19.48 3.25 0
 6 4 -3 40.86 3.86 0
 6 4 -2 57.53 4.51 0
 6 5 -7 59.44 4.21 0
 6 5 -6 52.92 4.35 0
 6 5 -5 9.73 2.97 0
 6 5 -4 23.74 3.51 0
 6 5 -3 230.25 8.53 0
 6 5 -1 161.54 7.16 0
 6 5 0 456.53 11.61 0
 6 6 -8 74.84 4.91 0
 6 6 -7 14.97 3.12 0
 6 6 -6 91.51 5.59 0
 6 6 -5 10.02 3.11 0
 6 6 -4 6 2.6 0
 6 6 -2 89.52 6.01 0
 6 6 -1 113.16 6.43 0
 6 6 0 10.84 2.97 0
 6 6 1 112.46 6.35 0
 6 6 2 99.46 6.33 0
 6 6 3 6.17 2.83 0
 6 6 12 84.12 6.5 0
 6 6 14 34.82 4.88 0
 6 7 -8 162.04 7.06 0
 6 7 -7 214.27 8.3 0
 6 7 -6 19.84 3.47 0
 6 7 -5 77.04 5.7 0
 6 7 -4 232.26 8.84 0
 6 7 -3 40.19 5.01 0
 6 7 -2 73.16 5.51 0
 6 7 -1 228.39 9.24 0
 6 7 0 429.59 12.38 0
 6 7 1 223.11 9.14 0
 6 7 3 35.32 4.39 0
 6 7 4 249.2 9.67 0
 6 7 5 82.96 6.43 0
 6 7 6 16.25 3.69 0
 6 7 7 197.73 9.23 0
 6 7 8 168.09 8.6 0
 6 7 9 3.75 2.99 0
 6 7 11 127.89 7.74 0
 6 7 13 54.59 5.58 0
 6 8 -8 -0.77 2.08 0
 6 8 -7 124.74 6.72 0
 6 8 -6 9.07 3.36 0
 6 8 -5 15.77 3.68 0
 6 8 -4 38.29 4.81 0
 6 8 -1 134.47 7.29 0
 6 8 0 3.83 2.65 0
 6 8 1 139.72 7.96 0
 6 8 2 31.41 4.38 0
 6 8 3 20.67 3.87 0
 6 8 4 41.22 5.11 0
 6 8 6 6.82 3.29 0
 6 8 7 118.85 7.91 0
 6 8 8 -1.02 2.56 0
 6 8 10 7.44 3.75 0
 6 8 11 16.76 3.95 0
 6 8 12 117.26 7.53 0
 6 9 -9 10.09 2.82 0
 6 9 -8 41.46 4.91 0
 6 9 -7 3.92 2.75 0
 6 9 -6 13.6 3.44 0
 6 9 -4 19.84 3.81 0
 6 9 0 3.88 3.52 0
 6 9 1 5.46 2.94 0
 6 9 3 50 5.79 0
 6 9 4 16.94 4.04 0
 6 9 5 61.35 5.7 0
 6 9 6 10.91 3.7 0
 6 9 7 4.12 3.37 0
 6 9 8 34.05 5.23 0
 6 9 9 9.3 3.37 0
 6 9 10 94.95 7.13 0
 6 10 -9 0.89 2.33 0
 6 10 -8 48.68 5.13 0
 6 10 -7 10.31 3.44 0
 6 10 -6 144.32 8.05 0
 6 10 -5 10.28 3.86 0
 6 10 -4 45.98 5.34 0
 6 10 -3 3.58 3.41 0
 6 10 -2 148.69 8.41 0
 6 10 -1 14.58 4.21 0
 6 10 0 12.26 3.72 0
 6 10 1 12.63 3.72 0
 6 10 2 166.78 8.58 0
 6 10 3 4.06 3.07 0
 6 10 4 52.1 6.12 0
 6 10 5 8.29 3.61 0
 6 10 6 161.5 8.85 0
 6 10 7 11.08 3.79 0
 6 10 8 56.07 6.34 0
 6 10 9 5.49 3.22 0
 6 10 10 13.41 3.87 0
 6 11 -9 24.78 4.51 0
 6 11 -8 40.42 5.19 0
 6 11 -7 83.44 6.62 0
 6 11 -5 11.71 3.7 0
 6 11 -3 59.7 6.27 0
 6 11 -2 12.95 4.05 0
 6 11 -1 39.51 5.57 0
 6 11 0 139.2 8.14 0
 6 11 1 29.7 5.15 0
 6 11 2 6.81 3.49 0
 6 11 3 57.53 6.62 0
 6 11 4 100.7 7.32 0
 6 11 6 4.35 3.21 0
 6 11 7 88.16 6.75 0
 6 11 8 28.75 4.65 0
 6 12 -5 33.59 5.49 0
 6 12 -4 8.83 3.81 0
 6 12 -3 24.57 4.56 0
 6 12 -2 43.42 5.77 0
 6 12 -1 10.19 4.28 0
 6 12 0 27.86 4.83 0
 6 12 1 4.84 3.61 0
 6 12 2 53.63 6.31 0
 6 12 3 20.42 4.46 0
 6 12 4 3.66 3.36 0
 6 12 5 37.96 5.68 0
 7 2 -5 96.59 5.3 0
 7 3 -6 132.94 6.32 0
 7 3 -5 77.92 5.34 0
 7 3 -4 59.51 4.94 0
 7 4 -6 197.22 7.69 0
 7 4 -5 3.81 2.5 0
 7 4 -4 21.3 3.54 0
 7 4 -3 71.92 5.69 0
 7 4 -2 59.63 4.99 0
 7 5 -6 77.33 5.19 0
 7 5 -5 43.58 5.01 0
 7 5 -4 107.25 6.37 0
 7 5 -2 53.37 5.29 0
 7 5 -1 30.98 4.38 0
 7 5 0 176.64 8.1 0
 7 6 -7 21.66 3.54 0
 7 6 -6 40.49 4.59 0
 7 6 -5 120.6 6.62 0
 7 6 -4 12.85 3.14 0
 7 6 -3 187.64 8.42 0
 7 6 -2 54.88 5.69 0
 7 6 -1 76.07 6.23 0
 7 6 0 -2.14 2.54 0
 7 6 2 54.7 5.5 0
 7 6 4 13.37 3.54 0
 7 7 -7 3 2.48 0
 7 7 -6 5.15 2.66 0
 7 7 -5 36.24 4.53 0
 7 7 -4 7.69 3.16 0
 7 7 -3 80.18 6.16 0
 7 7 -2 94.05 6.77 0
 7 7 -1 62.77 5.93 0
 7 7 0 38.04 5.13 0
 7 7 1 54.89 5.5 0
 7 7 2 92.98 7.12 0
 7 7 4 7.11 3.97 0
 7 7 5 48.59 5.68 0
 7 7 6 2.11 3.52 0
 7 7 7 4.02 3.33 0
 7 7 8 4.51 3.28 0
 7 7 9 27.14 4.99 0
 7 7 10 9.02 3.68 0
 7 8 -7 52.73 4.96 0
 7 8 -6 4.01 3.06 0
 7 8 -5 47.24 5.77 0
 7 8 -4 63.88 5.9 0
 7 8 -3 47.82 5.57 0
 7 8 -2 59.74 5.67 0
 7 8 -1 92.79 6.73 0
 7 8 0 82.79 6.51 0
 7 8 1 99.96 7.29 0
 7 8 3 59.04 5.98 0
 7 8 4 58.09 5.86 0
 7 8 5 46.42 6.35 0
 7 8 6 1.26 2.97 0
 7 8 8 0.53 3.09 0
 7 8 9 8.34 3.95 0
 7 9 -8 17.41 3.49 0
 7 9 -7 29 4.68 0
 7 9 -6 8.27 3.26 0
 7 9 -5 144.15 7.96 0
 7 9 -4 89.54 6.97 0
 7 9 -3 72.39 6.1 0
 7 9 -2 10.3 3.63 0
 7 9 -1 72.94 6.1 0
 7 9 0 1.27 2.78 0
 7 9 1 75.14 6.74 0
 7 9 2 6.73 3.91 0
 7 9 3 81.29 7.21 0
 7 9 4 80.6 7.18 0
 7 9 5 161.14 8.89 0
 7 9 6 5.52 4.01 0
 7 9 7 38.92 5.84 0
 7 9 8 14.74 4.38 0
 7 10 -7 71.45 6.34 0
 7 10 -6 26.37 4.73 0
 7 10 -4 42.32 5.49 0
 7 10 -3 68.17 6.23 0
 7 10 -2 43.1 5.49 0
 7 10 -1 57.73 5.93 0
 7 10 0 107.06 7.72 0
 7 10 1 51.73 5.69 0
 7 10 3 63.19 6.81 0
 7 10 4 33.04 5.11 0
 7 10 5 28.75 5.28 0
 7 11 -2 13.81 4.76 0
 7 11 -1 181.5 9.52 0
 8 2 -4 56.18 4.96 0
 8 3 -5 16.82 3.13 0
 8 3 -4 113.31 6.79 0
 8 3 -3 85.06 6.19 0
 8 4 -5 129.53 7.09 0
 8 4 -4 22.29 3.97 0
 8 4 -2 6.44 3.06 0
 8 4 -1 3.52 3.12 0
 8 5 -5 18.19 3.94 0
 8 5 -4 15.24 3.77 0
 8 5 -3 62.74 5.92 0
 8 5 -2 41.2 5.14 0
 8 5 0 1.03 2.74 0
 8 5 1 51.37 5.28 0
 8 6 -6 3.54 2.43 0
 8 6 -5 21.48 3.78 0
 8 6 -4 42.85 5.31 0
 8 6 -3 110.43 7.16 0
 8 6 -2 20.84 4.3 0
 8 6 -1 18.62 4.3 0
 8 6 0 8.39 3.62 0
 8 6 1 19.25 4.34 0
 8 6 2 15.82 4.19 0
 8 6 3 117.5 7.91 0
 8 6 4 47.38 5.7 0
 8 6 5 23.17 4.55 0
 8 6 6 0.87 3.06 0
 8 6 7 34.84 5.71 0
 8 7 -6 63.72 5.86 0
 8 7 -5 9.44 3.41 0
 8 7 -4 9.89 3.74 0
 8 7 -3 53.56 5.5 0
 8 7 -1 0.97 3.36 0
 8 7 0 8.49 3.68 0
 8 7 1 2.37 3.47 0
 8 7 2 6.94 3.73 0
 8 7 4 9.74 3.75 0
 8 7 5 5.75 3.8 0
 8 7 6 66.19 6.52 0
 8 8 -5 15.97 3.78 0
 8 8 -4 8.63 3.44 0
 8 8 -3 40.04 5.43 0
 8 8 -2 204.15 9.91 0
 8 8 1 80.35 7.2 0
 8 8 2 206.43 10.18 0
 8 8 3 36.31 5.53 0
 8 8 4 12.02 4.24 0
 9 3 -4 2.56 2.83 0
 9 3 -3 0.62 3.16 0
 9 3 -2 15.71 3.54 0
 9 4 -4 14.8 3.85 0
 9 4 -2 12.02 3.92 0
 9 4 -1 2.19 3.4 0
 9 4 0 76.31 6.99 0
 9 4 1 6.54 3.37 0
 9 5 -4 10.44 3.63 0
 9 5 -3 24.67 4.71 0
 9 5 -2 41.92 5.93 0
 9 5 -1 11.07 3.91 0
 9 5 0 11.23 4.19 0
 9 5 1 9.91 4.07 0
 -9 2 -7 22.42 4.3 0
 -9 2 -6 116.03 7.1 0
 -9 3 -6 29.13 4.67 0
 -9 3 -5 44.68 5.58 0
 -9 4 -6 44.58 5.83 0
 -9 4 -5 2.86 3.04 0
 -9 5 -4 15.06 3.86 0
 -8 -2 -8 -0.06 2.69 0
 -8 -2 -7 10.08 3.59 0
 -8 -2 -6 2.32 2.48 0
 -8 -2 -5 116.26 6.31 0
 -8 -2 -4 52.17 4.56 0
 -8 -1 -10 27.55 5.02 0
 -8 -1 -9 76.53 6.41 0
 -8 -1 -8 11.17 3.54 0
 -8 -1 -7 6.79 3.33 0
 -8 -1 -6 67.13 5.2 0
 -8 -1 -5 50.82 4.81 0
 -8 -1 -4 51.67 4.6 0
 -8 -1 -3 49.66 4.23 0
 -8 0 -10 8.55 3.9 0
 -8 0 -9 20.13 4.27 0
 -8 0 -8 51.23 5.67 0
 -8 0 -6 26.88 4.26 0
 -8 0 -5 102.04 6.34 0
 -8 0 -4 485.66 11.7 0
 -8 0 -3 -1.22 1.87 0
 -8 1 -10 19.17 4.69 0
 -8 1 -9 90.21 6.94 0
 -8 1 -8 10.2 4.15 0
 -8 1 -7 2.6 3.14 0
 -8 1 -6 64.83 5.79 0
 -8 1 -5 50.81 5.16 0
 -8 1 -4 60.01 5.18 0
 -8 1 -3 45.74 4.3 0
 -8 1 -2 120.33 5.87 0
 -8 2 -10 17.06 4.33 0
 -8 2 -9 34.99 5.24 0
 -8 2 -8 2.24 3.7 0
 -8 2 -7 7.62 3.42 0
 -8 2 -6 1.75 2.97 0
 -8 2 -4 62.4 5.57 0
 -8 2 -3 23.46 3.71 0
 -8 2 -2 65.18 4.7 0
 -8 2 -1 11.13 2.9 0
 -8 3 -10 67.11 7.24 0
 -8 3 -9 7.13 3.95 0
 -8 3 -8 56.94 5.86 0
 -8 3 -7 42.48 5.78 0
 -8 3 -6 38.54 5.03 0
 -8 3 -5 18.02 4.11 0
 -8 3 -4 116 6.69 0
 -8 3 -3 72.86 5.56 0
 -8 3 -2 76.31 5.31 0
 -8 3 -1 78.26 5.15 0
 -8 4 -9 12.39 4.71 0
 -8 4 -8 73.9 6.91 0
 -8 4 -7 72.87 6.37 0
 -8 4 -5 129.13 7.88 0
 -8 4 -4 25.66 4.37 0
 -8 4 -2 8.45 3.22 0
 -8 4 -1 6.06 2.96 0
 -8 4 0 7.57 2.85 0
 -8 5 -9 64.59 6.96 0
 -8 5 -8 13.03 4.17 0
 -8 5 -7 76.93 6.8 0
 -8 5 -6 50.12 5.86 0
 -8 5 -5 29.58 5.2 0
 -8 5 -2 41.07 5.12 0
 -8 5 -1 38.63 4.68 0
 -8 5 0 5.48 2.66 0
 -8 6 -8 11.37 4.66 0
 -8 6 -7 42.54 6.02 0
 -8 6 -6 2.35 3.5 0
 -8 6 -5 22.5 4.75 0
 -8 6 -4 36.3 5.47 0
 -8 6 -3 112.4 7.21 0
 -8 6 -2 15.96 4.07 0
 -8 6 -1 17.06 3.57 0
 -8 6 0 3.29 3.16 0
 -8 6 1 16.9 3.62 0
 -8 7 -7 8.18 4.11 0
 -8 7 -6 64.16 6.84 0
 -8 7 -5 6.97 3.71 0
 -8 7 -4 11.54 3.97 0
 -8 7 -3 60.68 6.41 0
 -8 7 -2 6.18 3.74 0
 -8 7 -1 6.52 3.22 0
 -8 7 0 7.58 3.7 0
 -8 7 1 3.22 2.91 0
 -8 8 -5 26.21 5.2 0
 -8 8 -4 7.06 3.86 0
 -8 8 -3 43.94 6.01 0
 -8 8 -2 201.7 9.94 0
 -8 8 -1 86.99 6.94 0
 -8 8 0 61.66 6.01 0
 -8 8 1 82.61 6.39 0
 -8 9 -3 40.6 6.33 0
 -8 9 -1 74.78 6.61 0
 -8 9 0 4.49 3.66 0
 -8 9 1 66.24 6.04 0
 -7 -2 -11 121.02 7.98 0
 -7 -2 -10 17.06 4.08 0
 -7 -2 -9 31.48 4.61 0
 -7 -2 -8 71.16 5.72 0
 -7 -2 -7 31.98 4.57 0
 -7 -2 -6 10.34 2.95 0
 -7 -2 -5 102.2 5.77 0
 -7 -2 -3 104.37 5.26 0
 -7 -2 -1 14.92 2.31 0
 -7 -1 -13 25.54 5.03 0
 -7 -1 -12 8.28 4.45 0
 -7 -1 -11 87.68 6.87 0
 -7 -1 -10 36.14 5.5 0
 -7 -1 -9 16.91 4.12 0
 -7 -1 -8 175.53 8.31 0
 -7 -1 -7 302.72 10.18 0
 -7 -1 -6 49.05 4.92 0
 -7 -1 -5 20.94 3.39 0
 -7 -1 -4 87.4 5.37 0
 -7 -1 -3 78.42 4.86 0
 -7 -1 -2 22.42 2.89 0
 -7 -1 -1 186.39 5.95 0
 -7 0 -11 11.78 4 0
 -7 0 -10 39.61 5.71 0
 -7 0 -7 18.59 3.79 0
 -7 0 -5 37.7 4.27 0
 -7 0 -4 29.03 3.85 0
 -7 0 -3 60.47 4.54 0
 -7 0 -2 12.6 2.8 0
 -7 0 -1 89.35 4.62 0
 -7 1 -13 31.34 5.28 0
 -7 1 -12 10.43 4.01 0
 -7 1 -10 36.84 5.58 0
 -7 1 -9 13.6 4.19 0
 -7 1 -8 184.82 8.63 0
 -7 1 -6 57.23 5.09 0
 -7 1 -5 22.41 3.91 0
 -7 1 -4 91.92 5.8 0
 -7 1 -3 73.44 5.11 0
 -7 1 -2 20.91 3.18 0
 -7 1 -1 188.91 6.6 0
 -7 1 0 51.14 3.58 0
 -7 2 -13 15.89 4.77 0
 -7 2 -12 19.2 4.83 0
 -7 2 -11 103.72 7.98 0
 -7 2 -10 19.71 4.72 0
 -7 2 -9 35.21 5.31 0
 -7 2 -7 32.73 4.83 0
 -7 2 -6 8.7 3.49 0
 -7 2 -4 48.11 4.71 0
 -7 2 -3 111.91 5.98 0
 -7 2 -2 46.66 4.29 0
 -7 2 -1 17.08 3.14 0
 -7 2 0 134.77 5.64 0
 -7 2 1 14.95 2.54 0
 -7 3 -12 10.88 4.95 0
 -7 3 -11 31.49 5.8 0
 -7 3 -9 4.83 3.57 0
 -7 3 -8 56.26 5.58 0
 -7 3 -7 36.1 4.86 0
 -7 3 -6 134.71 7.38 0
 -7 3 -5 68.64 5.69 0
 -7 3 -4 55.39 5.27 0
 -7 3 -3 182.21 7.56 0
 -7 3 -2 151.43 6.91 0
 -7 3 -1 0.1 1.92 0
 -7 3 0 70.03 4.71 0
 -7 3 1 1.03 2.03 0
 -7 3 2 158.74 5.86 0
 -7 4 -12 160.68 9.8 0
 -7 4 -10 49.97 6.15 0
 -7 4 -9 34.56 5.24 0
 -7 4 -7 95.58 7.3 0
 -7 4 -6 185.24 8.97 0
 -7 4 -5 3.6 3.26 0
 -7 4 -4 24.98 4.25 0
 -7 4 -3 61.16 5.37 0
 -7 4 -1 33.72 4 0
 -7 4 0 4.42 2.63 0
 -7 4 1 37.62 3.64 0
 -7 4 2 66.41 4.49 0
 -7 4 3 66.12 4.26 0
 -7 5 -11 19.98 5.29 0
 -7 5 -8 51.63 6.3 0
 -7 5 -7 52.46 6.38 0
 -7 5 -6 66.52 5.98 0
 -7 5 -5 40.89 5.17 0
 -7 5 -4 103.58 6.8 0
 -7 5 -3 3.69 2.96 0
 -7 5 -2 56.96 5.27 0
 -7 5 0 194.03 7.76 0
 -7 5 1 26.98 3.92 0
 -7 5 2 52.03 4.23 0
 -7 5 3 1.64 2.38 0
 -7 5 4 110.72 5.47 0
 -7 6 -10 114.93 8.28 0
 -7 6 -9 12.57 4.67 0
 -7 6 -8 1.78 3.46 0
 -7 6 -7 19.62 4.99 0
 -7 6 -6 44.25 6.03 0
 -7 6 -5 122.14 7.54 0
 -7 6 -4 16.34 3.93 0
 -7 6 -2 63.1 5.98 0
 -7 6 0 2.65 2.99 0
 -7 6 1 80.83 5.6 0
 -7 6 2 57.79 4.95 0
 -7 6 3 194.84 7.63 0
 -7 6 4 15.15 3.16 0
 -7 7 -10 14.39 4.83 0
 -7 7 -9 30.26 5.63 0
 -7 7 -8 7.82 4.08 0
 -7 7 -7 2.86 3.89 0
 -7 7 -6 7.28 3.72 0
 -7 7 -4 6.54 3.56 0
 -7 7 -3 79.63 6.42 0
 -7 7 -1 56.29 5.39 0
 -7 7 0 39.09 4.85 0
 -7 7 2 92.4 6.19 0
 -7 7 3 83.19 5.76 0
 -7 7 4 3.28 2.66 0
 -7 8 -9 6.61 4.41 0
 -7 8 -8 0.11 3.44 0
 -7 8 -6 3.66 3.6 0
 -7 8 -5 40.26 6.13 0
 -7 8 -4 54.55 6.76 0
 -7 8 -3 46.35 5.69 0
 -7 8 1 99.83 6.57 0
 -7 8 2 60.61 5.63 0
 -7 8 3 55.67 5.4 0
 -7 8 5 52.36 4.93 0
 -7 9 -6 6.25 4.47 0
 -7 9 -5 163.99 9.36 0
 -7 9 -4 78.62 7.41 0
 -7 9 -3 73.73 7.18 0
 -7 9 -2 12.53 4.41 0
 -7 9 -1 73.39 6.83 0
 -7 9 0 3.64 3.45 0
 -7 9 1 77.75 6.71 0
 -7 9 2 14.3 4.35 0
 -7 9 3 74.43 6.1 0
 -7 9 4 74.83 6.18 0
 -7 9 5 149.96 7.8 0
 -7 10 -5 35.17 5.77 0
 -7 10 -4 32.04 6.16 0
 -7 10 -3 61.03 7.39 0
 -7 10 -2 31.55 5.3 0
 -7 10 -1 45.85 5.9 0
 -7 10 0 100.75 7.6 0
 -7 10 1 54.32 6.2 0
 -7 10 2 32.75 5.23 0
 -7 10 5 35.38 5.19 0
 -7 11 -2 9.64 4.54 0
 -7 11 1 169.29 9.41 0
 -7 11 2 14.13 4.07 0
 -7 11 3 -0.81 3.54 0
 -7 11 4 20.57 4.72 0
 -7 11 5 -0.3 2.82 0
 -6 -3 -9 60.13 5.7 0
 -6 -3 -8 85.24 5.96 0
 -6 -3 -7 16.74 3.33 0
 -6 -3 -5 49.04 3.95 0
 -6 -3 -4 15.47 2.87 0
 -6 -2 -13 403.01 13.3 0
 -6 -2 -12 6.35 3.84 0
 -6 -2 -11 58.42 5.6 0
 -6 -2 -10 16.62 4.27 0
 -6 -2 -9 46.28 5.53 0
 -6 -2 -8 9.69 3.06 0
 -6 -2 -7 106.15 6.25 0
 -6 -2 -6 79.48 5.23 0
 -6 -2 -5 380 9.75 0
 -6 -2 -4 77.66 4.59 0
 -6 -2 -3 113.44 5.13 0
 -6 -2 -1 88.98 3.98 0
 -6 -2 0 136.26 4.32 0
 -6 -1 -15 0.88 3.28 0
 -6 -1 -14 101.69 7.59 0
 -6 -1 -13 3.47 3.39 0
 -6 -1 -12 14.16 3.98 0
 -6 -1 -11 52.29 6.34 0
 -6 -1 -9 2.86 2.9 0
 -6 -1 -8 135.4 6.96 0
 -6 -1 -7 129.95 6.71 0
 -6 -1 -6 226.64 8.2 0
 -6 -1 -5 26.11 3.44 0
 -6 -1 -4 66.11 4.33 0
 -6 -1 0 290.91 6.41 0
 -6 -1 2 132.68 3.5 0
 -6 0 -15 148.43 9.49 0
 -6 0 -14 104.16 7.85 0
 -6 0 -12 33.57 5.37 0
 -6 0 -11 8.74 3.61 0
 -6 0 -10 75.25 6.39 0
 -6 0 -9 127.73 7.5 0
 -6 0 -8 50.26 4.88 0
 -6 0 -7 477.82 12.31 0
 -6 0 -6 -0.11 2.25 0
 -6 0 -4 50.81 4.3 0
 -6 0 -3 125.37 5.63 0
 -6 0 0 -0.11 1.31 0
 -6 0 1 122.96 4.21 0
 -6 0 2 111.29 3.66 0
 -6 0 3 126.73 3.36 0
 -6 1 -15 8.58 4.02 0
 -6 1 -13 5.4 4.11 0
 -6 1 -12 11.82 4.17 0
 -6 1 -11 55.17 6 0
 -6 1 -9 0.65 2.62 0
 -6 1 -8 141.18 7.42 0
 -6 1 -7 137.29 7.24 0
 -6 1 -6 246.05 8.86 0
 -6 1 -5 21.23 3.52 0
 -6 1 -4 57.78 4.37 0
 -6 1 -3 135.12 6.01 0
 -6 1 -2 135.75 5.64 0
 -6 1 1 95.25 4.05 0
 -6 1 2 146.49 4.53 0
 -6 1 4 62.99 2.55 0
 -6 2 -14 38.16 6.43 0
 -6 2 -13 396.93 13.62 0
 -6 2 -12 9.83 4.02 0
 -6 2 -11 60.36 6.69 0
 -6 2 -10 15.64 3.98 0
 -6 2 -9 42.91 5.23 0
 -6 2 -8 8.15 3.12 0
 -6 2 -7 107.96 6.64 0
 -6 2 -6 78.02 5.72 0
 -6 2 -4 77.25 5.25 0
 -6 2 -3 112.79 5.88 0
 -6 2 -2 2 2.1 0
 -6 2 -1 90.19 4.68 0
 -6 2 2 5.1 1.84 0
 -6 2 4 75.81 3.31 0
 -6 3 -14 27.51 5.68 0
 -6 3 -12 69.75 7.13 0
 -6 3 -11 41.45 5.59 0
 -6 3 -10 48.61 6.21 0
 -6 3 -9 68.76 5.95 0
 -6 3 -6 80.57 5.61 0
 -6 3 -5 46.26 4.71 0
 -6 3 -4 18.32 3.58 0
 -6 3 -3 10.18 2.85 0
 -6 3 -2 83.51 5.05 0
 -6 3 -1 90.44 4.96 0
 -6 3 4 15.81 2.13 0
 -6 3 5 52.67 3.08 0
 -6 4 -14 24.43 5.35 0
 -6 4 -13 4.15 3.67 0
 -6 4 -12 5.68 4.14 0
 -6 4 -11 31.06 5.06 0
 -6 4 -10 26.06 4.86 0
 -6 4 -9 37.59 5.32 0
 -6 4 -8 45.11 5.07 0
 -6 4 -7 5.7 3.42 0
 -6 4 -6 158.85 7.62 0
 -6 4 -3 43.89 4.68 0
 -6 4 -2 54.59 4.65 0
 -6 4 -1 80.75 4.93 0
 -6 4 0 418.13 10.09 0
 -6 4 1 85.92 4.9 0
 -6 4 2 61.69 4.13 0
 -6 5 -14 15.4 4.89 0
 -6 5 -13 33.81 6.1 0
 -6 5 -12 138.84 9 0
 -6 5 -11 20.71 4.61 0
 -6 5 -9 122.32 8 0
 -6 5 -8 93.43 6.79 0
 -6 5 -6 49.97 5.63 0
 -6 5 -4 29.78 4.58 0
 -6 5 -1 166.74 7.16 0
 -6 5 0 457.76 11.05 0
 -6 5 1 152.63 6.42 0
 -6 5 2 12.01 2.82 0
 -6 5 3 211.66 7.25 0
 -6 5 5 11.72 2.64 0
 -6 5 6 51.84 3.6 0
 -6 6 -12 86.77 7.73 0
 -6 6 -11 21.57 5.26 0
 -6 6 -9 134.75 8.31 0
 -6 6 -8 72.92 6.62 0
 -6 6 -7 16.44 4.55 0
 -6 6 -6 96.2 7 0
 -6 6 -5 12.4 3.54 0
 -6 6 -4 4.58 3.19 0
 -6 6 -3 4.47 2.84 0
 -6 6 -2 102.86 6.15 0
 -6 6 0 5.82 2.69 0
 -6 6 1 112.62 6.28 0
 -6 6 2 98.42 5.81 0
 -6 6 3 1.17 2.08 0
 -6 6 4 3.07 2.06 0
 -6 7 -12 9.09 4.44 0
 -6 7 -10 8.52 4.59 0
 -6 7 -9 6.07 3.81 0
 -6 7 -8 157.92 8.82 0
 -6 7 -7 209.26 9.76 0
 -6 7 -6 15.31 4.24 0
 -6 7 -5 83.77 6.89 0
 -6 7 -4 239.54 9.74 0
 -6 7 -3 36.54 4.84 0
 -6 7 -2 76.9 6.19 0
 -6 7 -1 233.42 9.01 0
 -6 7 0 426.4 11.92 0
 -6 7 1 241.39 8.88 0
 -6 7 2 81.36 5.56 0
 -6 7 3 34.49 4.23 0
 -6 8 -11 16.64 5.31 0
 -6 8 -10 13.06 4.53 0
 -6 8 -9 36.16 5.53 0
 -6 8 -8 2.52 3.5 0
 -6 8 -6 7.38 3.88 0
 -6 8 -5 20.97 4.88 0
 -6 8 -4 41.11 5.32 0
 -6 8 -3 16.81 4.15 0
 -6 8 -2 28.15 4.71 0
 -6 8 -1 132.21 7.38 0
 -6 8 0 6.03 3.19 0
 -6 8 1 143.7 7.62 0
 -6 8 2 31.96 4.24 0
 -6 9 -10 105.53 8.45 0
 -6 9 -8 39.21 6.25 0
 -6 9 -7 2.58 3.78 0
 -6 9 -6 11.08 4.11 0
 -6 9 -5 56.83 6.03 0
 -6 9 -3 57.65 5.91 0
 -6 9 -2 7.66 3.73 0
 -6 9 -1 3.31 3.13 0
 -6 9 0 1.94 3.32 0
 -6 9 1 5.37 3.21 0
 -6 9 2 7.5 3.19 0
 -6 10 -9 3.41 3.92 0
 -6 10 -8 56.53 7.64 0
 -6 10 -6 168.49 9.95 0
 -6 10 -5 6.48 3.83 0
 -6 10 -3 2.49 3.51 0
 -6 10 0 8.06 4.21 0
 -6 10 1 11.77 3.89 0
 -6 11 -6 2.45 4.06 0
 -6 11 -5 13.1 4.95 0
 -6 11 -4 104.5 8.29 0
 -6 11 -3 70.35 6.97 0
 -6 11 -2 8.12 3.92 0
 -6 11 0 143.3 8.88 0
 -6 11 1 36.93 5.26 0
 -6 12 -5 32 5.95 0
 -6 12 -2 50.35 6.89 0
 -6 12 -1 12 4.84 0
 -6 12 0 25.29 5.47 0
 -6 12 1 3.81 3.61 0
 -5 -3 -10 552.79 13.59 0
 -5 -3 -9 228.18 8.67 0
 -5 -3 -8 86.62 5.57 0
 -5 -3 -7 83.34 5.25 0
 -5 -3 -5 12.09 2.58 0
 -5 -3 -2 556.48 9.18 0
 -5 -2 -13 3.72 3.32 0
 -5 -2 -10 2.92 2.63 0
 -5 -2 -9 147.76 7.22 0
 -5 -2 -8 326.32 9.87 0
 -5 -2 -7 114.92 6.12 0
 -5 -2 -6 35.74 3.87 0
 -5 -2 -5 101.14 5.01 0
 -5 -2 -2 26.41 2.39 0
 -5 -2 -1 72.95 3.37 0
 -5 -2 0 264.06 5.5 0
 -5 -2 1 72.58 2.67 0
 -5 -1 -15 15.2 4.42 0
 -5 -1 -13 35.22 5.12 0
 -5 -1 -12 206.79 9.29 0
 -5 -1 -10 57.53 5.13 0
 -5 -1 -9 2.92 2.77 0
 -5 -1 -7 59.12 4.75 0
 -5 -1 -6 42.12 3.88 0
 -5 -1 -5 15 2.73 0
 -5 -1 -2 91.74 4.25 0
 -5 -1 -1 14.06 2.13 0
 -5 -1 0 14.44 1.79 0
 -5 -1 2 97.65 2.84 0
 -5 -1 3 2.03 0.63 0
 -5 0 -16 18 4.93 0
 -5 0 -15 154.1 8.82 0
 -5 0 -13 29.65 5.08 0
 -5 0 -12 10.39 3.89 0
 -5 0 -11 64.34 5.81 0
 -5 0 -10 17.29 3.79 0
 -5 0 -8 87.89 5.85 0
 -5 0 -6 28.13 3.7 0
 -5 0 -5 33.87 3.39 0
 -5 0 -2 1.26 1.88 0
 -5 0 -1 64.14 3.46 0
 -5 0 0 -0.61 1.31 0
 -5 0 1 65.44 2.9 0
 -5 0 2 2.35 0.99 0
 -5 0 3 410.97 5.47 0
 -5 0 4 96.77 2.27 0
 -5 1 -16 21 4.79 0
 -5 1 -15 21.94 5.13 0
 -5 1 -14 0.54 3.46 0
 -5 1 -13 35.19 5.16 0
 -5 1 -12 191.66 9.34 0
 -5 1 -10 60.84 5.35 0
 -5 1 -9 4.73 3.11 0
 -5 1 -8 7.47 2.81 0
 -5 1 -6 46.9 4.06 0
 -5 1 -5 12.47 2.93 0
 -5 1 -1 18.71 2.35 0
 -5 1 1 14.51 2.1 0
 -5 1 2 93.95 3.48 0
 -5 1 3 1.86 1.11 0
 -5 1 4 4.81 1.11 0
 -5 1 5 16.4 1.38 0
 -5 1 6 43.13 1.61 0
 -5 2 -15 18.89 4.81 0
 -5 2 -14 37.77 5.43 0
 -5 2 -12 57.42 6.41 0
 -5 2 -11 3.94 3.16 0
 -5 2 -9 157.95 7.51 0
 -5 2 -8 353.45 10.68 0
 -5 2 -7 107.5 5.95 0
 -5 2 -6 36.52 4.16 0
 -5 2 -5 104.11 5.5 0
 -5 2 -1 73.59 4.15 0
 -5 2 0 248.8 6.54 0
 -5 2 1 70.97 3.53 0
 -5 2 2 24.18 2.42 0
 -5 2 3 252.4 5.66 0
 -5 2 4 1001.78 10.49 0
 -5 2 5 104.25 3.43 0
 -5 2 6 35.45 2.08 0
 -5 2 7 103.69 3.02 0
 -5 3 -16 67.51 6.73 0
 -5 3 -14 31.01 5.75 0
 -5 3 -13 69.25 6.58 0
 -5 3 -11 90.15 6.95 0
 -5 3 -10 558.8 14.43 0
 -5 3 -8 82.28 5.63 0
 -5 3 -7 80.07 5.69 0
 -5 3 -6 19.63 3.66 0
 -5 3 -5 14.87 3 0
 -5 3 -4 34.2 3.5 0
 -5 3 -3 408.11 9.72 0
 -5 3 1 59.27 3.52 0
 -5 3 2 566.24 9.52 0
 -5 3 3 404.85 7.88 0
 -5 3 4 32.05 2.55 0
 -5 4 -16 17.6 5.25 0
 -5 4 -15 87.62 7.87 0
 -5 4 -14 46.77 6.41 0
 -5 4 -13 23.15 4.84 0
 -5 4 -12 9.15 3.61 0
 -5 4 -11 47 5.07 0
 -5 4 -10 2.43 3.06 0
 -5 4 -9 28.08 4.21 0
 -5 4 -8 34.02 4.39 0
 -5 4 -7 27.03 4.03 0
 -5 4 -6 11.07 3.1 0
 -5 4 -4 86.44 5.28 0
 -5 4 -3 440.53 10.51 0
 -5 4 -2 49.59 3.95 0
 -5 4 -1 17.64 2.82 0
 -5 5 -15 57.99 6.47 0
 -5 5 -14 26.71 5.15 0
 -5 5 -13 7.33 3.84 0
 -5 5 -12 24.51 4.66 0
 -5 5 -11 22.33 4.45 0
 -5 5 -10 58.92 5.65 0
 -5 5 -9 179.79 8.5 0
 -5 5 -8 109.44 6.77 0
 -5 5 -7 77.05 5.84 0
 -5 5 -6 15.38 3.48 0
 -5 5 -5 10 3.45 0
 -5 5 -2 186.23 7.17 0
 -5 5 0 94.44 5.25 0
 -5 5 1 193.24 6.79 0
 -5 6 -15 14.19 4.64 0
 -5 6 -14 49.88 6.9 0
 -5 6 -13 13.88 4.87 0
 -5 6 -11 11.85 3.98 0
 -5 6 -9 20.57 4.23 0
 -5 6 -8 29.12 4.4 0
 -5 6 -7 2.55 2.81 0
 -5 6 -1 366.19 10.17 0
 -5 6 0 86.98 5.42 0
 -5 7 -14 146.56 9.58 0
 -5 7 -13 124.82 8.85 0
 -5 7 -12 -0.32 3.34 0
 -5 7 -11 133.96 8.26 0
 -5 7 -9 216.17 10.07 0
 -5 7 -7 16.42 4.02 0
 -5 7 -5 41.58 4.54 0
 -5 7 -4 23.52 3.98 0
 -5 7 -3 7.1 3.31 0
 -5 7 -2 91.32 6.15 0
 -5 7 -1 14.17 3.31 0
 -5 8 -13 39.36 6.47 0
 -5 8 -12 42.29 6.55 0
 -5 8 -11 31.28 5.33 0
 -5 8 -10 87.41 7.2 0
 -5 8 -8 253.97 11.04 0
 -5 8 -7 52.01 6.07 0
 -5 8 -6 48.32 5.56 0
 -5 8 -5 15.62 3.74 0
 -5 8 -4 23.08 4.15 0
 -5 8 -3 74.72 6.01 0
 -5 8 -2 269.44 9.95 0
 -5 8 -1 23.46 3.98 0
 -5 9 -12 -1.48 3.49 0
 -5 9 -9 228.36 10.78 0
 -5 9 -8 2.38 3.54 0
 -5 9 -7 25.99 4.83 0
 -5 9 -3 308.16 11.23 0
 -5 9 -2 83.53 6.63 0
 -5 10 -11 99.91 8.71 0
 -5 10 -10 121.57 8.81 0
 -5 10 -9 12.78 4.38 0
 -5 10 -7 0.45 3.24 0
 -5 10 -6 17.86 4.57 0
 -5 10 -5 32.87 5.51 0
 -5 10 -3 135.11 8.42 0
 -5 11 -10 50.89 7.13 0
 -5 11 -9 141.63 9.5 0
 -5 11 -8 11.96 4.57 0
 -5 11 -7 2.19 3.8 0
 -5 11 -6 13.58 4.48 0
 -5 11 -2 7.02 4.17 0
 -5 12 -8 142.02 9.72 0
 -5 12 -7 40.37 6.5 0
 -5 12 -6 16.53 5.12 0
 -5 12 -5 1.31 3.93 0
 -5 12 -4 142.56 8.92 0
 -5 12 -3 12.05 4.28 0
 -5 12 -2 14.4 5.18 0
 -5 13 -6 45.73 6.51 0
 -5 13 -5 29.14 5.58 0
 -5 13 -4 15.94 4.69 0
 -5 13 -3 39.56 6.57 0
 -5 13 -2 2.6 3.81 0
 -4 -3 -8 2.03 2.13 0
 -4 -3 -7 11.4 2.65 0
 -4 -3 -6 77.34 4.45 0
 -4 -3 -3 92.83 3.97 0
 -4 -3 -2 24.01 2.3 0
 -4 -2 -13 115.39 7 0
 -4 -2 -12 188.29 8.23 0
 -4 -2 -10 283.76 9.32 0
 -4 -2 -9 62.76 4.71 0
 -4 -2 -7 180.25 6.71 0
 -4 -2 -4 654.06 10.47 0
 -4 -2 -3 415.03 7.92 0
 -4 -2 -2 29.3 2.47 0
 -4 -2 0 172.37 3.94 0
 -4 -2 1 587.93 6.32 0
 -4 -1 -15 6.77 3.63 0
 -4 -1 -14 74.97 6.7 0
 -4 -1 -13 62.87 5.9 0
 -4 -1 -12 98.84 6.6 0
 -4 -1 -10 51.94 4.74 0
 -4 -1 -9 175.6 7.31 0
 -4 -1 -8 125.64 6.07 0
 -4 -1 -3 176.24 5.33 0
 -4 -1 -2 26.79 2.48 0
 -4 -1 -1 1067.86 10.88 0
 -4 -1 0 59.6 2.63 0
 -4 -1 1 1067.67 8.98 0
 -4 -1 3 180.56 2.52 0
 -4 0 -16 26.1 4.96 0
 -4 0 -15 321.09 11.73 0
 -4 0 -14 123.13 7.65 0
 -4 0 -13 -2.28 2.74 0
 -4 0 -11 29.03 4.46 0
 -4 0 -9 2.34 2.2 0
 -4 0 -8 19.09 3.04 0
 -4 0 -7 157.67 6.44 0
 -4 0 -4 8.7 1.89 0
 -4 0 -3 143.92 4.91 0
 -4 0 -1 7.58 1.52 0
 -4 0 0 397.86 6.5 0
 -4 0 2 6.75 1.06 0
 -4 0 3 129.72 2.85 0
 -4 0 4 9.55 0.89 0
 -4 0 5 5.65 0.57 0
 -4 1 -18 13.36 4.44 0
 -4 1 -17 131.59 8.72 0
 -4 1 -16 59.8 6.29 0
 -4 1 -15 3.58 3.19 0
 -4 1 -14 70.09 6.42 0
 -4 1 -13 57.16 5.44 0
 -4 1 -12 90.26 6.47 0
 -4 1 -10 43.3 4.52 0
 -4 1 -8 135.35 6.17 0
 -4 1 -7 133.23 6.1 0
 -4 1 -4 99.75 4.64 0
 -4 1 -3 174.3 5.68 0
 -4 1 -2 29.79 2.68 0
 -4 1 -1 1073.96 12.01 0
 -4 1 0 62.46 3.05 0
 -4 1 1 1089.36 10.66 0
 -4 1 2 27.79 1.96 0
 -4 1 3 174.29 3.87 0
 -4 1 4 106 2.87 0
 -4 1 5 320.56 4.46 0
 -4 2 -17 57.82 7.16 0
 -4 2 -16 10.63 4.45 0
 -4 2 -15 57.72 6.45 0
 -4 2 -14 234.91 9.95 0
 -4 2 -13 130.37 7.55 0
 -4 2 -12 195.68 8.84 0
 -4 2 -11 40.39 4.92 0
 -4 2 -10 291.67 9.72 0
 -4 2 -9 65.46 4.85 0
 -4 2 -8 81.56 5.06 0
 -4 2 -7 198.63 7.12 0
 -4 2 -6 120.67 5.48 0
 -4 2 -3 432.22 8.89 0
 -4 2 -1 583.29 9.31 0
 -4 2 0 173 4.97 0
 -4 2 1 590.83 8.58 0
 -4 2 2 30.71 2.21 0
 -4 3 -17 23.68 5.23 0
 -4 3 -16 17.53 4.62 0
 -4 3 -13 38.5 5.42 0
 -4 3 -12 32.66 4.93 0
 -4 3 -10 100.42 6.34 0
 -4 3 -9 78.8 5.5 0
 -4 3 -8 -0.27 1.77 0
 -4 3 -7 7.55 2.58 0
 -4 3 -6 82.02 5.04 0
 -4 3 -2 24.92 2.9 0
 -4 3 -1 448.68 8.73 0
 -4 3 1 440.5 7.88 0
 -4 4 -17 32.13 5.41 0
 -4 4 -16 10.11 4.62 0
 -4 4 -15 18.06 4.82 0
 -4 4 -14 45.72 6.01 0
 -4 4 -12 42.43 4.85 0
 -4 4 -10 9.81 3.45 0
 -4 4 -9 50.14 4.52 0
 -4 4 -5 660.17 12.67 0
 -4 4 -1 -0.16 1.66 0
 -4 5 -17 32.54 5.67 0
 -4 5 -16 10.92 4.18 0
 -4 5 -15 2.67 3.48 0
 -4 5 -14 20.07 5.02 0
 -4 5 -13 26.83 4.7 0
 -4 5 -12 35.52 5.09 0
 -4 5 -11 118.45 7.42 0
 -4 5 -10 8.97 3.24 0
 -4 5 -9 129.21 7.11 0
 -4 5 -8 52.88 4.7 0
 -4 5 -7 23.83 3.54 0
 -4 5 -6 0.68 2.19 0
 -4 5 -5 2.23 2.22 0
 -4 5 -3 31.89 3.92 0
 -4 6 -16 80.26 7.44 0
 -4 6 -15 -1.88 3.4 0
 -4 6 -14 2.88 3.44 0
 -4 6 -13 5.95 4.18 0
 -4 6 -12 175.1 8.85 0
 -4 6 -11 118.52 7.54 0
 -4 6 -9 241.71 9.59 0
 -4 6 -8 18.07 3.62 0
 -4 6 -7 71.56 5.54 0
 -4 6 -6 193.37 7.81 0
 -4 6 -5 31.09 3.81 0
 -4 6 -4 22.48 3.46 0
 -4 7 -16 11.54 4.51 0
 -4 7 -15 65.13 7.27 0
 -4 7 -14 17 4.4 0
 -4 7 -12 76.64 6.59 0
 -4 7 -11 176.57 9.22 0
 -4 7 -9 104.46 6.73 0
 -4 7 -8 154.17 8.08 0
 -4 7 -6 48.77 4.74 0
 -4 7 -5 289.87 9.78 0
 -4 7 -4 139.44 6.74 0
 -4 7 -3 367.67 10.2 0
 -4 8 -15 19.64 5.24 0
 -4 8 -14 10.76 4.16 0
 -4 8 -13 19.32 5.15 0
 -4 8 -12 195.51 9.7 0
 -4 8 -11 28.43 5.11 0
 -4 8 -10 88.11 7.08 0
 -4 8 -9 24.06 4.41 0
 -4 8 -8 6.92 3.59 0
 -4 8 -7 140.86 7.56 0
 -4 8 -4 20.27 3.6 0
 -4 8 -3 18.88 3.5 0
 -4 9 -14 32.18 6.28 0
 -4 9 -13 4.21 3.6 0
 -4 9 -12 185.9 10.05 0
 -4 9 -11 38.72 5.74 0
 -4 9 -10 128.33 8.18 0
 -4 9 -9 10.36 4.31 0
 -4 9 -8 214.81 9.61 0
 -4 9 -7 64.4 6.34 0
 -4 9 -5 6.24 3.18 0
 -4 10 -13 -1.69 3.67 0
 -4 10 -11 3.45 4.39 0
 -4 10 -9 16.86 4.88 0
 -4 10 -8 110.99 7.62 0
 -4 10 -7 58.97 6.37 0
 -4 10 -6 155.89 8.43 0
 -4 10 -4 87.94 6.34 0
 -4 11 -12 59.09 7.37 0
 -4 11 -11 8.6 4.61 0
 -4 11 -10 32.62 5.75 0
 -4 11 -9 -2.12 3.58 0
 -4 11 -8 180.64 9.59 0
 -4 11 -7 50.97 6.13 0
 -4 11 -5 3.26 3.32 0
 -4 11 -4 140.05 8.25 0
 -4 12 -10 50.79 6.95 0
 -4 12 -9 13.85 4.6 0
 -4 12 -8 142.85 9.14 0
 -4 12 -7 98.39 8.21 0
 -4 12 -5 3.91 3.51 0
 -4 12 -4 11.45 4.07 0
 -4 13 -8 3.7 3.97 0
 -4 13 -7 2.85 4.36 0
 -4 13 -6 57.37 7.27 0
 -4 13 -5 61.43 6.83 0
 -4 13 -4 29.56 5.51 0
 -4 14 -6 116.87 8.81 0
 -4 14 -5 54.32 6.72 0
 -4 14 -4 136.42 9.1 0
 -4 14 -3 3.14 3.54 0
 -3 -3 -9 47.15 3.91 0
 -3 -3 -5 184.44 5.64 0
 -3 -3 -4 60.18 3.3 0
 -3 -3 -3 747.5 9.62 0
 -3 -2 -12 81.24 5.56 0
 -3 -2 -11 182.01 7.55 0
 -3 -2 -10 55.42 4.41 0
 -3 -2 -8 176.82 6.52 0
 -3 -2 -5 486.45 8.82 0
 -3 -2 -4 662.41 9.62 0
 -3 -2 -3 307.51 6.16 0
 -3 -2 -1 94.65 3 0
 -3 -2 1 93.83 2.25 0
 -3 -1 -13 16.07 3.44 0
 -3 -1 -12 90.8 5.69 0
 -3 -1 -9 11.34 2.33 0
 -3 -1 -5 423.94 8.29 0
 -3 -1 -2 1681.87 13.1 0
 -3 -1 -1 119.26 3.4 0
 -3 -1 0 221.24 4.02 0
 -3 -1 1 121.66 2.66 0
 -3 -1 2 1719.04 7.74 0
 -3 0 -16 13.5 3.84 0
 -3 0 -15 0.91 3.01 0
 -3 0 -14 110.79 6.73 0
 -3 0 -13 39.21 5 0
 -3 0 -12 156.05 7.2 0
 -3 0 -9 30.95 3.36 0
 -3 0 -5 297.05 6.93 0
 -3 0 -4 0.64 1.4 0
 -3 0 -3 206.5 5.27 0
 -3 0 -2 1066.98 10.71 0
 -3 0 -1 26.7 2.04 0
 -3 0 0 0.85 0.9 0
 -3 0 1 27.87 1.67 0
 -3 0 2 1092.87 7.43 0
 -3 0 3 201.79 2.85 0
 -3 0 4 0.6 0.39 0
 -3 0 7 115.27 2.16 0
 -3 1 -17 18.69 4.56 0
 -3 1 -16 44.24 5.87 0
 -3 1 -15 353 11.71 0
 -3 1 -14 66.8 5.45 0
 -3 1 -13 16.41 3.63 0
 -3 1 -12 87.42 6 0
 -3 1 -10 95.35 5.42 0
 -3 1 -5 422.03 8.48 0
 -3 1 -4 46.25 3.01 0
 -3 1 -3 19.15 2.17 0
 -3 1 -2 1739.76 14.33 0
 -3 1 -1 118.1 3.8 0
 -3 1 0 222.19 4.66 0
 -3 2 -18 27.79 4.96 0
 -3 2 -17 1.75 3.08 0
 -3 2 -16 52.97 5.44 0
 -3 2 -14 8.59 3.29 0
 -3 2 -13 96.91 6.31 0
 -3 2 -12 82.85 5.57 0
 -3 2 -11 187.92 7.6 0
 -3 2 -10 53.93 4.34 0
 -3 2 -9 117.27 5.75 0
 -3 2 -8 176.17 6.53 0
 -3 2 -4 694.22 10.58 0
 -3 2 -2 595.98 8.86 0
 -3 2 -1 96.82 3.78 0
 -3 2 0 553.46 7.74 0
 -3 3 -18 70.05 6.68 0
 -3 3 -17 52.15 5.88 0
 -3 3 -16 37.26 5.1 0
 -3 3 -14 17.55 4.15 0
 -3 3 -12 18.27 3.58 0
 -3 3 -11 269.36 9.28 0
 -3 3 -10 56.6 4.41 0
 -3 3 -9 48.12 4.25 0
 -3 3 -8 131.45 5.9 0
 -3 3 -4 62.84 3.79 0
 -3 3 -3 779.98 11.18 0
 -3 3 -2 89.5 4 0
 -3 4 -18 3.88 3.92 0
 -3 4 -16 24.97 4.62 0
 -3 4 -15 122.52 7.82 0
 -3 4 -13 75.94 6.26 0
 -3 4 -12 39.21 4.62 0
 -3 4 -9 32.08 3.85 0
 -3 4 -8 248.19 8.13 0
 -3 4 -7 601.6 11.98 0
 -3 4 -2 127.8 4.66 0
 -3 5 -16 41.15 5.39 0
 -3 5 -14 4.96 3.22 0
 -3 5 -13 82.41 6.4 0
 -3 5 -10 4.12 2.65 0
 -3 5 -9 162.14 7.25 0
 -3 5 -7 14.79 2.87 0
 -3 5 -6 17.09 2.72 0
 -3 6 -16 91.64 7.41 0
 -3 6 -14 118.62 7.68 0
 -3 6 -13 88.36 6.89 0
 -3 6 -12 77.73 6.08 0
 -3 6 -11 30.89 4.31 0
 -3 6 -10 256.56 9.31 0
 -3 6 -9 121.1 6.52 0
 -3 6 -8 55.32 4.51 0
 -3 6 -7 145.47 6.74 0
 -3 6 -6 451.46 10.9 0
 -3 6 -5 291.54 8.6 0
 -3 6 -4 319.25 8.67 0
 -3 7 -16 13.83 4.4 0
 -3 7 -14 8.56 3.69 0
 -3 7 -13 42.17 5.48 0
 -3 7 -12 32.36 4.71 0
 -3 7 -9 119.58 7.06 0
 -3 7 -8 27.21 4.01 0
 -3 7 -6 56.16 4.53 0
 -3 7 -5 41.49 4.12 0
 -3 7 -4 14.63 2.57 0
 -3 8 -16 4.83 4.29 0
 -3 8 -15 82.62 7.14 0
 -3 8 -14 76.21 6.5 0
 -3 8 -13 56.25 5.8 0
 -3 8 -12 94.16 6.82 0
 -3 8 -8 88.61 5.95 0
 -3 8 -7 5.66 2.65 0
 -3 9 -15 32.69 5.34 0
 -3 9 -14 28.66 5.1 0
 -3 9 -12 151.22 8.85 0
 -3 9 -11 19.61 4.87 0
 -3 9 -10 22.16 4.66 0
 -3 9 -8 25.19 4.74 0
 -3 9 -7 46.29 5.67 0
 -3 9 -6 114.16 6.94 0
 -3 9 -5 52.62 5 0
 -3 10 -15 29.09 5.22 0
 -3 10 -13 17.52 4.39 0
 -3 10 -12 8.44 3.9 0
 -3 10 -11 35.97 5.4 0
 -3 10 -10 5.9 3.57 0
 -3 10 -9 50.52 6.29 0
 -3 10 -7 13.47 4.14 0
 -3 10 -6 51.3 6.09 0
 -3 10 -5 81.17 6.1 0
 -3 11 -13 55.75 6.59 0
 -3 11 -12 10.93 4.14 0
 -3 11 -11 31.19 5.57 0
 -3 11 -10 16.51 4.64 0
 -3 11 -9 382.89 13.14 0
 -3 11 -8 70.65 6.47 0
 -3 11 -7 51.61 5.55 0
 -3 11 -6 70.8 6.19 0
 -3 11 -5 48.06 5.57 0
 -3 12 -12 53.28 6.76 0
 -3 12 -11 42.53 5.9 0
 -3 12 -10 8.92 4.03 0
 -3 12 -9 24.57 4.96 0
 -3 12 -8 2.39 4.03 0
 -3 12 -7 92 7.43 0
 -3 12 -6 10.15 3.87 0
 -3 12 -5 131.99 8.34 0
 -3 13 -11 8.62 4.36 0
 -3 13 -10 22.44 5.18 0
 -3 13 -9 123.89 8.56 0
 -3 13 -6 23 5.41 0
 -3 13 -5 110.55 7.65 0
 -3 14 -8 4.12 3.67 0
 -3 14 -7 21.47 5.27 0
 -3 14 -6 54.75 6.62 0
 -3 14 -5 36.69 5.99 0
 -3 15 -5 8.11 4.15 0
 -2 -2 -11 77.03 4.83 0
 -2 -2 -5 123.79 4.27 0
 -2 -2 -3 296.74 5.43 0
 -2 -2 -2 1731.39 11.69 0
 -2 -2 -1 602.41 6.24 0
 -2 -1 -14 139.73 7.15 0
 -2 -1 -13 36.71 4.85 0
 -2 -1 -12 111.55 5.76 0
 -2 -1 -11 21.5 3.18 0
 -2 -1 -5 525.27 8.33 0
 -2 -1 -4 365.18 6.47 0
 -2 -1 -3 851.32 9.1 0
 -2 -1 -2 3137.92 15.41 0
 -2 -1 -1 2573.05 12.5 0
 -2 -1 0 279.86 3.58 0
 -2 -1 1 2503.38 8.46 0
 -2 0 -14 70.84 5.22 0
 -2 0 -13 20.85 3.71 0
 -2 0 -11 2.23 2.38 0
 -2 0 -5 56.38 2.88 0
 -2 0 -4 1859.22 14.26 0
 -2 0 -3 1588.23 12.22 0
 -2 0 -2 187.12 4.02 0
 -2 0 -1 3363.41 14.69 0
 -2 0 0 200.91 3.29 0
 -2 0 1 3263.64 11.06 0
 -2 0 5 53.03 1.49 0
 -2 1 -17 166.33 8.45 0
 -2 1 -16 5.19 3.41 0
 -2 1 -15 57.21 5.43 0
 -2 1 -14 146.78 7.13 0
 -2 1 -13 31.44 4.14 0
 -2 1 -12 116.82 5.89 0
 -2 1 -11 22.45 3.22 0
 -2 1 -10 534.24 11.02 0
 -2 1 -4 370.97 6.7 0
 -2 1 -3 843.48 9.4 0
 -2 1 -2 3155.71 16.45 0
 -2 1 -1 2609.4 13.86 0
 -2 1 0 276.66 4.26 0
 -2 2 -18 286.92 10.81 0
 -2 2 -16 25.86 4.17 0
 -2 2 -15 60.6 5.42 0
 -2 2 -14 42.37 4.93 0
 -2 2 -12 43.63 4.05 0
 -2 2 -11 79.65 5.08 0
 -2 2 -10 329.74 8.87 0
 -2 2 -7 71.14 3.8 0
 -2 2 -5 119.29 4.25 0
 -2 2 -3 302.97 6.1 0
 -2 2 -2 1762.81 13.26 0
 -2 3 -19 35.57 5.18 0
 -2 3 -18 50.71 5.49 0
 -2 3 -17 17.8 4.01 0
 -2 3 -16 4.09 3.27 0
 -2 3 -15 65.8 5.48 0
 -2 3 -14 40.02 4.96 0
 -2 3 -13 264.57 9.12 0
 -2 3 -12 371.66 10.39 0
 -2 3 -11 158 6.61 0
 -2 3 -10 87.26 4.94 0
 -2 3 -7 613.16 10.74 0
 -2 3 -5 337.37 7.43 0
 -2 3 -4 1836.56 15.95 0
 -2 3 -3 395.96 7.25 0
 -2 4 -18 48.44 5.99 0
 -2 4 -17 45.65 5.41 0
 -2 4 -16 52.12 5.43 0
 -2 4 -15 211.49 9.09 0
 -2 4 -14 148.01 7.37 0
 -2 4 -13 -0.72 2.34 0
 -2 4 -12 349.33 10.16 0
 -2 4 -11 12.03 3.15 0
 -2 4 -10 93.7 5.39 0
 -2 4 -6 249.4 6.87 0
 -2 5 -18 49.78 5.88 0
 -2 5 -17 0.25 2.77 0
 -2 5 -16 23.53 4.26 0
 -2 5 -15 98.35 6.9 0
 -2 5 -14 150.29 7.83 0
 -2 5 -13 23.12 3.96 0
 -2 5 -12 27.78 4.1 0
 -2 5 -11 189.89 7.74 0
 -2 5 -10 317.5 9.38 0
 -2 5 -8 280.47 8.16 0
 -2 5 -5 331.89 8.09 0
 -2 6 -17 36.19 5.48 0
 -2 6 -16 80.96 6.59 0
 -2 6 -15 11.27 4 0
 -2 6 -14 80.37 6.36 0
 -2 6 -13 214.17 8.9 0
 -2 6 -10 61.59 4.89 0
 -2 6 -9 104.91 5.65 0
 -2 6 -8 40.5 4.12 0
 -2 6 -7 50.94 4.24 0
 -2 7 -17 65.36 6.14 0
 -2 7 -16 45.58 5.56 0
 -2 7 -15 69.05 5.98 0
 -2 7 -14 4.11 3.06 0
 -2 7 -13 69.13 5.67 0
 -2 7 -12 42.55 5.17 0
 -2 7 -11 13.54 3.29 0
 -2 7 -10 7.75 2.89 0
 -2 7 -8 207.91 7.94 0
 -2 7 -7 206.55 7.55 0
 -2 7 -6 41.72 3.78 0
 -2 8 -16 137.25 7.99 0
 -2 8 -15 17.68 4.11 0
 -2 8 -14 10.91 3.55 0
 -2 8 -13 26.91 4.68 0
 -2 8 -11 108.74 6.59 0
 -2 8 -10 90.71 6.24 0
 -2 8 -9 115.72 6.38 0
 -2 8 -7 265.45 9.01 0
 -2 8 -6 172.96 7.1 0
 -2 9 -16 51.78 5.61 0
 -2 9 -15 50.77 6.04 0
 -2 9 -13 15.32 4.02 0
 -2 9 -12 23.29 4.64 0
 -2 9 -11 34.28 4.87 0
 -2 9 -9 91.85 6.08 0
 -2 9 -8 61.02 5.41 0
 -2 9 -7 36.88 4.09 0
 -2 10 -15 17.96 4.17 0
 -2 10 -14 16.47 4.27 0
 -2 10 -13 12.99 4.05 0
 -2 10 -12 84.02 6.49 0
 -2 10 -11 194.71 9.23 0
 -2 10 -10 32.36 4.82 0
 -2 10 -9 85.84 6.12 0
 -2 10 -8 6.24 3.45 0
 -2 10 -7 14.05 3.52 0
 -2 10 -6 267.31 9.48 0
 -2 11 -14 5.8 3.68 0
 -2 11 -13 4.91 3.43 0
 -2 11 -12 74.29 6.28 0
 -2 11 -11 33.82 5.21 0
 -2 11 -10 38.36 5.57 0
 -2 11 -9 38.09 5.08 0
 -2 11 -8 240.42 9.66 0
 -2 11 -7 10.42 3.49 0
 -2 11 -6 63.55 5.7 0
 -2 12 -12 43.22 6.2 0
 -2 12 -11 8.95 3.85 0
 -2 12 -10 42.96 5.73 0
 -2 12 -9 52.92 5.88 0
 -2 12 -8 23.26 4.67 0
 -2 12 -7 33.95 5.31 0
 -2 13 -12 105.92 7.88 0
 -2 13 -11 65.72 6.33 0
 -2 13 -10 173.89 9.04 0
 -2 13 -9 20.46 4.38 0
 -2 13 -8 78.35 6.81 0
 -2 13 -7 94.25 7.06 0
 -2 13 -6 18.63 4.27 0
 -2 14 -10 7.36 3.85 0
 -2 14 -9 22.57 4.81 0
 -2 14 -8 58.98 7.13 0
 -2 14 -7 30 5.62 0
 -2 14 -6 13.62 4.35 0
 -2 15 -7 40.34 6.45 0
 -2 15 -6 173.7 9.58 0
 -1 -2 -8 97.23 4.32 0
 -1 -2 -6 931.58 10.81 0
 -1 -1 -12 23.82 3.24 0
 -1 -1 -8 75.24 3.79 0
 -1 -1 -6 387.94 6.93 0
 -1 -1 -5 2361.09 15.46 0
 -1 -1 -3 9798.7 25.91 0
 -1 -1 -2 201.1 3.5 0
 -1 -1 -1 1007.03 6.25 0
 -1 -1 0 1599.66 6.09 0
 -1 -1 4 648.49 4.67 0
 -1 0 -14 13.64 2.95 0
 -1 0 -12 102.55 5.25 0
 -1 0 -11 0.99 1.72 0
 -1 0 -9 305.65 7.3 0
 -1 0 -6 41.66 2.6 0
 -1 0 -5 1581.5 12.45 0
 -1 0 -3 1306.17 9.4 0
 -1 0 -2 807.46 6.51 0
 -1 0 -1 1079.95 6.42 0
 -1 0 0 -0.04 0.51 0
 -1 0 4 456.77 4.31 0
 -1 1 -15 85.38 5.69 0
 -1 1 -14 8.89 2.79 0
 -1 1 -13 84.16 5.13 0
 -1 1 -12 25.99 3.35 0
 -1 1 -9 101.88 4.39 0
 -1 1 -8 73.9 3.7 0
 -1 1 -6 378.48 6.87 0
 -1 1 -5 2298.64 15.23 0
 -1 1 -4 644.81 7.67 0
 -1 1 -3 9589.04 26.17 0
 -1 1 -2 202.75 3.57 0
 -1 1 -1 1032.16 6.91 0
 -1 2 -17 47.86 4.92 0
 -1 2 -16 18.66 3.63 0
 -1 2 -15 7.84 2.7 0
 -1 2 -14 44.13 4.43 0
 -1 2 -13 61.99 4.71 0
 -1 2 -12 2.68 2.05 0
 -1 2 -8 96.86 4.22 0
 -1 2 -6 925.17 10.76 0
 -1 2 -5 121.08 3.8 0
 -1 2 -4 1719.28 12.76 0
 -1 2 -3 488.6 6.44 0
 -1 3 -17 50.21 4.85 0
 -1 3 -16 2.84 2.8 0
 -1 3 -15 37.84 4.06 0
 -1 3 -14 17.31 3.45 0
 -1 3 -13 80.72 5.16 0
 -1 3 -12 187.26 6.89 0
 -1 3 -11 191.87 6.67 0
 -1 3 -5 385.35 6.87 0
 -1 3 -4 273.97 5.84 0
 -1 4 -16 210.7 8.36 0
 -1 4 -15 33.79 4.26 0
 -1 4 -14 385.99 10.58 0
 -1 4 -13 161.54 7.02 0
 -1 4 -11 9.48 2.38 0
 -1 4 -8 1011.49 13.58 0
 -1 4 -7 377.21 7.93 0
 -1 4 -5 108.29 4.02 0
 -1 5 -14 30.35 3.94 0
 -1 5 -13 21.22 3.63 0
 -1 5 -12 106.67 5.55 0
 -1 5 -11 441.52 10.42 0
 -1 5 -10 23.6 3.2 0
 -1 5 -7 511.63 9.64 0
 -1 6 -15 38.01 4.38 0
 -1 6 -14 98.85 6.09 0
 -1 6 -13 122.12 6.17 0
 -1 6 -12 33.4 4.15 0
 -1 6 -10 16.5 3.11 0
 -1 6 -9 157.2 6.38 0
 -1 6 -6 84.38 4.29 0
 -1 7 -14 24.04 4.07 0
 -1 7 -13 42.89 4.26 0
 -1 7 -12 13.35 3.06 0
 -1 7 -11 14.25 3.35 0
 -1 7 -10 23.58 3.64 0
 -1 7 -9 54.31 4.14 0
 -1 7 -8 95.89 5.07 0
 -1 8 -14 15.91 3.29 0
 -1 8 -13 31.68 4.41 0
 -1 8 -12 74.38 5.54 0
 -1 8 -11 25.69 3.79 0
 -1 8 -10 155.53 7.09 0
 -1 8 -9 39.23 4.35 0
 -1 8 -8 50.33 4.37 0
 -1 8 -7 46.92 3.94 0
 -1 9 -13 24.02 4.19 0
 -1 9 -11 10.72 3.24 0
 -1 9 -10 10.07 3.08 0
 -1 9 -9 258.19 9 0
 -1 9 -8 85.64 5.74 0
 -1 9 -7 23.11 3.61 0
 -1 10 -13 57.34 5.17 0
 -1 10 -12 36.19 4.86 0
 -1 10 -11 163.99 7.82 0
 -1 10 -10 86.97 6.1 0
 -1 10 -9 81.71 5.97 0
 -1 10 -7 7.31 3.16 0
 -1 11 -12 6.73 2.9 0
 -1 11 -11 19.19 3.83 0
 -1 11 -10 151.25 7.96 0
 -1 11 -9 7.74 3.44 0
 -1 11 -8 35.23 4.57 0
 -1 11 -7 39.53 4.51 0
 -1 12 -11 23.94 4.71 0
 -1 12 -10 28.73 4.4 0
 -1 12 -9 38.99 5.08 0
 -1 12 -7 61.48 5.39 0
 -1 13 -11 11.7 3.54 0
 -1 13 -9 76.91 6.61 0
 -1 13 -8 111.96 7.12 0
 -1 14 -10 48.41 5.51 0
 -1 14 -8 82.4 6.93 0
 -1 14 -7 10.02 3.92 0
 -1 15 -8 15.85 4.5 0
 -1 15 -7 33.16 5.38 0
 -1 15 -6 85.92 7.14 0
 -1 16 -6 30.97 5.29 0
 0 -1 -7 203.73 4.91 0
 0 -1 -6 279.17 5.25 0
 0 -1 -5 2183.05 13.17 0
 0 -1 -4 23.58 1.71 0
 0 -1 2 634.39 4.49 0
 0 0 -10 211.04 5.93 0
 0 0 -9 2.21 1.37 0
 0 0 -7 0.42 1.18 0
 0 0 -5 0.12 0.96 0
 0 0 -4 2014.68 10.77 0
 0 0 -2 65.67 1.55 0
 0 1 -13 80.24 4.44 0
 0 1 -10 16.26 2.16 0
 0 1 -9 47.26 2.86 0
 0 1 -6 285.64 5.18 0
 0 1 -5 2192.46 12.67 0
 0 1 -4 25.38 1.62 0
 0 1 -3 13.49 1.15 0
 0 1 -2 592.51 4.36 0
 0 1 2 628.51 4.84 0
 0 2 -15 55.71 4.27 0
 0 2 -14 194.58 6.81 0
 0 2 -13 129.69 5.38 0
 0 2 -10 129.89 4.74 0
 0 2 -9 16.68 2.08 0
 0 2 -6 3.01 1.29 0
 0 2 -5 263.99 4.77 0
 0 2 -4 1472.07 9.93 0
 0 2 -3 992.56 7.41 0
 0 3 -15 39.17 3.63 0
 0 3 -14 19.08 3.01 0
 0 3 -13 415.46 9.46 0
 0 3 -10 36.94 2.77 0
 0 3 -9 0.89 1.24 0
 0 3 -6 61.28 2.85 0
 0 3 -5 1621.88 12.1 0
 0 3 -4 1244.13 10 0
 0 4 -15 -2.61 1.06 0
 0 4 -14 64.59 4.22 0
 0 4 -13 38.98 3.4 0
 0 4 -10 155.37 5.36 0
 0 4 -9 131.76 4.79 0
 0 4 -8 199.75 5.49 0
 0 4 -5 457.17 7.13 0
 0 5 -13 436.08 9.95 0
 0 5 -9 393.26 8.32 0
 0 5 -8 114.42 4.43 0
 0 5 -7 30.37 2.53 0
 0 6 -13 22.67 3.11 0
 0 6 -12 133.7 5.73 0
 0 6 -8 121.71 4.83 0
 0 6 -7 413.83 8.32 0
 0 6 -6 661.96 10.03 0
 0 7 -12 5.04 2.09 0
 0 7 -11 6.92 2.2 0
 0 7 -10 337.44 8.75 0
 0 8 -12 1.52 1.76 0
 0 8 -11 65.23 4.54 0
 0 8 -10 13.19 2.93 0
 0 8 -9 -0.21 2.12 0
 0 8 -8 113.27 5.43 0
 0 9 -11 19.88 3.04 0
 0 9 -10 26.88 3.51 0
 0 9 -9 123.63 6.04 0
 0 9 -7 33.03 3.91 0
 0 10 -11 -0.38 1.6 0
 0 10 -10 9.12 2.78 0
 0 10 -9 124.08 6.06 0
 0 10 -8 1.93 2.24 0
 0 10 -7 35.34 4.12 0
 0 11 -9 129.65 6.48 0
 0 11 -8 8.12 2.91 0
 0 11 -7 94.88 5.72 0
 0 12 -8 42.97 4.8 0
 0 13 -8 15.64 3.32 0
 0 13 -7 5.33 2.72 0
 0 14 -7 5.43 2.86 0
 0 15 -7 1.02 2.29 0
 1 1 -10 156.73 4.48 0
 1 1 -7 162.37 3.6 0
 1 1 -6 368.5 4.77 0
 1 1 -5 2268.9 10.15 0
 1 1 -4 607.78 4.4 0
 1 1 1 1007.2 6.29 0
 1 2 -12 1.78 1.35 0
 1 2 -11 246.6 5.86 0
 1 2 -10 626.85 8.68 0
 1 2 -7 347.61 5.23 0
 1 2 -6 936.48 7.68 0
 1 2 -5 126.87 2.67 0
 1 2 -4 1683.2 8 0
 1 2 -3 475.42 3.71 0
 1 3 -12 173.93 5.24 0
 1 3 -10 223.76 5.35 0
 1 3 -9 351.72 6.28 0
 1 3 -7 719.78 7.74 0
 1 3 -6 619.75 6.69 0
 1 3 -5 394.26 4.95 0
 1 3 -4 284.29 3.95 0
 1 4 -12 112.52 4.32 0
 1 4 -10 364.77 6.9 0
 1 4 -9 529.05 7.87 0
 1 4 -6 548.41 6.86 0
 1 4 -5 108.99 3.04 0
 1 5 -11 444.85 8.22 0
 1 5 -10 24.33 2.23 0
 1 5 -9 265.65 5.99 0
 1 6 -10 15.02 2.01 0
 1 6 -9 152.44 4.87 0
 1 6 -8 427.16 7.75 0
 1 6 -7 94.32 3.71 0
 1 7 -9 54.61 3.34 0
 1 7 -8 99.59 4.22 0
 1 7 -7 92.44 4 0
 1 8 -7 44.21 3.06 0
 1 10 -8 10.29 2.34 0
 1 10 -7 4.22 1.88 0
 2 3 -8 8.59 0.92 0
 2 3 -7 612.52 5.02 0
 2 3 -6 194.77 2.49 0
 2 3 -5 326.07 2.78 0
 2 3 -4 1789.53 6.24 0
 2 3 -2 1203.06 6.51 0
 2 4 -7 109.44 2.5 0
 2 4 -6 253.06 3.54 0
 2 4 -5 401.47 4.31 0
 2 5 -9 39.8 1.9 0
 2 5 -6 23.72 1.51 0
 2 6 -8 36.73 2.03 0
 2 6 -7 49.18 2.29 0
 2 7 -7 214.37 5 0
 3 2 -2 607.63 4.43 0
 3 5 -5 382.74 3.19 0
 3 5 -5 363.93 3.13 0
 4 4 -3 143.15 2.04 0
 -7 -8 -10 73.87 5.92 0
 -7 -8 -9 4.6 2.55 0
 -7 -7 -11 9.18 3.18 0
 -6 -9 -11 49.31 5.08 0
 -6 -9 -10 102.18 6.16 0
 -6 -9 -9 11.12 3.09 0
 -6 -9 -8 36.64 4.33 0
 -6 -8 -12 106.41 6.88 0
 -6 -8 -11 16.11 3.73 0
 -6 -8 -10 9.71 3.09 0
 -6 -8 -9 46.58 4.85 0
 -6 -8 -8 0.17 2.13 0
 -6 -7 -13 49.81 6.05 0
 -6 -7 -11 119.17 6.92 0
 -6 -7 -10 6.43 3.18 0
 -6 -6 -13 46.26 5.19 0
 -6 -6 -12 77.25 6.13 0
 -6 -6 -11 17.63 3.96 0
 -6 -5 -13 31.04 4.75 0
 -6 -4 -14 22.32 4.56 0
 -6 -4 -13 1.66 2.91 0
 -6 -3 -14 24.13 4.65 0
 -6 -2 -15 9.24 3.65 0
 -6 -1 -15 6.56 4.2 0
 -5 -9 -13 47.67 5.65 0
 -5 -9 -12 2.41 3.02 0
 -5 -9 -11 70.8 5.57 0
 -5 -9 -10 4.84 2.72 0
 -5 -9 -9 228.29 8.09 0
 -5 -9 -8 1.92 2.41 0
 -5 -9 -6 10.28 2.17 0
 -5 -9 -5 7.3 1.88 0
 -5 -9 -4 25.46 2.94 0
 -5 -8 -14 61.72 6 0
 -5 -8 -13 39.69 5.2 0
 -5 -8 -12 46.16 5.16 0
 -5 -8 -11 29.31 4.1 0
 -5 -8 -10 91.72 6.03 0
 -5 -8 -9 51.86 4.57 0
 -5 -8 -8 252.63 8.17 0
 -5 -8 -7 50.63 4.3 0
 -5 -7 -14 151.68 8.09 0
 -5 -7 -13 133.7 7.73 0
 -5 -7 -12 4.14 2.72 0
 -5 -7 -10 77.19 5.43 0
 -5 -7 -9 211.49 8.18 0
 -5 -6 -15 16.34 4.54 0
 -5 -6 -13 17.29 3.81 0
 -5 -6 -12 16.48 3.91 0
 -5 -6 -11 6.04 3.02 0
 -5 -5 -14 26.38 4.47 0
 -5 -5 -13 3.81 2.98 0
 -5 -5 -12 26.77 4.16 0
 -5 -4 -16 15.66 4.19 0
 -5 -4 -15 92.2 7.01 0
 -5 -4 -14 47.97 5.97 0
 -5 -4 -13 23.92 4.32 0
 -5 -3 -15 27.58 4.57 0
 -5 -3 -14 32.77 4.85 0
 -5 -2 -16 3.92 3.59 0
 -5 -2 -15 25.59 4.66 0
 -5 -2 -14 31.45 4.79 0
 -5 -1 -16 20.08 4.85 0
 -5 -1 -15 21.03 4.57 0
 -5 0 -15 162.73 8.73 0
 -5 1 -16 19.09 4.63 0
 -5 2 -16 5.66 3.87 0
 -5 3 -16 66.13 6.74 0
 -5 4 -16 14.29 3.99 0
 -5 5 -16 1.1 3.3 0
 -4 -10 -14 70.48 5.69 0
 -4 -10 -13 2.63 2.5 0
 -4 -10 -12 160.56 7.49 0
 -4 -10 -11 0.33 2.21 0
 -4 -10 -10 34.99 4.01 0
 -4 -10 -9 15.79 2.86 0
 -4 -10 -8 112.37 5.36 0
 -4 -10 -7 59.09 3.9 0
 -4 -10 -6 155.75 5.36 0
 -4 -9 -14 29.23 4.39 0
 -4 -9 -13 3.1 2.65 0
 -4 -9 -12 184.42 7.92 0
 -4 -9 -11 50.91 4.79 0
 -4 -9 -10 126.74 6.46 0
 -4 -9 -9 8.81 2.54 0
 -4 -9 -8 215.42 7.24 0
 -4 -9 -7 64.79 4.04 0
 -4 -9 -6 10.67 2.34 0
 -4 -9 -5 8 1.77 0
 -4 -9 -3 9.13 1.64 0
 -4 -9 -2 6.18 1.19 0
 -4 -8 -15 15.52 3.85 0
 -4 -8 -14 5.55 3.15 0
 -4 -8 -13 18.76 3.71 0
 -4 -8 -11 28.25 4.1 0
 -4 -8 -10 79.76 5.47 0
 -4 -8 -9 14.99 3.03 0
 -4 -8 -8 3.9 2.22 0
 -4 -8 -7 143.55 5.88 0
 -4 -8 -6 42.69 3.55 0
 -4 -8 -5 70.95 3.89 0
 -4 -7 -16 6.63 3.37 0
 -4 -7 -14 24.98 4.39 0
 -4 -7 -13 45.32 4.86 0
 -4 -7 -11 169.73 7.67 0
 -4 -7 -10 54.99 4.51 0
 -4 -7 -9 95.23 5.53 0
 -4 -6 -16 69.36 6.28 0
 -4 -6 -15 2.47 3.53 0
 -4 -6 -14 5.3 2.99 0
 -4 -6 -13 6.23 3.56 0
 -4 -6 -12 165.36 7.58 0
 -4 -6 -11 121.16 6.59 0
 -4 -6 -10 221.52 8.19 0
 -4 -5 -16 13.69 4.1 0
 -4 -5 -15 -1.16 2.75 0
 -4 -5 -14 20.2 3.99 0
 -4 -5 -13 20.79 4 0
 -4 -5 -10 6.4 2.67 0
 -4 -4 -17 26.86 4.91 0
 -4 -4 -16 3.83 3.15 0
 -4 -4 -15 19.4 4.2 0
 -4 -4 -14 35.27 4.92 0
 -4 -4 -12 41.91 5.2 0
 -4 -3 -17 17.07 4.25 0
 -4 -3 -16 14.27 3.74 0
 -4 -3 -14 71.79 5.84 0
 -4 -3 -13 39.29 4.76 0
 -4 -2 -17 72.52 6.56 0
 -4 -2 -16 10.19 3.46 0
 -4 -2 -15 48.42 5.22 0
 -4 -2 -13 113.84 6.77 0
 -4 -1 -17 131.08 8.01 0
 -4 -1 -16 50.87 6.24 0
 -4 -1 -15 1.3 3.17 0
 -4 -1 -14 69.05 5.82 0
 -4 0 -18 102.78 7.33 0
 -4 0 -17 54.92 6.43 0
 -4 0 -15 317.13 11.13 0
 -4 0 -14 117.14 7.18 0
 -4 1 -18 17.4 4.2 0
 -4 1 -17 124 7.79 0
 -4 1 -16 60.1 6.53 0
 -4 1 -15 5.73 3.32 0
 -4 2 -18 141.52 8.55 0
 -4 2 -17 56.25 6.3 0
 -4 2 -16 13.15 3.74 0
 -4 3 -17 23.07 4.25 0
 -4 3 -16 11.17 3.92 0
 -4 3 -15 72.29 5.91 0
 -4 4 -17 25.22 4.34 0
 -4 4 -16 10.41 3.91 0
 -4 4 -15 12.23 3.52 0
 -4 5 -16 19.56 4.04 0
 -4 5 -15 -2.22 2.36 0
 -4 6 -17 49.43 5.13 0
 -4 6 -16 68.78 5.75 0
 -4 6 -15 2.98 2.58 0
 -3 -11 -14 87.99 6.38 0
 -3 -11 -13 54.82 5.18 0
 -3 -11 -12 8.1 2.85 0
 -3 -11 -10 16.77 2.97 0
 -3 -11 -9 367.31 9.24 0
 -3 -11 -8 66.41 4.22 0
 -3 -10 -15 22.46 4.42 0
 -3 -10 -14 7.6 3 0
 -3 -10 -13 16.28 3.83 0
 -3 -10 -12 7.86 2.8 0
 -3 -10 -11 36.75 4.42 0
 -3 -10 -10 2.85 2.18 0
 -3 -10 -9 53.12 4.24 0
 -3 -10 -7 14.28 2.38 0
 -3 -10 -6 55.99 3.36 0
 -3 -10 -4 6.46 1.31 0
 -3 -9 -15 26.94 4.72 0
 -3 -9 -14 26.39 4.17 0
 -3 -9 -13 132.95 7.2 0
 -3 -9 -12 142.44 7.24 0
 -3 -9 -9 27.25 3.45 0
 -3 -9 -8 19.87 2.98 0
 -3 -9 -7 45.86 3.5 0
 -3 -9 -4 341.63 6.39 0
 -3 -9 -3 43.56 2.29 0
 -3 -9 -2 35.44 1.79 0
 -3 -9 -1 26.03 1.26 0
 -3 -8 -16 4.73 3.32 0
 -3 -8 -15 74.33 6.05 0
 -3 -8 -14 73.89 5.8 0
 -3 -8 -13 69.62 5.6 0
 -3 -8 -12 99.32 6.3 0
 -3 -8 -10 37.19 3.79 0
 -3 -8 -9 39.51 3.84 0
 -3 -8 -8 86.82 4.79 0
 -3 -8 -7 7.49 2.08 0
 -3 -8 -4 286.31 6.03 0
 -3 -8 -3 38.24 2.27 0
 -3 -8 -2 235.88 4.54 0
 -3 -8 -1 292.89 4.34 0
 -3 -8 0 19.41 1.03 0
 -3 -7 -16 13.72 4.03 0
 -3 -7 -15 54.14 5.79 0
 -3 -7 -14 6.06 3.59 0
 -3 -7 -12 33.28 4.49 0
 -3 -7 -11 22.54 3.67 0
 -3 -7 -10 92.45 5.42 0
 -3 -7 -9 136.27 6.06 0
 -3 -7 -7 20.5 2.68 0
 -3 -7 -5 40.59 2.97 0
 -3 -7 -4 16.73 2.02 0
 -3 -7 2 218.48 2.62 0
 -3 -7 3 109.24 1.48 0
 -3 -6 -16 95.39 6.91 0
 -3 -6 -15 120.04 7.56 0
 -3 -6 -14 123.74 7.43 0
 -3 -6 -13 88.78 5.88 0
 -3 -6 -12 62.34 4.93 0
 -3 -6 -10 250.31 8.08 0
 -3 -6 -9 113.02 5.47 0
 -3 -6 -8 53.07 3.98 0
 -3 -6 -7 142.33 5.4 0
 -3 -5 -17 12.06 3.8 0
 -3 -5 -16 32.19 5.04 0
 -3 -5 -15 44.59 4.98 0
 -3 -5 -14 4.26 3.16 0
 -3 -5 -13 78.51 5.61 0
 -3 -5 -12 141.4 7.12 0
 -3 -5 -11 37.91 3.8 0
 -3 -5 -10 2.63 2.08 0
 -3 -4 -18 8.19 3.85 0
 -3 -4 -17 83.34 6.92 0
 -3 -4 -16 19.05 3.94 0
 -3 -4 -15 133.28 7.82 0
 -3 -4 -14 27.34 4.11 0
 -3 -4 -13 92.7 5.9 0
 -3 -4 -12 36.85 4.31 0
 -3 -4 -11 95.72 5.61 0
 -3 -4 -10 142.05 6.44 0
 -3 -3 -17 48.89 5.93 0
 -3 -3 -16 32.56 4.82 0
 -3 -3 -15 246.89 9.87 0
 -3 -3 -14 18.37 3.74 0
 -3 -3 -13 36.15 4.28 0
 -3 -3 -11 269.66 8.79 0
 -3 -2 -15 46.48 5.59 0
 -3 -2 -14 6.17 2.81 0
 -3 -2 -13 99.23 6.08 0
 -3 -2 -12 84.44 5.29 0
 -3 -1 -17 19.45 4.21 0
 -3 -1 -16 48.03 5.19 0
 -3 -1 -14 67.88 5.51 0
 -3 -1 -12 86.08 5.28 0
 -3 0 -18 15.97 4.12 0
 -3 0 -17 0.02 2.79 0
 -3 0 -16 15.72 3.89 0
 -3 0 -14 109.24 6.56 0
 -3 0 -13 42.54 4.41 0
 -3 1 -18 4.38 3.22 0
 -3 1 -17 18.72 4.16 0
 -3 1 -16 39.76 5.06 0
 -3 1 -15 367.67 11.44 0
 -3 1 -14 67.21 5.31 0
 -3 2 -18 30.43 4.78 0
 -3 2 -17 0.5 3.31 0
 -3 2 -15 50.51 4.85 0
 -3 3 -17 40.63 5.31 0
 -3 3 -15 234.52 9.24 0
 -3 4 -17 74.13 6.12 0
 -3 4 -16 21.8 3.86 0
 -3 4 -15 124.55 7.03 0
 -3 4 -14 24.39 3.72 0
 -3 5 -17 13.45 3.41 0
 -3 5 -16 34.03 4.37 0
 -3 5 -15 51.52 4.6 0
 -3 5 -14 4.65 2.61 0
 -3 6 -16 93.04 5.81 0
 -3 6 -15 122.99 6.34 0
 -3 6 -14 116.3 6.09 0
 -3 6 -13 87.12 5.24 0
 -2 -11 -13 8.2 2.94 0
 -2 -11 -12 87.95 5.98 0
 -2 -11 -11 26.19 3.5 0
 -2 -11 -10 42.66 3.93 0
 -2 -11 -8 251.07 7.3 0
 -2 -11 -7 7.62 1.78 0
 -2 -10 -15 19.36 3.91 0
 -2 -10 -14 9.56 3.23 0
 -2 -10 -12 91.3 5.98 0
 -2 -10 -11 183.38 7.38 0
 -2 -10 -9 80.55 4.72 0
 -2 -10 -8 4.59 2.03 0
 -2 -10 -7 11.13 2.12 0
 -2 -10 -5 1.04 1.1 0
 -2 -10 -4 36.25 2.27 0
 -2 -10 -3 42.19 2.06 0
 -2 -9 -16 50.87 6.09 0
 -2 -9 -15 49.55 5.94 0
 -2 -9 -14 12.74 3.51 0
 -2 -9 -13 15.08 3.68 0
 -2 -9 -12 19.94 3.74 0
 -2 -9 -11 22.91 3.43 0
 -2 -9 -10 3.43 2.46 0
 -2 -9 -9 94.94 5.22 0
 -2 -9 -7 42.21 3.23 0
 -2 -9 -5 531.98 8.38 0
 -2 -9 -3 225.23 4.48 0
 -2 -9 -2 101.85 2.58 0
 -2 -9 -1 48.84 1.19 0
 -2 -8 -16 133.39 8.17 0
 -2 -8 -15 16.21 3.65 0
 -2 -8 -14 6.54 2.95 0
 -2 -8 -12 24.44 3.76 0
 -2 -8 -11 104.8 5.71 0
 -2 -8 -10 85.91 5.27 0
 -2 -8 -9 104.82 5.29 0
 -2 -8 -8 117.25 5.2 0
 -2 -8 -5 116.02 4.14 0
 -2 -8 -4 159.21 4.34 0
 -2 -8 -3 135.43 3.55 0
 -2 -8 -2 416.55 5.28 0
 -2 -8 -1 466.84 4.48 0
 -2 -7 -17 68.7 6.64 0
 -2 -7 -16 43.22 5.71 0
 -2 -7 -15 65.4 6.03 0
 -2 -7 -14 3.26 2.64 0
 -2 -7 -13 73.08 5.44 0
 -2 -7 -12 42.12 4.78 0
 -2 -7 -11 10.81 2.69 0
 -2 -7 -10 3.95 2.1 0
 -2 -7 -9 142.99 5.85 0
 -2 -7 -5 35.97 2.68 0
 -2 -7 -4 416.92 6.78 0
 -2 -7 -3 49.44 2.25 0
 -2 -7 -2 169.88 3.53 0
 -2 -7 -1 355 4.22 0
 -2 -7 0 486.31 3.63 0
 -2 -6 -17 35.76 5.08 0
 -2 -6 -16 85.04 6.63 0
 -2 -6 -15 9.89 3.38 0
 -2 -6 -14 89.46 6.24 0
 -2 -6 -12 4.56 2.4 0
 -2 -6 -11 80.88 5.05 0
 -2 -6 -10 64.79 4.45 0
 -2 -6 -9 119.18 5.26 0
 -2 -6 -6 450.9 8.11 0
 -2 -6 -5 278.34 6.05 0
 -2 -6 -4 27.11 2.21 0
 -2 -6 -3 647.78 7.6 0
 -2 -6 -2 282.01 4.56 0
 -2 -6 -1 55.29 1.88 0
 -2 -6 0 359.34 3.69 0
 -2 -6 1 57.8 1.19 0
 -2 -6 1 54.57 1.09 0
 -2 -5 -18 45.13 5.77 0
 -2 -5 -16 20.85 4.2 0
 -2 -5 -15 101.62 6.52 0
 -2 -5 -13 29.97 3.98 0
 -2 -5 -12 26.4 3.79 0
 -2 -5 -10 334.12 8.83 0
 -2 -5 -9 34.92 3.2 0
 -2 -5 -5 332.36 6.66 0
 -2 -4 -17 49.02 6.12 0
 -2 -4 -16 52.13 5.04 0
 -2 -4 -15 207.1 8.92 0
 -2 -4 -14 144.89 7.32 0
 -2 -4 -13 3.22 2.44 0
 -2 -4 -12 342.65 9.91 0
 -2 -4 -11 10.5 2.52 0
 -2 -4 -9 0.81 1.72 0
 -2 -3 -19 38.02 5.75 0
 -2 -3 -18 54.08 6.19 0
 -2 -3 -17 14.88 4.27 0
 -2 -3 -16 6.2 3.38 0
 -2 -3 -15 55.36 5.51 0
 -2 -3 -14 41.13 4.34 0
 -2 -3 -13 255.8 8.88 0
 -2 -3 -12 357.24 9.76 0
 -2 -3 -11 155.8 6.31 0
 -2 -3 -10 86.1 4.75 0
 -2 -3 -9 94.47 4.71 0
 -2 -2 -19 37.57 5.49 0
 -2 -2 -18 295.33 11.39 0
 -2 -2 -17 52.33 5.61 0
 -2 -2 -16 25.1 4.64 0
 -2 -2 -15 64.21 5.33 0
 -2 -2 -14 40.46 4.41 0
 -2 -2 -13 36.69 4.3 0
 -2 -2 -12 43.63 4.15 0
 -2 -2 -11 77.71 4.58 0
 -2 -1 -18 24.63 4.93 0
 -2 -1 -16 3.15 2.79 0
 -2 -1 -15 53.7 5.25 0
 -2 -1 -14 152.21 7.41 0
 -2 -1 -13 31.6 3.78 0
 -2 -1 -12 121.42 5.94 0
 -2 -1 -10 524.44 10.58 0
 -2 0 -19 46.28 6.06 0
 -2 0 -18 27.9 4.58 0
 -2 0 -17 11.91 3.41 0
 -2 0 -16 1.28 2.55 0
 -2 0 -14 71.04 5.06 0
 -2 0 -13 25.2 3.48 0
 -2 0 -12 232.8 7.73 0
 -2 0 -11 -0.28 1.92 0
 -2 1 -19 41.88 5.39 0
 -2 1 -18 22.31 4.21 0
 -2 1 -17 167.8 8.45 0
 -2 1 -16 0.16 2.65 0
 -2 1 -15 52.44 4.89 0
 -2 1 -14 146.48 6.82 0
 -2 1 -13 34.21 3.64 0
 -2 1 -11 20.48 2.94 0
 -2 2 -19 44.63 5.39 0
 -2 2 -17 46.81 5.25 0
 -2 2 -15 64.06 5.14 0
 -2 2 -14 43.55 4.52 0
 -2 2 -13 40.25 3.93 0
 -2 2 -12 44.27 4.19 0
 -2 3 -17 15.57 3.66 0
 -2 3 -16 6.9 2.9 0
 -2 3 -15 64.1 5.29 0
 -2 3 -13 260.58 8.36 0
 -2 3 -12 376.31 9.54 0
 -2 4 -19 3.66 2.75 0
 -2 4 -18 45.76 5.17 0
 -2 4 -17 45.28 5.45 0
 -2 4 -16 50.06 4.76 0
 -2 4 -15 216.8 8.15 0
 -2 4 -14 152.42 6.99 0
 -2 4 -13 2.05 1.98 0
 -2 4 -12 342.06 8.97 0
 -2 5 -15 106.27 6.1 0
 -2 5 -14 154.17 6.58 0
 -2 5 -12 23.89 3.27 0
 -2 6 -14 85.79 4.93 0
 -2 6 -13 219.19 7.34 0
 -2 6 -12 5.05 2.15 0
 -1 -12 -14 15.56 4.04 0
 -1 -12 -13 121.55 7.03 0
 -1 -12 -12 78.48 5.7 0
 -1 -12 -11 24.84 3.83 0
 -1 -12 -10 27.45 3.62 0
 -1 -12 -8 37.83 3.54 0
 -1 -11 -15 23.29 4.29 0
 -1 -11 -14 96.23 6.72 0
 -1 -11 -13 44.41 5.4 0
 -1 -11 -12 3.81 2.81 0
 -1 -11 -10 148.76 6.72 0
 -1 -11 -7 36.23 3.16 0
 -1 -11 -4 114.57 3.67 0
 -1 -10 -16 51.94 6.27 0
 -1 -10 -15 8.59 3.41 0
 -1 -10 -14 44.52 5.5 0
 -1 -10 -13 50.8 5.53 0
 -1 -10 -12 38.07 4.7 0
 -1 -10 -11 174.38 7.61 0
 -1 -10 -10 83.13 5.37 0
 -1 -10 -9 79.02 4.88 0
 -1 -10 -8 13.76 2.74 0
 -1 -10 -7 4.33 1.73 0
 -1 -10 -5 258.81 6.11 0
 -1 -10 -4 123.23 3.92 0
 -1 -9 -16 11.74 3.66 0
 -1 -9 -13 22.78 4.18 0
 -1 -9 -11 16.03 3.22 0
 -1 -9 -10 6.15 2.42 0
 -1 -9 -9 268.41 7.99 0
 -1 -9 -7 23.87 2.9 0
 -1 -9 -5 219.78 5.59 0
 -1 -9 -4 306.03 5.97 0
 -1 -9 -3 477.79 6.63 0
 -1 -9 -2 61.72 2.17 0
 -1 -8 -17 5.19 3.49 0
 -1 -8 -16 72.23 6.43 0
 -1 -8 -15 41.77 5.47 0
 -1 -8 -14 13.83 3.4 0
 -1 -8 -13 29.65 4.11 0
 -1 -8 -11 20.96 3.22 0
 -1 -8 -10 148.8 6.35 0
 -1 -8 -8 52.11 3.6 0
 -1 -8 -5 199.67 5.22 0
 -1 -8 -4 10.69 1.52 0
 -1 -8 -3 295.11 5.21 0
 -1 -8 -2 217.72 3.94 0
 -1 -8 -1 43.17 1.47 0
 -1 -7 -17 20.85 4.64 0
 -1 -7 -16 120.66 7.41 0
 -1 -7 -15 104.79 7 0
 -1 -7 -14 23.9 3.91 0
 -1 -7 -12 13.5 3 0
 -1 -7 -11 11.4 2.69 0
 -1 -7 -10 18.36 2.86 0
 -1 -7 -8 100.33 4.58 0
 -1 -7 -6 38.04 2.64 0
 -1 -7 -5 525.06 8.16 0
 -1 -7 -4 802.33 9.11 0
 -1 -7 -3 1.36 0.95 0
 -1 -7 -2 37.78 1.75 0
 -1 -7 -1 171.36 2.85 0
 -1 -6 -18 4.41 3.48 0
 -1 -6 -16 126.57 7.78 0
 -1 -6 -15 28.96 4.56 0
 -1 -6 -14 102.36 6.27 0
 -1 -6 -13 124.14 6.81 0
 -1 -6 -12 32.33 3.72 0
 -1 -6 -11 15.99 3.17 0
 -1 -6 -10 13.33 2.58 0
 -1 -6 -6 84.69 3.61 0
 -1 -6 -5 69.99 3.07 0
 -1 -6 -4 200.24 4.49 0
 -1 -6 -3 20.82 1.65 0
 -1 -6 -2 158.54 3.19 0
 -1 -6 -1 522.53 4.71 0
 -1 -6 0 324.5 2.6 0
 -1 -5 -18 22.27 4.55 0
 -1 -5 -17 62.57 5.9 0
 -1 -5 -16 75.65 5.99 0
 -1 -5 -15 165.44 7.82 0
 -1 -5 -14 32.92 4.46 0
 -1 -5 -12 121.16 5.98 0
 -1 -5 -11 447.25 10.59 0
 -1 -5 -9 264.39 7.35 0
 -1 -5 -7 519.62 9.08 0
 -1 -5 -5 89.87 3.32 0
 -1 -5 -3 1854.34 11.7 0
 -1 -5 -2 691.63 6.31 0
 -1 -5 -1 96.82 2.07 0
 -1 -4 -19 33 5.47 0
 -1 -4 -17 223.67 9.75 0
 -1 -4 -16 218.75 9.22 0
 -1 -4 -15 41.63 4.56 0
 -1 -4 -14 372.73 10.94 0
 -1 -4 -12 115.56 5.81 0
 -1 -4 -11 13.38 2.55 0
 -1 -4 -10 362.72 8.85 0
 -1 -4 -7 399.79 7.64 0
 -1 -4 -6 541.51 8.26 0
 -1 -4 -5 109.93 3.55 0
 -1 -4 -4 71.06 2.82 0
 -1 -4 -3 224.48 4.09 0
 -1 -4 -2 1667.36 9.51 0
 -1 -4 -1 608.98 4.84 0
 -1 -4 0 688.46 3.82 0
 -1 -3 -19 42.48 5.59 0
 -1 -3 -18 25.69 4.98 0
 -1 -3 -17 54.39 5.62 0
 -1 -3 -16 2.6 2.57 0
 -1 -3 -15 33.32 4.55 0
 -1 -3 -13 72.09 4.86 0
 -1 -3 -12 170.68 6.92 0
 -1 -3 -11 201.24 7.03 0
 -1 -3 -10 214.32 6.78 0
 -1 -3 -7 726 10 0
 -1 -3 -6 613.21 8.63 0
 -1 -3 -4 284.07 5.16 0
 -1 -3 3 842.35 4.98 0
 -1 -2 -19 53.25 6.22 0
 -1 -2 -18 30.72 5.14 0
 -1 -2 -16 14.28 3.6 0
 -1 -2 -15 11.37 3.13 0
 -1 -2 -14 43.12 4.17 0
 -1 -2 -13 60.25 4.48 0
 -1 -2 -12 0.51 1.97 0
 -1 -2 -11 255.46 7.65 0
 -1 -2 -10 638.93 11.16 0
 -1 -2 -6 925.54 10.37 0
 -1 -1 -19 15.5 4.18 0
 -1 -1 -18 8.25 3.59 0
 -1 -1 -17 17.08 3.83 0
 -1 -1 -16 7.48 3.27 0
 -1 -1 -15 67.8 5.14 0
 -1 -1 -13 75.65 4.84 0
 -1 -1 -12 31.93 3.47 0
 -1 -1 -11 226.45 7.03 0
 -1 -1 1 1040.95 5.51 0
 -1 -1 2 192.5 2.73 0
 -1 0 -19 26.07 4.58 0
 -1 0 -18 2.41 3.33 0
 -1 0 -17 20.92 3.98 0
 -1 0 -16 4.42 3.31 0
 -1 0 -12 105.4 5.2 0
 -1 0 -11 0.12 1.92 0
 -1 1 -19 23.86 4.39 0
 -1 1 -18 5.46 3.02 0
 -1 1 -17 12.12 3.67 0
 -1 1 -16 9.58 3.05 0
 -1 1 -15 85.35 5.92 0
 -1 1 -14 12.81 3.15 0
 -1 1 -13 81.77 4.93 0
 -1 1 -12 28.39 3.13 0
 -1 1 -11 228.16 6.87 0
 -1 1 -9 96.33 4.27 0
 -1 2 -19 46.74 5.36 0
 -1 2 -16 14.91 3.33 0
 -1 2 -15 11 2.9 0
 -1 2 -13 63.25 4.54 0
 -1 2 -12 2.04 1.97 0
 -1 2 -11 249.73 7.11 0
 -1 3 -19 40.75 5.17 0
 -1 3 -17 53.05 5.22 0
 -1 3 -16 5.67 2.63 0
 -1 3 -15 41.66 4.06 0
 -1 3 -14 17.71 3.09 0
 -1 3 -13 75.54 4.61 0
 -1 3 -12 187 6.45 0
 -1 3 -11 197.97 6.25 0
 -1 4 -19 40.16 4.61 0
 -1 4 -18 45.33 5.22 0
 -1 4 -17 246.48 9.15 0
 -1 4 -16 210.08 8.26 0
 -1 4 -15 40.13 4.54 0
 -1 4 -14 379.93 9.86 0
 -1 4 -13 162.6 6.41 0
 -1 4 -12 113.27 5.21 0
 -1 4 -11 10.3 2.05 0
 -1 4 -9 530.15 8.94 0
 -1 5 -16 77.46 5.09 0
 -1 5 -15 170.14 6.9 0
 -1 5 -14 32.14 3.54 0
 -1 5 -13 18.06 2.81 0
 -1 5 -9 256.66 6.1 0
 -1 6 -13 128.79 5.22 0
 -1 7 -9 53.73 2.82 0
 0 -12 -14 0.69 2.49 0
 0 -12 -13 104.86 6.56 0
 0 -12 -12 1.4 2.38 0
 0 -12 -11 9.88 2.98 0
 0 -12 -10 2.2 2.71 0
 0 -12 -9 95.18 5.24 0
 0 -12 -7 690.18 11.81 0
 0 -12 -6 4.36 1.68 0
 0 -11 -15 0.43 3.02 0
 0 -11 -14 5.32 3.02 0
 0 -11 -13 58.55 5.69 0
 0 -11 -12 0.17 2.59 0
 0 -11 -9 118.99 5.98 0
 0 -11 -8 7.11 2.27 0
 0 -11 -7 94.28 4.76 0
 0 -11 -6 21.33 2.72 0
 0 -10 -16 16.61 4.37 0
 0 -10 -15 25.17 4.43 0
 0 -10 -14 24.19 4.23 0
 0 -10 -13 73.56 5.97 0
 0 -10 -12 -0.95 2.95 0
 0 -10 -11 0.69 2.58 0
 0 -10 -10 7.38 2.6 0
 0 -10 -8 2.2 1.99 0
 0 -10 -7 33.87 3.14 0
 0 -10 -4 14.88 1.81 0
 0 -9 -16 33.52 5.84 0
 0 -9 -15 12.25 3.96 0
 0 -9 -14 58.33 5.79 0
 0 -9 -13 31.69 4.32 0
 0 -9 -12 27.77 3.98 0
 0 -9 -11 16.73 3.65 0
 0 -9 -10 27.52 3.6 0
 0 -9 -9 119.37 5.79 0
 0 -9 -8 3.05 1.94 0
 0 -9 -7 30.13 3.22 0
 0 -9 -5 58.1 3.24 0
 0 -9 -4 72.6 3.34 0
 0 -9 -3 229.33 5.05 0
 0 -8 -16 24.25 5.03 0
 0 -8 -15 59.15 6.13 0
 0 -8 -14 31.34 4.84 0
 0 -8 -13 4.22 2.6 0
 0 -8 -12 4.31 2.51 0
 0 -8 -11 67.39 4.92 0
 0 -8 -10 12.6 2.76 0
 0 -8 -9 0.44 1.87 0
 0 -8 -8 119.47 5.43 0
 0 -8 -4 172.37 4.69 0
 0 -8 -3 453.85 6.89 0
 0 -8 -2 797.35 8.19 0
 0 -7 -17 4.7 3.68 0
 0 -7 -14 104.1 6.9 0
 0 -7 -13 254.91 9.47 0
 0 -7 -12 6.46 2.63 0
 0 -7 -11 3.83 2.2 0
 0 -7 -10 326.42 8.93 0
 0 -7 -9 19.62 2.81 0
 0 -7 -8 297.9 7.75 0
 0 -7 -6 286.96 6.73 0
 0 -7 -5 129.71 4.39 0
 0 -7 -4 99.15 3.54 0
 0 -7 -3 68.11 2.71 0
 0 -7 -2 4.13 1.01 0
 0 -7 -1 407.01 5.04 0
 0 -6 -18 62.66 6.93 0
 0 -6 -17 2.56 3.12 0
 0 -6 -16 6.72 3.73 0
 0 -6 -15 13.23 3.55 0
 0 -6 -13 22.56 3.65 0
 0 -6 -12 130.88 6.41 0
 0 -6 -10 134.9 5.99 0
 0 -6 -6 660.03 9.69 0
 0 -6 -5 0.22 1.15 0
 0 -6 -4 93.69 3.27 0
 0 -6 -3 232.02 4.69 0
 0 -6 -2 71.35 2.46 0
 0 -6 -1 997.54 7.45 0
 0 -5 -18 -2.64 2.84 0
 0 -5 -17 401.16 12.92 0
 0 -5 -16 17.07 4.26 0
 0 -5 -15 17.93 3.81 0
 0 -5 -14 304.36 10.19 0
 0 -5 -13 414.6 11.21 0
 0 -5 -12 120.68 6.06 0
 0 -5 -11 717.83 13.19 0
 0 -5 -10 47.7 3.89 0
 0 -5 -9 400.26 8.89 0
 0 -5 -7 35.75 2.83 0
 0 -5 -6 1480.44 13.86 0
 0 -5 -5 1314.15 12.2 0
 0 -5 -3 185.67 3.94 0
 0 -5 -2 527 5.91 0
 0 -5 -1 730.33 5.99 0
 0 -4 -19 25.55 4.8 0
 0 -4 -18 24.9 4.67 0
 0 -4 -17 0.85 3.05 0
 0 -4 -16 4.82 3.42 0
 0 -4 -15 -1.82 2.25 0
 0 -4 -14 67.94 5.34 0
 0 -4 -13 42.35 3.99 0
 0 -4 -12 347.7 9.6 0
 0 -4 -11 124.87 5.73 0
 0 -4 -10 161.27 6.04 0
 0 -4 -7 1.85 1.43 0
 0 -4 -5 458.98 7.1 0
 0 -4 -4 713.77 7.89 0
 0 -4 -3 373.86 5.21 0
 0 -4 -2 672.51 6.18 0
 0 -4 -1 277.89 3.44 0
 0 -4 0 363.22 3.3 0
 0 -3 -19 127.88 8.2 0
 0 -3 -18 0.27 3.14 0
 0 -3 -17 2.35 2.96 0
 0 -3 -16 103.95 6.6 0
 0 -3 -15 28.99 4.19 0
 0 -3 -11 392.02 9.45 0
 0 -3 -10 44.56 3.38 0
 0 -3 -7 7.14 1.56 0
 0 -3 -6 53.86 2.81 0
 0 -3 -5 1610.39 12.51 0
 0 -3 -4 1246.48 10.07 0
 0 -3 -3 2643.96 12.95 0
 0 -3 -2 650.95 5.6 0
 0 -3 -1 1155.52 6.23 0
 0 -3 0 0.08 0.4 0
 0 -2 -19 14.45 4.09 0
 0 -2 -17 6.24 3.3 0
 0 -2 -16 17.12 3.62 0
 0 -2 -15 52.25 4.56 0
 0 -2 -14 200.26 7.83 0
 0 -2 -13 148.69 6.56 0
 0 -2 -12 157.92 6.57 0
 0 -2 -11 162.45 6.03 0
 0 -2 -6 4.06 1.13 0
 0 -2 -5 259.07 4.99 0
 0 -2 -4 1419.09 10.2 0
 0 -2 -3 984.65 7.5 0
 0 -2 -2 429.64 4.28 0
 0 -1 -19 32.33 4.92 0
 0 -1 -18 17.88 4.12 0
 0 -1 -16 183.82 8.36 0
 0 -1 -15 -0.24 2.3 0
 0 -1 -14 31.15 3.72 0
 0 -1 -13 85.99 5.07 0
 0 -1 -12 2.62 1.78 0
 0 -1 -11 4.68 1.92 0
 0 -1 -7 204.86 5.06 0
 0 -1 -6 280.72 5.61 0
 0 -1 -3 12.77 1.15 0
 0 -1 -2 590.99 4.52 0
 0 -1 -1 715.29 3.74 0
 0 0 -20 123.46 8 0
 0 0 -19 4.81 3.72 0
 0 0 -18 229.4 9.83 0
 0 0 -17 -1.74 2.45 0
 0 0 -16 115.52 6.54 0
 0 0 -15 -1.15 2.12 0
 0 0 -13 1.65 1.91 0
 0 0 -12 -0.86 1.71 0
 0 0 -11 3.26 1.82 0
 0 0 -9 1.33 1.23 0
 0 0 -6 279.85 5.32 0
 0 0 -4 2024.46 11.09 0
 0 0 -3 0.27 0.72 0
 0 1 -20 95.59 7.14 0
 0 1 -19 26.17 4.83 0
 0 1 -18 9.67 3.3 0
 0 1 -17 10.07 3.19 0
 0 1 -16 190.13 8.24 0
 0 1 -15 -1.84 2.41 0
 0 1 -12 1.23 1.79 0
 0 1 -11 5.8 1.88 0
 0 1 -7 207.81 4.9 0
 0 1 -6 287.25 5.16 0
 0 1 -5 2191.4 12.58 0
 0 1 -4 26.04 1.48 0
 0 1 -3 12.88 1.22 0
 0 1 1 771.81 3.97 0
 0 2 -20 82.8 6.55 0
 0 2 -18 16.49 3.98 0
 0 2 -17 3.24 2.57 0
 0 2 -16 17.78 3.48 0
 0 2 -15 55.75 4.89 0
 0 2 -14 200.91 7.49 0
 0 2 -12 160.42 5.94 0
 0 2 -9 17.28 2.11 0
 0 2 -6 3.34 1.11 0
 0 2 -4 1441.47 8.66 0
 0 3 -20 22.35 4.07 0
 0 3 -18 0.36 2.38 0
 0 3 -17 -2.64 2.61 0
 0 3 -16 116.14 6.4 0
 0 3 -15 37.05 3.81 0
 0 3 -14 22.39 3.35 0
 0 3 -13 406.06 9.62 0
 0 3 -12 1.07 1.59 0
 0 3 -10 36.92 2.96 0
 0 3 -9 0.13 1.18 0
 0 3 -8 191.46 4.85 0
 0 3 -6 53.52 2.21 0
 0 3 -5 1592.88 10.02 0
 0 4 -18 22.9 3.44 0
 0 4 -17 2.14 2.52 0
 0 4 -16 3.51 2.27 0
 0 4 -15 1.72 2.04 0
 0 4 -14 67.41 4.56 0
 0 4 -13 37.58 3.3 0
 0 4 -12 354.04 8.2 0
 0 4 -10 166.08 5.06 0
 0 4 -9 129.73 4.26 0
 0 4 -6 33.72 1.72 0
 0 4 -5 452.96 5.16 0
 0 5 -15 16.33 2.78 0
 0 5 -13 424.38 9.24 0
 0 5 -12 124.23 4.94 0
 0 5 -10 49.01 2.94 0
 0 5 -9 392.11 6.82 0
 0 5 -8 117.03 3.56 0
 0 5 -6 1491.92 9.89 0
 0 5 -5 1304.29 8.15 0
 0 5 0 -0.02 0.44 0
 0 6 -10 138.48 4.27 0
 0 6 -9 0.37 1.03 0
 0 6 -8 130.68 3.52 0
 0 6 -6 670.57 6.25 0
 0 6 -5 0.39 0.47 0
 0 6 -4 94.33 1.73 0
 0 7 -8 305.54 4.93 0
 0 7 -6 295.33 3.73 0
 0 7 -5 131.14 2.03 0
 1 -13 -12 62.8 5.53 0
 1 -13 -11 10.99 3.14 0
 1 -12 -14 7.85 3.39 0
 1 -12 -13 114.94 7.14 0
 1 -12 -12 70.01 5.86 0
 1 -12 -11 23.84 3.74 0
 1 -12 -9 48.12 4.6 0
 1 -12 -8 39.46 3.83 0
 1 -11 -15 18.64 4.22 0
 1 -11 -12 5.19 2.86 0
 1 -11 -11 16.1 3.38 0
 1 -11 -10 155.97 7.31 0
 1 -11 -9 5.53 2.31 0
 1 -11 -8 37.61 3.69 0
 1 -11 -7 45.02 3.93 0
 1 -11 -6 82.31 4.64 0
 1 -10 -13 55.27 5.79 0
 1 -10 -11 174 7.77 0
 1 -10 -10 90.47 5.95 0
 1 -10 -9 82.54 5.27 0
 1 -10 -8 11.34 2.84 0
 1 -10 -7 3.75 2.13 0
 1 -9 -16 11.54 4.36 0
 1 -9 -15 15.09 3.99 0
 1 -9 -14 42.95 5.42 0
 1 -9 -13 30.05 4.59 0
 1 -9 -12 17.65 3.5 0
 1 -9 -11 14.39 3.24 0
 1 -9 -10 4.44 2.41 0
 1 -9 -9 275.46 8.65 0
 1 -9 -8 84.35 4.91 0
 1 -9 -6 15.71 2.41 0
 1 -9 -4 300.72 6.85 0
 1 -8 -17 8.52 3.79 0
 1 -8 -16 80.6 6.7 0
 1 -8 -15 39.07 5.11 0
 1 -8 -12 78.68 5.63 0
 1 -8 -9 33.32 3.59 0
 1 -8 -8 52.77 4.2 0
 1 -8 -7 45.14 3.47 0
 1 -8 -4 7.8 1.7 0
 1 -8 -3 284.67 6.09 0
 1 -7 -17 23.11 5.16 0
 1 -7 -16 115.68 7.99 0
 1 -7 -15 98.16 7.13 0
 1 -7 -14 28.49 4.52 0
 1 -7 -13 46.01 5.19 0
 1 -7 -12 12.37 3.1 0
 1 -7 -11 10.92 2.78 0
 1 -7 -10 23.83 3.35 0
 1 -7 -5 515.79 9 0
 1 -7 -4 818.69 10.63 0
 1 -7 -3 2.27 1.29 0
 1 -6 -18 5.46 3.41 0
 1 -6 -17 57.14 6.65 0
 1 -6 -16 124.22 7.94 0
 1 -6 -15 34.73 4.95 0
 1 -6 -14 101.04 6.86 0
 1 -6 -12 29.88 3.96 0
 1 -6 -11 14.72 2.88 0
 1 -6 -10 11.38 2.54 0
 1 -6 -5 64.41 3.42 0
 1 -6 -3 19.29 1.84 0
 1 -5 -17 59.84 6.46 0
 1 -5 -16 72.83 6.42 0
 1 -5 -15 165.67 8.5 0
 1 -5 -14 29.31 4.18 0
 1 -5 -13 19.68 3.66 0
 1 -5 -12 111.57 6.03 0
 1 -5 -10 24.51 3.28 0
 1 -5 -9 251.11 7.47 0
 1 -5 -3 1885.8 13.69 0
 1 -5 -2 694.76 7.91 0
 1 -4 -19 38.03 5.98 0
 1 -4 -17 248.73 10.34 0
 1 -4 -16 219.38 9.49 0
 1 -4 -15 31.64 4.65 0
 1 -4 -14 361.08 11.12 0
 1 -4 -12 112.46 5.74 0
 1 -4 -10 367.8 9.1 0
 1 -4 -9 518.42 10.17 0
 1 -4 -7 378.58 7.84 0
 1 -4 -6 542.54 8.71 0
 1 -4 -5 111.48 3.93 0
 1 -4 -4 70.67 2.94 0
 1 -4 -3 218.65 4.68 0
 1 -4 -2 1627.38 11.26 0
 1 -4 -1 606.31 6.43 0
 1 -3 -19 47.62 5.96 0
 1 -3 -18 26.2 5.12 0
 1 -3 -17 59.45 5.72 0
 1 -3 -16 4.5 3.44 0
 1 -3 -14 22.97 3.71 0
 1 -3 -13 75.52 5.01 0
 1 -3 -12 177.16 6.97 0
 1 -3 -11 188.79 7.2 0
 1 -3 -6 603.2 8.8 0
 1 -3 -5 398.03 6.77 0
 1 -3 -4 280.24 5.27 0
 1 -3 -3 820 8.29 0
 1 -3 -2 379.26 5.24 0
 1 -3 -1 1085.4 8.13 0
 1 -2 -19 52.46 6.53 0
 1 -2 -18 29.47 5.37 0
 1 -2 -16 18.4 3.99 0
 1 -2 -15 12.58 3.16 0
 1 -2 -14 37.75 4.48 0
 1 -2 -13 57.43 4.81 0
 1 -2 -12 -0.66 1.77 0
 1 -2 -10 634.99 11.16 0
 1 -2 -6 956.26 10.58 0
 1 -2 -5 123.85 3.7 0
 1 -2 -3 495.97 6.08 0
 1 -2 -2 3918.78 15.37 0
 1 -2 -1 3297.38 12.99 0
 1 -1 -19 23.82 4.74 0
 1 -1 -18 7.84 3.5 0
 1 -1 -17 17.91 4.01 0
 1 -1 -16 3.86 2.89 0
 1 -1 -15 86.33 5.73 0
 1 -1 -14 14.94 3.11 0
 1 -1 -13 82.95 5.36 0
 1 -1 -12 32.66 3.8 0
 1 -1 -11 228.69 7.11 0
 1 -1 -5 2235.04 14.31 0
 1 -1 -4 616.89 6.93 0
 1 -1 -1 1009.99 6.69 0
 1 0 -20 111.52 7.93 0
 1 0 -19 23.48 4.99 0
 1 0 -18 3.39 3.17 0
 1 0 -17 27.24 4.35 0
 1 0 -16 4.44 2.77 0
 1 0 -14 13.11 2.87 0
 1 0 -12 106.46 5.31 0
 1 0 -11 1.2 1.77 0
 1 0 -6 40.91 2.42 0
 1 0 -5 1554.75 11.39 0
 1 0 -4 463.37 5.7 0
 1 0 -3 1285.26 8.45 0
 1 0 -2 843.08 6.16 0
 1 1 -20 33.4 5.15 0
 1 1 -19 15.98 3.97 0
 1 1 -18 3.79 2.86 0
 1 1 -17 14.13 3.55 0
 1 1 -16 8.05 2.98 0
 1 1 -15 71.29 5.42 0
 1 1 -14 13.4 2.86 0
 1 1 -13 77.42 4.89 0
 1 1 -12 29.08 3.58 0
 1 1 -11 228.08 6.76 0
 1 1 -5 2292.63 13.19 0
 1 1 -4 626.76 6.24 0
 1 1 -3 9888.95 21.68 0
 1 1 -2 195.89 2.74 0
 1 2 -19 55.83 5.75 0
 1 2 -18 34.7 4.74 0
 1 2 -17 47.77 5.54 0
 1 2 -16 19.83 3.84 0
 1 2 -15 10.57 2.71 0
 1 2 -14 37.98 4.16 0
 1 2 -13 63.12 4.18 0
 1 2 -12 -0.36 1.86 0
 1 2 -9 108.45 4.09 0
 1 2 -8 95.82 3.6 0
 1 2 -6 933.79 8.91 0
 1 2 -5 122.15 3.02 0
 1 2 -4 1706 9.54 0
 1 2 -3 496.8 4.51 0
 1 2 -2 3935.25 10.6 0
 1 3 -19 43.87 5.18 0
 1 3 -18 27.04 4.15 0
 1 3 -16 4.44 2.67 0
 1 3 -15 36.64 4.07 0
 1 3 -14 16.46 2.83 0
 1 3 -13 81.19 4.71 0
 1 3 -12 182.61 6.21 0
 1 3 -9 341.89 6.79 0
 1 3 -8 84.78 3.31 0
 1 3 -6 611.21 6.88 0
 1 3 -5 388.35 4.87 0
 1 3 -4 281.54 3.62 0
 1 3 -3 793.89 4.98 0
 1 4 -16 222.07 8.07 0
 1 4 -15 36.83 3.52 0
 1 4 -14 374.24 9.39 0
 1 4 -13 159.72 5.88 0
 1 4 -12 105.28 4.66 0
 1 4 -10 350.64 7.1 0
 1 4 -8 1025.66 10.3 0
 1 4 -6 556.01 6.18 0
 1 4 -5 115.4 2.53 0
 1 4 -4 69.1 1.66 0
 1 5 -13 22.13 2.44 0
 1 5 -10 22.75 2.17 0
 1 5 -9 263.52 5.51 0
 1 5 -8 325.48 5.54 0
 1 5 -6 47.7 1.78 0
 1 5 -5 88.61 1.97 0
 1 5 -4 187.65 2.01 0
 1 6 -10 13.62 1.55 0
 1 6 -9 160.48 4.06 0
 1 6 -8 410.29 5.78 0
 1 6 -6 85.04 1.98 0
 1 6 -5 70.98 1.21 0
 1 7 -7 92.18 1.96 0
 2 -12 -13 16.17 3.77 0
 2 -12 -12 35.01 4.95 0
 2 -12 -11 9.78 3.56 0
 2 -11 -14 8.07 3.49 0
 2 -11 -13 4.91 3.37 0
 2 -11 -11 30.6 4.61 0
 2 -11 -9 34.24 4.33 0
 2 -10 -14 17.35 4.13 0
 2 -10 -12 82.53 6.52 0
 2 -10 -11 191.82 8.5 0
 2 -10 -10 23.42 3.83 0
 2 -10 -8 3.91 2.56 0
 2 -10 -7 12.07 2.77 0
 2 -9 -16 47.73 5.99 0
 2 -9 -14 13.79 3.72 0
 2 -9 -13 13.61 3.64 0
 2 -9 -12 16.21 3.8 0
 2 -9 -11 36.62 4.42 0
 2 -9 -10 4.09 2.51 0
 2 -9 -9 92.11 5.58 0
 2 -9 -7 40.8 3.79 0
 2 -9 -6 133.39 5.67 0
 2 -8 -16 139.45 8.84 0
 2 -8 -14 8.29 4.02 0
 2 -8 -12 24.81 4.17 0
 2 -8 -10 93.49 5.69 0
 2 -8 -9 118.68 5.99 0
 2 -8 -8 126.65 6.11 0
 2 -8 -7 268.81 8.09 0
 2 -8 -6 158.01 6.11 0
 2 -7 -17 67.24 6.54 0
 2 -7 -16 41.94 5.73 0
 2 -7 -15 64.1 6.54 0
 2 -7 -14 1.36 2.96 0
 2 -7 -13 74.08 5.76 0
 2 -7 -12 40.18 4.46 0
 2 -7 -11 17.31 3.64 0
 2 -7 -9 140.73 6.35 0
 2 -7 -7 207.34 7.05 0
 2 -6 -17 36.12 5.38 0
 2 -6 -16 80.03 6.96 0
 2 -6 -13 211.37 8.88 0
 2 -6 -12 4.67 2.6 0
 2 -6 -11 73.42 5.15 0
 2 -6 -10 65.77 4.83 0
 2 -6 -9 112.37 5.85 0
 2 -6 -8 35.85 3.29 0
 2 -6 -7 50.65 3.69 0
 2 -6 -4 31.66 2.63 0
 2 -5 -18 57.49 6.74 0
 2 -5 -17 4.99 3.8 0
 2 -5 -16 24.21 4.67 0
 2 -5 -14 156.37 8.04 0
 2 -5 -13 26.23 3.79 0
 2 -5 -12 29.57 3.76 0
 2 -5 -10 327.98 9.43 0
 2 -5 -9 39.13 3.81 0
 2 -5 -5 328.88 7.3 0
 2 -5 -4 127.74 4.54 0
 2 -5 -3 290.14 6.26 0
 2 -4 -18 48.4 6.51 0
 2 -4 -17 47.23 6.2 0
 2 -4 -16 51.49 6.01 0
 2 -4 -15 231.29 9.93 0
 2 -4 -13 3.18 2.84 0
 2 -4 -12 346.65 10.18 0
 2 -4 -11 16.66 2.84 0
 2 -4 -9 -1.41 1.29 0
 2 -4 -6 251.54 6.5 0
 2 -4 -5 389.1 7.64 0
 2 -4 -3 696.43 9.22 0
 2 -3 -18 51.92 6.52 0
 2 -3 -17 13.48 4.08 0
 2 -3 -16 8.81 3.47 0
 2 -3 -15 60.51 5.71 0
 2 -3 -14 37.32 4.57 0
 2 -3 -13 263.23 9.2 0
 2 -3 -10 83.64 4.61 0
 2 -3 -4 1835.84 15 0
 2 -3 -3 402.67 6.8 0
 2 -2 -19 39.33 5.96 0
 2 -2 -18 291.7 11.4 0
 2 -2 -17 54.66 6.29 0
 2 -2 -15 65.43 6.01 0
 2 -2 -14 38.79 4.67 0
 2 -2 -13 38.72 4.07 0
 2 -2 -12 45.84 3.92 0
 2 -2 -4 1028.83 10.81 0
 2 -2 -3 284.43 5.48 0
 2 -1 -19 41.24 5.68 0
 2 -1 -16 6.1 2.99 0
 2 -1 -15 56.5 5.12 0
 2 -1 -14 139.72 6.88 0
 2 -1 -13 33.93 4.46 0
 2 -1 -12 113.22 5.7 0
 2 -1 -11 17.31 2.76 0
 2 -1 -5 514.67 7.82 0
 2 -1 -4 359.02 6.19 0
 2 0 -19 37.41 5.22 0
 2 0 -18 27.84 4.88 0
 2 0 -17 12.28 3.51 0
 2 0 -16 0.51 2.59 0
 2 0 -15 57.79 5.03 0
 2 0 -14 72.5 5.09 0
 2 0 -12 235.26 7.69 0
 2 0 -11 2.14 1.95 0
 2 0 -8 1.09 1.34 0
 2 0 -4 1801.89 13.05 0
 2 0 -3 1593.16 11.59 0
 2 1 -19 40.58 5.61 0
 2 1 -18 24.52 4.31 0
 2 1 -17 174.62 8.53 0
 2 1 -16 3.88 2.81 0
 2 1 -15 56.45 4.76 0
 2 1 -14 149 6.84 0
 2 1 -13 34.89 4.26 0
 2 1 -12 111.47 5.43 0
 2 1 -11 18.02 2.57 0
 2 1 -5 521.89 7.27 0
 2 1 -4 358.89 5.68 0
 2 2 -19 49.68 5.81 0
 2 2 -18 284.17 10.51 0
 2 2 -17 53.01 5.28 0
 2 2 -16 24.32 3.71 0
 2 2 -15 57.1 4.86 0
 2 2 -14 42.07 4 0
 2 2 -13 38.1 3.63 0
 2 2 -11 78.47 4.5 0
 2 2 -9 157.1 5.23 0
 2 2 -8 238.08 5.79 0
 2 2 -5 122.2 3.42 0
 2 2 -4 996.45 8.78 0
 2 3 -18 55.82 4.91 0
 2 3 -17 12.36 3.09 0
 2 3 -16 10.33 2.89 0
 2 3 -15 64.25 4.77 0
 2 3 -13 254.95 7.96 0
 2 3 -12 372.75 8.88 0
 2 3 -9 99.73 4.05 0
 2 3 -8 9.25 1.63 0
 2 3 -5 331.13 5.18 0
 2 4 -13 3.65 1.95 0
 2 4 -12 339.58 8.17 0
 2 4 -9 0.27 1.11 0
 2 4 -8 224.42 5.19 0
 2 4 -5 394.25 5.24 0
 2 5 -10 323.08 6.78 0
 2 5 -9 35.74 2.39 0
 2 5 -8 301.05 5.59 0
 2 5 -6 21.98 1.42 0
 2 6 -8 33.86 1.83 0
 3 -10 -14 11.86 4.04 0
 3 -10 -13 15.7 3.94 0
 3 -10 -12 14.35 4.48 0
 3 -10 -11 33.48 4.91 0
 3 -9 -15 27.07 4.89 0
 3 -9 -13 134.33 8.35 0
 3 -9 -12 136.17 7.83 0
 3 -9 -11 18.15 4.11 0
 3 -9 -10 26.2 4.17 0
 3 -9 -9 26.17 3.87 0
 3 -8 -16 0.87 3.46 0
 3 -8 -15 76.69 6.54 0
 3 -8 -13 68.47 5.89 0
 3 -8 -11 64.85 5.5 0
 3 -8 -10 35.06 4.39 0
 3 -8 -9 41.16 4.97 0
 3 -8 -8 89.47 5.67 0
 3 -7 -16 7.92 3.7 0
 3 -7 -15 47.47 5.77 0
 3 -7 -14 4.16 3.33 0
 3 -7 -12 41.79 5.03 0
 3 -7 -11 23.27 3.87 0
 3 -7 -10 96.9 5.99 0
 3 -7 -9 133.01 6.55 0
 3 -7 -8 25.45 3.48 0
 3 -6 -17 4.8 3.56 0
 3 -6 -15 128.67 7.94 0
 3 -6 -13 91.53 6.4 0
 3 -6 -12 73.64 5.99 0
 3 -6 -11 40.35 4.51 0
 3 -6 -10 251.29 8.82 0
 3 -6 -9 121.1 6.1 0
 3 -6 -6 432.77 9.89 0
 3 -5 -17 16.87 4.34 0
 3 -5 -16 32.92 4.99 0
 3 -5 -15 49.14 6.12 0
 3 -5 -14 5.89 3.32 0
 3 -5 -12 136.01 7.23 0
 3 -5 -11 37.14 4.18 0
 3 -5 -10 0.72 1.84 0
 3 -5 -9 171.78 7.08 0
 3 -5 -8 238.75 7.81 0
 3 -5 -7 13.65 2.44 0
 3 -4 -17 80.97 6.86 0
 3 -4 -16 19.78 4.35 0
 3 -4 -15 118.89 7.56 0
 3 -4 -14 25.08 4.29 0
 3 -4 -12 44.6 4.74 0
 3 -4 -10 154.15 6.74 0
 3 -4 -9 38.67 3.56 0
 3 -4 -8 248.94 7.78 0
 3 -4 -7 611.98 11.47 0
 3 -3 -18 83.88 6.92 0
 3 -3 -16 36.25 5.16 0
 3 -3 -15 242.05 10.06 0
 3 -3 -14 17.05 4.07 0
 3 -3 -13 43.31 4.83 0
 3 -3 -12 15.6 3.26 0
 3 -3 -10 58.28 4.56 0
 3 -3 -9 48.81 3.81 0
 3 -2 -18 34.33 5.76 0
 3 -2 -17 1.28 3.63 0
 3 -2 -16 51.56 5.67 0
 3 -2 -15 50.7 5.57 0
 3 -2 -14 8.77 3.15 0
 3 -2 -13 107.34 6.46 0
 3 -2 -12 84.5 5.47 0
 3 -2 -11 177.7 7.14 0
 3 -2 -9 120.92 5.52 0
 3 -2 -8 162.84 5.99 0
 3 -1 -19 -0.37 3.6 0
 3 -1 -18 4.59 3.47 0
 3 -1 -17 21.76 4.64 0
 3 -1 -16 39.56 5.54 0
 3 -1 -15 359.06 11.39 0
 3 -1 -14 67.08 5.68 0
 3 -1 -13 14.72 3.49 0
 3 -1 -12 85.05 5.55 0
 3 -1 -9 12.99 2.45 0
 3 -1 -6 599.58 9.94 0
 3 0 -19 47.88 5.88 0
 3 0 -18 17.84 4.39 0
 3 0 -17 -0.75 3.14 0
 3 0 -16 14.61 3.58 0
 3 0 -15 0.21 2.48 0
 3 0 -14 110.08 6.54 0
 3 0 -11 99.46 5.24 0
 3 0 -10 43.33 3.54 0
 3 0 -6 262.83 6.45 0
 3 1 -19 -0.22 2.96 0
 3 1 -18 6.96 3.37 0
 3 1 -17 16.88 3.81 0
 3 1 -16 49.55 5.41 0
 3 1 -14 72.76 5.53 0
 3 1 -13 13.86 2.98 0
 3 1 -12 92.24 5.37 0
 3 1 -11 153.08 6.15 0
 3 1 -7 1398.7 14.79 0
 3 1 -6 605.19 9.38 0
 3 2 -19 27.15 4.54 0
 3 2 -18 21.11 4.14 0
 3 2 -17 2.19 2.65 0
 3 2 -16 48.28 5.15 0
 3 2 -15 53.05 4.95 0
 3 2 -14 5.64 2.68 0
 3 2 -13 102.77 5.69 0
 3 2 -12 86.89 5.11 0
 3 2 -11 195 6.71 0
 3 2 -10 58.4 3.97 0
 3 2 -7 19.97 2.34 0
 3 2 -6 127.01 4.28 0
 3 3 -16 31.65 3.78 0
 3 3 -15 235.42 8.48 0
 3 3 -14 12.51 2.73 0
 3 3 -13 35.77 3.5 0
 3 3 -12 14.92 2.7 0
 3 3 -11 270.69 7.54 0
 3 3 -8 125.94 4.51 0
 3 3 -7 722.23 9.93 0
 3 4 -13 80.33 4.6 0
 3 4 -11 94.83 4.43 0
 3 4 -9 35.45 2.65 0
 3 4 -8 247.8 5.87 0
 3 5 -10 3.27 1.16 0
 4 -8 -15 11.18 4.07 0
 4 -8 -14 8.44 3.69 0
 4 -7 -15 69.22 6.69 0
 4 -7 -12 79.98 6.4 0
 4 -7 -11 179.89 8.49 0
 4 -6 -15 -1.33 3.05 0
 4 -6 -14 0.56 2.85 0
 4 -6 -13 3.42 3.47 0
 4 -6 -12 166.52 8.59 0
 4 -6 -11 126.51 7.37 0
 4 -6 -10 208.16 8.95 0
 4 -5 -16 10.41 3.95 0
 4 -5 -14 22.98 4.91 0
 4 -5 -11 114.18 6.7 0
 4 -5 -10 7.99 2.66 0
 4 -5 -9 130.34 6.87 0
 4 -4 -17 29.28 5.83 0
 4 -4 -15 11.06 4.03 0
 4 -4 -14 36.23 5.26 0
 4 -4 -13 68.52 5.62 0
 4 -4 -12 45.53 5 0
 4 -4 -11 16.72 3.4 0
 4 -4 -10 12.75 3.15 0
 4 -4 -9 42.11 4.41 0
 4 -3 -17 22.04 4.61 0
 4 -3 -16 16.4 4.46 0
 4 -3 -14 56.14 5.46 0
 4 -3 -10 96.89 5.89 0
 4 -3 -8 -0.15 1.95 0
 4 -2 -18 144.7 8.97 0
 4 -2 -17 69.01 6.84 0
 4 -2 -16 14.86 4.04 0
 4 -2 -15 49.49 6.06 0
 4 -2 -14 238.52 9.91 0
 4 -2 -13 123.9 6.97 0
 4 -2 -12 186.24 8.28 0
 4 -2 -11 37 4.05 0
 4 -2 -9 62.89 4.5 0
 4 -1 -18 12.09 3.99 0
 4 -1 -17 127.33 8.32 0
 4 -1 -16 51.38 5.37 0
 4 -1 -15 4.32 3.12 0
 4 -1 -13 62.18 5.23 0
 4 -1 -12 104.15 6.41 0
 4 -1 -11 6.12 2.53 0
 4 -1 -9 181.89 6.96 0
 4 -1 -8 130.84 5.8 0
 4 0 -18 108.67 7.42 0
 4 0 -17 45.89 5.72 0
 4 0 -16 21.53 4.61 0
 4 0 -15 327.28 11.2 0
 4 0 -13 1.56 2.68 0
 4 0 -12 -0.04 2.15 0
 4 0 -10 178.67 6.98 0
 4 0 -9 2.07 2.03 0
 4 1 -18 15.65 3.76 0
 4 1 -17 134.46 7.63 0
 4 1 -16 53.78 5.93 0
 4 1 -15 5 2.87 0
 4 1 -14 77.12 5.63 0
 4 1 -13 65.39 5.51 0
 4 1 -10 44.46 4.04 0
 4 2 -16 11.33 3.15 0
 4 2 -15 56.89 5.43 0
 4 2 -14 239.94 9.02 0
 4 2 -12 181.08 7.4 0
 4 2 -11 37.81 4.05 0
 4 2 -10 283.59 8.22 0
 4 3 -14 68.82 5.06 0
 4 3 -13 41.18 3.84 0
 4 3 -12 38.65 3.72 0
 -1 -1 3 9636.38 19.37 0
 -1 -1 4 637.67 5.02 0
 -1 -1 5 2364.95 9.38 0
 0 -2 -1 523.34 4.65 0
 0 -1 3 14.45 0.93 0
 0 -1 6 278.24 3.33 0
 0 -1 9 43.48 1.37 0
 0 -1 10 16.27 0.84 0
 0 0 7 0.53 0.29 0
 0 1 -1 719.46 4.09 0
 0 2 -2 443.35 4.7 0
 0 2 -1 524.12 4.89 0
 0 2 0 4618.01 13.81 0
 0 2 1 532.83 4.6 0
 0 2 2 417.83 4.02 0
 0 2 3 966.04 5.86 0
 0 2 4 1438.29 6.98 0
 0 2 5 262.41 2.93 0
 0 2 6 4.75 0.54 0
 0 3 -3 2702.8 13.88 0
 0 3 -2 651.96 6.84 0
 0 3 -1 1179.29 8.89 0
 0 3 0 -0.59 1.16 0
 0 3 1 1205.85 8.68 0
 0 3 2 656.56 6.34 0
 0 3 3 2747.22 12.6 0
 0 3 4 1229.03 8.25 0
 0 3 5 1627.05 9.2 0
 0 3 7 5.84 0.78 0
 0 4 -2 672.48 8.08 0
 0 4 -1 279.84 5.19 0
 0 4 0 355.97 5.72 0
 0 4 1 285.39 5.13 0
 0 4 2 660.79 7.43 0
 0 4 3 380.23 5.71 0
 0 4 4 705.95 7.48 0
 0 4 5 445.11 5.82 0
 0 4 6 30.23 1.76 0
 0 4 7 1.28 0.7 0
 0 5 -3 188.63 5 0
 0 5 -2 529.18 8.09 0
 0 5 -1 756.03 9.44 0
 0 5 0 0.99 1.01 0
 0 5 1 744.46 9.05 0
 0 5 2 518.61 7.53 0
 0 5 4 81.45 3.04 0
 0 5 5 1297.29 11.31 0
 0 5 7 32.86 1.93 0
 0 6 0 8.51 1.58 0
 0 6 1 988.66 11.66 0
 0 6 2 72.7 3.39 0
 0 6 3 231.73 5.68 0
 0 6 5 0.31 1.28 0
 0 6 6 655.54 8.95 0
 0 6 7 417.43 7.08 0
 0 6 8 129.15 3.93 0
 0 7 1 409.05 8.34 0
 0 7 2 3.31 1.57 0
 0 7 3 72.2 3.64 0
 0 7 4 98.36 4.33 0
 0 7 5 126.86 4.63 0
 0 7 6 295.71 6.83 0
 0 7 7 336.22 7.09 0
 0 9 1 68.86 4.3 0
 0 9 2 35.15 3.55 0
 0 9 3 243.11 7.52 0
 1 0 12 97.71 2.16 0
 1 1 -6 371.56 3.56 0
 1 1 -5 2292.15 8.99 0
 1 1 -3 9532.53 19.06 0
 1 1 -2 196.12 2.96 0
 1 1 -1 1038.29 6.77 0
 1 1 9 104.96 2.68 0
 1 1 10 155.99 3.09 0
 1 1 11 238.36 3.38 0
 1 2 -6 924.13 7.29 0
 1 2 -5 119.6 2.7 0
 1 2 -4 1708.79 9.92 0
 1 2 -3 490.86 5.39 0
 1 2 -2 3954.36 15.08 0
 1 2 1 3423.86 14.29 0
 1 2 2 3879.72 15.36 0
 1 2 3 498.74 5.71 0
 1 2 4 1711.66 10.6 0
 1 2 6 943.93 8.02 0
 1 2 7 340.7 4.84 0
 1 2 8 91.61 2.6 0
 1 2 9 104.63 2.7 0
 1 2 10 666.35 6.2 0
 1 2 11 250.38 3.36 0
 1 3 -6 607.36 7.13 0
 1 3 -5 394.67 5.78 0
 1 3 -4 288.43 4.89 0
 1 3 -3 816.91 8.09 0
 1 3 -2 372 5.51 0
 1 3 -1 1071.54 9.1 0
 1 3 0 59.87 2.4 0
 1 3 1 1094.45 9.24 0
 1 3 2 365.08 5.45 0
 1 3 3 802.11 7.96 0
 1 3 4 279.34 4.88 0
 1 3 5 405.1 5.83 0
 1 3 6 622.08 7.15 0
 1 3 7 733.11 7.65 0
 1 3 8 86.79 2.73 0
 1 3 9 347.15 5.05 0
 1 3 10 212.62 3.78 0
 1 3 11 197.32 3.29 0
 1 4 -3 227.02 4.93 0
 1 4 -2 1606.79 12.68 0
 1 4 -1 613.6 7.88 0
 1 4 0 722.24 8.45 0
 1 4 1 631.26 7.91 0
 1 4 2 1641.46 12.62 0
 1 4 3 222.61 4.75 0
 1 4 4 68.44 2.93 0
 1 4 5 115.53 3.47 0
 1 4 6 548.36 7.29 0
 1 4 7 390.72 6.19 0
 1 4 8 1035.95 9.74 0
 1 4 9 519.23 6.73 0
 1 4 10 360.71 5.4 0
 1 4 11 11.76 1.15 0
 1 5 -7 514.11 8.35 0
 1 5 -6 50.33 2.92 0
 1 5 -3 1858.99 15.31 0
 1 5 -1 101.39 3.7 0
 1 5 1 96.59 3.67 0
 1 5 2 695.48 9.13 0
 1 5 3 1835.45 14.76 0
 1 5 4 179.79 4.72 0
 1 5 5 82.35 3.37 0
 1 5 6 54.28 2.95 0
 1 5 7 526.59 7.73 0
 1 5 8 322.29 6.09 0
 1 5 9 261.33 5.4 0
 1 5 10 22.56 1.86 0
 1 6 -6 85.78 4 0
 1 6 -5 69.99 3.73 0
 1 6 -4 197.71 5.65 0
 1 6 1 533.43 8.88 0
 1 6 2 149.3 4.75 0
 1 6 3 22.62 2.22 0
 1 6 4 194.03 5.38 0
 1 6 5 70 3.51 0
 1 6 7 92.47 3.81 0
 1 6 8 419.55 7.5 0
 1 6 9 157.36 4.64 0
 1 6 10 12.23 1.73 0
 1 7 -2 39.1 3.24 0
 1 7 1 163.44 5.55 0
 1 7 2 40.23 3.1 0
 1 7 3 2.21 1.52 0
 1 7 4 808.51 11.71 0
 1 7 5 512.7 9.41 0
 1 7 6 38.97 3.08 0
 1 7 7 87.71 4.09 0
 1 7 8 92.06 4.12 0
 1 7 9 51.88 3.19 0
 1 7 10 20.85 2.29 0
 1 8 -6 23.93 2.99 0
 1 8 -5 207.53 7 0
 1 9 -5 225.85 7.73 0
 1 9 -2 53.09 3.98 0
 1 9 0 971.98 15.13 0
 1 9 1 329.65 8.82 0
 1 9 4 286.13 8.27 0
 1 9 5 219.72 7.17 0
 1 9 6 17.75 3.02 0
 1 9 7 20.43 2.82 0
 1 9 8 81.86 4.63 0
 1 9 10 7.49 2.08 0
 1 10 -4 125.96 6.35 0
 1 10 -3 536.09 12.47 0
 1 10 -1 180.22 7.39 0
 1 10 0 -0.68 1.65 0
 1 10 1 183.01 7.48 0
 1 10 2 266.33 8.57 0
 1 10 3 535.01 11.85 0
 1 10 4 126.76 6.01 0
 1 10 5 249.53 8.33 0
 1 10 6 125.76 6.13 0
 1 10 8 7.71 2.37 0
 1 10 9 78.04 4.83 0
 1 11 -3 27.83 3.9 0
 1 11 -1 6.02 2.83 0
 1 11 0 -0.44 2.17 0
 1 11 1 6.45 2.58 0
 1 11 2 87.05 5.68 0
 1 11 3 24.77 3.7 0
 1 11 4 119.86 6.59 0
 1 11 5 90.66 5.6 0
 1 11 6 77.65 5.35 0
 1 11 7 44.22 4.13 0
 1 11 8 35.43 4.29 0
 1 12 1 4 2.81 0
 1 12 2 49.54 5.14 0
 1 12 3 17.62 3.94 0
 1 12 5 7.45 2.91 0
 1 12 6 12.18 3.07 0
 2 -4 -9 0.5 0.35 0
 2 -3 -8 11.64 0.76 0
 2 -1 -7 322.87 3.11 0
 2 0 -7 412.21 3.93 0
 2 0 -6 782.24 6.16 0
 2 0 13 21.91 1.86 0
 2 1 -8 180.47 2.86 0
 2 1 -7 333.39 4.23 0
 2 1 -6 469.23 5.34 0
 2 1 -5 526.48 5.91 0
 2 1 -4 350.16 5.03 0
 2 1 -3 830.62 7.95 0
 2 1 11 22.4 1.91 0
 2 1 12 114.5 3.65 0
 2 2 -9 154.31 3.14 0
 2 2 -8 234.57 4.09 0
 2 2 -7 75.05 2.45 0
 2 2 -6 38.39 1.94 0
 2 2 -5 120.35 3.25 0
 2 2 -4 1016.53 9.22 0
 2 2 -3 298.61 5.17 0
 2 2 -2 1763.52 12.56 0
 2 2 0 1164.9 10.53 0
 2 2 8 220.46 5.21 0
 2 2 9 146.92 4.36 0
 2 2 10 329.75 6.26 0
 2 2 12 45.51 2.43 0
 2 3 -5 331.21 5.8 0
 2 3 -4 1820.25 13.59 0
 2 3 -3 406.78 6.56 0
 2 3 -2 1199.26 11.27 0
 2 3 -1 1034.11 10.46 0
 2 3 2 1203.87 11.64 0
 2 3 3 388.47 6.78 0
 2 3 4 1778.49 14.45 0
 2 3 5 340.33 6.56 0
 2 3 6 195.12 5.06 0
 2 3 7 624.95 8.83 0
 2 3 8 9.64 1.69 0
 2 3 9 97 3.73 0
 2 3 10 82.66 3.41 0
 2 3 11 155.59 4.35 0
 2 3 12 363.07 6.24 0
 2 4 -9 0.7 1.11 0
 2 4 -8 217.21 5.13 0
 2 4 -7 105.25 3.76 0
 2 4 -3 706.8 9.36 0
 2 4 -2 16.61 2.06 0
 2 4 -1 25.57 2.2 0
 2 4 0 140.84 4.35 0
 2 4 1 24.54 2.09 0
 2 4 2 20 2.07 0
 2 4 3 691.67 9.48 0
 2 4 4 1026.32 11.67 0
 2 4 5 395.73 7.37 0
 2 4 6 246.64 5.81 0
 2 4 7 110.2 4.09 0
 2 4 8 224.7 5.62 0
 2 4 9 -1.05 1.27 0
 2 4 10 98.1 3.78 0
 2 4 11 13.29 1.84 0
 2 4 12 333.65 6.17 0
 2 5 -9 39.06 2.64 0
 2 5 -8 284.73 6.48 0
 2 5 -7 472.46 8.44 0
 2 5 -6 20.3 2.47 0
 2 5 -5 332.72 7.06 0
 2 5 -1 447.66 8.13 0
 2 5 2 292.96 6.63 0
 2 5 3 291.17 6.64 0
 2 5 4 120.75 4.51 0
 2 5 5 341.11 7.23 0
 2 5 6 21.39 2.53 0
 2 5 7 478.19 8.61 0
 2 5 8 276.25 6.53 0
 2 5 9 34.9 2.79 0
 2 5 10 311 6.75 0
 2 5 11 183.88 5.08 0
 2 5 12 30.9 2.3 0
 2 6 -6 466.8 9.08 0
 2 6 -5 272.09 6.99 0
 2 6 -3 664.89 10.71 0
 2 6 -2 280.95 7.04 0
 2 6 2 283.71 6.97 0
 2 6 4 24.75 2.52 0
 2 6 5 278.94 6.98 0
 2 6 6 446.31 8.87 0
 2 6 7 43.27 3.31 0
 2 6 8 32.78 2.72 0
 2 6 12 4.77 1.43 0
 2 7 -9 140 5.44 0
 2 8 -8 126.88 5.95 0
 2 8 -7 258.16 8.05 0
 2 8 -6 168.06 6.57 0
 2 8 -5 119.69 5.69 0
 2 8 -4 168.09 6.63 0
 2 8 -3 133.83 5.75 0
 2 8 -2 432.56 9.97 0
 2 8 -1 481.39 10.47 0
 2 8 1 467.18 10.29 0
 2 8 2 409 9.58 0
 2 8 3 136.13 5.79 0
 2 8 4 159.81 6.17 0
 2 8 5 121.68 5.61 0
 2 8 6 176.29 6.41 0
 2 8 7 260.64 7.63 0
 2 8 9 116.24 5.4 0
 2 8 10 83.76 4.39 0
 2 8 11 100.86 4.63 0
 2 9 -8 57.66 4.56 0
 2 9 -7 41.1 4.11 0
 2 9 -6 121.36 6.16 0
 2 9 -5 522.17 11.84 0
 2 9 -4 54.76 4.35 0
 2 9 -3 235.73 7.97 0
 2 9 -2 104.1 5.46 0
 2 9 -1 52.61 4.27 0
 2 9 0 196.47 7.21 0
 2 9 2 104.96 5.65 0
 2 9 3 236.01 7.89 0
 2 9 4 63.38 4.47 0
 2 9 6 127.24 5.89 0
 2 9 8 60.84 4.44 0
 2 9 9 91.66 5.04 0
 2 9 10 4.75 2.38 0
 2 9 11 23.04 3 0
 2 10 -7 13.68 3.09 0
 2 10 -4 33.08 4.18 0
 2 10 -3 41.47 4.29 0
 2 10 -2 255.6 8.82 0
 2 10 0 1.95 2.13 0
 2 10 1 55.35 4.41 0
 2 10 3 35.31 4.33 0
 2 10 5 1.61 2.2 0
 2 10 6 282.76 9.15 0
 2 10 7 13.98 3.19 0
 2 10 8 3.06 2.26 0
 2 10 9 79.19 5.25 0
 2 10 10 32.82 3.72 0
 2 10 11 184.22 6.92 0
 2 11 -6 69.28 5.41 0
 2 11 -4 25.45 4.27 0
 2 11 -3 73.4 5.65 0
 2 11 -2 39.2 4.53 0
 2 11 -1 94.72 6 0
 2 11 0 216.13 8.49 0
 2 11 1 88.84 5.64 0
 2 11 2 39.83 4.93 0
 2 11 3 81.88 5.88 0
 2 11 6 65.21 5.35 0
 2 11 7 6.35 2.83 0
 2 11 8 249.98 8.83 0
 2 12 -5 8.26 3.47 0
 2 12 -3 17.24 3.67 0
 2 12 -2 180.7 8.87 0
 2 12 -1 99.91 6.67 0
 2 12 1 111.53 6.79 0
 2 12 2 175.98 8.4 0
 2 12 3 22.08 3.86 0
 2 12 4 49.6 5.27 0
 2 12 5 11.24 3.19 0
 2 12 6 104.97 6.84 0
 2 12 8 20.32 3.67 0
 2 12 10 43.97 4.59 0
 2 13 -3 61.05 5.57 0
 2 13 -2 28.55 4.44 0
 2 13 -1 2.53 2.86 0
 2 13 0 52.73 5.24 0
 2 13 1 4.68 3.38 0
 2 13 2 24.36 4.34 0
 2 13 3 63.08 5.79 0
 2 13 4 47.94 5.13 0
 2 13 5 46.08 5.65 0
 2 13 6 21.25 4.14 0
 2 13 7 99.35 6.8 0
 2 13 8 78.66 6.25 0
 2 14 -1 2.5 2.8 0
 2 14 0 0.01 2.83 0
 2 14 1 -1.44 2.81 0
 2 14 2 93.32 7.46 0
 2 14 3 108.75 7.94 0
 2 14 4 23.15 4.62 0
 2 14 6 11.02 3.55 0
 3 -1 -9 13.24 0.88 0
 3 2 -9 113.05 3.25 0
 3 2 -8 172.65 4.22 0
 3 2 -7 21.09 1.69 0
 3 2 -3 308.39 6.35 0
 3 2 -2 581.5 8.76 0
 3 2 10 52.52 3.45 0
 3 3 -9 48.46 2.55 0
 3 3 -8 129.5 4.08 0
 3 3 -7 744.56 9.65 0
 3 3 -6 458.73 7.79 0
 3 3 -5 181.77 5.03 0
 3 3 0 968.89 12.06 0
 3 3 2 88.13 3.99 0
 3 3 5 174.94 5.6 0
 3 3 6 452.97 8.86 0
 3 3 7 709.9 11.17 0
 3 3 8 124.54 4.98 0
 3 3 9 43.04 3.32 0
 3 4 -9 37.37 2.56 0
 3 4 -8 250.9 5.99 0
 3 4 -7 585.24 9.19 0
 3 4 -6 29.39 2.57 0
 3 4 -5 52.6 3.12 0
 3 4 -4 477.47 8.72 0
 3 4 -3 60.54 3.34 0
 3 4 2 135.05 4.89 0
 3 4 3 61.15 3.58 0
 3 4 4 487.71 9.28 0
 3 5 -8 228.33 6.31 0
 3 5 -7 11.31 2.18 0
 3 5 -6 14.55 2.18 0
 3 5 -4 187.59 5.85 0
 3 5 -3 64.82 3.7 0
 3 5 -2 80.26 4.08 0
 3 5 -1 9.34 1.9 0
 3 5 2 76.84 3.97 0
 3 5 11 32.73 3.17 0
 3 5 12 127.85 5.01 0
 3 6 7 133.33 5.53 0
 3 6 8 54.21 4.13 0
 3 6 9 122.76 5.37 0
 3 6 10 250.42 7.36 0
 3 6 11 35.38 3.08 0
 3 6 12 71.21 4.07 0
 3 7 -9 127.72 5.45 0
 3 7 -8 22.82 2.98 0
 3 7 -6 57.14 4.15 0
 3 7 -4 15.26 2.85 0
 3 7 -3 100.41 4.99 0
 3 7 -1 336.12 8.81 0
 3 7 0 45.47 3.6 0
 3 7 1 315.46 8.56 0
 3 7 2 207.98 7.04 0
 3 7 4 14.87 2.56 0
 3 7 6 56.61 4.25 0
 3 7 7 16.12 2.97 0
 3 7 9 131.47 5.76 0
 3 7 10 101.91 5.2 0
 3 7 11 26.64 3.16 0
 3 7 12 39.53 3.42 0
 3 8 -9 34.48 3.8 0
 3 8 -8 78.98 5.12 0
 3 8 -7 8.22 2.43 0
 3 8 -5 92.31 5.46 0
 3 8 -3 33 4 0
 3 8 -2 249.02 8.17 0
 3 8 -1 283.16 8.61 0
 3 8 0 19.85 3.02 0
 3 8 4 277.11 8.65 0
 3 8 5 94.8 5.4 0
 3 8 6 203.87 7.42 0
 3 8 7 6.98 2.39 0
 3 8 8 90.13 5.38 0
 3 8 9 39.15 3.76 0
 3 8 10 32.83 3.7 0
 3 8 11 72.14 4.72 0
 3 8 12 94.76 5.08 0
 3 9 -9 24.72 3.52 0
 3 9 -8 18.62 3.59 0
 3 9 -7 42.1 4.36 0
 3 9 -6 111.68 6.05 0
 3 9 -5 45.8 4.68 0
 3 9 -4 333.02 9.87 0
 3 9 -3 42.62 3.96 0
 3 9 -1 19.27 3.13 0
 3 9 0 129.02 6.3 0
 3 9 1 23.28 3.43 0
 3 9 2 36.71 4.32 0
 3 9 3 45.95 4.22 0
 3 9 4 351.4 10.01 0
 3 9 5 52.06 4.37 0
 3 9 7 43.94 4.47 0
 3 9 8 24.36 3.72 0
 3 9 9 33.91 3.88 0
 3 9 10 23.7 3.37 0
 3 9 11 17.63 3.1 0
 3 10 -9 50.04 4.7 0
 3 10 -8 54.99 5.39 0
 3 10 -7 14.29 3.49 0
 3 10 -6 49.02 5.06 0
 3 10 -4 10.3 2.96 0
 3 10 -1 157.3 7.49 0
 3 10 0 2.18 2.6 0
 3 10 1 155.39 7.38 0
 3 10 2 120.04 6.51 0
 3 10 3 8.73 2.99 0
 3 10 4 6.31 3.19 0
 3 10 5 86.89 5.8 0
 3 10 6 52.35 5.08 0
 3 10 7 15.02 3.31 0
 3 10 8 58.35 5.06 0
 3 10 9 56.87 4.82 0
 3 10 10 3.9 2.47 0
 3 10 11 36.41 4.07 0
 3 11 -6 65.33 5.61 0
 3 11 -5 47.45 5.65 0
 3 11 -4 12.96 3.53 0
 3 11 -3 15.1 3.61 0
 3 11 -2 63.16 5.26 0
 3 11 -1 520.83 13.5 0
 3 11 0 17.26 3.7 0
 3 11 1 535.58 13.67 0
 3 11 2 63.28 5.57 0
 3 11 3 15.81 3.45 0
 3 11 4 16.96 3.54 0
 3 11 5 49.76 5.25 0
 3 11 6 72.62 5.5 0
 3 11 7 57.31 5.44 0
 3 11 8 61.82 5.29 0
 3 11 9 379.19 11.22 0
 3 11 10 12.02 3.2 0
 3 12 -7 87.37 6.95 0
 3 12 -6 3.46 3.12 0
 3 12 -5 136.32 7.85 0
 3 12 -4 143.47 7.84 0
 3 12 -3 36.59 5.04 0
 3 12 0 11.93 3.68 0
 3 12 1 15.59 3.7 0
 3 12 2 76.62 6.47 0
 3 12 4 149.39 8.11 0
 3 12 6 9.09 3.23 0
 3 12 7 87.23 6.09 0
 3 12 8 -1.31 2.28 0
 3 12 10 5.82 3.02 0
 3 13 -6 27.55 4.77 0
 3 13 -4 38.8 5.79 0
 3 13 -3 1.29 3.22 0
 3 13 0 40.36 5.8 0
 3 13 1 115.9 7.51 0
 3 13 2 79.49 6.78 0
 3 13 3 1.88 3.13 0
 3 13 4 38.09 5.47 0
 3 13 5 120.1 7.87 0
 3 13 6 24.42 4.41 0
 3 13 7 7.08 3.18 0
 3 13 8 71.15 6.3 0
 3 13 10 23.96 4.11 0
 3 14 -4 10.65 4.19 0
 3 14 -3 41.37 5.91 0
 3 14 -2 123.37 8.28 0
 3 14 -1 5.66 3.77 0
 3 14 0 7.17 3.44 0
 3 14 1 8.28 4.04 0
 3 14 2 125.58 8.52 0
 3 14 4 8.93 3.75 0
 3 14 5 37.34 5.77 0
 3 14 6 53.05 6.47 0
 3 14 7 25.92 4.65 0
 3 14 8 3.98 3.36 0
 3 14 9 44.31 5.4 0
 3 15 -2 -3.32 3.26 0
 3 15 -1 29.39 5.98 0
 3 15 0 46.72 6.14 0
 3 15 1 27.01 5.31 0
 3 15 2 2.15 3.4 0
 3 15 3 29.82 5.3 0
 3 15 4 17.01 4.52 0
 3 15 5 10.81 4.37 0
 3 15 6 21.35 4.59 0
 4 -1 -8 125.3 3.89 0
 4 0 -7 163.83 4.68 0
 4 1 -8 132.95 4.19 0
 4 1 -5 316.2 7.01 0
 4 1 13 62.6 4.29 0
 4 2 -8 86.53 3.61 0
 4 2 -7 178.69 5.3 0
 4 2 -6 122.07 4.49 0
 4 2 -5 381.41 8.01 0
 4 2 -4 680.61 10.73 0
 4 2 -3 424.73 8.73 0
 4 2 11 34.22 3.53 0
 4 2 12 189.5 6.79 0
 4 3 -9 74.93 3.43 0
 4 3 -8 -0.06 1.03 0
 4 3 -7 9.91 1.93 0
 4 3 -6 73.57 3.74 0
 4 3 -5 439.55 8.9 0
 4 3 -4 50.39 3.43 0
 4 3 -3 89.18 4.41 0
 4 3 7 8.44 2.21 0
 4 3 8 0.4 1.65 0
 4 3 9 78.66 4.84 0
 4 3 10 97.87 5.18 0
 4 3 12 33.21 3.6 0
 4 3 13 37.05 3.6 0
 4 4 5 637.26 12.29 0
 4 4 6 52.04 3.93 0
 4 4 7 29.33 3.44 0
 4 4 9 47.2 4.13 0
 4 4 10 6.79 2.49 0
 4 4 11 19.77 2.87 0
 4 4 12 43.07 3.72 0
 4 5 2 152.73 6.16 0
 4 5 3 27.02 3.2 0
 4 5 5 2.07 2.23 0
 4 5 6 0.28 1.81 0
 4 5 8 55.59 4.2 0
 4 5 10 7.63 2.53 0
 4 5 11 118.42 5.86 0
 4 5 12 35.15 3.77 0
 4 5 13 26.63 3.42 0
 4 6 -9 231.09 7.2 0
 4 6 -8 20.65 2.83 0
 4 6 -7 76.22 4.73 0
 4 6 -6 195.92 6.89 0
 4 6 -5 34.37 3.96 0
 4 6 -4 18.05 2.96 0
 4 6 -3 32.22 3.58 0
 4 6 -2 394.4 9.87 0
 4 6 -1 51.83 4.17 0
 4 6 0 18.24 2.72 0
 4 6 1 55.55 4.27 0
 4 6 4 22.68 3.23 0
 4 6 5 28.5 3.51 0
 4 6 6 209.83 7.7 0
 4 6 7 77.14 4.92 0
 4 6 8 20 3.22 0
 4 6 9 250.02 8.45 0
 4 6 10 223.39 7.95 0
 4 6 12 156.31 6.6 0
 4 7 -9 96.23 5.1 0
 4 7 -8 170.33 6.78 0
 4 7 -7 420.49 10.36 0
 4 7 -6 47.8 4.36 0
 4 7 -5 287.24 8.74 0
 4 7 -4 149.31 6.57 0
 4 7 -3 368.89 9.89 0
 4 7 -1 407.89 10.41 0
 4 7 0 13.97 3.05 0
 4 7 2 153.02 6.93 0
 4 7 4 148.47 6.68 0
 4 7 5 289.38 9.14 0
 4 7 6 45.55 4.47 0
 4 7 7 419.06 10.88 0
 4 7 8 163.57 7.02 0
 4 7 9 98.74 5.89 0
 4 7 10 56.3 4.71 0
 4 7 11 178.91 7.29 0
 4 7 12 82.26 5.15 0
 4 8 -9 17.36 3.2 0
 4 8 -8 3.43 2.4 0
 4 8 -7 140.25 6.56 0
 4 8 -6 38.36 4.27 0
 4 8 -5 77.77 5.33 0
 4 8 -4 14.87 2.99 0
 4 8 -3 22.64 3.56 0
 4 8 -2 83.62 5.21 0
 4 8 -1 26.4 3.64 0
 4 8 0 191.18 7.65 0
 4 8 1 19.89 3.27 0
 4 8 3 13.64 3.01 0
 4 8 4 16.15 3.32 0
 4 8 7 142.26 7.06 0
 4 8 8 4.67 2.65 0
 4 8 9 22.16 3.54 0
 4 8 10 87.88 5.55 0
 4 8 11 36.79 4.02 0
 4 8 12 185.42 7.42 0
 4 9 -9 5.73 2.75 0
 4 9 -8 208.01 8.19 0
 4 9 -7 67.53 5.53 0
 4 9 -6 11.58 3.48 0
 4 9 -4 135.51 7.2 0
 4 9 -3 12.38 3.31 0
 4 9 -2 7.44 2.9 0
 4 9 -1 9.66 2.69 0
 4 9 0 1.75 1.98 0
 4 9 1 4.3 2.35 0
 4 9 2 9.52 2.93 0
 4 9 3 11.21 2.97 0
 4 9 4 126.93 7.01 0
 4 9 5 5.5 2.71 0
 4 9 6 11.24 3.02 0
 4 9 7 65.05 5.16 0
 4 9 9 7.35 2.75 0
 4 9 11 45.03 4.48 0
 4 10 -9 14.46 3.71 0
 4 10 -8 111.97 6.69 0
 4 10 -6 164.78 8.17 0
 4 10 -3 55.83 5.06 0
 4 10 -2 180.22 8.27 0
 4 10 -1 8.28 2.84 0
 4 10 0 -0.32 3.15 0
 4 10 1 8.71 2.98 0
 4 10 2 170.83 7.96 0
 4 10 5 44.86 5.33 0
 4 10 6 164.66 7.95 0
 4 10 8 109.67 6.57 0
 4 10 9 14.72 3.55 0
 4 10 11 0.32 2.19 0
 4 11 -9 1.54 3.24 0
 4 11 -8 166.63 8.56 0
 4 11 -7 52.16 6.04 0
 4 11 -6 76.62 6.05 0
 4 11 -5 -0.21 2.73 0
 4 11 -4 143.64 8.11 0
 4 11 -3 17.32 3.82 0
 4 11 -2 22.25 4.34 0
 4 11 -1 111.88 7.1 0
 4 11 0 6.74 2.98 0
 4 11 1 116.67 7.16 0
 4 11 2 22.34 4.52 0
 4 11 3 23.2 4.18 0
 4 11 4 146.18 7.89 0
 4 11 5 6.41 3.43 0
 4 11 6 77.04 6.04 0
 4 11 8 182.38 8.81 0
 4 11 9 1.15 2.62 0
 4 11 10 34.29 4.8 0
 4 11 11 12.01 3.3 0
 4 12 -7 100.49 7.02 0
 4 12 -5 11.94 4.03 0
 4 12 -4 14.2 3.95 0
 4 12 -3 23.15 4.41 0
 4 12 -2 109.42 7.46 0
 4 12 0 30.08 4.78 0
 4 12 1 7.73 3.51 0
 4 12 2 123.69 7.66 0
 4 12 3 21.8 4.68 0
 4 12 4 17.35 4.55 0
 4 12 5 9.21 3.51 0
 4 12 6 152.39 8.62 0
 4 12 7 99.01 6.92 0
 4 12 8 141.51 7.99 0
 4 12 9 20.56 4.46 0
 4 12 10 56.05 5.5 0
 4 13 -8 5.42 3.36 0
 4 13 -7 4.52 3.41 0
 4 13 -6 58.7 6 0
 4 13 -4 23.24 4.81 0
 4 13 -3 14.9 4.55 0
 4 13 -2 43.73 5.69 0
 4 13 -1 91.41 7.09 0
 4 13 0 7.7 3.76 0
 4 13 1 110.19 7.81 0
 4 13 2 47.27 5.6 0
 4 13 3 18.08 4.31 0
 4 13 5 64.89 6.19 0
 4 13 6 53.09 6.49 0
 4 13 7 -1.56 2.98 0
 4 13 8 2.52 3.27 0
 4 13 9 1.76 2.8 0
 4 13 10 7.04 3.55 0
 4 14 -6 102.48 8.11 0
 4 14 -5 66.94 7.01 0
 4 14 -3 5.61 3.54 0
 4 14 -2 62.06 6.37 0
 4 14 -1 14.91 4.41 0
 4 14 2 66.54 6.5 0
 4 14 3 2.14 3.07 0
 4 14 5 62.39 7.04 0
 4 14 7 22.88 4.85 0
 5 0 -8 71.06 3.6 0
 5 1 13 41.47 4.4 0
 5 2 -2 24.67 3.13 0
 5 2 12 67.18 5.26 0
 5 2 13 0 2.18 0
 5 3 -8 81.7 4.37 0
 5 3 -6 23.64 3.14 0
 5 3 -5 15.52 2.7 0
 5 3 -4 35.8 3.78 0
 5 3 -3 409.8 9.96 0
 5 3 -2 577.45 11.96 0
 5 3 -1 58.67 4.39 0
 5 3 0 8.61 2.37 0
 5 3 1 64.08 4.69 0
 5 3 2 555.27 11.93 0
 5 3 3 394.93 10.24 0
 5 3 4 28.71 3.57 0
 5 3 5 10.54 2.68 0
 5 3 7 83.59 5.71 0
 5 3 9 238.83 8.55 0
 5 3 11 83.72 5.56 0
 5 3 12 57.73 4.93 0
 5 3 13 75.56 5.19 0
 5 4 -7 23.24 3.01 0
 5 4 -6 13.99 2.56 0
 5 4 -5 341 9.18 0
 5 4 -3 415.55 10.18 0
 5 4 -2 46.82 4.04 0
 5 4 -1 16.65 2.97 0
 5 4 1 18.84 3.03 0
 5 4 2 48.81 4.19 0
 5 4 4 81.88 5.61 0
 5 4 5 318.44 9.81 0
 5 4 6 9.76 2.74 0
 5 4 7 25.37 3.85 0
 5 4 9 22.93 3.58 0
 5 4 10 4.09 2.54 0
 5 4 11 51.45 4.69 0
 5 4 13 25.92 3.46 0
 5 5 -8 105.01 5.38 0
 5 5 -7 68.78 4.65 0
 5 5 -5 8.98 2.43 0
 5 5 -4 106.51 5.69 0
 5 5 -3 47.17 4.1 0
 5 5 -2 184.91 7.46 0
 5 5 2 182.91 7.43 0
 5 5 3 56.4 4.62 0
 5 5 4 108.82 6.31 0
 5 5 5 10.79 3.08 0
 5 5 6 16.02 3.19 0
 5 5 7 77.19 5.59 0
 5 5 8 99.61 6.18 0
 5 5 9 185.21 7.81 0
 5 5 10 63.69 5.25 0
 5 5 11 17.25 3.67 0
 5 5 12 24.91 3.68 0
 5 5 13 9.11 2.86 0
 5 6 -8 20.62 3.13 0
 5 6 -6 218.42 7.97 0
 5 6 -5 54.71 4.69 0
 5 6 -3 15.93 3.18 0
 5 6 -2 158.52 7.06 0
 5 6 2 164.58 7.31 0
 5 6 3 13.78 3.19 0
 5 6 4 150.08 7.21 0
 5 6 5 50.34 5.02 0
 5 6 6 228.36 8.69 0
 5 6 7 3.57 2.83 0
 5 6 8 21.29 3.75 0
 5 6 9 20.89 3.73 0
 5 6 10 14.6 3.4 0
 5 6 11 11.41 3.14 0
 5 7 -8 39.37 4.07 0
 5 7 -7 21.27 3.73 0
 5 7 -6 107.41 6.01 0
 5 7 -5 46.97 4.61 0
 5 7 -4 22.41 3.9 0
 5 7 -3 6.6 2.8 0
 5 7 -2 85.09 5.79 0
 5 7 -1 17.94 3.29 0
 5 7 0 3.76 2.94 0
 5 7 2 90.26 6.03 0
 5 7 4 22.45 3.78 0
 5 7 5 40.58 4.44 0
 5 7 6 119.36 6.94 0
 5 7 7 18.01 3.55 0
 5 7 8 38.33 4.53 0
 5 7 9 218.94 8.87 0
 5 7 10 86.24 6.08 0
 5 7 11 140.52 7.21 0
 5 7 12 0.91 2.26 0
 5 8 -9 49.68 4.53 0
 5 8 -8 241.31 8.78 0
 5 8 -7 58.99 5.34 0
 5 8 -6 46.73 4.95 0
 5 8 -5 16.57 3.31 0
 5 8 -4 25.17 4.05 0
 5 8 -3 70.06 5.48 0
 5 8 -2 291.09 10.21 0
 5 8 -1 30 4.09 0
 5 8 0 104.55 6.61 0
 5 8 1 22.48 3.87 0
 5 8 2 277.88 9.91 0
 5 8 3 69.3 6.07 0
 5 8 5 14.66 3.54 0
 5 8 6 47.9 5.24 0
 5 8 8 246.98 9.68 0
 5 8 9 48.38 5.65 0
 5 8 11 26.55 3.93 0
 5 8 12 43.31 4.76 0
 5 9 -8 0.98 2.5 0
 5 9 -7 23.54 4.33 0
 5 9 -6 12.41 3.71 0
 5 9 -5 10.05 3.26 0
 5 9 -4 31.61 4.42 0
 5 9 -3 319.03 10.85 0
 5 9 -1 66.78 5.87 0
 5 9 1 70.63 5.96 0
 5 9 2 92.54 6.38 0
 5 9 4 27.42 4.41 0
 5 9 5 9.75 3.44 0
 5 9 6 14.08 3.53 0
 5 9 7 23.29 4.42 0
 5 9 8 3.22 2.89 0
 5 9 9 229.91 9.54 0
 5 9 10 1.38 2.59 0
 5 9 11 62.31 5.24 0
 5 10 -9 7.13 3.09 0
 5 10 -8 6.07 3.01 0
 5 10 -7 -0.08 2.47 0
 5 10 -6 20.19 4.54 0
 5 10 -5 23.98 4.35 0
 5 10 -3 142.77 7.84 0
 5 10 -2 29.51 4.94 0
 5 10 -1 38.91 4.91 0
 5 10 0 2.42 2.54 0
 5 10 1 41.03 5.11 0
 5 10 2 28.29 4.65 0
 5 10 3 146.82 8.09 0
 5 10 4 79.27 6.15 0
 5 10 5 35.08 4.87 0
 5 10 7 -1.31 2.78 0
 5 10 8 1.59 2.81 0
 5 10 9 11.12 3.83 0
 5 10 11 92.75 6.37 0
 5 11 -9 139.68 7.8 0
 5 11 -8 12.66 3.53 0
 5 11 -7 -0.24 2.79 0
 5 11 -6 15.05 4.19 0
 5 11 -5 337.11 11.93 0
 5 11 -4 37.59 5.19 0
 5 11 -2 7.8 3.45 0
 5 11 -1 17.39 4.4 0
 5 11 0 16.08 4.89 0
 5 11 1 30.97 4.83 0
 5 11 2 7.39 3.35 0
 5 11 3 16.46 4.04 0
 5 11 4 40.4 5.51 0
 5 11 5 320.36 11.74 0
 5 11 7 1.04 2.82 0
 5 11 8 15.12 3.81 0
 5 11 9 135.38 8.03 0
 5 12 -9 2.96 2.88 0
 5 12 -5 0.9 3.08 0
 5 12 -4 135.41 8.33 0
 5 12 -3 13.77 4.27 0
 5 12 -2 16.16 4.22 0
 5 12 -1 49.91 6.23 0
 5 12 1 64.64 6.24 0
 5 12 2 15.78 4.79 0
 5 12 3 12.6 4.27 0
 5 12 4 143.2 8.79 0
 5 12 5 5.93 3.82 0
 5 12 6 16.94 4.19 0
 5 12 7 34.84 5.63 0
 5 12 9 -0.83 2.66 0
 5 13 -6 39.51 5.73 0
 5 13 -5 18.22 4.64 0
 5 13 -4 13.51 4.13 0
 5 13 -3 54.28 6.71 0
 5 13 -2 0.14 3.22 0
 5 13 -1 13.57 4.31 0
 5 13 0 -0.74 3.48 0
 5 13 1 15.1 4.41 0
 5 13 2 -1.15 2.99 0
 5 13 3 53.6 6.93 0
 5 13 4 15.94 5.04 0
 5 13 5 26.86 5.01 0
 5 13 6 47.53 6.47 0
 5 13 7 9.04 3.93 0
 6 0 -7 460.24 10.31 0
 6 0 -6 0.72 1.67 0
 6 0 14 117.02 7.08 0
 6 1 -7 138.55 6.08 0
 6 1 -5 25.77 3.46 0
 6 1 12 11.89 3.3 0
 6 2 -6 78.24 4.86 0
 6 2 -5 382.1 10.31 0
 6 2 -4 78.98 5.29 0
 6 2 -3 115.26 6.18 0
 6 2 -2 5.48 2.39 0
 6 2 10 19.63 3.79 0
 6 2 11 68.76 5.68 0
 6 2 12 8.91 3.21 0
 6 2 13 392.6 11.84 0
 6 3 -7 11.73 2.53 0
 6 3 -6 77.72 5.22 0
 6 3 -5 52.31 4.32 0
 6 3 -4 17.2 3.3 0
 6 3 -3 9.26 2.75 0
 6 3 -2 73.93 5.27 0
 6 3 -1 96.08 5.77 0
 6 3 0 43.69 4.62 0
 6 3 2 78.01 5.49 0
 6 3 3 8.03 2.84 0
 6 3 4 15.73 3.39 0
 6 3 6 85.68 5.95 0
 6 3 7 19.19 4.16 0
 6 3 8 76.33 6.16 0
 6 3 9 60.25 5.87 0
 6 3 10 45.06 5.48 0
 6 3 12 67.64 5.8 0
 6 3 13 24.04 4.04 0
 6 4 -8 44.51 3.94 0
 6 4 -7 3.28 2.01 0
 6 4 -6 166.35 7.21 0
 6 4 -5 78.5 5.53 0
 6 4 -3 41.6 4.4 0
 6 4 -2 63.21 5.21 0
 6 4 -1 79.92 5.77 0
 6 4 0 424.18 11.84 0
 6 4 3 38.94 4.29 0
 6 4 4 18.06 3.48 0
 6 4 5 81.1 5.97 0
 6 4 6 169.2 8.23 0
 6 4 7 4.11 2.87 0
 6 4 8 43.64 5.24 0
 6 4 9 29.07 4.4 0
 6 4 10 26.01 4.61 0
 6 4 11 30.66 4.55 0
 6 4 12 3.04 2.94 0
 6 4 13 3.71 2.63 0
 6 5 -8 89.23 5.33 0
 6 5 -7 54.7 4.48 0
 6 5 -6 50.85 4.86 0
 6 5 -5 12.4 3.42 0
 6 5 -3 220.69 8.75 0
 6 5 -2 9.23 3.16 0
 6 5 -1 160.37 7.54 0
 6 5 0 445.24 12.34 0
 6 5 1 162.39 7.85 0
 6 5 2 8.62 2.85 0
 6 5 4 21.4 3.83 0
 6 5 5 11.65 3.41 0
 6 5 6 56.06 5.73 0
 6 5 7 65.45 5.73 0
 6 5 8 90.28 6.32 0
 6 5 9 124.33 7.39 0
 6 5 11 16.12 3.98 0
 6 5 12 152.99 7.96 0
 6 6 -8 72.14 4.98 0
 6 6 -7 11.02 3.09 0
 6 6 -6 100.61 6.24 0
 6 6 -4 6.46 2.85 0
 6 6 -3 2.89 2.77 0
 6 6 -2 99.65 6.44 0
 6 6 -1 115.04 6.7 0
 6 6 0 10.71 3.25 0
 6 6 1 117.78 6.93 0
 6 6 2 101.94 6.39 0
 6 6 3 2.89 2.6 0
 6 6 4 2.22 2.9 0
 6 6 5 10.28 3.78 0
 6 6 6 93.2 6.6 0
 6 6 9 137.38 7.91 0
 6 6 10 118.1 7.11 0
 6 6 11 20.01 4.18 0
 6 6 12 91.85 6.42 0
 6 7 -8 171.92 7.67 0
 6 7 -7 208.03 8.61 0
 6 7 -6 15.66 3.53 0
 6 7 -5 85.94 6.04 0
 6 7 -4 240.1 9.6 0
 6 7 -3 32.77 4.77 0
 6 7 -2 74.93 6.15 0
 6 7 -1 228.19 9.43 0
 6 7 1 234.46 9.55 0
 6 7 4 233.08 10.06 0
 6 7 5 88.24 6.75 0
 6 7 6 14.42 3.74 0
 6 7 7 199.79 9.49 0
 6 7 8 168.54 8.74 0
 6 7 9 6.86 3.85 0
 6 7 10 4.62 3 0
 6 7 11 121.14 7.5 0
 6 7 12 5.76 2.99 0
 6 8 -8 1.44 2.29 0
 6 8 -7 121.35 6.91 0
 6 8 -4 41.96 4.97 0
 6 8 -3 17.13 3.77 0
 6 8 -2 30.91 4.97 0
 6 8 -1 135.91 7.65 0
 6 8 0 8.17 3.23 0
 6 8 1 132.99 7.6 0
 6 8 2 34.12 4.84 0
 6 8 3 14.35 3.57 0
 6 8 4 39.75 5.5 0
 6 8 5 13.73 3.92 0
 6 8 6 9.53 3.76 0
 6 8 7 105.38 7.58 0
 6 8 8 1.57 3.15 0
 6 8 10 7.39 3.26 0
 6 8 11 14.2 3.86 0
 6 8 12 118.25 7.23 0
 6 9 -8 40 4.93 0
 6 9 -7 3.3 2.85 0
 6 9 -6 6.22 3.13 0
 6 9 -5 62.73 6.02 0
 6 9 -4 22.07 4.52 0
 6 9 -3 51.01 6.11 0
 6 9 -2 8.68 3.42 0
 6 9 -1 5.95 3.52 0
 6 9 0 4.08 3.5 0
 6 9 1 5.44 3.48 0
 6 9 2 8.55 3.71 0
 6 9 3 56.76 6.39 0
 6 9 4 17.57 4.41 0
 6 9 6 14.47 4.01 0
 6 9 7 5.63 3.74 0
 6 9 9 10.84 3.84 0
 6 9 10 106.88 7.28 0
 6 9 11 54.45 5.74 0
 6 10 -8 52.79 5.79 0
 6 10 -7 18.34 4.05 0
 6 10 -5 6.76 3.33 0
 6 10 -4 43.82 5.48 0
 6 10 -3 0.8 3.04 0
 6 10 -2 155.21 9.02 0
 6 10 -1 9.97 3.75 0
 6 10 0 11.54 3.65 0
 6 10 1 13.77 3.82 0
 6 10 2 144.66 8.78 0
 6 10 3 0.46 3 0
 6 10 4 43.33 5.65 0
 6 10 6 151.73 8.99 0
 6 10 7 11 3.81 0
 6 10 8 49.92 5.85 0
 6 10 9 3.59 3.16 0
 6 10 10 13.49 4.06 0
 6 11 -8 37.41 5.54 0
 6 11 -6 7.15 3.51 0
 6 11 -4 91.42 7.29 0
 6 11 -2 12.46 4.46 0
 6 11 -1 32.94 5.48 0
 6 11 0 145.36 9.15 0
 6 11 2 9.62 3.87 0
 6 11 3 66.58 6.74 0
 6 11 5 9.7 3.78 0
 6 11 6 5.74 3.73 0
 6 11 7 83.31 7.27 0
 6 12 -6 200.82 10 0
 6 12 -5 33.66 5.62 0
 6 12 -4 1.58 3.3 0
 6 12 -3 17.45 4.52 0
 6 12 -2 43.8 6.09 0
 6 12 -1 10.79 4.46 0
 6 12 0 35.72 5.71 0
 6 12 1 11.65 4.32 0
 6 12 3 19.96 4.68 0
 6 12 4 7.18 3.79 0
 7 0 -6 26.61 3.92 0
 7 0 13 -0.03 2.63 0
 7 1 -6 48.78 4.69 0
 7 1 -5 19.62 3.64 0
 7 1 -4 80.44 5.97 0
 7 1 -3 70.74 5.77 0
 7 1 12 14.55 3.9 0
 7 1 13 31.98 5.02 0
 7 2 -7 27.42 3.88 0
 7 2 -6 6.16 2.62 0
 7 2 -5 99.28 6.16 0
 7 2 -4 50.88 5.31 0
 7 2 -3 96.02 6.59 0
 7 2 -1 13.46 3.42 0
 7 2 0 144.23 7.88 0
 7 2 9 27.7 4.6 0
 7 2 10 18.93 4.19 0
 7 2 12 18.78 4.09 0
 7 2 13 12.08 3.64 0
 7 3 -7 42.51 4.25 0
 7 3 -6 139.68 7.02 0
 7 3 -5 71.57 5.43 0
 7 3 -4 54.09 5.34 0
 7 3 -3 176.93 8.25 0
 7 3 -2 144.51 7.9 0
 7 3 -1 1.48 2.63 0
 7 3 0 75.54 6.46 0
 7 3 1 -2.59 2.64 0
 7 3 2 146.33 7.88 0
 7 3 3 182.09 9.02 0
 7 3 5 66.06 6.18 0
 7 3 6 126.55 7.86 0
 7 3 7 37.36 5.59 0
 7 3 8 54.85 5.93 0
 7 3 9 0.69 3.11 0
 7 3 10 108.09 7.74 0
 7 3 11 42 5.48 0
 7 4 -7 105.81 6.31 0
 7 4 -5 1.5 2.81 0
 7 4 -4 19.28 3.83 0
 7 4 -3 66.13 5.53 0
 7 4 -2 65.16 5.58 0
 7 4 -1 29.2 4.66 0
 7 4 0 3.34 3.19 0
 7 4 1 34.72 5.11 0
 7 4 2 59.5 5.6 0
 7 4 3 66.44 6.28 0
 7 4 4 17.47 3.84 0
 7 4 5 4.88 3.41 0
 7 4 6 183.55 9.44 0
 7 4 7 109.34 7.44 0
 7 4 8 -0.53 2.71 0
 7 4 9 20.58 4.34 0
 7 4 10 52.35 6.45 0
 7 4 11 59.93 5.78 0
 7 4 12 170.49 8.69 0
 7 5 -7 67.07 5.38 0
 7 5 -6 66.93 5.47 0
 7 5 -4 104.07 6.68 0
 7 5 -3 2.41 2.96 0
 7 5 -2 49.03 5.14 0
 7 5 -1 24.37 4.65 0
 7 5 0 179.63 8.92 0
 7 5 1 25.48 4.7 0
 7 5 2 54.01 5.72 0
 7 5 3 -3.1 2.57 0
 7 5 4 113.61 7.43 0
 7 5 5 32.62 4.88 0
 7 5 6 67.67 6.72 0
 7 5 7 55.52 5.8 0
 7 5 8 55.32 6.07 0
 7 5 9 22.1 4.44 0
 7 5 10 127.97 7.95 0
 7 5 11 12.55 3.76 0
 7 5 12 41.78 5.4 0
 7 6 -7 21.8 4.12 0
 7 6 -6 47.24 5.73 0
 7 6 -5 115.06 7.23 0
 7 6 -4 10.6 3.71 0
 7 6 -3 206.23 9.61 0
 7 6 -1 84.99 6.58 0
 7 6 0 2.87 3.2 0
 7 6 1 80.35 6.52 0
 7 6 2 60.29 6.4 0
 7 6 3 199.11 9.43 0
 7 6 4 11.75 3.69 0
 7 6 5 119.88 7.87 0
 7 6 6 54.61 6.27 0
 7 6 7 19.21 4.38 0
 7 6 8 3.36 3.8 0
 7 6 9 7.91 4.17 0
 7 6 11 25.98 4.95 0
 7 6 12 36.46 5.41 0
 7 7 -6 2.25 2.8 0
 7 7 -4 5.38 3.21 0
 7 7 -3 73.82 6.1 0
 7 7 -2 94.39 7.1 0
 7 7 0 36.41 5.17 0
 7 7 1 51.64 5.67 0
 7 7 4 5.57 4.19 0
 7 7 5 41.85 6.02 0
 7 7 6 2.34 3.2 0
 7 7 7 6.69 3.94 0
 7 7 8 8.29 3.68 0
 7 7 9 34.27 5.46 0
 7 7 10 9.74 4.17 0
 7 7 11 16.47 4.14 0
 7 8 -8 2.6 2.46 0
 7 8 -7 52.94 5.75 0
 7 8 -6 6.54 3.09 0
 7 8 -5 45.54 5.71 0
 7 8 -3 52.15 6.5 0
 7 8 -2 62.33 6.3 0
 7 8 -1 96.58 7.59 0
 7 8 0 76.22 6.6 0
 7 8 2 57.01 6.26 0
 7 8 3 50.96 6.36 0
 7 8 4 62.45 6.45 0
 7 8 6 7.45 4.32 0
 7 8 7 57.3 6.1 0
 7 8 8 1.78 2.99 0
 7 8 9 12.2 3.98 0
 7 8 10 68.58 6.93 0
 7 9 -8 16.58 4.02 0
 7 9 -7 28.72 5.2 0
 7 9 -6 7.89 3.45 0
 7 9 -5 150.64 8.86 0
 7 9 -4 82.46 7.17 0
 7 9 -3 72.05 6.92 0
 7 9 0 -1.36 3.17 0
 7 9 1 75.36 6.73 0
 7 9 2 12.92 4.51 0
 7 9 3 73.29 6.69 0
 7 9 4 84.67 7.32 0
 7 9 6 3.7 3.5 0
 7 9 7 32.15 5.32 0
 7 9 8 17.73 4.56 0
 7 10 -7 70.13 6.75 0
 7 10 -6 24.1 4.62 0
 7 10 -4 35.85 5.83 0
 7 10 -3 65.66 6.38 0
 7 10 -1 52.76 6.41 0
 7 10 0 105.7 7.74 0
 7 10 2 32.34 5.28 0
 7 10 3 63.11 7.26 0
 7 10 4 36.55 6.18 0
 7 10 5 37.65 6.11 0
 7 10 6 31.12 5.65 0
 7 11 -2 10.44 4.83 0
 7 11 -1 166.02 9.98 0
 7 11 0 10.06 4.44 0
 7 11 1 174.78 10.26 0
 8 -1 -6 58.19 5.22 0
 8 -1 -5 48.1 5.11 0
 8 0 -5 92.38 6.36 0
 8 0 -4 476.83 13.68 0
 8 1 -6 61.32 5.2 0
 8 1 -5 50.77 5.35 0
 8 1 -4 57.26 5.85 0
 8 1 9 76 7.35 0
 8 1 10 17.47 4.46 0
 8 1 11 11.33 4.11 0
 8 2 -6 3.53 2.63 0
 8 2 -5 114.74 7.45 0
 8 2 -4 55.21 5.5 0
 8 2 -3 21.64 4.39 0
 8 2 -2 76.09 6.72 0
 8 2 1 10.57 3.79 0
 8 2 3 20.98 4.26 0
 8 2 4 60.33 6.54 0
 8 2 6 4.02 3.54 0
 8 2 7 5.87 3.76 0
 8 2 8 -0.42 3.72 0
 8 2 9 33.32 5.92 0
 8 2 10 12.96 4.04 0
 8 3 -5 14.48 3.66 0
 8 3 -4 118.34 7.62 0
 8 3 -3 75.46 6.69 0
 8 3 -2 73.88 6.85 0
 8 3 0 4.96 3.45 0
 8 3 1 79.08 6.7 0
 8 3 3 74.61 6.75 0
 8 3 4 106.82 7.77 0
 8 3 5 20.53 4.72 0
 8 3 6 36.66 5.9 0
 8 3 7 42.61 6.02 0
 8 3 8 48.66 6.27 0
 8 3 9 12.61 4.3 0
 8 3 10 66.45 6.66 0
 8 4 -6 17.36 4.2 0
 8 4 -5 124.81 7.47 0
 8 4 -4 24.73 4.6 0
 8 4 -2 1.21 3.04 0
 8 4 -1 2.14 3.77 0
 8 4 1 5.17 4.2 0
 8 4 2 8.07 3.95 0
 8 4 3 41.34 6.42 0
 8 4 4 37.13 5.81 0
 8 4 6 23.98 5 0
 8 4 7 71.4 7.16 0
 8 4 8 70.96 6.84 0
 8 4 9 9 4.05 0
 8 5 -7 70.49 5.78 0
 8 5 -6 52.25 5.98 0
 8 5 -4 18.59 4.13 0
 8 5 -3 60.36 5.9 0
 8 5 -1 37.65 5.35 0
 8 5 0 3.52 3.33 0
 8 5 1 40.23 5.55 0
 8 5 2 41.03 5.84 0
 8 5 3 65.68 6.27 0
 8 5 4 9.69 3.95 0
 8 5 5 26.49 4.84 0
 8 5 6 49.8 6.17 0
 8 5 7 78.33 7.4 0
 8 6 -6 6 3.22 0
 8 6 -5 25.75 4.86 0
 8 6 -4 53.12 6.36 0
 8 6 -3 108.99 7.72 0
 8 6 -2 24.52 5.06 0
 8 6 -1 16.01 4.36 0
 8 6 1 11.99 4.28 0
 8 6 2 21.53 4.81 0
 8 6 4 39.19 5.86 0
 8 6 5 20 4.87 0
 8 6 6 6.88 4.06 0
 8 6 7 37.37 5.51 0
 8 6 8 7.46 4.12 0
 8 7 -7 4.53 3.03 0
 8 7 -6 73.51 6.26 0
 8 7 -4 13.49 4.19 0
 8 7 -2 5.47 3.59 0
 8 7 -1 7.68 4.34 0
 8 7 0 6.86 4.31 0
 8 7 1 9.83 4.26 0
 8 7 2 6.29 4.02 0
 8 7 3 60.76 7.05 0
 8 7 4 6.52 4.15 0
 8 7 5 5.39 4.36 0
 8 7 6 59.34 7.17 0
 8 8 -6 102.51 7.29 0
 8 8 -4 11.11 4.21 0
 8 8 -3 34.57 5.49 0
 8 8 -2 198.83 10.17 0
 8 8 -1 80.99 7.17 0
 8 8 1 87.46 7.24 0
 8 8 2 200.96 10.82 0
 8 8 3 45.08 6.12 0
 8 8 4 6.4 3.91 0
 9 -2 -5 12.53 3.54 0
 9 -1 -5 97.83 7.24 0
 9 -1 -4 15.92 3.98 0
 9 -1 -3 63.87 6.64 0
 9 0 -4 52.33 6.34 0
 9 0 -3 27.95 4.82 0
 9 0 -2 19.7 4.52 0
 9 0 -1 188.94 9.83 0
 9 1 -4 19.52 4.62 0
 9 1 -3 78.27 7.73 0
 9 1 -2 180.66 9.59 0
 9 1 -1 51.89 6.86 0
 9 1 0 25.3 5.57 0
 9 1 2 172.88 9.82 0
 9 1 3 71.49 7.22 0
 9 1 5 105.48 8.51 0
 9 2 -5 10.6 4.09 0
 9 2 -4 42.47 5.87 0
 9 2 -3 42.73 6.36 0
 9 2 -2 18.31 4.46 0
 9 2 0 12.54 4.52 0
 9 2 1 90.09 8.05 0
 9 2 2 13.82 4.45 0
 9 2 3 39.79 6.45 0
 9 2 4 35.55 6.22 0
 9 2 5 10.94 4.72 0
 9 3 -5 43.55 5.72 0
 9 3 -4 1.19 2.94 0
 9 3 -3 -0.14 3.1 0
 9 3 -2 20.45 4.82 0
 9 3 -1 3.48 3.71 0
 9 3 0 25.77 5.28 0
 9 3 1 8.06 4.25 0
 9 3 2 18.08 4.78 0
 9 4 -5 0.34 3.06 0
 9 4 -4 11.97 3.86 0
 9 4 -2 14.74 4.9 0
 9 4 -1 6.79 4.03 0
 9 4 0 77.83 7.25 0
 9 4 1 3.46 3.96 0
 9 4 2 22.7 5.02 0
 9 4 3 24.4 5.46 0
 9 5 -3 27.16 5.11 0
 9 5 -2 44.4 6.42 0
 9 5 -1 11.79 4.18 0
 9 5 0 6.71 3.96 0
 9 5 1 11.13 4.39 0
 -5 5 8 99.75 4.65 0
 -5 6 4 139.3 6.52 0
 -5 6 6 228.42 7.58 0
 -5 6 7 5.76 2.2 0
 -5 6 8 24.16 3.12 0
 -5 7 3 8.11 2.96 0
 -5 7 4 24.61 3.71 0
 -5 7 5 42.56 4.74 0
 -5 7 6 108.04 6.08 0
 -5 7 7 15.36 3.14 0
 -5 7 8 38.78 4.21 0
 -5 8 3 67.79 5.57 0
 -5 8 4 26.03 4.22 0
 -5 8 5 18.2 3.61 0
 -5 8 6 55.21 5.15 0
 -5 8 7 52.49 5.07 0
 -5 8 8 253.48 8.99 0
 -5 9 1 73.27 6.68 0
 -5 9 2 86.43 7.05 0
 -5 9 3 316.29 11.35 0
 -5 9 5 8.51 3.23 0
 -5 9 6 14.35 4.08 0
 -5 9 7 31.27 4.7 0
 -5 9 8 1.24 2.44 0
 -5 9 9 220.68 9.01 0
 -5 10 1 34.55 5.4 0
 -5 10 2 27.23 4.93 0
 -5 10 3 146.47 8.7 0
 -5 10 4 84.34 6.95 0
 -5 10 5 24.1 4.62 0
 -5 10 6 18.39 4.3 0
 -5 10 7 4.27 3.36 0
 -5 10 8 2.57 2.89 0
 -5 11 1 23.94 5.53 0
 -5 11 2 6.61 3.74 0
 -5 11 3 18.62 4.58 0
 -5 11 4 41.18 5.78 0
 -5 11 6 16 4.43 0
 -5 11 7 2.12 3.53 0
 -5 11 8 13.53 3.69 0
 -5 12 1 47.97 6.71 0
 -5 12 2 16.03 4.59 0
 -5 12 3 16.51 5.22 0
 -5 12 4 142.67 9.03 0
 -5 12 5 3.51 3.39 0
 -5 12 6 20.44 4.62 0
 -5 12 7 30.12 5.02 0
 -5 13 1 12.85 4.85 0
 -5 13 2 -2.33 3.7 0
 -5 13 4 10.97 4.67 0
 -5 13 5 21.13 5.39 0
 -5 13 6 42.98 6.62 0
 -5 13 7 7.72 3.95 0
 -5 13 8 12.1 4.38 0
 -5 14 2 -2.01 3.82 0
 -4 3 5 450.76 7.79 0
 -4 3 6 83.05 3.4 0
 -4 3 7 9.26 1.46 0
 -4 3 8 1.59 0.95 0
 -4 3 9 71.66 2.75 0
 -4 4 2 121.63 5.23 0
 -4 4 3 130.55 5.06 0
 -4 4 4 287.89 7.1 0
 -4 4 5 642.97 10.26 0
 -4 4 6 53.85 3.27 0
 -4 4 7 22.39 2.45 0
 -4 4 8 146.06 4.73 0
 -4 4 9 49.23 2.87 0
 -4 5 3 23.6 3.2 0
 -4 5 4 250.1 7.31 0
 -4 5 6 0.8 1.68 0
 -4 5 7 21.73 2.71 0
 -4 6 0 16.32 3.15 0
 -4 7 -1 423.69 11.89 0
 -4 7 0 17.82 3.32 0
 -4 7 1 409.1 11.05 0
 -4 7 2 150.46 7.08 0
 -4 7 3 369.13 10.36 0
 -4 7 4 137.38 6.51 0
 -4 7 5 286.83 8.56 0
 -4 8 -1 24.47 4.06 0
 -4 8 1 18.87 3.7 0
 -4 8 3 16.51 3.46 0
 -4 8 4 14.38 3.45 0
 -4 9 -2 8.06 3.39 0
 -4 9 -1 9.35 3.31 0
 -4 9 0 2.14 3.14 0
 -4 9 1 10.8 3.38 0
 -4 9 2 6.48 3.46 0
 -4 9 3 7.82 3.12 0
 -4 9 4 130.26 7.12 0
 -4 10 -1 10.88 4.23 0
 -4 10 0 -2.13 2.47 0
 -4 10 1 7.67 3.7 0
 -4 10 2 173.55 8.97 0
 -4 10 3 52.44 5.37 0
 -4 11 -2 16.89 4.43 0
 -4 11 -1 108.95 8.33 0
 -4 11 0 5.91 3.63 0
 -4 11 1 106.25 7.82 0
 -4 11 2 21.12 5 0
 -4 11 3 23.99 5 0
 -4 11 5 4.41 3.17 0
 -4 12 -2 112.48 8.5 0
 -4 12 -1 8.35 4.12 0
 -4 12 0 27.83 5.67 0
 -4 12 1 1.62 3.44 0
 -4 12 2 114.43 8.27 0
 -4 12 3 16.59 4.66 0
 -4 12 4 10.69 4.18 0
 -4 12 5 7.44 3.67 0
 -4 12 6 171.07 9.24 0
 -4 13 -2 47.49 7.59 0
 -4 13 0 8.07 4.22 0
 -4 13 1 90.77 7.93 0
 -4 13 3 11.45 4.26 0
 -4 13 6 52.35 6.77 0
 -4 13 7 0.8 3.23 0
 -4 14 -2 76.11 8.57 0
 -4 14 -1 18.26 5.54 0
 -4 14 1 14.64 4.76 0
 -4 14 2 73.33 7.92 0
 -4 14 3 2.47 4.84 0
 -4 14 4 144.47 9.73 0
 -4 14 5 58.28 7.1 0
 -4 14 7 26.01 5.48 0
 -3 1 6 624.27 5.11 0
 -3 1 7 1392.35 6.89 0
 -3 1 8 255.72 2.84 0
 -3 2 3 323.97 5.79 0
 -3 2 4 660.43 7.65 0
 -3 2 5 518.97 6.57 0
 -3 3 1 515.68 8.66 0
 -3 3 2 89.14 3.7 0
 -3 3 3 750.63 9.53 0
 -3 4 -1 1020.18 14.13 0
 -3 4 0 33.31 2.92 0
 -3 4 1 966.3 12.75 0
 -3 4 2 130.31 4.68 0
 -3 5 -1 6.89 2.1 0
 -3 5 0 766.77 12.48 0
 -3 7 -3 110.11 6.12 0
 -3 7 -2 214.89 8.03 0
 -3 7 -1 318.31 9.45 0
 -3 8 -4 277.73 10.2 0
 -3 8 -3 37.21 4.12 0
 -3 8 -2 235.98 9.03 0
 -3 8 -1 284.34 9.6 0
 -3 8 0 18.41 3.55 0
 -3 9 -1 30.26 4.07 0
 -3 9 0 133.49 7.23 0
 -3 10 -4 8.94 3.65 0
 -3 10 -3 5.49 3.73 0
 -3 10 -2 124.53 7.47 0
 -3 10 -1 165.83 8.31 0
 -3 10 0 -1.11 2.31 0
 -3 11 -3 12.72 3.96 0
 -3 11 -1 512.07 14.97 0
 -3 11 1 537.1 14.5 0
 -3 12 -4 139.85 9.32 0
 -3 12 -3 48.98 6.2 0
 -3 12 -2 74.24 6.9 0
 -3 12 0 7.44 3.94 0
 -3 12 1 15.54 4.21 0
 -3 13 -4 43.68 6.56 0
 -3 13 -3 0.19 3.92 0
 -3 13 -2 75.85 7.72 0
 -3 13 -1 120.02 8.49 0
 -3 13 1 110.18 8.31 0
 -3 14 -4 10.18 4.82 0
 -3 14 -3 38.49 6.48 0
 -3 14 -2 123.47 9.57 0
 -3 14 -1 1.63 3.56 0
 -3 14 0 1.31 4.05 0
 -3 14 1 8.03 5.01 0
 -3 14 2 125.38 9.5 0
 -3 15 -4 14.86 5.29 0
 -3 15 -3 25.04 6.02 0
 -3 15 -2 0.53 4.34 0
 -3 15 -1 31.89 6.33 0
 -3 15 0 46.5 6.95 0
 -3 15 2 -2.31 3.83 0
 -3 15 3 24.86 6.22 0
 -3 15 4 16.07 4.81 0
 -2 -1 9 122.14 2.42 0
 -2 1 2 3131.83 13.1 0
 -2 2 0 1161.33 10.61 0
 -2 2 1 597.22 7.24 0
 -2 3 -1 1029.72 11.48 0
 -2 3 0 25.71 2.26 0
 -2 4 -3 683.01 11.17 0
 -2 4 -2 20.08 2.36 0
 -2 4 -1 25.32 2.34 0
 -2 7 -5 39.47 4.4 0
 -2 8 -5 120.16 6.94 0
 -2 8 -4 161.42 7.28 0
 -2 8 -3 132.21 6.51 0
 -2 8 -2 412.53 10.87 0
 -2 9 -5 555.89 14.15 0
 -2 9 -4 61.6 5.22 0
 -2 9 -3 227.24 8.79 0
 -2 10 -6 272.16 11.11 0
 -2 10 -5 -2.72 2.43 0
 -2 10 -2 266.31 9.99 0
 -2 11 -6 67.79 6.89 0
 -2 11 -5 94.92 7.63 0
 -2 11 -4 18.54 4.07 0
 -2 11 -3 84.2 6.76 0
 -2 11 -2 41.64 4.97 0
 -2 12 -6 102.84 8.48 0
 -2 12 -4 57.12 6.97 0
 -2 12 -3 14.34 4.37 0
 -2 12 -2 180.85 9.61 0
 -2 13 -6 25.12 5.32 0
 -2 13 -4 46.45 6.32 0
 -2 13 -2 31.44 5.44 0
 -2 13 -1 5.27 3.79 0
 -2 14 -5 51.08 6.92 0
 -2 14 -4 21.81 5.15 0
 -2 14 -3 124.86 9.06 0
 -2 14 -2 90.33 7.84 0
 -2 14 -1 -0.96 3.92 0
 -2 14 0 2.23 3.14 0
 -2 15 -2 67.74 8.27 0
 -2 15 -1 41.45 6.44 0
 -2 15 0 102.94 8.93 0
 -2 16 -2 -2.12 4.09 0
 -2 16 -1 118.44 9.38 0
 -2 16 0 3.27 4.24 0
 -1 1 0 1616.63 8.54 0
 -1 2 -2 3969.64 18.75 0
 -1 2 -1 3394.96 15.81 0
 -1 3 -3 817.45 9.93 0
 -1 3 -2 388.65 6.53 0
 -1 4 -4 72.91 3.68 0
 -1 4 -2 1628.48 13.89 0
 -1 5 -3 1808.2 17.12 0
 -1 6 -5 67.75 4.19 0
 -1 6 -4 205.65 6.7 0
 -1 8 -6 20.3 3.46 0
 -1 8 -5 200.28 7.9 0
 -1 9 -6 19.21 4 0
 -1 9 -4 307.53 9.72 0
 -1 10 -6 133.58 7.48 0
 -1 10 -5 250.61 9.82 0
 -1 10 -4 123.02 6.96 0
 -1 11 -5 83.25 6.64 0
 -1 11 -4 117.2 7.5 0
 -1 12 -7 65.54 6.63 0
 -1 12 -6 7.02 3.38 0
 -1 12 -5 6.4 3.36 0
 -1 12 -3 15.18 4.52 0
 -1 13 -7 22.19 5.39 0
 -1 13 -6 4.63 3.58 0
 -1 13 -5 150.54 8.96 0
 -1 13 -3 26.03 4.83 0
 -1 14 -6 55.69 7.47 0
 -1 14 -5 8.15 4.06 0
 -1 14 -4 24.39 5.79 0
 -1 14 -3 127.8 9.14 0
 -1 14 -2 10.01 3.94 0
 -1 15 -5 46.59 6.97 0
 -1 15 -3 12.68 4.61 0
 -1 15 -2 37.36 6.14 0
 -1 16 -5 5.33 4.35 0
 -1 16 -4 4.84 4.08 0
 -1 16 -3 17.16 5.23 0
 -1 16 -2 8.98 4.4 0
 -1 16 -1 143.93 10.38 0
 0 2 -3 984.8 8.12 0
 0 2 -2 449.47 4.82 0
 0 3 -4 1217.71 10.95 0
 0 3 -3 2717.91 15.12 0
 0 4 -5 448.34 7.79 0
 0 4 -4 711.27 9.29 0
 0 5 -4 85.99 3.71 0
 0 6 -6 674.27 11.42 0
 0 6 -5 0.83 1.5 0
 0 7 -5 125.65 5.32 0
 0 9 -7 26.85 3.99 0
 0 9 -6 674.24 13.81 0
 0 9 -5 62.09 4.98 0
 0 10 -7 31.36 4.16 0
 0 10 -5 1.46 2.9 0
 0 11 -6 24.19 4.05 0
 0 11 -5 13.99 3.45 0
 0 12 -7 675.02 16.41 0
 0 12 -5 3.52 3.02 0
 0 13 -6 9.25 3.7 0
 0 13 -5 105.39 7.4 0
 0 13 -4 -1.41 2.66 0
 0 14 -5 46.33 6.44 0
 0 14 -4 100.92 7.97 0
 0 15 -7 3.24 3.85 0
 0 15 -6 86.5 7.73 0
 0 15 -5 8.71 3.99 0
 0 15 -3 58.3 7.1 0
 0 16 -6 13.4 4.87 0
 0 16 -5 30.34 5.73 0
 0 16 -4 127.93 9.6 0
 0 16 -3 20.72 5.03 0
 0 16 -2 1.05 3.72 0
 1 2 -3 481.29 4.07 0
 1 3 -4 275.48 4.35 0
 1 4 -5 113.01 3.36 0
 1 5 -5 86 3.41 0
 1 6 -6 87.49 3.87 0
 1 6 -5 67.88 3.26 0
 1 7 -7 88.48 4.32 0
 1 7 -6 38.77 3.14 0
 1 9 -7 20.85 3.38 0
 1 10 -8 11.57 2.8 0
 1 10 -7 4.69 2.35 0
 1 10 -6 129.61 6.31 0
 1 11 -8 38.56 4.52 0
 1 11 -7 46.18 4.58 0
 1 11 -6 81.94 5.84 0
 1 12 -7 74.66 5.9 0
 1 12 -6 8.73 3.02 0
 1 12 -5 6.34 3 0
 1 13 -7 14.5 3.45 0
 1 13 -6 9.62 3.7 0
 1 14 -7 8.41 3.33 0
 1 14 -6 50.92 6.2 0
 1 14 -5 14.42 4.5 0
 1 15 -6 93.81 7.65 0
 1 15 -4 44.65 6.41 0
 1 16 -5 8.53 4.5 0
 1 16 -4 5.44 3.68 0
 1 16 -3 21.68 5.09 0
 2 4 -5 390.33 5.15 0
 2 6 -7 50.83 2.88 0
 2 6 -6 454.85 7.59 0
 2 7 -7 202.14 5.73 0
 2 7 -6 36.19 2.73 0
 2 8 -7 252.99 6.95 0
 2 8 -6 164.45 5.64 0
 2 10 -6 259.45 8.12 0
 2 11 -6 65.08 4.77 0
 3 1 -3 18.66 0.97 0
 3 5 -6 15.25 1.17 0
 3 6 -6 429.46 6.42 0
 3 7 -6 48.27 2.54 0

_iucr_refine_fcf_details
;
data_fk_03409_int_db_v128
_computing_structure_refinement   'olex2.refine 1.5-alpha (Bourhis et al., 2015)'
_shelx_refln_list_code            4
loop_
  _space_group_symop_id
  _space_group_symop_operation_xyz
  1  x,y,z
  2  x+1/2,-y+1/2,-z
  3  -x,y+1/2,-z+1/2
  4  -x+1/2,-y,z+1/2

_space_group_crystal_system       orthorhombic
_space_group_IT_number            19
_space_group_name_H-M_alt         'P 21 21 21'
_space_group_name_Hall            ' P 2ac 2ab'
_symmetry_space_group_name_H-M    'P 21 21 21'
_symmetry_space_group_name_Hall   ' P 2ac 2ab'
_symmetry_Int_Tables_number       19
_cell_length_a                    5.5795(4)
_cell_length_b                    9.7400(6)
_cell_length_c                    11.7064(7)
_cell_angle_alpha                 90
_cell_angle_beta                  90
_cell_angle_gamma                 90
_cell_volume                      636.18(7)
loop_
  _refln_index_h
  _refln_index_k
  _refln_index_l
  _refln_F_squared_calc
  _refln_F_squared_meas
  _refln_F_squared_sigma
  _refln_F_squared_weight
  _refln_observed_status
-9 -6 -3 3.289 1.919 1.957 52.874 o
-9 -6 -2 42.895 44.282 4.012 9.417 o
-9 -6 -1 8.179 11.276 2.537 29.644 o
-9 -5 -5 21.449 21.265 2.196 30.119 o
-9 -5 -4 9.902 8.987 1.556 66.569 o
-9 -5 -3 20.750 19.478 1.758 41.098 o
-9 -5 -2 31.505 30.191 1.843 29.289 o
-9 -5 -1 9.527 8.599 1.314 86.326 o
-9 -4 -6 37.623 48.941 4.072 9.405 o
-9 -4 -5 0.957 -0.249 1.212 140.794 o
-9 -4 -4 10.553 11.312 1.329 79.841 o
-9 -4 -3 18.253 15.951 1.656 47.985 o
-9 -4 -2 11.860 10.978 1.298 79.880 o
-9 -4 -1 3.630 3.022 1.009 169.965 o
-9 -3 -6 24.682 26.606 3.764 12.491 o
-9 -3 -5 35.204 36.635 1.981 24.455 o
-9 -3 -4 0.551 0.797 0.805 309.084 o
-9 -3 -3 1.981 0.353 0.823 276.441 o
-9 -3 -2 13.857 15.270 1.389 65.977 o
-9 -3 -1 4.029 2.968 1.077 150.580 o
-9 -2 -7 14.597 16.228 3.101 19.307 o
-9 -2 -6 85.486 86.679 4.040 5.810 o
-9 -2 -5 6.384 8.029 1.247 102.358 o
-9 -2 -4 28.095 29.207 1.573 36.287 o
-9 -2 -3 33.510 28.918 1.636 31.691 o
-9 -2 -2 12.889 13.494 1.459 64.868 o
-9 -2 -1 68.695 70.252 2.660 10.097 o
-9 -1 -7 0.639 3.997 2.702 28.655 o
-9 -1 -6 7.949 6.112 1.466 78.581 o
-9 -1 -5 78.466 79.913 2.349 9.232 o
-9 -1 -4 13.826 14.039 1.390 66.980 o
-9 -1 -3 51.249 56.479 2.126 15.782 o
-9 -1 -2 129.024 131.980 2.772 4.248 o
-9 -1 -1 38.853 37.201 1.627 26.677 o
-8 -9 -1 52.696 49.859 4.546 7.258 o
-8 -8 -6 78.429 73.483 3.588 7.190 o
-8 -8 -5 17.265 13.497 2.248 32.450 o
-8 -8 -4 8.336 7.300 1.474 76.193 o
-8 -8 -3 29.312 28.187 2.014 28.241 o
-8 -8 -2 154.670 150.759 3.263 3.130 o
-8 -8 -1 59.532 64.938 1.864 14.290 o
-8 -7 -7 3.135 3.140 1.443 92.712 o
-8 -7 -6 47.349 50.382 1.942 18.515 o
-8 -7 -5 6.344 5.753 1.117 125.144 o
-8 -7 -4 5.879 6.932 1.048 136.430 o
-8 -7 -3 41.842 41.920 1.576 24.698 o
-8 -7 -2 3.951 4.053 0.897 196.752 o
-8 -7 -1 3.969 3.065 0.825 228.295 o
-8 -6 -9 9.698 8.912 2.883 23.436 o
-8 -6 -8 3.672 1.599 1.730 66.571 o
-8 -6 -7 28.934 24.287 1.894 31.333 o
-8 -6 -6 3.997 3.367 0.889 202.348 o
-8 -6 -5 15.420 16.327 1.114 78.641 o
-8 -6 -4 34.223 36.744 1.569 29.929 o
-8 -6 -3 81.290 82.616 1.778 9.773 o
-8 -6 -2 13.854 14.481 1.149 82.434 o
-8 -6 -1 15.184 12.898 0.973 94.526 o
-8 -5 -9 46.017 44.813 2.449 16.332 o
-8 -5 -8 9.014 6.469 1.313 90.184 o
-8 -5 -7 53.824 52.496 2.208 15.257 o
-8 -5 -6 40.772 42.134 1.634 24.594 o
-8 -5 -5 17.177 16.047 1.196 70.205 o
-8 -5 -4 9.946 10.708 1.042 110.725 o
-8 -5 -3 44.342 47.940 1.630 22.015 o
-8 -5 -2 31.716 34.732 1.549 32.337 o
-8 -5 -1 32.899 32.410 1.553 32.258 o
-8 -4 -10 80.032 85.006 3.962 6.202 o
-8 -4 -9 5.657 6.872 1.288 101.026 o
-8 -4 -8 54.196 58.454 2.294 14.215 o
-8 -4 -7 52.100 53.636 1.839 17.388 o
-8 -4 -6 14.710 15.864 1.118 80.718 o
-8 -4 -5 94.851 97.809 1.762 7.686 o
-8 -4 -4 22.520 19.304 1.148 59.668 o
-8 -4 -3 32.258 31.211 1.554 33.042 o
-8 -4 -2 3.318 2.587 0.805 248.640 o
-8 -4 -1 2.960 1.697 0.753 289.320 o
-8 -3 -11 77.468 78.542 3.748 6.828 o
-8 -3 -10 51.523 57.743 2.718 12.876 o
-8 -3 -9 8.381 8.845 1.742 57.368 o
-8 -3 -8 38.997 41.666 1.950 22.435 o
-8 -3 -7 37.718 38.575 1.855 24.433 o
-8 -3 -6 28.031 25.642 1.643 36.211 o
-8 -3 -5 13.613 12.733 1.064 92.240 o
-8 -3 -4 82.958 85.237 2.386 8.478 o
-8 -3 -3 58.186 59.580 2.165 13.921 o
-8 -3 -2 55.143 57.099 1.927 15.797 o
-8 -3 -1 55.689 58.800 2.312 13.842 o
-8 -2 -11 0.436 0.987 2.096 47.933 o
-8 -2 -10 14.232 13.960 1.428 64.239 o
-8 -2 -9 23.336 26.321 1.885 34.058 o
-8 -2 -8 0.587 -0.208 0.830 298.342 o
-8 -2 -7 6.705 6.046 0.913 161.627 o
-8 -2 -6 2.812 1.694 0.792 269.481 o
-8 -2 -5 89.410 90.598 2.045 8.149 o
-8 -2 -4 40.063 41.546 1.541 25.932 o
-8 -2 -3 21.878 21.342 1.607 43.717 o
-8 -2 -2 50.868 54.149 2.473 14.380 o
-8 -2 -1 7.464 7.874 1.012 132.387 o
-8 -1 -11 9.363 11.776 2.305 34.588 o
-8 -1 -10 17.706 17.518 1.751 44.502 o
-8 -1 -9 56.208 56.949 1.887 15.752 o
-8 -1 -8 10.117 8.140 1.260 90.636 o
-8 -1 -7 2.275 2.549 0.811 261.128 o
-8 -1 -6 46.671 48.134 1.503 21.999 o
-8 -1 -5 34.462 36.922 1.398 32.017 o
-8 -1 -4 43.682 42.948 1.667 22.932 o
-8 -1 -3 38.247 36.528 1.483 28.786 o
-8 -1 -2 91.575 91.517 2.324 7.576 o
-8 -1 -1 31.143 32.420 1.774 29.937 o
-7 -11 -5 3.613 -0.226 2.123 45.558 o
-7 -11 -4 16.441 17.132 2.533 26.568 o
-7 -11 -3 0.976 0.028 1.100 169.808 o
-7 -11 -2 8.614 8.308 1.299 90.313 o
-7 -11 -1 126.881 129.666 2.793 4.349 o
-7 -10 -7 57.582 54.513 2.812 11.892 o
-7 -10 -6 19.753 20.319 1.935 36.848 o
-7 -10 -5 28.126 26.711 1.463 39.486 o
-7 -10 -4 28.132 29.389 1.648 34.760 o
-7 -10 -3 46.509 50.877 1.559 21.171 o
-7 -10 -2 29.713 28.824 1.546 35.760 o
-7 -10 -1 36.680 40.237 1.790 25.215 o
-7 -9 -9 20.290 24.824 4.027 11.479 o
-7 -9 -8 11.555 12.190 1.470 67.290 o
-7 -9 -7 24.394 21.979 1.764 37.416 o
-7 -9 -6 3.972 5.076 0.843 209.797 o
-7 -9 -5 115.138 116.309 2.287 5.386 o
-7 -9 -4 63.736 61.297 1.692 14.400 o
-7 -9 -3 52.310 56.825 1.845 16.892 o
-7 -9 -2 6.987 7.532 1.116 118.998 o
-7 -9 -1 50.885 52.573 1.406 20.236 o
-7 -8 -10 53.878 53.551 2.744 12.729 o
-7 -8 -9 6.535 3.158 1.315 100.290 o
-7 -8 -8 0.875 0.619 0.727 368.147 o
-7 -8 -7 43.019 40.071 1.539 24.920 o
-7 -8 -6 2.717 2.329 0.779 272.877 o
-7 -8 -5 35.109 36.029 1.765 27.151 o
-7 -8 -4 44.774 44.790 2.084 19.049 o
-7 -8 -3 38.577 39.137 1.358 29.255 o
-7 -8 -2 47.239 45.032 1.384 23.223 o
-7 -8 -1 73.671 74.200 1.610 11.678 o
-7 -7 -11 11.818 9.579 2.860 23.338 o
-7 -7 -10 7.897 9.747 1.341 86.278 o
-7 -7 -9 23.772 25.581 1.477 43.599 o
-7 -7 -8 3.464 4.911 1.003 166.293 o
-7 -7 -7 3.167 4.042 0.839 226.158 o
-7 -7 -6 2.515 2.731 0.721 307.731 o
-7 -7 -5 33.342 30.732 1.330 36.060 o
-7 -7 -4 5.030 5.018 0.772 223.074 o
-7 -7 -3 60.010 58.403 1.404 16.605 o
-7 -7 -2 71.262 69.811 1.382 12.940 o
-7 -7 -1 39.985 44.850 1.492 25.645 o
-7 -6 -12 32.586 35.927 4.328 9.200 o
-7 -6 -11 14.990 14.252 1.429 62.830 o
-7 -6 -10 90.027 95.796 3.166 6.470 o
-7 -6 -9 8.349 7.642 1.124 112.346 o
-7 -6 -8 2.029 2.802 1.222 129.371 o
-7 -6 -7 15.219 17.570 1.130 76.655 o
-7 -6 -6 34.040 34.280 1.177 36.426 o
-7 -6 -5 90.356 91.188 1.740 8.407 o
-7 -6 -4 9.869 11.091 0.812 141.625 o
-7 -6 -3 153.680 147.724 2.062 3.520 o
-7 -6 -2 42.536 43.672 1.183 27.374 o
-7 -6 -1 56.494 58.016 1.421 17.552 o
-7 -5 -12 31.617 34.198 2.191 23.806 o
-7 -5 -11 14.596 16.236 1.263 71.223 o
-7 -5 -10 91.073 95.932 2.409 7.341 o
-7 -5 -9 21.733 19.816 1.456 49.294 o
-7 -5 -8 35.396 37.061 1.339 32.123 o
-7 -5 -7 43.273 47.550 1.359 24.604 o
-7 -5 -6 51.260 54.227 1.524 19.207 o
-7 -5 -5 27.972 29.503 1.196 44.126 o
-7 -5 -4 82.460 81.706 1.419 10.224 o
-7 -5 -3 0.216 0.551 0.595 567.789 o
-7 -5 -2 38.040 39.423 1.057 32.794 o
-7 -5 -1 22.777 21.832 1.006 62.365 o
-7 -4 -13 32.343 38.785 2.867 16.673 o
-7 -4 -12 126.848 132.486 2.565 4.411 o
-7 -4 -11 39.778 44.317 1.959 21.629 o
-7 -4 -10 41.538 42.543 1.429 26.030 o
-7 -4 -9 20.249 21.068 1.177 60.870 o
-7 -4 -8 1.753 2.643 0.663 370.591 o
-7 -4 -7 79.732 78.079 1.775 10.244 o
-7 -4 -6 138.920 142.132 1.921 4.076 o
-7 -4 -5 2.514 2.135 0.578 432.339 o
-7 -4 -4 17.844 15.468 0.944 84.297 o
-7 -4 -3 50.129 50.829 1.179 22.082 o
-7 -4 -2 45.936 45.389 1.031 26.198 o
-7 -4 -1 26.265 26.620 0.886 55.797 o
-7 -3 -13 21.952 23.178 1.935 34.692 o
-7 -3 -12 4.892 5.754 1.011 152.738 o
-7 -3 -11 28.244 25.266 1.456 40.163 o
-7 -3 -10 82.413 81.867 2.109 9.149 o
-7 -3 -9 2.643 2.609 0.770 277.199 o
-7 -3 -8 42.496 43.083 1.236 27.111 o
-7 -3 -7 32.799 31.686 1.104 39.839 o
-7 -3 -6 97.477 100.323 1.671 7.452 o
-7 -3 -5 54.474 53.916 1.259 19.508 o
-7 -3 -4 44.361 44.461 1.321 25.116 o
-7 -3 -3 128.444 126.565 1.932 4.744 o
-7 -3 -2 114.180 115.019 1.500 5.918 o
-7 -3 -1 0.582 0.767 0.478 790.688 o
-7 -2 -13 11.959 11.990 1.139 91.708 o
-7 -2 -12 12.614 12.630 1.097 92.581 o
-7 -2 -11 86.282 87.196 2.012 8.641 o
-7 -2 -10 12.296 11.261 0.988 106.512 o
-7 -2 -9 22.748 24.696 1.015 59.548 o
-7 -2 -8 52.397 54.742 1.371 19.536 o
-7 -2 -7 21.789 23.236 0.981 63.834 o
-7 -2 -6 7.532 6.946 0.645 218.607 o
-7 -2 -5 76.951 73.907 1.578 11.268 o
-7 -2 -4 33.908 37.392 1.347 32.923 o
-7 -2 -3 75.709 77.376 1.576 11.199 o
-7 -2 -2 29.861 33.038 1.077 42.584 o
-7 -2 -1 11.459 11.470 0.688 147.720 o
-7 -1 -13 23.749 23.161 1.246 51.629 o
-7 -1 -12 9.658 10.146 0.982 120.797 o
-7 -1 -11 61.394 61.422 1.525 15.463 o
-7 -1 -10 28.223 27.216 1.181 45.442 o
-7 -1 -9 13.103 12.055 1.089 92.694 o
-7 -1 -8 133.118 133.659 1.868 4.445 o
-7 -1 -7 219.891 229.920 2.738 1.733 o
-7 -1 -6 39.782 38.704 1.250 29.811 o
-7 -1 -5 17.781 15.197 0.846 91.263 o
-7 -1 -4 67.971 64.552 1.333 14.221 o
-7 -1 -3 55.405 56.661 1.481 17.799 o
-7 -1 -2 23.018 18.927 0.929 67.747 o
-7 -1 -1 141.784 135.877 2.371 3.938 o
-6 -13 -2 30.822 36.850 9.153 2.415 o
-6 -13 -1 8.899 9.319 3.854 13.648 o
-6 -12 -7 30.345 26.872 3.523 13.347 o
-6 -12 -6 147.546 149.866 4.339 2.924 o
-6 -12 -5 23.863 25.929 1.870 34.176 o
-6 -12 -4 3.507 2.885 0.872 216.046 o
-6 -12 -3 19.125 17.026 1.266 62.228 o
-6 -12 -2 33.128 32.621 1.658 30.501 o
-6 -12 -1 4.828 4.963 0.862 195.398 o
-6 -11 -9 18.907 20.374 2.617 24.155 o
-6 -11 -8 28.656 27.722 1.854 31.260 o
-6 -11 -7 68.853 67.925 2.387 10.931 o
-6 -11 -6 3.750 4.884 1.002 164.645 o
-6 -11 -5 7.718 8.032 1.083 119.783 o
-6 -11 -4 69.401 69.405 2.524 10.413 o
-6 -11 -3 47.418 49.365 1.964 18.492 o
-6 -11 -2 8.434 9.093 0.954 133.785 o
-6 -11 -1 27.413 24.181 1.184 48.098 o
-6 -10 -10 12.789 13.280 1.823 47.710 o
-6 -10 -9 2.664 2.750 0.897 216.290 o
-6 -10 -8 32.562 35.775 1.772 28.360 o
-6 -10 -7 8.896 9.996 1.007 121.301 o
-6 -10 -6 117.055 110.340 2.041 5.591 o
-6 -10 -5 6.263 5.929 0.860 178.468 o
-6 -10 -4 34.652 35.780 1.649 28.912 o
-6 -10 -3 1.159 1.664 0.712 359.105 o
-6 -10 -2 108.870 113.465 2.011 5.970 o
-6 -10 -1 8.634 7.528 0.859 153.948 o
-6 -9 -11 42.323 40.294 2.081 20.438 o
-6 -9 -10 69.247 73.991 2.596 9.990 o
-6 -9 -9 9.774 8.404 0.935 131.313 o
-6 -9 -8 27.443 29.237 1.208 44.574 o
-6 -9 -7 3.217 2.393 0.749 280.473 o
-6 -9 -6 8.778 7.905 0.770 169.243 o
-6 -9 -5 44.944 45.064 1.565 22.827 o
-6 -9 -4 15.563 14.937 0.955 91.350 o
-6 -9 -3 37.800 39.693 1.447 28.553 o
-6 -9 -2 6.791 6.537 0.741 202.497 o
-6 -9 -1 3.362 1.916 0.590 393.594 o
-6 -8 -12 78.683 84.274 2.619 8.508 o
-6 -8 -11 12.867 13.182 1.074 92.982 o
-6 -8 -10 6.444 6.552 0.948 154.147 o
-6 -8 -9 31.278 30.835 1.565 33.635 o
-6 -8 -8 1.035 1.103 0.553 571.233 o
-6 -8 -7 90.493 89.862 1.605 8.611 o
-6 -8 -6 5.729 5.814 0.828 192.556 o
-6 -8 -5 13.757 13.121 0.874 108.300 o
-6 -8 -4 29.829 29.930 0.970 46.446 o
-6 -8 -3 12.441 12.270 0.736 132.170 o
-6 -8 -2 21.916 23.377 0.997 62.883 o
-6 -8 -1 99.802 100.902 1.875 7.071 o
-6 -7 -13 42.721 39.118 2.438 17.737 o
-6 -7 -12 4.418 5.923 1.087 138.864 o
-6 -7 -11 81.773 86.551 2.436 8.444 o
-6 -7 -10 4.648 5.401 0.808 212.488 o
-6 -7 -9 2.684 3.347 0.724 295.916 o
-6 -7 -8 120.822 123.638 1.747 5.226 o
-6 -7 -7 158.763 159.393 1.978 3.266 o
-6 -7 -6 14.407 13.572 0.763 114.990 o
-6 -7 -5 59.016 62.048 1.209 17.062 o
-6 -7 -4 178.418 172.729 1.628 2.764 o
-6 -7 -3 26.465 27.312 0.815 56.663 o
-6 -7 -2 57.111 56.207 1.325 18.028 o
-6 -7 -1 170.452 176.463 2.078 2.818 o
-6 -6 -14 31.899 35.612 2.801 17.560 o
-6 -6 -13 31.911 34.828 1.870 27.594 o
-6 -6 -12 59.893 59.695 1.957 14.395 o
-6 -6 -11 15.469 13.853 1.007 89.440 o
-6 -6 -10 86.608 88.513 1.782 8.857 o
-6 -6 -9 104.675 107.288 1.996 6.419 o
-6 -6 -8 56.897 54.653 1.241 18.674 o
-6 -6 -7 12.540 11.287 0.667 143.345 o
-6 -6 -6 72.098 72.400 1.128 13.048 o
-6 -6 -5 8.652 7.518 0.603 211.087 o
-6 -6 -4 3.129 2.958 0.395 586.674 o
-6 -6 -3 2.714 2.058 0.497 516.812 o
-6 -6 -2 71.427 71.552 1.332 12.855 o
-6 -6 -1 86.740 84.620 1.547 9.358 o
-6 -5 -14 11.209 10.419 1.741 53.919 o
-6 -5 -13 26.262 24.918 1.380 43.980 o
-6 -5 -12 111.804 106.796 2.428 5.696 o
-6 -5 -11 11.298 13.309 1.212 85.375 o
-6 -5 -10 20.697 19.473 1.149 62.625 o
-6 -5 -9 87.858 90.010 2.056 8.301 o
-6 -5 -8 64.560 64.473 1.445 14.655 o
-6 -5 -7 50.995 45.302 0.990 23.935 o
-6 -5 -6 38.574 38.378 0.898 34.432 o
-6 -5 -5 11.504 9.286 0.592 171.158 o
-6 -5 -4 19.282 20.237 0.991 71.867 o
-6 -5 -3 168.299 166.039 1.488 3.053 o
-6 -5 -2 7.317 7.399 0.621 225.447 o
-6 -5 -1 114.400 117.706 1.756 5.698 o
-6 -4 -14 17.163 17.336 1.432 57.388 o
-6 -4 -13 0.070 0.307 0.851 289.933 o
-6 -4 -12 2.816 2.722 0.758 279.666 o
-6 -4 -11 21.434 18.984 1.273 56.806 o
-6 -4 -10 17.628 17.695 1.112 72.132 o
-6 -4 -9 22.796 22.957 1.171 55.561 o
-6 -4 -8 33.319 33.066 0.938 41.242 o
-6 -4 -7 2.753 2.802 0.480 512.266 o
-6 -4 -6 126.297 125.782 1.569 4.995 o
-6 -4 -5 59.211 62.331 1.245 16.849 o
-6 -4 -4 18.973 16.916 0.775 88.736 o
-6 -4 -3 32.743 31.817 0.805 44.590 o
-6 -4 -2 45.101 42.901 0.871 28.453 o
-6 -4 -1 57.144 62.121 1.036 18.168 o
-6 -3 -15 3.834 3.737 1.333 104.236 o
-6 -3 -14 18.312 18.398 1.518 51.772 o
-6 -3 -13 19.222 17.697 1.399 55.779 o
-6 -3 -12 51.542 49.954 1.694 18.849 o
-6 -3 -11 35.595 32.529 1.281 34.379 o
-6 -3 -10 37.929 39.218 1.878 23.984 o
-6 -3 -9 47.203 47.980 1.278 23.325 o
-6 -3 -8 61.734 61.266 1.180 16.519 o
-6 -3 -7 12.699 10.819 0.606 151.878 o
-6 -3 -6 61.914 62.638 1.166 16.330 o
-6 -3 -5 39.934 38.583 0.769 34.445 o
-6 -3 -4 11.761 12.432 0.513 165.329 o
-6 -3 -3 8.549 7.152 0.442 259.156 o
-6 -3 -2 60.323 57.310 0.949 18.194 o
-6 -3 -1 64.252 67.301 1.187 15.116 o
-6 -2 -15 7.384 7.568 1.300 94.175 o
-6 -2 -14 29.354 28.204 1.909 29.861 o
-6 -2 -13 286.646 296.551 3.390 1.060 o
-6 -2 -12 5.934 7.011 0.882 171.031 o
-6 -2 -11 48.126 48.356 1.806 19.446 o
-6 -2 -10 14.335 13.628 0.976 95.898 o
-6 -2 -9 33.937 33.330 1.062 38.643 o
-6 -2 -8 7.580 6.670 0.611 229.939 o
-6 -2 -7 78.608 76.519 1.248 11.384 o
-6 -2 -6 58.255 58.895 1.266 17.524 o
-6 -2 -5 282.432 285.639 2.007 1.149 o
-6 -2 -4 60.045 57.467 0.843 18.562 o
-6 -2 -3 88.253 85.071 1.069 9.687 o
-6 -2 -2 3.121 4.105 0.423 514.624 o
-6 -2 -1 74.550 69.121 1.200 12.767 o
-6 -1 -15 3.884 2.305 0.862 219.097 o
-6 -1 -14 73.966 72.795 2.295 10.230 o
-6 -1 -13 3.647 3.487 0.915 196.277 o
-6 -1 -12 8.263 8.734 0.992 129.503 o
-6 -1 -11 43.955 42.238 1.598 23.539 o
-6 -1 -10 53.129 54.534 1.658 17.913 o
-6 -1 -9 0.215 1.107 0.439 948.493 o
-6 -1 -8 103.320 101.432 1.553 7.050 o
-6 -1 -7 100.330 99.044 1.296 7.565 o
-6 -1 -6 178.008 176.179 1.625 2.740 o
-6 -1 -5 19.199 18.794 0.643 91.842 o
-6 -1 -4 46.550 46.442 0.810 26.921 o
-6 -1 -3 106.948 101.413 1.368 6.906 o
-6 -1 -2 107.608 109.778 1.821 6.284 o
-6 -1 -1 75.722 71.819 1.407 11.944 o
-5 -14 -5 41.577 44.538 4.343 8.451 o
-5 -14 -4 35.912 36.251 4.592 8.198 o
-5 -14 -3 77.420 76.469 3.685 6.994 o
-5 -14 -2 1.766 -2.054 1.526 88.450 o
-5 -14 -1 70.081 74.635 3.125 8.649 o
-5 -13 -8 6.395 9.108 3.297 18.603 o
-5 -13 -7 6.651 6.053 2.027 46.344 o
-5 -13 -6 33.500 32.903 1.692 29.721 o
-5 -13 -5 17.577 17.050 1.368 59.920 o
-5 -13 -4 11.226 12.340 1.094 97.619 o
-5 -13 -3 35.122 37.724 1.764 26.759 o
-5 -13 -2 1.539 0.385 0.982 204.841 o
-5 -13 -1 8.625 9.848 0.977 127.236 o
-5 -12 -9 1.769 1.486 1.039 179.018 o
-5 -12 -8 94.981 101.388 2.336 6.949 o
-5 -12 -7 25.730 24.432 1.349 45.562 o
-5 -12 -6 14.571 13.383 1.033 90.866 o
-5 -12 -5 3.142 1.754 0.754 284.626 o
-5 -12 -4 102.300 104.658 2.443 6.270 o
-5 -12 -3 11.560 11.498 1.280 81.379 o
-5 -12 -2 12.713 12.356 0.972 104.473 o
-5 -12 -1 43.635 43.801 1.475 24.362 o
-5 -11 -11 2.690 2.281 2.251 40.598 o
-5 -11 -10 39.030 40.191 1.705 25.087 o
-5 -11 -9 99.789 100.685 2.245 6.738 o
-5 -11 -8 11.068 10.569 0.921 121.175 o
-5 -11 -7 0.583 1.975 0.729 355.347 o
-5 -11 -6 11.325 9.579 0.843 132.859 o
-5 -11 -5 239.967 246.927 3.217 1.469 o
-5 -11 -4 29.149 29.359 1.308 40.646 o
-5 -11 -3 16.162 17.196 1.016 81.964 o
-5 -11 -2 4.391 4.263 0.694 270.952 o
-5 -11 -1 18.379 17.047 1.069 73.556 o
-5 -10 -12 3.906 3.870 1.182 127.704 o
-5 -10 -11 65.316 75.146 2.506 10.604 o
-5 -10 -10 87.791 91.990 2.122 8.130 o
-5 -10 -9 8.776 6.654 0.824 163.123 o
-5 -10 -8 1.871 2.160 0.724 326.191 o
-5 -10 -7 1.610 1.263 0.630 431.817 o
-5 -10 -6 13.660 15.377 1.058 88.642 o
-5 -10 -5 22.003 19.265 1.097 62.648 o
-5 -10 -4 62.410 62.701 1.869 13.928 o
-5 -10 -3 105.227 107.520 1.678 6.609 o
-5 -10 -2 24.071 23.652 1.054 56.915 o
-5 -10 -1 27.181 27.157 1.081 49.122 o
-5 -9 -13 35.444 37.445 2.100 22.936 o
-5 -9 -12 0.453 0.660 0.938 232.791 o
-5 -9 -11 49.076 51.791 2.160 16.607 o
-5 -9 -10 1.795 1.689 0.697 354.207 o
-5 -9 -9 174.566 174.759 2.183 2.741 o
-5 -9 -8 3.054 2.172 0.566 421.687 o
-5 -9 -7 20.253 20.123 0.954 71.507 o
-5 -9 -6 11.922 9.813 0.748 141.808 o
-5 -9 -5 7.960 8.282 0.721 185.749 o
-5 -9 -4 21.026 20.658 0.806 75.561 o
-5 -9 -3 246.101 237.092 2.453 1.505 o
-5 -9 -2 65.869 65.554 1.364 14.481 o
-5 -9 -1 52.861 55.306 1.154 20.303 o
-5 -8 -14 40.846 47.166 2.588 16.261 o
-5 -8 -13 27.812 30.192 1.832 31.413 o
-5 -8 -12 33.524 36.360 1.721 28.412 o
-5 -8 -11 22.305 19.951 1.322 53.103 o
-5 -8 -10 67.534 68.106 2.004 12.155 o
-5 -8 -9 34.653 37.059 1.107 35.744 o
-5 -8 -8 172.064 182.086 1.944 2.755 o
-5 -8 -7 40.693 40.834 1.075 30.292 o
-5 -8 -6 35.867 37.158 1.127 34.487 o
-5 -8 -5 10.938 12.239 0.808 132.086 o
-5 -8 -4 20.642 19.746 0.821 77.150 o
-5 -8 -3 51.676 50.823 0.981 22.437 o
-5 -8 -2 213.115 208.742 2.031 1.963 o
-5 -8 -1 21.126 21.478 1.006 65.891 o
-5 -7 -15 52.124 53.080 3.011 11.897 o
-5 -7 -14 105.546 110.758 2.558 5.818 o
-5 -7 -13 93.349 99.024 2.559 6.894 o
-5 -7 -12 1.053 0.566 0.726 364.432 o
-5 -7 -11 102.065 97.254 2.806 6.150 o
-5 -7 -10 61.287 59.590 1.857 14.498 o
-5 -7 -9 156.323 157.393 2.019 3.340 o
-5 -7 -8 27.715 30.039 0.930 49.973 o
-5 -7 -7 14.048 13.794 0.679 124.407 o
-5 -7 -6 79.865 82.489 1.326 10.650 o
-5 -7 -5 30.431 32.803 0.792 47.080 o
-5 -7 -4 18.347 15.425 0.706 97.888 o
-5 -7 -3 4.433 4.816 0.470 392.703 o
-5 -7 -2 71.031 67.583 1.191 13.605 o
-5 -7 -1 13.219 11.894 0.728 129.544 o
-5 -6 -15 8.880 10.844 1.154 101.365 o
-5 -6 -14 42.042 41.707 2.108 20.088 o
-5 -6 -13 13.357 11.201 1.151 87.874 o
-5 -6 -12 17.849 14.953 1.290 64.940 o
-5 -6 -11 6.713 6.209 0.776 195.447 o
-5 -6 -10 12.363 10.379 0.865 122.126 o
-5 -6 -9 14.685 14.036 0.804 108.794 o
-5 -6 -8 16.716 18.080 0.850 89.714 o
-5 -6 -7 3.925 4.009 0.524 388.610 o
-5 -6 -6 170.111 170.374 1.982 2.899 o
-5 -6 -5 39.739 39.504 0.773 34.191 o
-5 -6 -4 114.432 109.895 1.374 6.117 o
-5 -6 -3 12.348 9.293 0.580 165.112 o
-5 -6 -2 122.782 119.592 1.268 5.421 o
-5 -6 -1 271.707 265.796 1.825 1.265 o
-5 -5 -16 1.681 -0.399 2.574 31.725 o
-5 -5 -15 41.033 36.661 2.264 19.813 o
-5 -5 -14 21.606 19.428 1.528 47.305 o
-5 -5 -13 4.475 5.020 0.799 220.048 o
-5 -5 -12 18.322 18.177 0.957 78.488 o
-5 -5 -11 17.287 17.139 0.867 88.349 o
-5 -5 -10 46.706 46.730 1.082 25.118 o
-5 -5 -9 139.113 140.392 1.893 4.107 o
-5 -5 -8 78.260 79.706 1.269 11.165 o
-5 -5 -7 53.466 53.675 0.970 21.170 o
-5 -5 -6 12.329 10.633 0.656 148.822 o
-5 -5 -5 7.134 7.049 0.400 305.478 o
-5 -5 -4 76.232 76.429 1.162 11.904 o
-5 -5 -3 34.703 33.311 0.757 42.117 o
-5 -5 -2 137.203 133.418 1.476 4.418 o
-5 -5 -1 146.226 144.857 1.154 3.973 o
-5 -4 -16 12.412 11.915 1.390 71.265 o
-5 -4 -15 64.170 65.203 2.001 12.948 o
-5 -4 -14 34.790 36.228 1.397 32.038 o
-5 -4 -13 20.173 19.951 1.229 59.742 o
-5 -4 -12 6.833 6.418 0.683 220.132 o
-5 -4 -11 42.124 40.169 1.289 27.632 o
-5 -4 -10 2.816 2.659 0.505 484.494 o
-5 -4 -9 17.529 19.013 0.791 89.140 o
-5 -4 -8 27.000 24.118 0.803 58.855 o
-5 -4 -7 21.445 19.548 0.644 82.882 o
-5 -4 -6 10.564 10.098 0.493 193.631 o
-5 -4 -5 248.532 242.519 2.214 1.479 o
-5 -4 -4 66.682 67.768 0.952 15.025 o
-5 -4 -3 336.893 324.110 1.825 0.853 o
-5 -4 -2 40.956 37.481 0.573 35.554 o
-5 -4 -1 14.448 13.674 0.450 143.983 o
-5 -3 -17 27.470 30.244 3.545 13.331 o
-5 -3 -16 45.523 50.300 2.106 17.973 o
-5 -3 -15 24.861 23.862 1.415 45.027 o
-5 -3 -14 23.613 25.271 1.357 47.199 o
-5 -3 -13 52.283 50.580 1.727 18.354 o
-5 -3 -12 47.213 47.272 1.171 24.175 o
-5 -3 -11 62.313 64.022 1.324 15.586 o
-5 -3 -10 400.348 412.450 2.843 0.581 o
-5 -3 -9 175.338 171.392 1.682 2.829 o
-5 -3 -8 64.860 62.346 1.006 16.027 o
-5 -3 -7 63.916 61.490 1.098 16.148 o
-5 -3 -6 20.493 18.909 0.653 86.617 o
-5 -3 -5 11.086 10.167 0.395 202.576 o
-5 -3 -4 24.655 26.096 0.513 68.994 o
-5 -3 -3 308.506 306.269 1.571 0.992 o
-5 -3 -2 421.815 422.328 1.791 0.543 o
-5 -3 -1 44.166 43.341 0.612 30.486 o
-5 -2 -17 113.549 110.310 5.239 3.538 o
-5 -2 -16 4.145 4.134 0.833 216.592 o
-5 -2 -15 15.605 18.723 1.350 62.522 o
-5 -2 -14 27.941 28.959 1.460 38.769 o
-5 -2 -13 0.016 0.438 0.491 848.827 o
-5 -2 -12 50.223 48.080 1.310 21.854 o
-5 -2 -11 3.618 3.663 0.514 415.014 o
-5 -2 -10 0.907 0.710 0.338 1272.580 o
-5 -2 -9 114.351 115.288 1.233 6.023 o
-5 -2 -8 259.384 251.844 2.085 1.376 o
-5 -2 -7 81.948 82.376 0.882 10.897 o
-5 -2 -6 24.683 24.880 0.439 72.115 o
-5 -2 -5 81.821 77.628 0.724 11.428 o
-5 -2 -4 753.785 769.568 2.783 0.173 o
-5 -2 -3 205.000 193.715 1.324 2.202 o
-5 -2 -2 23.446 21.362 0.463 80.075 o
-5 -2 -1 51.650 55.003 0.666 22.782 o
-5 -1 -16 16.630 15.761 1.569 53.139 o
-5 -1 -15 15.326 14.277 0.884 98.887 o
-5 -1 -14 0.810 1.467 0.630 459.792 o
-5 -1 -13 29.664 29.986 1.146 43.093 o
-5 -1 -12 148.383 150.778 1.861 3.671 o
-5 -1 -11 93.936 90.784 1.421 8.416 o
-5 -1 -10 40.294 41.370 0.855 32.334 o
-5 -1 -9 3.699 4.008 0.410 495.595 o
-5 -1 -8 6.314 5.915 0.412 340.558 o
-5 -1 -7 50.753 48.053 0.720 24.666 o
-5 -1 -6 32.822 32.703 0.514 47.768 o
-5 -1 -5 12.984 11.507 0.339 178.108 o
-5 -1 -4 5.840 4.470 0.308 441.325 o
-5 -1 -3 1.946 1.792 0.294 1015.570 o
-5 -1 -2 74.053 70.162 0.798 13.409 o
-5 -1 -1 14.704 11.840 0.365 156.838 o
-4 -15 -3 66.028 64.913 4.219 6.950 o
-4 -15 -2 11.134 10.568 2.642 26.929 o
-4 -15 -1 73.894 77.661 3.094 8.283 o
-4 -14 -7 17.992 19.531 1.856 40.342 o
-4 -14 -6 86.516 80.893 2.746 7.788 o
-4 -14 -5 44.310 47.851 1.526 22.815 o
-4 -14 -4 107.766 107.291 2.215 6.064 o
-4 -14 -3 3.364 3.376 0.900 204.530 o
-4 -14 -2 49.974 53.050 1.489 20.012 o
-4 -14 -1 12.886 11.410 1.014 101.384 o
-4 -13 -9 2.355 1.081 0.922 218.013 o
-4 -13 -8 2.356 3.474 0.803 257.180 o
-4 -13 -7 0.443 0.040 0.680 441.786 o
-4 -13 -6 37.179 39.747 1.411 29.303 o
-4 -13 -5 42.915 45.594 1.684 22.581 o
-4 -13 -4 23.346 22.686 1.119 56.688 o
-4 -13 -3 12.956 13.162 0.847 114.506 o
-4 -13 -2 31.727 31.952 1.295 37.454 o
-4 -13 -1 77.716 73.874 1.565 11.182 o
-4 -12 -11 25.180 23.355 2.057 30.549 o
-4 -12 -10 40.852 41.653 1.654 24.472 o
-4 -12 -9 14.428 14.241 1.130 82.662 o
-4 -12 -8 100.047 101.166 2.305 6.647 o
-4 -12 -7 71.814 75.925 1.695 11.651 o
-4 -12 -6 122.145 125.103 2.040 4.995 o
-4 -12 -5 5.439 5.441 0.767 216.951 o
-4 -12 -4 11.421 10.451 0.753 142.253 o
-4 -12 -3 16.201 16.366 0.973 85.862 o
-4 -12 -2 84.825 85.422 2.158 8.653 o
-4 -12 -1 5.406 3.826 0.671 267.014 o
-4 -11 -13 17.869 22.273 3.523 14.810 o
-4 -11 -12 48.785 44.394 1.945 18.934 o
-4 -11 -11 8.775 10.149 1.165 101.507 o
-4 -11 -10 20.958 19.946 1.119 63.004 o
-4 -11 -9 0.214 -0.059 0.663 474.274 o
-4 -11 -8 125.287 131.041 2.126 4.699 o
-4 -11 -7 35.752 39.016 1.259 32.235 o
-4 -11 -6 54.638 57.081 1.479 17.970 o
-4 -11 -5 4.204 2.408 0.714 280.938 o
-4 -11 -4 108.295 107.990 1.790 6.317 o
-4 -11 -3 15.939 14.829 0.886 95.465 o
-4 -11 -2 14.428 13.878 0.770 113.427 o
-4 -11 -1 86.757 86.436 1.595 9.193 o
-4 -10 -14 51.726 54.170 2.846 12.558 o
-4 -10 -13 2.609 1.199 0.804 270.254 o
-4 -10 -12 119.922 125.015 2.764 4.704 o
-4 -10 -11 1.064 1.034 0.726 357.644 o
-4 -10 -10 26.325 28.611 1.209 46.145 o
-4 -10 -9 13.085 11.167 0.986 103.936 o
-4 -10 -8 79.848 84.680 1.511 10.237 o
-4 -10 -7 46.493 47.022 1.121 24.899 o
-4 -10 -6 116.530 117.271 1.650 5.650 o
-4 -10 -5 34.285 32.842 1.171 36.919 o
-4 -10 -4 68.333 63.906 1.543 13.660 o
-4 -10 -3 43.449 41.306 1.090 28.297 o
-4 -10 -2 135.030 130.172 1.750 4.479 o
-4 -10 -1 6.468 6.264 0.552 273.452 o
-4 -9 -14 21.756 22.792 1.372 50.310 o
-4 -9 -13 2.287 2.761 0.854 238.779 o
-4 -9 -12 143.826 141.637 2.944 3.596 o
-4 -9 -11 31.329 33.905 1.431 34.732 o
-4 -9 -10 94.426 95.213 1.918 7.669 o
-4 -9 -9 5.823 5.981 0.649 250.272 o
-4 -9 -8 161.035 160.739 1.821 3.226 o
-4 -9 -7 49.775 49.968 0.996 23.387 o
-4 -9 -6 9.106 7.630 0.628 198.743 o
-4 -9 -5 6.130 4.708 0.725 227.382 o
-4 -9 -4 94.346 95.133 1.498 8.100 o
-4 -9 -3 8.106 8.415 0.479 245.282 o
-4 -9 -2 4.939 4.898 0.435 394.732 o
-4 -9 -1 4.217 5.254 0.481 385.368 o
-4 -8 -15 10.861 11.673 1.229 87.098 o
-4 -8 -14 5.739 5.238 1.027 145.893 o
-4 -8 -13 12.802 13.075 0.960 103.947 o
-4 -8 -12 138.417 142.956 2.156 4.005 o
-4 -8 -11 25.657 23.215 1.066 54.422 o
-4 -8 -10 57.956 60.457 1.308 17.233 o
-4 -8 -9 14.868 12.862 0.774 113.373 o
-4 -8 -8 5.946 3.571 0.437 380.143 o
-4 -8 -7 103.084 100.576 1.308 7.270 o
-4 -8 -6 30.976 32.049 0.922 44.672 o
-4 -8 -5 54.355 53.953 0.822 21.325 o
-4 -8 -4 12.932 13.493 0.584 142.583 o
-4 -8 -3 15.239 13.900 0.500 133.138 o
-4 -8 -2 61.311 64.885 1.305 15.782 o
-4 -8 -1 18.428 16.350 0.606 101.818 o
-4 -7 -16 6.199 4.796 1.182 117.187 o
-4 -7 -15 43.852 47.174 1.628 22.360 o
-4 -7 -14 16.558 17.205 1.043 79.261 o
-4 -7 -13 36.760 32.163 1.183 35.004 o
-4 -7 -12 55.781 55.790 1.659 17.020 o
-4 -7 -11 128.813 133.340 1.842 4.627 o
-4 -7 -10 43.809 43.575 1.052 27.731 o
-4 -7 -9 72.767 71.763 1.150 12.943 o
-4 -7 -8 124.576 122.376 1.241 5.270 o
-4 -7 -7 316.673 307.274 1.881 0.953 o
-4 -7 -6 40.023 35.751 0.633 36.735 o
-4 -7 -5 208.253 208.215 1.880 2.033 o
-4 -7 -4 110.384 109.475 1.017 6.555 o
-4 -7 -3 280.503 275.754 1.585 1.194 o
-4 -7 -2 117.634 107.128 1.075 6.135 o
-4 -7 -1 322.404 304.158 2.077 0.934 o
-4 -6 -17 34.628 30.302 2.221 23.107 o
-4 -6 -16 52.053 51.247 2.004 16.825 o
-4 -6 -15 0.824 0.851 0.669 424.722 o
-4 -6 -14 3.547 3.063 0.803 243.281 o
-4 -6 -13 2.128 3.746 0.686 328.363 o
-4 -6 -12 122.076 123.970 2.258 4.914 o
-4 -6 -11 97.739 94.367 1.696 7.652 o
-4 -6 -10 156.848 161.530 1.712 3.336 o
-4 -6 -9 179.572 175.474 1.641 2.716 o
-4 -6 -8 16.954 16.111 0.707 102.145 o
-4 -6 -7 55.933 55.854 0.757 20.546 o
-4 -6 -6 161.333 151.494 1.106 3.442 o
-4 -6 -5 25.594 23.874 0.481 70.141 o
-4 -6 -4 14.404 15.316 0.385 143.229 o
-4 -6 -3 24.133 22.167 0.451 77.131 o
-4 -6 -2 304.822 294.448 1.781 1.029 o
-4 -6 -1 36.290 38.599 0.788 37.450 o
-4 -5 -17 25.909 29.753 2.202 26.533 o
-4 -5 -16 12.377 11.834 1.175 87.614 o
-4 -5 -15 0.043 -0.759 0.585 618.313 o
-4 -5 -14 20.498 18.154 1.210 61.474 o
-4 -5 -13 19.804 17.169 0.886 79.673 o
-4 -5 -12 22.960 23.528 0.895 64.370 o
-4 -5 -11 93.252 90.482 1.369 8.548 o
-4 -5 -10 7.332 6.110 0.439 298.475 o
-4 -5 -9 99.505 97.138 1.342 7.682 o
-4 -5 -8 45.700 41.033 0.772 29.302 o
-4 -5 -7 18.840 19.050 0.507 99.484 o
-4 -5 -6 2.816 0.976 0.190 1179.530 o
-4 -5 -5 2.043 3.071 0.244 981.795 o
-4 -5 -4 188.061 189.364 1.208 2.491 o
-4 -5 -3 22.662 18.750 0.793 74.340 o
-4 -5 -2 119.046 114.788 1.116 5.807 o
-4 -5 -1 174.287 165.997 1.374 2.941 o
-4 -4 -17 21.395 21.470 1.591 44.548 o
-4 -4 -16 4.371 4.445 0.867 200.609 o
-4 -4 -15 11.002 11.853 1.041 104.641 o
-4 -4 -14 29.285 29.307 1.263 41.461 o
-4 -4 -13 47.139 47.830 1.208 23.840 o
-4 -4 -12 29.806 32.305 1.003 44.434 o
-4 -4 -11 15.217 16.601 0.757 104.781 o
-4 -4 -10 8.456 7.034 0.495 246.929 o
-4 -4 -9 33.001 35.650 0.895 40.852 o
-4 -4 -8 119.195 111.005 1.248 5.857 o
-4 -4 -7 18.084 19.143 0.422 106.673 o
-4 -4 -6 42.047 39.681 0.453 34.367 o
-4 -4 -5 490.714 496.790 3.173 0.397 o
-4 -4 -4 229.835 219.905 1.318 1.770 o
-4 -4 -3 103.478 103.444 0.686 7.436 o
-4 -4 -2 98.612 93.718 0.925 8.199 o
-4 -4 -1 0.259 -0.096 0.283 2349.490 o
-4 -3 -18 16.497 16.556 5.487 6.709 o
-4 -3 -17 15.501 16.452 1.272 68.743 o
-4 -3 -16 12.951 12.831 1.063 94.267 o
-4 -3 -15 61.353 59.784 1.560 15.539 o
-4 -3 -14 47.322 50.546 1.256 22.860 o
-4 -3 -13 29.930 31.835 1.019 44.263 o
-4 -3 -12 24.655 26.931 0.751 62.018 o
-4 -3 -11 92.706 92.192 1.235 8.638 o
-4 -3 -10 68.296 71.718 0.998 14.125 o
-4 -3 -9 55.846 54.422 0.767 20.824 o
-4 -3 -8 0.542 0.594 0.182 3141.060 o
-4 -3 -7 7.566 8.614 0.319 298.774 o
-4 -3 -6 61.609 58.749 0.653 18.300 o
-4 -3 -5 327.509 332.227 1.543 0.874 o
-4 -3 -4 42.484 41.690 0.461 33.133 o
-4 -3 -3 69.713 67.766 0.837 14.535 o
-4 -3 -2 18.642 18.937 0.532 99.354 o
-4 -3 -1 334.398 341.949 1.633 0.835 o
-4 -2 -18 117.767 121.101 3.942 4.121 o
-4 -2 -17 50.521 51.957 1.880 17.804 o
-4 -2 -16 9.650 9.373 0.844 143.583 o
-4 -2 -15 39.000 39.897 1.223 30.212 o
-4 -2 -14 170.849 171.462 2.021 2.868 o
-4 -2 -13 92.123 90.292 1.465 8.577 o
-4 -2 -12 138.454 136.408 1.642 4.271 o
-4 -2 -11 28.648 27.084 0.754 54.607 o
-4 -2 -10 216.985 213.053 1.534 1.928 o
-4 -2 -9 47.575 47.233 0.688 26.726 o
-4 -2 -8 65.693 62.242 0.608 16.623 o
-4 -2 -7 138.780 139.064 0.885 4.379 o
-4 -2 -6 97.345 96.439 0.741 8.288 o
-4 -2 -5 313.930 285.533 1.289 1.017 o
-4 -2 -4 541.576 510.589 3.582 0.343 o
-4 -2 -3 319.016 321.068 1.351 0.926 o
-4 -2 -2 20.761 23.223 0.469 85.600 o
-4 -2 -1 450.422 454.566 1.969 0.475 o
-4 -1 -18 14.918 12.256 1.513 59.952 o
-4 -1 -17 93.136 98.449 1.822 7.743 o
-4 -1 -16 40.404 40.490 1.299 28.411 o
-4 -1 -15 3.214 2.784 0.619 360.615 o
-4 -1 -14 52.169 53.486 1.198 20.680 o
-4 -1 -13 47.495 47.465 1.298 23.179 o
-4 -1 -12 73.119 74.108 1.250 12.484 o
-4 -1 -11 5.031 4.360 0.384 436.519 o
-4 -1 -10 34.088 35.344 0.667 42.754 o
-4 -1 -9 135.432 133.476 1.135 4.570 o
-4 -1 -8 102.305 98.499 0.836 7.687 o
-4 -1 -7 96.595 99.934 0.808 8.158 o
-4 -1 -6 405.136 391.754 1.717 0.600 o
-4 -1 -5 246.960 242.988 1.414 1.519 o
-4 -1 -4 78.161 79.738 0.683 11.893 o
-4 -1 -3 142.075 134.626 1.374 4.243 o
-4 -1 -2 21.458 21.379 0.564 83.074 o
-4 -1 -1 770.864 805.043 3.319 0.163 o
-3 -16 -2 31.511 28.836 3.673 12.307 o
-3 -16 -1 12.627 15.419 2.541 27.748 o
-3 -15 -7 9.465 10.086 2.710 26.162 o
-3 -15 -6 14.316 17.327 3.274 17.515 o
-3 -15 -5 7.066 8.384 1.250 99.527 o
-3 -15 -4 10.528 10.320 1.126 99.868 o
-3 -15 -3 17.607 19.236 1.194 66.365 o
-3 -15 -2 1.151 0.085 0.703 390.613 o
-3 -15 -1 23.729 22.554 1.383 47.844 o
-3 -14 -9 29.525 27.942 2.829 18.510 o
-3 -14 -8 1.725 2.452 1.038 176.415 o
-3 -14 -7 19.900 20.271 1.362 54.631 o
-3 -14 -6 34.452 37.984 1.932 25.042 o
-3 -14 -5 26.180 24.776 1.511 40.906 o
-3 -14 -4 8.834 8.707 0.885 144.021 o
-3 -14 -3 33.434 32.983 1.305 35.503 o
-3 -14 -2 89.176 91.115 1.634 8.648 o
-3 -14 -1 4.123 4.149 0.618 318.070 o
-3 -13 -11 9.479 11.261 2.943 22.411 o
-3 -13 -10 16.040 15.725 1.078 80.235 o
-3 -13 -9 95.136 96.169 2.263 7.202 o
-3 -13 -8 51.797 55.562 1.836 17.231 o
-3 -13 -7 10.796 9.774 1.325 81.257 o
-3 -13 -6 21.385 20.155 1.215 58.221 o
-3 -13 -5 82.927 85.820 2.049 8.988 o
-3 -13 -4 28.030 28.057 1.397 40.407 o
-3 -13 -3 1.951 1.513 0.685 362.983 o
-3 -13 -2 60.067 63.581 1.403 15.935 o
-3 -13 -1 86.130 83.436 1.508 9.546 o
-3 -12 -12 43.356 41.488 2.464 17.151 o
-3 -12 -11 28.724 32.008 1.377 38.478 o
-3 -12 -10 3.010 2.391 0.692 319.522 o
-3 -12 -9 18.218 19.244 1.258 62.269 o
-3 -12 -8 0.408 1.091 0.797 314.992 o
-3 -12 -7 65.971 71.876 1.628 13.127 o
-3 -12 -6 5.160 3.006 0.723 255.052 o
-3 -12 -5 92.389 97.325 1.734 7.946 o
-3 -12 -4 109.660 113.625 1.781 6.068 o
-3 -12 -3 31.562 31.716 1.036 42.228 o
-3 -12 -2 62.730 65.147 1.208 15.683 o
-3 -12 -1 11.768 12.154 0.822 125.843 o
-3 -11 -14 70.309 68.958 3.206 8.684 o
-3 -11 -13 40.786 41.934 1.599 24.955 o
-3 -11 -12 10.364 8.712 0.847 140.608 o
-3 -11 -11 19.074 19.203 0.955 75.365 o
-3 -11 -10 12.862 13.311 0.722 128.208 o
-3 -11 -9 271.251 279.413 2.572 1.206 o
-3 -11 -8 52.631 53.147 1.212 20.508 o
-3 -11 -7 38.491 38.160 1.322 29.993 o
-3 -11 -6 53.756 54.375 1.366 19.177 o
-3 -11 -5 35.299 38.075 1.087 35.067 o
-3 -11 -4 10.469 10.001 0.621 172.761 o
-3 -11 -3 10.121 9.476 0.620 178.969 o
-3 -11 -2 40.172 44.084 0.998 30.251 o
-3 -11 -1 395.361 399.163 3.050 0.600 o
-3 -10 -15 22.444 19.515 1.855 37.370 o
-3 -10 -14 7.180 6.685 0.909 156.920 o
-3 -10 -13 14.540 13.698 0.970 95.562 o
-3 -10 -12 7.799 7.179 0.682 203.493 o
-3 -10 -11 28.785 28.637 1.020 47.521 o
-3 -10 -10 2.460 2.079 0.502 524.347 o
-3 -10 -9 40.534 39.153 0.955 32.090 o
-3 -10 -8 41.690 39.914 1.006 30.561 o
-3 -10 -7 11.384 10.869 0.690 150.168 o
-3 -10 -6 38.117 39.848 1.073 32.410 o
-3 -10 -5 60.777 57.959 0.892 18.115 o
-3 -10 -4 6.538 5.171 0.484 312.441 o
-3 -10 -3 7.594 4.285 0.606 250.575 o
-3 -10 -2 92.943 93.955 1.560 8.224 o
-3 -10 -1 122.550 122.469 2.026 5.042 o
-3 -9 -16 4.944 4.599 1.995 49.185 o
-3 -9 -15 22.564 22.127 1.348 50.519 o
-3 -9 -14 20.100 17.514 1.114 67.128 o
-3 -9 -13 100.783 102.183 1.841 6.982 o
-3 -9 -12 104.971 104.378 1.877 6.587 o
-3 -9 -11 16.276 13.751 0.789 103.844 o
-3 -9 -10 17.723 17.316 0.747 94.109 o
-3 -9 -9 18.526 19.635 0.733 87.986 o
-3 -9 -8 14.143 16.072 0.653 119.925 o
-3 -9 -7 31.753 35.108 0.814 43.685 o
-3 -9 -6 86.479 82.877 1.070 10.047 o
-3 -9 -5 35.287 37.739 0.674 40.042 o
-3 -9 -4 275.612 252.751 1.787 1.282 o
-3 -9 -3 32.731 31.447 0.714 46.178 o
-3 -9 -2 29.805 26.509 0.548 57.029 o
-3 -9 -1 18.752 18.151 0.464 103.916 o
-3 -8 -16 1.774 1.848 0.867 244.821 o
-3 -8 -15 56.088 60.236 1.900 15.357 o
-3 -8 -14 53.788 54.281 1.442 18.819 o
-3 -8 -13 44.489 48.647 1.323 24.068 o
-3 -8 -12 71.240 73.718 1.445 12.461 o
-3 -8 -11 47.276 51.065 1.087 23.780 o
-3 -8 -10 28.793 26.842 0.819 53.169 o
-3 -8 -9 28.865 29.327 0.729 52.948 o
-3 -8 -8 64.737 64.456 0.902 16.025 o
-3 -8 -7 5.897 5.521 0.352 391.529 o
-3 -8 -6 154.777 152.273 1.395 3.566 o
-3 -8 -5 65.905 67.787 0.880 15.353 o
-3 -8 -4 231.486 213.208 1.191 1.791 o
-3 -8 -3 29.235 27.302 0.520 57.821 o
-3 -8 -2 185.387 179.508 1.131 2.624 o
-3 -8 -1 215.841 220.442 1.176 1.917 o
-3 -7 -17 18.034 15.082 2.134 34.369 o
-3 -7 -16 7.799 9.051 1.111 113.575 o
-3 -7 -15 35.735 37.938 1.319 31.865 o
-3 -7 -14 5.652 6.122 0.800 200.102 o
-3 -7 -13 27.959 27.817 1.179 45.452 o
-3 -7 -12 26.718 27.601 0.906 53.780 o
-3 -7 -11 18.387 15.715 0.747 94.619 o
-3 -7 -10 73.405 74.095 1.060 12.763 o
-3 -7 -9 101.273 95.269 0.938 7.871 o
-3 -7 -8 20.636 18.735 0.549 91.038 o
-3 -7 -7 15.991 14.445 0.368 135.807 o
-3 -7 -6 43.657 39.337 0.513 32.879 o
-3 -7 -5 39.185 31.348 0.469 41.096 o
-3 -7 -4 15.744 12.235 0.326 149.018 o
-3 -7 -3 75.651 76.325 0.765 12.550 o
-3 -7 -2 162.758 155.969 1.157 3.342 o
-3 -7 -1 263.525 252.299 1.648 1.362 o
-3 -6 -17 1.815 1.708 0.851 253.217 o
-3 -6 -16 66.713 69.103 1.922 12.437 o
-3 -6 -15 90.246 92.369 1.651 8.461 o
-3 -6 -14 91.122 89.185 1.392 8.810 o
-3 -6 -13 65.267 67.563 1.329 14.489 o
-3 -6 -12 52.214 53.309 1.050 21.391 o
-3 -6 -11 24.965 27.498 0.834 58.661 o
-3 -6 -10 192.687 187.944 1.622 2.397 o
-3 -6 -9 87.030 85.745 0.952 9.904 o
-3 -6 -8 38.546 37.913 0.532 37.883 o
-3 -6 -7 111.996 107.453 0.814 6.588 o
-3 -6 -6 329.133 327.753 1.283 0.879 o
-3 -6 -5 212.412 212.042 1.445 1.989 o
-3 -6 -4 268.086 252.665 1.165 1.343 o
-3 -6 -3 195.216 191.612 1.663 2.329 o
-3 -6 -2 582.295 591.414 2.627 0.287 o
-3 -6 -1 204.733 212.137 1.736 2.061 o
-3 -5 -18 16.505 18.795 2.233 31.989 o
-3 -5 -17 11.357 11.611 0.971 111.485 o
-3 -5 -16 25.495 24.651 1.291 47.273 o
-3 -5 -15 32.526 35.647 1.192 36.894 o
-3 -5 -14 5.726 4.989 0.567 296.636 o
-3 -5 -13 57.157 58.370 1.055 18.698 o
-3 -5 -12 105.552 101.494 1.395 6.989 o
-3 -5 -11 28.087 25.369 0.692 58.420 o
-3 -5 -10 2.706 2.440 0.361 700.105 o
-3 -5 -9 129.886 122.905 1.094 5.047 o
-3 -5 -8 170.105 172.384 1.165 2.983 o
-3 -5 -7 14.547 8.429 0.366 175.101 o
-3 -5 -6 9.788 11.275 0.260 233.759 o
-3 -5 -5 298.688 278.835 1.417 1.098 o
-3 -5 -4 132.939 141.502 0.897 4.557 o
-3 -5 -3 56.511 48.101 0.506 22.606 o
-3 -5 -2 56.819 60.950 0.644 19.576 o
-3 -5 -1 5.824 6.707 0.261 411.096 o
-3 -4 -18 4.439 4.906 1.088 141.157 o
-3 -4 -17 60.022 62.853 2.405 12.452 o
-3 -4 -16 17.217 17.053 1.057 76.925 o
-3 -4 -15 95.366 102.160 1.943 7.294 o
-3 -4 -14 19.830 20.334 0.794 79.819 o
-3 -4 -13 62.218 63.903 0.983 16.582 o
-3 -4 -12 29.957 30.733 0.671 51.221 o
-3 -4 -11 70.912 71.147 0.966 13.692 o
-3 -4 -10 108.682 109.083 1.146 6.629 o
-3 -4 -9 27.218 27.355 0.486 62.322 o
-3 -4 -8 182.454 182.529 1.091 2.652 o
-3 -4 -7 466.951 451.796 1.445 0.457 o
-3 -4 -6 26.892 25.068 0.315 68.412 o
-3 -4 -5 48.284 40.717 0.473 29.210 o
-3 -4 -4 361.966 360.713 1.170 0.734 o
-3 -4 -3 40.656 43.328 0.494 33.791 o
-3 -4 -2 93.024 98.702 0.678 8.642 o
-3 -4 -1 735.233 754.700 2.813 0.181 o
-3 -3 -18 59.697 65.179 2.410 12.310 o
-3 -3 -17 32.805 34.519 1.655 30.186 o
-3 -3 -16 25.362 25.179 1.097 52.517 o
-3 -3 -15 175.217 181.315 2.094 2.684 o
-3 -3 -14 11.712 11.016 0.634 155.224 o
-3 -3 -13 29.872 27.449 0.764 52.169 o
-3 -3 -12 11.037 10.876 0.524 178.781 o
-3 -3 -11 205.761 204.106 1.585 2.108 o
-3 -3 -10 41.510 39.795 0.597 33.935 o
-3 -3 -9 35.768 36.955 0.443 41.983 o
-3 -3 -8 110.407 97.886 0.702 7.095 o
-3 -3 -7 545.561 562.418 1.681 0.324 o
-3 -3 -6 328.845 344.106 1.312 0.853 o
-3 -3 -5 120.223 136.779 1.004 5.199 o
-3 -3 -4 39.870 46.092 0.456 33.493 o
-3 -3 -3 551.171 574.196 1.904 0.315 o
-3 -3 -2 71.364 67.761 0.668 14.412 o
-3 -3 -1 415.597 395.438 1.742 0.577 o
-3 -2 -19 17.074 19.317 2.193 32.478 o
-3 -2 -18 23.097 21.176 1.170 56.482 o
-3 -2 -17 2.063 1.985 0.765 296.268 o
-3 -2 -16 39.234 39.073 1.588 26.456 o
-3 -2 -15 35.334 38.609 1.105 34.603 o
-3 -2 -14 7.517 6.850 0.553 247.510 o
-3 -2 -13 75.272 76.519 1.166 12.049 o
-3 -2 -12 60.753 62.195 0.838 17.611 o
-3 -2 -11 144.315 141.944 1.115 4.091 o
-3 -2 -10 41.986 44.002 0.732 31.076 o
-3 -2 -9 91.213 87.307 0.744 9.447 o
-3 -2 -8 131.275 134.732 0.753 4.791 o
-3 -2 -7 13.986 16.305 0.324 146.864 o
-3 -2 -6 98.777 97.508 0.751 8.093 o
-3 -2 -5 368.223 378.607 1.242 0.695 o
-3 -2 -4 491.782 501.053 1.564 0.400 o
-3 -2 -3 237.752 238.585 0.920 1.625 o
-3 -2 -2 407.854 449.440 1.830 0.543 o
-3 -2 -1 68.293 70.610 0.699 14.748 o
-3 -1 -19 0.673 0.362 1.434 101.550 o
-3 -1 -18 4.297 5.726 0.854 199.452 o
-3 -1 -17 14.098 13.849 1.100 86.247 o
-3 -1 -16 32.016 34.459 1.406 34.441 o
-3 -1 -15 274.297 282.824 3.276 1.154 o
-3 -1 -14 51.960 50.060 1.112 21.848 o
-3 -1 -13 11.859 12.375 0.564 158.043 o
-3 -1 -12 67.350 65.826 1.009 14.978 o
-3 -1 -11 120.411 118.580 1.153 5.613 o
-3 -1 -10 75.209 69.434 0.725 13.342 o
-3 -1 -9 11.719 10.087 0.360 199.690 o
-3 -1 -8 224.899 188.003 1.163 1.998 o
-3 -1 -7 1029.740 1066.860 2.248 0.093 o
-3 -1 -6 466.004 465.903 1.149 0.450 o
-3 -1 -5 312.372 316.933 1.062 0.962 o
-3 -1 -4 28.745 37.041 0.397 51.855 o
-3 -1 -3 15.638 13.623 0.266 147.803 o
-3 -1 -2 1235.020 1289.420 4.286 0.065 o
-3 -1 -1 92.412 87.258 0.744 9.308 o
-2 -16 -4 19.426 17.643 3.575 14.502 o
-2 -16 -3 16.140 14.270 1.740 47.626 o
-2 -16 -2 0.376 0.434 0.937 235.607 o
-2 -16 -1 87.578 92.990 2.199 8.003 o
-2 -15 -7 26.750 31.366 2.377 23.602 o
-2 -15 -6 126.841 136.684 2.588 4.327 o
-2 -15 -5 45.617 46.086 1.696 21.397 o
-2 -15 -4 32.078 32.463 1.734 30.012 o
-2 -15 -3 29.863 31.467 1.380 37.692 o
-2 -15 -2 44.505 49.643 1.814 20.324 o
-2 -15 -1 32.687 36.840 1.290 34.817 o
-2 -14 -10 7.280 7.252 1.856 53.188 o
-2 -14 -9 17.454 18.665 1.266 63.637 o
-2 -14 -8 41.829 45.106 1.890 21.387 o
-2 -14 -7 18.871 19.646 1.106 67.828 o
-2 -14 -6 7.618 9.018 0.895 148.903 o
-2 -14 -5 39.102 40.254 1.715 24.938 o
-2 -14 -4 21.407 17.429 1.134 63.836 o
-2 -14 -3 85.572 86.884 1.873 8.923 o
-2 -14 -2 62.938 68.229 1.583 14.194 o
-2 -14 -1 0.552 0.544 0.556 619.275 o
-2 -13 -12 78.936 81.730 3.302 7.389 o
-2 -13 -11 51.340 53.820 1.694 18.336 o
-2 -13 -10 127.049 137.833 2.971 4.122 o
-2 -13 -9 18.930 19.055 1.171 65.214 o
-2 -13 -8 62.951 65.485 1.488 14.768 o
-2 -13 -7 67.363 72.558 1.690 12.658 o
-2 -13 -6 12.980 12.222 1.029 98.209 o
-2 -13 -5 37.155 38.715 1.322 30.658 o
-2 -13 -4 34.624 37.767 1.327 32.577 o
-2 -13 -3 48.327 47.225 1.105 24.078 o
-2 -13 -2 19.707 20.115 1.026 69.384 o
-2 -13 -1 0.910 1.510 0.536 595.269 o
-2 -12 -13 17.207 19.603 1.467 54.377 o
-2 -12 -12 28.059 30.720 1.367 39.822 o
-2 -12 -11 7.641 6.948 0.770 183.947 o
-2 -12 -10 30.103 32.654 1.284 38.749 o
-2 -12 -9 41.987 41.630 1.126 28.764 o
-2 -12 -8 17.333 15.650 0.970 83.856 o
-2 -12 -7 28.937 29.822 1.132 44.260 o
-2 -12 -6 79.156 79.840 1.478 10.704 o
-2 -12 -5 8.795 7.397 0.701 186.551 o
-2 -12 -4 37.125 35.398 0.994 35.816 o
-2 -12 -3 12.685 11.247 0.672 141.818 o
-2 -12 -2 137.137 130.002 1.655 4.433 o
-2 -12 -1 76.958 76.140 1.413 11.397 o
-2 -11 -14 5.491 3.011 0.952 172.015 o
-2 -11 -13 7.745 6.062 0.812 176.936 o
-2 -11 -12 59.827 61.336 1.522 15.855 o
-2 -11 -11 23.662 23.585 0.998 59.494 o
-2 -11 -10 25.956 29.730 1.088 48.860 o
-2 -11 -9 28.975 29.897 1.137 44.065 o
-2 -11 -8 186.288 191.535 2.035 2.425 o
-2 -11 -7 5.336 5.591 0.507 328.357 o
-2 -11 -6 49.343 48.234 1.020 23.857 o
-2 -11 -5 76.171 76.763 1.446 11.413 o
-2 -11 -4 15.609 16.746 0.786 100.666 o
-2 -11 -3 58.333 57.002 0.901 19.039 o
-2 -11 -2 33.399 30.440 0.876 43.546 o
-2 -11 -1 69.225 70.797 1.344 13.314 o
-2 -10 -15 13.421 12.770 1.366 70.257 o
-2 -10 -14 10.123 9.342 0.836 141.849 o
-2 -10 -13 8.662 8.439 0.855 151.385 o
-2 -10 -12 64.197 70.332 2.012 12.485 o
-2 -10 -11 137.598 141.945 1.776 4.166 o
-2 -10 -10 22.792 23.194 0.970 62.368 o
-2 -10 -9 61.845 58.844 1.060 17.181 o
-2 -10 -8 3.061 3.137 0.491 474.324 o
-2 -10 -7 10.002 9.263 0.489 206.923 o
-2 -10 -6 195.005 194.408 1.788 2.301 o
-2 -10 -5 0.273 -0.185 0.294 2180.410 o
-2 -10 -4 27.395 25.140 0.683 60.142 o
-2 -10 -3 32.522 31.551 0.677 46.906 o
-2 -10 -2 206.631 192.985 1.563 2.170 o
-2 -10 -1 38.604 38.507 0.669 36.475 o
-2 -9 -16 35.027 38.008 2.337 20.636 o
-2 -9 -15 33.507 37.733 1.644 29.066 o
-2 -9 -14 8.841 9.035 0.919 137.187 o
-2 -9 -13 9.835 9.574 0.832 143.667 o
-2 -9 -12 15.524 14.641 0.974 90.473 o
-2 -9 -11 19.536 20.257 0.899 75.674 o
-2 -9 -10 2.246 1.946 0.460 603.689 o
-2 -9 -9 67.819 67.981 1.099 14.433 o
-2 -9 -8 38.785 40.183 0.783 34.606 o
-2 -9 -7 30.690 29.924 0.729 49.768 o
-2 -9 -6 108.615 98.209 1.080 7.063 o
-2 -9 -5 418.340 407.735 2.243 0.558 o
-2 -9 -4 47.578 44.266 0.759 27.228 o
-2 -9 -3 178.525 173.389 1.332 2.788 o
-2 -9 -2 75.406 74.000 0.874 12.676 o
-2 -9 -1 42.149 38.187 0.543 34.410 o
-2 -8 -17 11.795 11.819 1.401 71.664 o
-2 -8 -16 97.644 99.833 2.053 7.103 o
-2 -8 -15 11.021 12.120 0.987 110.034 o
-2 -8 -14 6.654 6.060 0.723 212.494 o
-2 -8 -13 26.749 25.220 1.052 51.748 o
-2 -8 -12 17.395 20.049 0.876 82.982 o
-2 -8 -11 73.979 76.086 1.122 12.380 o
-2 -8 -10 68.482 66.709 1.008 14.618 o
-2 -8 -9 87.146 82.409 1.105 9.956 o
-2 -8 -8 95.746 92.969 1.065 8.425 o
-2 -8 -7 200.677 193.994 1.434 2.252 o
-2 -8 -6 127.181 126.268 0.980 5.123 o
-2 -8 -5 95.387 90.695 0.898 8.691 o
-2 -8 -4 125.800 121.881 1.054 5.278 o
-2 -8 -3 107.659 100.962 0.962 7.087 o
-2 -8 -2 339.003 322.198 1.939 0.848 o
-2 -8 -1 369.772 358.651 2.017 0.710 o
-2 -7 -17 51.925 53.937 1.556 18.877 o
-2 -7 -16 31.514 32.715 1.251 38.063 o
-2 -7 -15 49.947 49.663 1.513 20.457 o
-2 -7 -14 1.589 2.033 0.707 347.488 o
-2 -7 -13 52.865 51.281 1.132 21.150 o
-2 -7 -12 30.660 34.429 0.909 43.870 o
-2 -7 -11 10.418 10.323 0.565 181.521 o
-2 -7 -10 4.706 4.518 0.420 422.278 o
-2 -7 -9 108.760 110.368 0.972 6.655 o
-2 -7 -8 168.081 148.629 1.098 3.308 o
-2 -7 -7 167.733 159.455 1.128 3.183 o
-2 -7 -6 33.641 28.527 0.436 50.463 o
-2 -7 -5 27.212 25.690 0.471 64.404 o
-2 -7 -4 347.930 312.678 1.802 0.837 o
-2 -7 -3 35.225 36.146 0.551 42.179 o
-2 -7 -2 124.273 126.333 0.952 5.270 o
-2 -7 -1 266.669 270.502 1.971 1.277 o
-2 -6 -18 82.858 88.364 3.335 6.879 o
-2 -6 -17 23.858 26.482 1.313 47.495 o
-2 -6 -16 62.538 65.884 1.501 14.777 o
-2 -6 -15 11.055 8.585 0.799 144.068 o
-2 -6 -14 61.908 62.394 1.230 16.174 o
-2 -6 -13 150.294 153.155 2.151 3.516 o
-2 -6 -12 4.361 4.076 0.467 412.435 o
-2 -6 -11 57.456 58.361 1.016 18.735 o
-2 -6 -10 50.684 46.689 0.660 25.295 o
-2 -6 -9 92.753 85.602 0.735 9.371 o
-2 -6 -8 32.790 27.386 0.406 53.038 o
-2 -6 -7 37.915 37.044 0.652 37.955 o
-2 -6 -6 351.748 349.574 1.466 0.774 o
-2 -6 -5 220.508 208.719 1.279 1.925 o
-2 -6 -4 21.759 20.366 0.404 89.177 o
-2 -6 -3 490.653 494.069 1.769 0.404 o
-2 -6 -2 230.086 218.061 1.369 1.774 o
-2 -6 -1 42.722 40.225 0.494 33.370 o
-2 -5 -19 7.213 5.096 1.731 61.070 o
-2 -5 -18 39.845 36.824 1.592 26.658 o
-2 -5 -17 2.781 1.160 0.744 303.276 o
-2 -5 -16 17.034 15.615 1.018 81.658 o
-2 -5 -15 76.425 76.882 1.295 11.622 o
-2 -5 -14 112.486 110.504 1.503 6.152 o
-2 -5 -13 19.904 19.505 0.654 87.566 o
-2 -5 -12 22.781 21.588 0.643 75.999 o
-2 -5 -11 147.837 139.910 1.486 3.936 o
-2 -5 -10 254.859 241.694 1.757 1.454 o
-2 -5 -9 28.238 28.157 0.413 60.562 o
-2 -5 -8 211.804 221.157 1.239 1.955 o
-2 -5 -7 366.831 362.529 2.312 0.709 o
-2 -5 -6 14.646 16.666 0.264 143.598 o
-2 -5 -5 277.580 251.397 1.029 1.290 o
-2 -5 -4 77.467 92.538 0.579 11.057 o
-2 -5 -3 212.466 226.321 1.119 1.924 o
-2 -5 -2 207.302 230.743 1.201 1.953 o
-2 -5 -1 306.263 338.064 1.573 0.939 o
-2 -4 -19 1.230 -0.143 1.189 144.976 o
-2 -4 -18 35.629 37.374 1.603 28.547 o
-2 -4 -17 37.807 38.773 1.589 27.222 o
-2 -4 -16 41.288 40.855 1.245 28.324 o
-2 -4 -15 158.455 157.536 1.958 3.299 o
-2 -4 -14 112.520 113.816 1.359 6.122 o
-2 -4 -13 1.996 1.965 0.367 805.992 o
-2 -4 -12 255.019 255.685 1.826 1.402 o
-2 -4 -11 12.792 10.520 0.393 179.829 o
-2 -4 -10 77.934 73.666 0.688 12.459 o
-2 -4 -9 1.196 0.304 0.143 2768.350 o
-2 -4 -8 179.207 167.882 0.925 2.863 o
-2 -4 -7 82.347 82.066 0.612 11.089 o
-2 -4 -6 194.698 196.666 0.871 2.351 o
-2 -4 -5 304.152 299.859 0.956 1.031 o
-2 -4 -4 706.706 764.206 1.988 0.189 o
-2 -4 -3 489.410 531.307 1.860 0.386 o
-2 -4 -2 13.302 13.191 0.229 174.424 o
-2 -4 -1 20.262 20.595 0.295 97.814 o
-2 -3 -19 26.892 25.597 1.553 39.010 o
-2 -3 -18 35.741 39.230 1.394 30.516 o
-2 -3 -17 11.796 11.229 0.816 129.052 o
-2 -3 -16 6.608 6.759 0.713 211.644 o
-2 -3 -15 46.485 46.905 1.019 25.589 o
-2 -3 -14 30.815 31.338 0.828 46.933 o
-2 -3 -13 191.010 191.592 1.606 2.396 o
-2 -3 -12 271.848 273.244 1.728 1.245 o
-2 -3 -11 124.382 119.812 1.109 5.385 o
-2 -3 -10 69.890 62.265 0.631 15.470 o
-2 -3 -9 71.335 72.142 0.630 13.981 o
-2 -3 -8 6.636 7.902 0.164 380.845 o
-2 -3 -7 477.518 473.387 1.365 0.431 o
-2 -3 -6 136.212 146.884 0.538 4.373 o
-2 -3 -5 232.369 250.515 0.780 1.623 o
-2 -3 -4 1269.050 1358.940 3.071 0.060 o
-2 -3 -3 272.084 297.733 0.958 1.191 o
-2 -3 -2 809.628 898.307 2.683 0.142 o
-2 -3 -1 714.954 795.238 3.259 0.181 o
-2 -2 -19 30.749 32.982 1.198 39.558 o
-2 -2 -18 203.503 214.365 2.618 1.989 o
-2 -2 -17 37.547 38.122 1.077 33.421 o
-2 -2 -16 18.391 17.229 1.033 75.279 o
-2 -2 -15 44.295 44.142 1.015 27.561 o
-2 -2 -14 31.792 30.697 0.927 44.419 o
-2 -2 -13 28.707 28.499 0.766 53.120 o
-2 -2 -12 32.472 31.887 0.766 45.464 o
-2 -2 -11 65.057 59.407 0.610 17.211 o
-2 -2 -10 250.389 241.558 1.088 1.507 o
-2 -2 -9 116.534 114.037 0.622 6.124 o
-2 -2 -8 162.419 176.177 0.836 3.140 o
-2 -2 -7 58.546 56.877 0.421 20.128 o
-2 -2 -6 27.552 29.490 0.283 62.209 o
-2 -2 -5 89.650 92.909 0.475 9.436 o
-2 -2 -4 690.420 774.763 1.965 0.193 o
-2 -2 -3 184.360 222.400 0.770 2.318 o
-2 -2 -2 1188.420 1319.330 4.354 0.067 o
-2 -2 -1 452.076 449.732 1.542 0.478 o
-2 -1 -19 30.018 30.120 1.489 36.102 o
-2 -1 -18 19.507 18.313 0.928 76.785 o
-2 -1 -17 123.743 126.562 1.764 5.015 o
-2 -1 -16 2.107 1.940 0.530 512.446 o
-2 -1 -15 37.698 41.755 1.112 31.624 o
-2 -1 -14 109.321 107.685 1.204 6.605 o
-2 -1 -13 24.269 25.791 0.649 66.833 o
-2 -1 -12 85.279 86.499 0.825 10.191 o
-2 -1 -11 14.446 14.992 0.448 139.183 o
-2 -1 -10 411.701 391.653 1.582 0.588 o
-2 -1 -9 101.536 91.603 0.612 8.171 o
-2 -1 -8 131.672 136.664 0.777 4.729 o
-2 -1 -7 268.949 252.061 0.819 1.345 o
-2 -1 -6 348.613 355.556 0.951 0.778 o
-2 -1 -5 361.841 396.358 0.882 0.691 o
-2 -1 -4 262.568 274.402 0.824 1.315 o
-2 -1 -3 585.695 624.719 1.530 0.276 o
-2 -1 -2 2181.980 2371.680 6.119 0.020 o
-2 -1 -1 1863.070 1904.860 8.777 0.029 o
-1 -16 -5 2.973 1.969 3.557 16.570 o
-1 -16 -4 2.570 2.588 0.875 226.961 o
-1 -16 -3 14.264 13.757 1.110 85.147 o
-1 -16 -2 7.147 6.308 0.903 159.928 o
-1 -16 -1 103.278 101.953 2.663 6.089 o
-1 -15 -9 85.739 78.485 5.352 4.440 o
-1 -15 -8 11.939 12.549 1.798 49.743 o
-1 -15 -7 23.019 22.748 1.408 47.772 o
-1 -15 -6 63.614 68.684 1.694 13.683 o
-1 -15 -5 29.320 31.432 1.790 30.950 o
-1 -15 -4 36.766 34.465 1.610 28.627 o
-1 -15 -3 5.750 5.970 0.845 186.732 o
-1 -15 -2 30.191 30.765 1.428 36.839 o
-1 -15 -1 54.279 51.558 1.830 17.136 o
-1 -14 -11 37.279 45.975 4.569 7.986 o
-1 -14 -10 35.984 35.886 1.656 28.100 o
-1 -14 -9 52.630 56.559 1.576 18.171 o
-1 -14 -8 60.898 60.657 2.143 13.424 o
-1 -14 -7 9.162 8.810 0.901 139.013 o
-1 -14 -6 39.622 39.350 1.324 28.937 o
-1 -14 -5 7.773 8.440 0.872 154.381 o
-1 -14 -4 15.253 12.319 1.064 87.947 o
-1 -14 -3 87.112 91.797 1.723 8.714 o
-1 -14 -2 5.847 5.838 0.704 230.753 o
-1 -14 -1 29.073 29.741 1.163 43.503 o
-1 -13 -13 50.677 58.215 3.929 8.695 o
-1 -13 -12 49.248 52.456 1.769 18.723 o
-1 -13 -11 7.612 7.725 1.005 133.314 o
-1 -13 -10 20.260 21.300 1.326 54.814 o
-1 -13 -9 52.575 55.901 1.359 19.344 o
-1 -13 -8 88.363 86.348 1.702 8.892 o
-1 -13 -7 14.268 13.864 0.826 108.975 o
-1 -13 -6 5.930 5.294 0.708 232.021 o
-1 -13 -5 110.427 111.990 2.161 5.822 o
-1 -13 -4 63.555 64.629 1.419 14.939 o
-1 -13 -3 22.920 20.642 0.914 66.740 o
-1 -13 -2 59.930 61.759 1.126 17.110 o
-1 -13 -1 98.924 99.393 1.624 7.413 o
-1 -12 -14 10.075 12.691 1.965 44.540 o
-1 -12 -13 84.554 90.959 2.267 8.261 o
-1 -12 -12 55.891 57.291 1.594 17.081 o
-1 -12 -11 23.499 21.487 1.153 56.208 o
-1 -12 -10 20.393 20.395 0.953 70.933 o
-1 -12 -9 32.185 35.345 1.306 35.543 o
-1 -12 -8 32.689 32.180 1.065 40.348 o
-1 -12 -7 48.573 51.061 1.260 22.212 o
-1 -12 -6 6.595 7.265 0.616 239.044 o
-1 -12 -5 6.220 5.535 0.554 285.562 o
-1 -12 -4 32.992 35.560 0.930 40.406 o
-1 -12 -3 11.476 8.699 0.486 192.297 o
-1 -12 -2 40.126 36.796 0.885 33.953 o
-1 -12 -1 5.126 4.176 0.476 375.415 o
-1 -11 -15 14.295 15.992 1.773 47.255 o
-1 -11 -14 65.031 71.262 1.925 12.526 o
-1 -11 -13 30.115 30.319 1.367 38.209 o
-1 -11 -12 2.368 2.233 0.694 335.309 o
-1 -11 -11 14.833 16.364 0.984 89.210 o
-1 -11 -10 111.907 112.599 1.587 6.078 o
-1 -11 -9 7.590 7.280 0.880 158.030 o
-1 -11 -8 28.358 28.351 0.916 50.568 o
-1 -11 -7 31.448 30.968 0.924 44.721 o
-1 -11 -6 58.843 62.139 1.402 16.431 o
-1 -11 -5 65.501 62.663 1.189 15.363 o
-1 -11 -4 89.368 85.990 1.265 9.307 o
-1 -11 -3 22.888 20.433 0.766 72.736 o
-1 -11 -2 65.186 60.661 0.925 16.356 o
-1 -11 -1 5.162 4.165 0.392 429.155 o
-1 -10 -16 31.573 39.096 4.719 7.954 o
-1 -10 -15 8.170 7.305 0.965 138.243 o
-1 -10 -14 36.770 37.251 1.484 29.393 o
-1 -10 -13 39.527 41.801 1.351 28.025 o
-1 -10 -12 22.986 25.831 1.017 58.082 o
-1 -10 -11 126.352 126.616 1.819 4.877 o
-1 -10 -10 65.165 65.598 1.308 14.782 o
-1 -10 -9 57.870 60.850 1.196 17.604 o
-1 -10 -8 8.792 8.158 0.540 220.438 o
-1 -10 -7 3.839 3.427 0.484 436.164 o
-1 -10 -6 97.716 97.251 1.170 7.960 o
-1 -10 -5 194.982 195.560 1.435 2.321 o
-1 -10 -4 98.966 92.325 1.117 8.109 o
-1 -10 -3 407.194 396.744 2.390 0.587 o
-1 -10 -2 213.340 207.458 1.745 1.987 o
-1 -10 -1 136.872 136.374 1.366 4.403 o
-1 -9 -17 2.849 3.298 1.605 76.565 o
-1 -9 -16 8.112 8.440 0.984 132.259 o
-1 -9 -15 9.671 9.193 0.889 136.852 o
-1 -9 -14 29.535 29.771 1.550 35.462 o
-1 -9 -13 21.237 20.919 0.941 68.988 o
-1 -9 -12 14.401 14.012 0.743 115.774 o
-1 -9 -11 9.096 9.756 0.696 172.979 o
-1 -9 -10 5.947 4.813 0.490 330.772 o
-1 -9 -9 210.638 201.309 1.946 2.040 o
-1 -9 -8 65.408 61.191 1.022 15.997 o
-1 -9 -7 18.113 18.044 0.527 103.924 o
-1 -9 -6 9.338 12.228 0.519 190.961 o
-1 -9 -5 182.806 164.660 1.371 2.786 o
-1 -9 -4 231.824 225.264 1.729 1.708 o
-1 -9 -3 369.323 358.073 1.913 0.713 o
-1 -9 -2 51.282 44.221 0.658 25.642 o
-1 -9 -1 261.346 247.539 2.307 1.369 o
-1 -8 -17 7.558 4.643 0.930 156.942 o
-1 -8 -16 57.617 55.626 1.754 16.159 o
-1 -8 -15 30.052 31.994 1.287 39.026 o
-1 -8 -14 10.345 10.655 0.777 145.278 o
-1 -8 -13 25.346 25.662 0.906 57.599 o
-1 -8 -12 54.006 52.846 1.291 19.699 o
-1 -8 -11 18.041 16.800 0.738 94.432 o
-1 -8 -10 118.905 119.242 1.282 5.630 o
-1 -8 -9 29.860 26.211 0.710 54.235 o
-1 -8 -8 32.904 35.465 0.749 43.040 o
-1 -8 -7 38.594 31.877 0.564 40.687 o
-1 -8 -6 18.167 17.504 0.484 107.217 o
-1 -8 -5 167.449 155.934 1.055 3.239 o
-1 -8 -4 6.388 6.950 0.354 346.555 o
-1 -8 -3 224.909 220.071 1.465 1.811 o
-1 -8 -2 150.766 160.403 1.593 3.529 o
-1 -8 -1 32.294 31.875 0.645 47.449 o
-1 -7 -18 31.807 32.442 3.289 14.303 o
-1 -7 -17 15.791 18.509 1.118 74.955 o
-1 -7 -16 89.853 88.970 2.374 7.747 o
-1 -7 -15 72.454 72.424 1.663 11.895 o
-1 -7 -14 21.253 19.402 1.023 67.021 o
-1 -7 -13 34.175 31.540 1.016 39.964 o
-1 -7 -12 10.609 10.345 0.579 176.968 o
-1 -7 -11 11.270 9.435 0.493 189.204 o
-1 -7 -10 14.504 14.705 0.691 118.269 o
-1 -7 -9 50.383 42.009 0.715 26.492 o
-1 -7 -8 70.382 69.563 0.847 14.169 o
-1 -7 -7 66.624 68.376 0.704 15.412 o
-1 -7 -6 26.568 27.726 0.428 64.322 o
-1 -7 -5 398.488 385.894 1.973 0.617 o
-1 -7 -4 630.115 611.992 3.103 0.253 o
-1 -7 -3 2.345 1.015 0.269 1086.260 o
-1 -7 -2 39.710 30.627 0.576 40.054 o
-1 -7 -1 139.289 127.791 1.153 4.526 o
-1 -6 -18 4.462 4.119 1.043 152.854 o
-1 -6 -17 38.397 40.406 1.333 29.257 o
-1 -6 -16 92.316 94.441 1.714 8.102 o
-1 -6 -15 25.901 25.352 1.085 51.954 o
-1 -6 -14 79.166 76.907 1.388 11.053 o
-1 -6 -13 96.532 91.717 1.290 8.237 o
-1 -6 -12 21.709 22.804 0.650 77.053 o
-1 -6 -11 16.206 13.551 0.565 122.871 o
-1 -6 -10 10.384 10.288 0.425 206.566 o
-1 -6 -9 125.067 120.975 1.031 5.344 o
-1 -6 -8 324.969 314.026 1.517 0.915 o
-1 -6 -7 74.831 67.819 0.597 13.733 o
-1 -6 -6 66.904 63.035 0.481 16.352 o
-1 -6 -5 48.411 54.044 0.432 25.301 o
-1 -6 -4 144.309 152.164 0.949 3.948 o
-1 -6 -3 14.489 15.970 0.388 139.849 o
-1 -6 -2 106.891 115.234 0.930 6.632 o
-1 -6 -1 402.124 399.508 2.141 0.595 o
-1 -5 -19 17.779 16.401 1.753 44.849 o
-1 -5 -18 15.991 17.072 1.206 70.947 o
-1 -5 -17 44.438 45.775 1.690 21.928 o
-1 -5 -16 53.969 57.098 1.341 18.784 o
-1 -5 -15 127.063 126.892 1.637 4.911 o
-1 -5 -14 24.764 25.448 0.822 61.261 o
-1 -5 -13 15.180 15.727 0.616 118.362 o
-1 -5 -12 84.335 87.909 1.362 9.677 o
-1 -5 -11 321.828 326.653 1.913 0.899 o
-1 -5 -10 19.298 17.730 0.507 100.328 o
-1 -5 -9 207.766 198.111 1.164 2.146 o
-1 -5 -8 249.583 242.804 1.170 1.507 o
-1 -5 -7 393.716 396.428 1.370 0.619 o
-1 -5 -6 39.948 38.200 0.452 36.912 o
-1 -5 -5 60.207 64.948 0.461 18.085 o
-1 -5 -4 140.370 140.787 0.735 4.309 o
-1 -5 -3 1275.370 1404.290 3.721 0.058 o
-1 -5 -2 477.825 527.054 2.086 0.399 o
-1 -5 -1 70.815 74.145 0.578 13.934 o
-1 -4 -19 26.872 28.063 1.514 38.879 o
-1 -4 -18 32.985 34.546 1.353 34.513 o
-1 -4 -17 175.273 174.646 2.795 2.627 o
-1 -4 -16 157.443 166.480 2.341 3.139 o
-1 -4 -15 27.662 26.897 0.913 52.718 o
-1 -4 -14 280.173 277.599 2.548 1.165 o
-1 -4 -13 120.725 114.678 1.256 5.665 o
-1 -4 -12 86.957 83.585 1.115 9.895 o
-1 -4 -11 9.355 7.818 0.369 254.887 o
-1 -4 -10 278.876 273.387 1.380 1.213 o
-1 -4 -9 412.968 405.202 1.777 0.572 o
-1 -4 -8 792.159 778.136 3.088 0.161 o
-1 -4 -7 296.581 294.870 1.073 1.075 o
-1 -4 -6 401.357 421.300 1.436 0.581 o
-1 -4 -5 71.921 83.727 0.549 12.770 o
-1 -4 -4 53.165 50.816 0.389 23.800 o
-1 -4 -3 164.977 167.396 0.740 3.189 o
-1 -4 -2 1140.160 1224.190 4.683 0.074 o
-1 -4 -1 446.990 468.083 1.511 0.472 o
-1 -3 -19 31.001 31.622 1.208 39.771 o
-1 -3 -18 19.636 21.218 1.178 61.726 o
-1 -3 -17 39.543 40.140 1.279 29.220 o
-1 -3 -16 3.377 3.995 0.676 303.057 o
-1 -3 -15 29.239 28.772 0.864 50.120 o
-1 -3 -14 15.421 13.418 0.620 123.173 o
-1 -3 -13 57.303 57.131 0.852 19.522 o
-1 -3 -12 140.608 131.856 1.117 4.404 o
-1 -3 -11 145.151 146.778 1.118 3.982 o
-1 -3 -10 164.300 161.998 0.811 3.265 o
-1 -3 -9 263.578 261.906 0.948 1.346 o
-1 -3 -8 65.985 64.358 0.577 16.296 o
-1 -3 -7 529.182 554.754 1.407 0.341 o
-1 -3 -6 446.045 469.239 1.709 0.472 o
-1 -3 -5 269.095 298.774 0.892 1.205 o
-1 -3 -4 197.996 212.444 0.709 2.199 o
-1 -3 -3 533.178 604.118 1.957 0.317 o
-1 -3 -2 246.304 280.233 0.825 1.402 o
-1 -3 -1 769.774 808.789 1.957 0.163 o
-1 -2 -20 22.101 23.080 2.122 30.836 o
-1 -2 -19 38.101 37.822 1.195 31.794 o
-1 -2 -18 26.390 25.533 1.086 51.119 o
-1 -2 -17 33.392 35.636 1.198 36.093 o
-1 -2 -16 13.042 13.601 0.789 119.097 o
-1 -2 -15 7.766 7.750 0.577 228.909 o
-1 -2 -14 30.583 31.797 0.875 46.112 o
-1 -2 -13 47.426 44.698 0.924 26.259 o
-1 -2 -12 0.453 0.492 0.270 2087.880 o
-1 -2 -11 188.416 189.356 1.424 2.469 o
-1 -2 -10 500.070 484.865 1.941 0.399 o
-1 -2 -9 69.394 78.089 0.621 13.771 o
-1 -2 -8 73.386 72.228 0.470 13.692 o
-1 -2 -7 262.027 259.407 0.902 1.365 o
-1 -2 -6 668.976 703.988 1.281 0.215 o
-1 -2 -5 87.443 92.684 0.452 9.731 o
-1 -2 -4 1261.080 1280.400 2.357 0.063 o
-1 -2 -3 327.626 369.195 0.973 0.820 o
-1 -2 -2 2821.980 2964.830 5.874 0.013 o
-1 -2 -1 2451.240 2495.760 8.999 0.017 o
-1 -1 -20 28.206 26.239 1.959 30.094 o
-1 -1 -19 14.099 12.877 0.974 98.199 o
-1 -1 -18 4.621 5.216 0.612 297.009 o
-1 -1 -17 11.348 10.771 0.725 145.720 o
-1 -1 -16 6.445 5.750 0.525 290.190 o
-1 -1 -15 56.472 54.268 1.115 19.382 o
-1 -1 -14 8.349 9.100 0.542 219.717 o
-1 -1 -13 59.694 58.400 0.852 18.499 o
-1 -1 -12 26.327 21.280 0.457 72.137 o
-1 -1 -11 173.760 171.474 1.257 2.908 o
-1 -1 -10 116.771 113.943 0.734 6.086 o
-1 -1 -9 75.043 78.836 0.530 12.659 o
-1 -1 -8 55.065 54.856 0.443 21.896 o
-1 -1 -7 134.154 123.931 0.574 4.929 o
-1 -1 -6 292.394 284.480 0.833 1.122 o
-1 -1 -5 1569.020 1750.260 3.955 0.038 o
-1 -1 -4 481.011 468.677 1.158 0.430 o
-1 -1 -3 6959.630 7309.780 12.392 0.002 o
-1 -1 -2 125.170 149.288 0.479 4.777 o
-1 -1 -1 696.929 775.481 3.324 0.190 o
0 0 2 65.711 49.123 0.306 19.085 o
0 0 4 1277.930 1515.230 4.444 0.055 o
0 0 6 184.811 217.359 1.395 2.314 o
0 0 8 3363.740 3531.590 11.017 0.009 o
0 0 10 168.636 154.295 1.772 3.134 o
0 0 12 0.396 0.070 0.266 2400.820 o
0 0 14 21.404 16.908 0.975 71.559 o
0 0 16 79.609 83.719 1.890 9.722 o
0 0 18 165.866 172.155 3.105 2.748 o
0 0 20 90.115 87.970 2.672 7.363 o
0 1 1 542.203 556.626 2.497 0.327 o
0 1 2 464.344 463.260 1.932 0.452 o
0 1 3 3.011 9.778 0.148 532.793 o
0 1 4 20.625 19.115 0.208 101.559 o
0 1 5 1598.610 1649.650 3.811 0.039 o
0 1 6 191.613 210.970 0.659 2.300 o
0 1 7 143.624 158.790 0.609 3.902 o
0 1 8 8.709 11.415 0.222 258.430 o
0 1 9 31.883 32.828 0.393 50.287 o
0 1 10 12.158 11.434 0.246 197.721 o
0 1 11 5.173 5.347 0.263 479.199 o
0 1 12 2.397 1.707 0.229 1096.860 o
0 1 13 62.803 61.035 0.891 17.047 o
0 1 14 19.452 21.637 0.656 85.392 o
0 1 15 0.343 0.203 0.410 1142.350 o
0 1 16 140.024 138.750 1.582 4.191 o
0 1 17 8.920 9.136 0.658 185.602 o
0 1 18 9.275 10.406 0.700 167.643 o
0 1 19 23.004 25.047 1.030 58.307 o
0 1 20 78.074 74.297 2.234 9.800 o
0 2 0 3467.680 3546.790 19.616 0.008 o
0 2 1 395.126 393.510 1.469 0.619 o
0 2 2 300.487 324.621 1.410 0.990 o
0 2 3 675.099 739.421 2.145 0.205 o
0 2 4 1058.310 1079.480 3.129 0.089 o
0 2 5 190.264 196.554 0.729 2.425 o
0 2 6 1.086 3.604 0.163 1405.240 o
0 2 7 171.357 170.081 0.826 3.010 o
0 2 8 220.553 226.375 0.909 1.844 o
0 2 9 11.691 11.511 0.262 202.008 o
0 2 10 98.474 97.809 0.737 8.114 o
0 2 11 123.895 124.820 0.808 5.361 o
0 2 12 132.335 120.548 1.095 4.988 o
0 2 13 108.333 105.056 1.210 6.763 o
0 2 14 151.491 146.503 1.411 3.738 o
0 2 15 42.881 41.576 0.972 29.522 o
0 2 16 13.227 13.230 0.767 121.434 o
0 2 17 5.446 4.537 0.644 271.967 o
0 2 18 10.497 11.316 0.757 145.146 o
0 2 19 9.646 10.652 0.915 128.991 o
0 2 20 60.884 62.112 3.497 9.000 o
0 3 1 922.633 894.148 3.503 0.120 o
0 3 2 528.464 492.256 1.331 0.369 o
0 3 3 1748.080 2034.970 5.059 0.030 o
0 3 4 911.983 939.005 2.566 0.119 o
0 3 5 1214.520 1239.670 3.416 0.068 o
0 3 6 39.953 43.257 0.411 34.830 o
0 3 7 3.750 4.780 0.200 657.587 o
0 3 8 142.393 140.323 0.793 4.237 o
0 3 9 0.088 0.246 0.153 6640.210 o
0 3 10 32.902 30.625 0.456 49.776 o
0 3 11 308.099 291.753 1.871 1.019 o
0 3 12 0.917 0.714 0.232 1983.660 o
0 3 13 303.343 307.873 1.789 1.007 o
0 3 14 15.719 15.241 0.571 120.288 o
0 3 15 24.880 27.075 0.743 61.648 o
0 3 16 80.863 83.000 1.520 10.200 o
0 3 17 0.646 -0.035 0.484 814.031 o
0 3 18 0.599 0.256 0.532 679.099 o
0 3 19 92.832 96.675 1.898 7.763 o
0 3 20 17.811 16.418 2.290 30.739 o
0 4 0 255.802 272.874 1.997 1.335 o
0 4 1 217.026 214.647 0.771 1.949 o
0 4 2 468.731 505.978 1.515 0.422 o
0 4 3 267.624 285.394 1.160 1.247 o
0 4 4 494.566 542.669 1.946 0.375 o
0 4 5 310.163 338.936 1.071 0.928 o
0 4 6 23.546 24.737 0.343 77.483 o
0 4 7 1.316 0.912 0.174 2023.280 o
0 4 8 160.895 151.187 1.219 3.443 o
0 4 9 96.430 95.350 0.742 8.433 o
0 4 10 122.444 117.864 0.854 5.611 o
0 4 11 93.791 94.351 0.911 8.659 o
0 4 12 273.436 264.138 1.703 1.263 o
0 4 13 32.654 30.522 0.641 47.926 o
0 4 14 49.797 45.938 0.895 24.862 o
0 4 15 0.767 -0.237 0.299 1754.690 o
0 4 16 2.778 3.281 0.524 451.071 o
0 4 17 3.559 1.071 0.640 359.259 o
0 4 18 18.272 17.309 0.924 81.674 o
0 4 19 22.758 23.124 1.251 52.803 o
0 5 1 530.028 566.407 1.459 0.335 o
0 5 2 380.904 394.630 1.157 0.649 o
0 5 3 124.965 140.068 0.838 4.937 o
0 5 4 62.960 62.184 0.590 17.457 o
0 5 5 943.079 1003.090 3.974 0.108 o
0 5 6 1121.320 1135.360 3.366 0.080 o
0 5 7 23.900 25.128 0.393 74.879 o
0 5 8 84.764 86.064 1.030 10.104 o
0 5 9 296.414 297.873 1.578 1.062 o
0 5 10 35.367 36.132 0.511 42.380 o
0 5 11 532.554 526.882 1.999 0.348 o
0 5 12 88.261 87.992 1.051 9.526 o
0 5 13 314.447 317.287 2.216 0.937 o
0 5 14 228.336 227.765 2.033 1.713 o
0 5 15 15.632 16.122 0.707 107.908 o
0 5 16 10.819 12.795 0.926 116.425 o
0 5 17 288.487 305.298 3.398 1.033 o
0 5 18 0.013 -0.151 0.685 451.735 o
0 5 19 116.354 123.217 3.441 4.451 o
0 6 0 4.624 6.115 0.341 441.466 o
0 6 1 680.692 754.328 1.790 0.201 o
0 6 2 52.637 52.731 0.541 23.228 o
0 6 3 161.122 176.149 1.137 3.142 o
0 6 4 60.824 68.632 0.635 17.056 o
0 6 5 0.966 0.172 0.171 2916.330 o
0 6 6 492.597 498.242 1.663 0.400 o
0 6 7 333.031 308.953 1.673 0.894 o
0 6 8 93.596 97.086 0.758 8.626 o
0 6 9 0.167 0.299 0.218 3514.720 o
0 6 10 107.911 105.057 1.106 6.846 o
0 6 11 14.530 14.205 0.700 118.662 o
0 6 12 105.813 102.286 1.348 6.969 o
0 6 13 15.377 17.724 0.731 103.672 o
0 6 14 61.866 62.651 1.159 16.361 o
0 6 15 12.405 11.653 0.760 131.270 o
0 6 16 2.011 3.020 0.705 326.055 o
0 6 17 4.428 3.572 0.787 234.522 o
0 6 18 46.043 46.486 1.932 19.512 o
0 7 1 297.951 312.283 1.365 1.027 o
0 7 2 2.847 2.971 0.274 792.750 o
0 7 3 48.453 52.988 0.609 25.007 o
0 7 4 69.555 72.861 0.887 13.927 o
0 7 5 87.647 97.937 0.761 9.231 o
0 7 6 239.028 220.958 1.370 1.678 o
0 7 7 265.650 248.614 1.661 1.360 o
0 7 8 236.313 221.385 1.453 1.697 o
0 7 9 13.191 13.466 0.586 140.581 o
0 7 10 255.507 251.190 1.813 1.414 o
0 7 11 3.402 3.552 0.430 507.262 o
0 7 12 3.857 3.738 0.417 487.825 o
0 7 13 181.096 185.650 2.059 2.551 o
0 7 14 75.626 78.548 1.524 11.221 o
0 7 15 28.637 27.535 1.186 44.685 o
0 7 16 45.212 44.269 1.442 23.826 o
0 7 17 1.228 1.387 0.772 313.765 o
0 7 18 29.683 33.978 2.953 16.884 o
0 8 0 354.475 323.095 3.392 0.777 o
0 8 1 63.397 56.838 0.861 17.562 o
0 8 2 620.481 599.796 2.726 0.262 o
0 8 3 320.852 336.031 1.450 0.892 o
0 8 4 138.772 128.203 1.071 4.556 o
0 8 5 423.828 394.591 2.013 0.561 o
0 8 6 334.274 302.610 1.571 0.902 o
0 8 7 22.947 19.082 0.695 77.068 o
0 8 8 91.579 88.090 1.069 9.120 o
0 8 9 0.231 -0.045 0.342 1680.370 o
0 8 10 12.435 10.902 0.556 160.474 o
0 8 11 45.583 46.033 0.967 26.633 o
0 8 12 3.829 3.405 0.497 425.931 o
0 8 13 3.354 3.209 0.622 348.073 o
0 8 14 23.966 23.326 1.038 57.869 o
0 8 15 35.179 39.154 1.343 31.525 o
0 8 16 16.439 15.792 1.016 83.171 o
0 8 17 0.242 -0.530 0.782 341.759 o
0 9 1 55.309 49.877 0.779 21.921 o
0 9 2 21.976 23.211 0.597 77.558 o
0 9 3 179.365 176.261 1.286 2.749 o
0 9 4 60.709 54.927 0.830 18.796 o
0 9 5 50.202 46.774 0.758 25.107 o
0 9 6 506.905 501.344 2.340 0.382 o
0 9 7 21.013 22.755 0.613 80.495 o
0 9 8 5.168 3.194 0.507 370.941 o
0 9 9 94.617 90.740 1.486 8.291 o
0 9 10 24.343 22.298 0.853 64.247 o
0 9 11 17.402 15.979 0.682 102.220 o
0 9 12 17.631 18.611 0.834 86.882 o
0 9 13 25.910 26.833 1.085 50.918 o
0 9 14 50.631 49.311 1.787 18.675 o
0 9 15 9.021 7.748 0.778 166.214 o
0 9 16 25.898 25.234 1.175 49.582 o
0 9 17 4.493 2.932 1.583 76.436 o
0 10 0 218.456 199.909 3.187 1.850 o
0 10 1 50.666 45.057 0.897 24.637 o
0 10 2 218.999 208.223 2.231 1.887 o
0 10 3 27.390 22.230 0.742 61.516 o
0 10 4 13.200 13.095 0.527 148.439 o
0 10 5 0.044 0.189 0.296 2275.320 o
0 10 6 291.966 265.540 2.002 1.151 o
0 10 7 25.450 25.549 0.834 59.547 o
0 10 8 1.671 1.299 0.497 614.582 o
0 10 9 98.844 97.340 1.576 7.543 o
0 10 10 6.931 6.382 0.622 238.705 o
0 10 11 0.465 0.630 0.449 908.123 o
0 10 12 0.487 0.763 0.518 698.260 o
0 10 13 55.605 55.008 1.586 17.503 o
0 10 14 12.712 14.635 0.898 107.184 o
0 10 15 25.129 24.117 1.292 47.976 o
0 10 16 11.691 12.268 1.568 61.221 o
0 11 1 66.565 58.899 1.029 15.976 o
0 11 2 104.481 103.568 1.403 6.986 o
0 11 3 9.712 8.043 0.521 212.568 o
0 11 4 0.401 0.330 0.366 1352.290 o
0 11 5 12.385 10.837 0.624 151.974 o
0 11 6 16.809 16.676 0.677 103.586 o
0 11 7 72.069 71.640 1.177 13.036 o
0 11 8 6.149 6.562 0.613 253.199 o
0 11 9 89.445 91.570 1.550 8.692 o
0 11 10 88.358 89.017 1.866 8.549 o
0 11 11 81.499 83.830 1.703 9.794 o
0 11 12 2.130 1.277 0.622 419.657 o
0 11 13 35.481 40.438 1.601 27.839 o
0 11 14 3.226 3.862 0.784 250.514 o
0 11 15 0.193 0.141 1.041 194.114 o
0 12 0 2.220 2.205 0.612 409.055 o
0 12 1 266.645 261.700 2.559 1.282 o
0 12 2 62.390 63.073 1.252 15.899 o
0 12 3 7.208 7.238 0.706 203.586 o
0 12 4 0.082 0.325 0.481 881.729 o
0 12 5 3.637 4.809 0.567 354.149 o
0 12 6 3.307 3.721 0.578 373.987 o
0 12 7 496.188 509.662 3.425 0.384 o
0 12 8 29.174 31.283 1.132 43.205 o
0 12 9 77.947 76.051 1.603 10.924 o
0 12 10 1.512 1.895 0.636 416.613 o
0 12 11 8.444 7.006 0.731 185.071 o
0 12 12 0.934 0.923 0.648 444.064 o
0 12 13 77.469 78.581 2.161 9.770 o
0 12 14 5.040 1.928 1.479 86.241 o
0 13 1 31.435 33.470 1.013 41.823 o
0 13 2 2.268 1.897 0.544 488.182 o
0 13 3 0.021 0.342 0.421 1148.680 o
0 13 4 0.960 0.991 0.480 728.858 o
0 13 5 74.906 76.785 1.562 11.389 o
0 13 6 5.533 6.469 0.751 214.692 o
0 13 7 5.546 5.307 0.685 246.458 o
0 13 8 16.198 13.162 0.937 93.500 o
0 13 9 169.151 183.722 2.867 2.640 o
0 13 10 87.218 91.766 1.934 8.439 o
0 13 11 9.913 9.168 1.027 115.885 o
0 13 12 98.254 99.968 2.584 6.520 o
0 14 0 1.190 1.042 0.825 282.550 o
0 14 1 68.544 72.230 1.671 12.533 o
0 14 2 81.754 81.748 1.693 9.903 o
0 14 3 43.457 46.283 1.281 25.424 o
0 14 4 77.795 80.117 1.670 10.548 o
0 14 5 36.783 37.345 1.621 27.739 o
0 14 6 24.243 24.007 1.225 51.085 o
0 14 7 6.353 6.278 0.699 222.580 o
0 14 8 78.302 83.805 2.142 9.424 o
0 14 9 0.217 1.320 0.763 343.434 o
0 14 10 7.860 5.743 1.049 129.630 o
0 14 11 25.966 26.283 1.910 32.098 o
0 15 1 0.986 1.970 0.660 408.930 o
0 15 2 117.392 116.242 1.921 5.491 o
0 15 3 37.942 40.382 1.387 28.946 o
0 15 4 39.325 46.125 1.860 22.336 o
0 15 5 5.986 5.289 0.837 190.052 o
0 15 6 65.399 68.742 1.672 13.401 o
0 15 7 1.983 2.022 0.763 298.672 o
0 15 8 19.126 18.945 1.495 51.386 o
0 15 9 2.810 3.141 1.783 62.979 o
0 16 0 10.544 10.741 1.175 94.163 o
0 16 1 0.073 -0.710 0.629 533.534 o
0 16 2 0.047 -0.614 0.678 460.114 o
0 16 3 16.577 14.810 1.128 76.797 o
0 16 4 93.424 95.107 2.556 7.026 o
0 16 5 22.917 23.840 1.715 38.969 o
0 16 6 11.623 11.317 1.770 51.770 o
0 17 1 19.240 11.403 3.764 13.500 o
1 0 1 718.519 816.527 2.593 0.177 o
1 0 2 616.485 621.841 1.818 0.259 o
1 0 3 845.823 957.924 2.819 0.129 o
1 0 4 321.241 338.086 0.971 0.891 o
1 0 5 1098.900 1170.900 2.863 0.080 o
1 0 6 28.321 28.892 0.301 61.033 o
1 0 7 325.148 334.641 1.248 0.881 o
1 0 8 166.576 169.867 0.905 3.111 o
1 0 9 214.008 230.519 1.105 1.885 o
1 0 10 28.660 28.139 0.440 59.361 o
1 0 11 0.184 0.700 0.158 4530.120 o
1 0 12 79.930 74.593 0.662 12.049 o
1 0 13 110.758 100.248 1.117 6.809 o
1 0 14 10.275 9.349 0.525 195.984 o
1 0 15 13.774 14.622 0.768 114.990 o
1 0 16 2.025 2.434 0.488 559.927 o
1 0 17 17.203 17.167 0.754 95.872 o
1 0 18 2.297 2.819 0.584 421.322 o
1 0 19 17.901 17.761 0.923 82.086 o
1 0 20 71.894 80.261 2.482 9.630 o
1 1 0 1219.430 1214.290 3.029 0.068 o
1 1 1 696.168 765.563 2.014 0.193 o
1 1 2 125.000 148.116 0.440 4.814 o
1 1 3 6959.830 7253.930 14.532 0.002 o
1 1 4 481.112 474.750 1.822 0.425 o
1 1 5 1568.900 1739.490 4.920 0.039 o
1 1 6 292.225 285.321 0.839 1.121 o
1 1 7 134.099 123.798 0.816 4.896 o
1 1 8 55.194 56.097 0.478 21.509 o
1 1 9 75.022 77.167 0.625 12.736 o
1 1 10 117.069 116.627 0.777 5.974 o
1 1 11 173.921 173.524 0.935 2.912 o
1 1 12 26.155 21.998 0.467 71.424 o
1 1 13 59.651 60.583 0.797 18.306 o
1 1 14 8.302 8.218 0.545 226.003 o
1 1 15 56.736 59.340 1.095 18.537 o
1 1 16 6.384 6.256 0.553 274.742 o
1 1 17 11.389 12.013 0.737 139.476 o
1 1 18 4.590 4.370 0.608 309.610 o
1 1 19 14.128 14.464 0.843 106.744 o
1 1 20 28.072 30.191 1.840 31.134 o
1 2 0 161.837 113.071 0.582 4.057 o
1 2 1 2450.420 2537.410 8.806 0.017 o
1 2 2 2820.130 2989.720 7.269 0.012 o
1 2 3 327.963 371.413 1.068 0.815 o
1 2 4 1261.460 1282.920 4.024 0.063 o
1 2 5 87.299 93.202 0.597 9.649 o
1 2 6 669.041 703.663 1.905 0.215 o
1 2 7 261.809 260.081 0.933 1.364 o
1 2 8 73.356 71.883 0.587 13.627 o
1 2 9 69.281 75.766 0.711 13.933 o
1 2 10 499.980 493.293 2.502 0.393 o
1 2 11 188.177 188.652 1.070 2.504 o
1 2 12 0.443 0.680 0.262 2107.010 o
1 2 13 47.366 46.094 0.878 26.180 o
1 2 14 30.555 29.775 0.836 48.153 o
1 2 15 7.680 7.611 0.467 264.393 o
1 2 16 12.988 13.160 0.600 141.594 o
1 2 17 33.458 34.211 1.237 36.035 o
1 2 18 26.395 27.253 1.018 51.702 o
1 2 19 37.948 34.904 1.342 31.128 o
1 2 20 21.907 26.873 2.416 25.296 o
1 3 0 41.578 46.255 0.393 32.344 o
1 3 1 769.773 816.594 2.931 0.162 o
1 3 2 245.886 284.090 1.082 1.387 o
1 3 3 533.433 614.096 2.384 0.313 o
1 3 4 197.605 211.209 0.878 2.206 o
1 3 5 269.003 298.240 1.196 1.203 o
1 3 6 446.339 467.531 1.734 0.473 o
1 3 7 529.479 550.926 1.540 0.342 o
1 3 8 66.017 62.937 0.679 16.320 o
1 3 9 263.975 257.908 1.389 1.348 o
1 3 10 164.299 161.393 0.903 3.264 o
1 3 11 144.913 147.201 1.067 3.992 o
1 3 12 140.267 136.424 1.409 4.267 o
1 3 13 57.407 58.230 0.950 18.989 o
1 3 14 15.468 14.227 0.599 122.391 o
1 3 15 29.015 29.098 0.767 52.159 o
1 3 16 3.367 3.213 0.473 474.135 o
1 3 17 39.543 39.622 1.024 31.976 o
1 3 18 19.752 18.290 0.949 75.101 o
1 3 19 31.063 32.596 1.150 40.277 o
1 3 20 36.504 32.397 2.981 15.696 o
1 4 0 426.992 529.832 2.164 0.456 o
1 4 1 447.609 468.772 1.901 0.470 o
1 4 2 1139.440 1239.900 3.666 0.074 o
1 4 3 165.273 167.018 0.886 3.176 o
1 4 4 53.143 52.006 0.503 23.261 o
1 4 5 72.081 83.428 0.569 12.751 o
1 4 6 401.689 415.664 1.320 0.586 o
1 4 7 297.154 291.224 1.593 1.073 o
1 4 8 792.353 765.409 2.598 0.163 o
1 4 9 413.036 399.604 1.682 0.578 o
1 4 10 278.187 269.793 1.488 1.225 o
1 4 11 9.367 8.292 0.304 263.670 o
1 4 12 87.125 83.980 0.927 10.028 o
1 4 13 120.754 118.265 1.370 5.523 o
1 4 14 280.671 278.945 2.114 1.172 o
1 4 15 27.760 25.936 0.858 54.631 o
1 4 16 157.408 158.988 1.667 3.362 o
1 4 17 174.950 178.532 1.948 2.734 o
1 4 18 32.900 33.811 1.121 38.470 o
1 4 19 26.927 26.813 1.398 41.962 o
1 5 0 255.990 294.294 1.251 1.287 o
1 5 1 70.720 73.106 0.630 14.010 o
1 5 2 477.717 525.409 1.378 0.402 o
1 5 3 1274.790 1398.360 4.445 0.059 o
1 5 4 140.265 137.096 0.945 4.350 o
1 5 5 60.388 65.004 0.623 17.754 o
1 5 6 40.072 37.921 0.498 36.647 o
1 5 7 393.202 392.094 2.064 0.620 o
1 5 8 249.719 241.774 1.348 1.505 o
1 5 9 207.472 194.167 1.300 2.168 o
1 5 10 19.336 18.149 0.470 100.971 o
1 5 11 321.793 326.383 1.545 0.904 o
1 5 12 84.633 83.556 0.929 10.386 o
1 5 13 15.213 16.018 0.712 109.705 o
1 5 14 24.748 23.787 0.759 64.820 o
1 5 15 127.227 128.306 1.458 4.936 o
1 5 16 53.904 57.647 1.125 19.644 o
1 5 17 44.483 43.990 1.333 25.074 o
1 5 18 16.069 16.510 0.970 86.233 o
1 5 19 17.970 20.997 2.819 21.605 o
1 6 0 242.996 249.072 1.304 1.530 o
1 6 1 401.902 403.592 1.988 0.593 o
1 6 2 106.766 113.522 0.860 6.728 o
1 6 3 14.518 15.862 0.332 143.871 o
1 6 4 144.664 149.043 1.385 3.913 o
1 6 5 48.559 52.503 0.749 24.530 o
1 6 6 67.009 62.406 0.615 16.226 o
1 6 7 74.813 68.656 0.697 13.536 o
1 6 8 324.696 314.703 1.420 0.916 o
1 6 9 125.394 119.263 1.178 5.327 o
1 6 10 10.417 10.306 0.425 205.989 o
1 6 11 16.170 13.134 0.651 117.152 o
1 6 12 21.618 22.163 0.875 69.445 o
1 6 13 96.721 93.442 1.492 7.966 o
1 6 14 79.271 79.025 1.250 11.093 o
1 6 15 26.013 26.497 0.928 55.190 o
1 6 16 91.998 92.758 1.508 8.424 o
1 6 17 38.652 39.925 1.345 29.119 o
1 6 18 4.458 4.092 0.815 219.812 o
1 7 0 83.006 99.635 1.242 9.278 o
1 7 1 139.158 127.003 1.178 4.541 o
1 7 2 39.745 30.643 0.545 40.270 o
1 7 3 2.369 0.911 0.211 1277.850 o
1 7 4 630.057 626.276 2.652 0.250 o
1 7 5 397.951 381.722 1.999 0.622 o
1 7 6 26.675 28.403 0.604 60.105 o
1 7 7 66.585 67.410 0.748 15.472 o
1 7 8 70.415 69.901 0.941 13.969 o
1 7 9 50.281 43.580 0.787 25.767 o
1 7 10 14.550 16.211 0.672 115.798 o
1 7 11 11.157 9.701 0.678 158.514 o
1 7 12 10.557 11.200 0.733 148.645 o
1 7 13 34.095 35.055 1.067 37.643 o
1 7 14 21.293 18.690 0.838 76.022 o
1 7 15 72.417 74.564 1.310 12.453 o
1 7 16 89.613 87.169 1.508 8.950 o
1 7 17 15.848 15.121 1.263 69.887 o
1 7 18 31.670 24.330 2.426 22.592 o
1 8 0 397.344 409.376 2.699 0.590 o
1 8 1 32.347 30.849 0.802 45.725 o
1 8 2 150.863 160.502 1.781 3.489 o
1 8 3 225.209 211.289 1.632 1.845 o
1 8 4 6.369 6.457 0.441 318.575 o
1 8 5 167.223 155.610 1.319 3.218 o
1 8 6 18.255 17.829 0.635 97.760 o
1 8 7 38.580 32.949 0.683 39.033 o
1 8 8 32.902 34.724 0.836 42.281 o
1 8 9 29.765 28.312 0.783 51.316 o
1 8 10 118.954 119.630 1.590 5.488 o
1 8 11 18.092 17.585 0.858 85.628 o
1 8 12 53.912 54.407 1.251 19.651 o
1 8 13 25.362 23.372 0.961 57.920 o
1 8 14 10.269 11.531 0.799 139.687 o
1 8 15 30.082 30.346 1.081 43.729 o
1 8 16 57.598 61.815 1.675 15.754 o
1 8 17 7.597 6.432 0.934 150.056 o
1 9 0 737.416 712.014 3.057 0.187 o
1 9 1 261.558 240.332 1.729 1.413 o
1 9 2 51.373 42.940 0.685 25.823 o
1 9 3 369.505 360.162 2.265 0.706 o
1 9 4 231.913 221.889 1.614 1.728 o
1 9 5 182.570 167.161 1.511 2.752 o
1 9 6 9.351 12.615 0.563 181.005 o
1 9 7 17.853 17.834 0.587 102.201 o
1 9 8 65.614 62.458 0.977 15.888 o
1 9 9 210.815 202.425 2.154 2.015 o
1 9 10 5.983 5.648 0.523 303.109 o
1 9 11 9.262 9.045 0.671 179.779 o
1 9 12 14.367 12.828 0.820 111.459 o
1 9 13 21.133 19.644 0.896 72.627 o
1 9 14 29.590 30.004 1.279 40.518 o
1 9 15 9.576 8.811 0.866 142.191 o
1 9 16 8.011 7.845 0.803 168.871 o
1 9 17 2.868 2.375 1.658 72.566 o
1 10 0 1.027 0.451 0.334 1295.410 o
1 10 1 136.962 133.407 1.239 4.487 o
1 10 2 213.702 205.142 1.562 2.008 o
1 10 3 406.993 394.687 2.847 0.585 o
1 10 4 98.959 94.884 1.421 7.765 o
1 10 5 194.766 188.511 2.694 2.246 o
1 10 6 97.996 95.422 1.505 7.756 o
1 10 7 3.809 3.851 0.496 418.163 o
1 10 8 8.830 7.367 0.570 218.103 o
1 10 9 58.031 60.335 1.066 18.073 o
1 10 10 65.436 67.247 1.179 14.866 o
1 10 11 126.463 126.228 1.929 4.835 o
1 10 12 22.883 27.127 1.126 53.804 o
1 10 13 39.541 40.780 1.307 28.745 o
1 10 14 36.911 38.898 1.556 28.015 o
1 10 15 8.197 7.704 0.973 135.631 o
1 10 16 31.503 24.803 2.102 26.742 o
1 11 0 0.042 0.033 0.293 2402.940 o
1 11 1 5.261 5.749 0.452 357.509 o
1 11 2 65.047 63.189 1.168 15.463 o
1 11 3 22.762 20.201 0.798 72.080 o
1 11 4 89.425 89.241 1.420 8.957 o
1 11 5 65.527 63.518 1.238 15.124 o
1 11 6 58.878 62.773 1.208 17.003 o
1 11 7 31.432 33.217 0.902 43.787 o
1 11 8 28.230 29.323 0.898 50.438 o
1 11 9 7.651 6.840 0.618 225.569 o
1 11 10 111.505 112.689 1.728 6.019 o
1 11 11 14.970 14.490 0.919 96.896 o
1 11 12 2.360 3.976 0.882 218.749 o
1 11 13 30.078 30.569 1.584 34.199 o
1 11 14 64.996 69.504 2.095 12.182 o
1 11 15 14.421 14.400 2.055 38.474 o
1 12 0 119.128 115.305 1.556 5.609 o
1 12 1 5.130 3.512 0.495 374.789 o
1 12 2 40.197 37.794 0.975 32.639 o
1 12 3 11.599 11.611 0.802 130.822 o
1 12 4 32.866 34.066 1.140 38.092 o
1 12 5 6.158 5.195 0.575 281.580 o
1 12 6 6.603 7.528 0.646 227.363 o
1 12 7 48.717 48.117 1.213 23.049 o
1 12 8 32.668 30.722 1.268 37.640 o
1 12 9 32.166 32.116 1.101 40.283 o
1 12 10 20.425 20.805 1.132 62.640 o
1 12 11 23.399 19.956 1.131 58.343 o
1 12 12 55.933 58.194 1.545 17.161 o
1 12 13 84.610 89.918 2.155 8.465 o
1 12 14 10.098 5.909 2.552 29.533 o
1 13 0 17.885 17.847 0.831 87.481 o
1 13 1 99.383 98.701 1.596 7.427 o
1 13 2 60.081 62.876 1.451 15.855 o
1 13 3 22.861 21.320 1.041 61.405 o
1 13 4 63.483 64.170 1.410 15.034 o
1 13 5 110.416 112.660 1.754 6.069 o
1 13 6 5.920 4.683 0.679 247.728 o
1 13 7 14.066 14.303 0.941 98.645 o
1 13 8 88.417 90.632 1.809 8.537 o
1 13 9 52.623 56.349 1.704 17.575 o
1 13 10 20.403 19.532 1.396 53.159 o
1 13 11 7.554 7.901 0.862 159.884 o
1 13 12 49.299 48.576 2.122 17.151 o
1 14 0 1.302 1.438 0.563 528.465 o
1 14 1 28.818 26.102 1.078 47.772 o
1 14 2 5.858 5.996 0.683 236.802 o
1 14 3 86.802 88.744 1.662 8.980 o
1 14 4 15.219 15.522 1.005 87.775 o
1 14 5 7.832 6.689 0.960 142.816 o
1 14 6 39.773 39.465 1.412 27.905 o
1 14 7 9.240 9.143 0.920 134.543 o
1 14 8 60.815 56.756 1.790 15.153 o
1 14 9 52.544 56.101 1.720 17.551 o
1 14 10 35.992 37.646 1.661 27.580 o
1 14 11 37.145 39.751 3.402 12.624 o
1 15 0 1.756 2.380 0.717 331.163 o
1 15 1 54.472 56.600 1.515 17.923 o
1 15 2 30.308 28.962 1.153 42.824 o
1 15 3 5.677 6.507 0.807 195.731 o
1 15 4 36.647 33.602 1.630 28.670 o
1 15 5 29.207 31.581 1.356 38.652 o
1 15 6 63.645 66.695 1.519 14.398 o
1 15 7 22.886 24.790 1.678 39.546 o
1 15 8 11.883 10.569 1.163 91.780 o
1 15 9 85.720 95.143 3.657 6.094 o
1 16 0 18.956 17.490 1.177 66.322 o
1 16 1 103.608 111.639 2.354 6.068 o
1 16 2 7.146 5.970 0.929 155.495 o
1 16 3 14.204 15.083 1.252 73.829 o
1 16 4 2.560 1.885 0.876 230.615 o
1 16 5 2.992 2.397 0.898 214.265 o
1 16 6 21.169 23.385 2.118 31.259 o
2 0 0 140.228 157.991 1.234 3.940 o
2 0 1 2342.060 2514.240 7.852 0.018 o
2 0 2 108.043 142.427 0.742 5.756 o
2 0 3 1151.900 1196.180 3.923 0.074 o
2 0 4 1309.390 1389.410 3.263 0.057 o
2 0 5 31.420 42.884 0.325 44.452 o
2 0 6 592.806 601.940 1.904 0.278 o
2 0 7 312.303 312.888 1.051 0.970 o
2 0 8 2.626 1.055 0.196 1213.170 o
2 0 9 359.592 384.103 1.504 0.708 o
2 0 10 42.360 38.346 0.475 34.554 o
2 0 11 1.097 0.337 0.187 2424.760 o
2 0 12 183.069 173.105 1.144 2.722 o
2 0 13 16.982 16.486 0.592 108.975 o
2 0 14 53.386 53.386 0.993 21.163 o
2 0 15 45.231 42.275 1.200 26.168 o
2 0 16 0.122 0.245 0.485 868.096 o
2 0 17 10.459 9.796 0.698 160.538 o
2 0 18 22.894 24.032 1.001 60.335 o
2 0 19 28.218 32.822 1.601 34.407 o
2 1 0 216.924 211.511 0.833 1.966 o
2 1 1 1863.360 1940.280 7.514 0.029 o
2 1 2 2182.920 2365.770 4.722 0.020 o
2 1 3 586.456 620.198 2.570 0.276 o
2 1 4 262.092 269.904 0.922 1.331 o
2 1 5 361.029 390.755 1.790 0.694 o
2 1 6 348.967 357.417 1.292 0.772 o
2 1 7 269.025 251.517 1.058 1.343 o
2 1 8 131.550 136.835 1.293 4.620 o
2 1 9 101.583 92.691 0.825 8.020 o
2 1 10 412.435 393.107 1.581 0.585 o
2 1 11 14.422 15.818 0.428 137.909 o
2 1 12 85.120 87.646 0.872 10.097 o
2 1 13 24.059 25.548 0.663 67.199 o
2 1 14 109.486 107.515 1.290 6.555 o
2 1 15 37.663 40.825 0.909 34.072 o
2 1 16 2.096 2.249 0.488 562.383 o
2 1 17 123.600 123.456 1.719 5.112 o
2 1 18 19.523 18.828 0.911 76.924 o
2 1 19 30.006 31.285 1.292 39.295 o
2 2 0 820.062 876.796 2.082 0.143 o
2 2 1 451.394 455.457 1.729 0.474 o
2 2 2 1189.210 1345.320 4.102 0.066 o
2 2 3 184.617 220.046 1.039 2.319 o
2 2 4 690.583 776.547 1.956 0.193 o
2 2 5 89.582 93.498 0.526 9.388 o
2 2 6 27.434 28.172 0.350 63.104 o
2 2 7 58.469 53.280 0.502 20.704 o
2 2 8 162.057 173.789 1.219 3.139 o
2 2 9 116.715 113.111 0.934 6.057 o
2 2 10 250.283 243.531 1.385 1.493 o
2 2 11 65.079 59.255 0.915 16.602 o
2 2 12 32.444 33.427 0.621 46.515 o
2 2 13 28.701 27.909 0.663 55.660 o
2 2 14 31.683 29.564 0.838 46.783 o
2 2 15 44.207 45.149 0.956 27.738 o
2 2 16 18.195 17.875 0.760 90.637 o
2 2 17 37.668 40.009 1.096 32.432 o
2 2 18 203.620 213.988 2.522 1.999 o
2 2 19 30.682 30.533 1.379 37.420 o
2 3 0 26.751 20.798 0.269 75.116 o
2 3 1 715.090 778.798 3.570 0.183 o
2 3 2 810.020 905.095 2.094 0.142 o
2 3 3 271.980 303.652 1.270 1.171 o
2 3 4 1270.510 1361.240 5.472 0.060 o
2 3 5 232.146 249.261 1.690 1.603 o
2 3 6 136.283 145.812 1.054 4.317 o
2 3 7 477.236 465.025 1.694 0.436 o
2 3 8 6.676 8.318 0.255 347.976 o
2 3 9 71.385 73.041 0.842 13.597 o
2 3 10 70.143 63.428 0.733 15.110 o
2 3 11 124.458 118.772 1.171 5.389 o
2 3 12 272.302 269.630 2.255 1.238 o
2 3 13 190.844 190.825 1.642 2.401 o
2 3 14 30.887 29.653 0.812 48.236 o
2 3 15 46.555 47.633 1.039 25.241 o
2 3 16 6.626 6.101 0.553 271.254 o
2 3 17 11.959 10.466 0.731 141.778 o
2 3 18 35.801 35.906 1.267 33.192 o
2 3 19 26.906 28.177 1.673 35.515 o
2 4 0 109.487 108.981 0.834 6.705 o
2 4 1 20.250 19.798 0.412 95.893 o
2 4 2 13.395 13.233 0.351 163.782 o
2 4 3 490.163 527.513 2.207 0.386 o
2 4 4 706.608 780.355 2.682 0.186 o
2 4 5 303.936 299.558 1.620 1.024 o
2 4 6 194.250 189.114 1.140 2.400 o
2 4 7 82.482 82.903 1.172 10.463 o
2 4 8 179.259 169.236 1.130 2.832 o
2 4 9 1.176 0.186 0.147 2853.080 o
2 4 10 77.904 71.540 0.931 12.370 o
2 4 11 12.863 10.506 0.477 168.747 o
2 4 12 254.715 258.684 1.944 1.390 o
2 4 13 1.996 1.346 0.470 633.330 o
2 4 14 112.398 114.329 1.485 6.051 o
2 4 15 158.370 165.989 1.847 3.222 o
2 4 16 41.239 40.058 0.999 30.880 o
2 4 17 37.596 39.089 1.068 33.127 o
2 4 18 35.575 34.811 1.313 33.129 o
2 4 19 1.208 0.816 0.995 200.967 o
2 5 0 24.080 22.544 0.588 72.975 o
2 5 1 306.997 352.898 1.702 0.908 o
2 5 2 206.921 218.884 1.640 2.002 o
2 5 3 212.743 223.485 1.590 1.914 o
2 5 4 77.692 95.887 0.748 10.653 o
2 5 5 277.733 250.978 1.531 1.281 o
2 5 6 14.740 16.605 0.495 127.985 o
2 5 7 366.414 356.105 1.778 0.724 o
2 5 8 211.867 213.615 1.244 1.997 o
2 5 9 28.092 26.000 0.493 61.792 o
2 5 10 254.485 238.138 1.450 1.480 o
2 5 11 147.852 144.193 1.422 3.881 o
2 5 12 22.886 21.150 0.739 72.855 o
2 5 13 19.807 19.447 0.959 73.099 o
2 5 14 112.495 115.252 1.559 5.980 o
2 5 15 76.295 77.744 1.485 11.251 o
2 5 16 16.962 17.541 0.791 93.644 o
2 5 17 2.757 2.199 0.575 424.856 o
2 5 18 39.854 38.670 1.322 29.031 o
2 6 0 261.851 277.186 1.700 1.293 o
2 6 1 42.807 41.438 0.535 32.604 o
2 6 2 230.393 218.321 1.699 1.755 o
2 6 3 490.114 490.210 2.946 0.403 o
2 6 4 21.724 20.832 0.627 80.710 o
2 6 5 221.035 209.820 1.239 1.915 o
2 6 6 351.595 347.044 1.631 0.777 o
2 6 7 37.826 35.015 0.583 39.672 o
2 6 8 32.785 27.817 0.507 51.516 o
2 6 9 92.633 81.575 0.908 9.506 o
2 6 10 50.756 48.236 0.781 24.359 o
2 6 11 57.259 56.476 1.069 18.922 o
2 6 12 4.421 3.244 0.473 423.045 o
2 6 13 150.438 161.312 2.314 3.369 o
2 6 14 62.105 60.542 1.457 15.627 o
2 6 15 11.104 9.648 0.801 140.007 o
2 6 16 62.687 61.362 1.411 15.542 o
2 6 17 23.725 26.262 1.090 54.303 o
2 6 18 83.072 90.064 2.289 8.400 o
2 7 0 376.816 369.256 1.960 0.681 o
2 7 1 266.823 265.553 2.117 1.286 o
2 7 2 124.629 120.346 1.632 5.173 o
2 7 3 35.218 34.612 0.888 39.223 o
2 7 4 347.950 313.501 2.281 0.829 o
2 7 5 27.343 26.563 0.595 60.770 o
2 7 6 33.676 28.007 0.572 49.196 o
2 7 7 167.957 158.209 1.557 3.138 o
2 7 8 167.815 153.027 1.602 3.194 o
2 7 9 108.986 108.850 1.494 6.431 o
2 7 10 4.759 5.964 0.576 303.751 o
2 7 11 10.470 10.604 0.656 163.967 o
2 7 12 30.574 33.297 0.938 44.142 o
2 7 13 53.059 54.291 1.276 19.847 o
2 7 14 1.591 1.647 0.604 454.100 o
2 7 15 50.033 50.385 1.312 21.469 o
2 7 16 31.747 32.212 1.130 40.162 o
2 7 17 51.673 48.280 1.310 21.259 o
2 7 18 8.694 8.489 1.675 61.035 o
2 8 0 6.928 6.991 0.319 341.056 o
2 8 1 369.554 353.368 2.341 0.714 o
2 8 2 338.583 312.415 2.229 0.861 o
2 8 3 107.795 101.569 1.393 6.823 o
2 8 4 125.898 121.217 1.148 5.263 o
2 8 5 95.213 88.453 1.023 8.742 o
2 8 6 127.385 128.623 1.165 5.011 o
2 8 7 200.633 196.253 1.525 2.231 o
2 8 8 95.665 94.272 1.294 8.194 o
2 8 9 87.358 86.865 1.160 9.598 o
2 8 10 68.587 68.181 1.192 14.044 o
2 8 11 74.219 77.068 1.282 11.986 o
2 8 12 17.456 19.047 1.075 73.049 o
2 8 13 26.494 23.213 1.151 50.769 o
2 8 14 6.696 7.682 0.765 190.925 o
2 8 15 10.946 12.933 0.927 115.456 o
2 8 16 97.936 100.836 1.705 7.365 o
2 8 17 11.909 11.700 1.233 84.149 o
2 9 0 151.386 143.957 1.137 3.827 o
2 9 1 42.159 35.311 0.924 32.592 o
2 9 2 75.349 75.267 1.118 12.218 o
2 9 3 178.286 174.450 1.781 2.732 o
2 9 4 47.526 45.376 0.935 25.959 o
2 9 5 419.023 411.428 2.636 0.551 o
2 9 6 108.394 95.472 1.318 7.050 o
2 9 7 30.819 31.068 0.941 45.103 o
2 9 8 38.754 41.944 1.057 31.390 o
2 9 9 67.879 70.005 1.278 13.806 o
2 9 10 2.265 2.755 0.560 448.361 o
2 9 11 19.299 21.163 1.029 69.028 o
2 9 12 15.427 15.484 0.936 92.342 o
2 9 13 9.834 10.187 0.799 146.939 o
2 9 14 8.841 8.635 0.869 146.978 o
2 9 15 33.590 34.876 1.295 34.809 o
2 9 16 34.925 35.308 1.470 31.263 o
2 10 0 1.774 1.215 0.381 859.638 o
2 10 1 38.787 37.993 1.013 33.238 o
2 10 2 206.627 197.604 2.097 2.099 o
2 10 3 32.648 29.637 0.922 44.123 o
2 10 4 27.203 26.555 1.036 50.606 o
2 10 5 0.270 -0.318 0.526 738.720 o
2 10 6 194.996 204.935 2.321 2.178 o
2 10 7 10.053 9.073 0.672 171.870 o
2 10 8 3.098 3.522 0.555 403.521 o
2 10 9 62.006 60.843 1.411 15.768 o
2 10 10 22.697 21.587 0.825 69.560 o
2 10 11 137.349 144.331 1.768 4.137 o
2 10 12 64.116 64.789 1.536 14.447 o
2 10 13 8.583 8.931 0.806 159.450 o
2 10 14 10.243 11.966 0.830 134.048 o
2 10 15 13.459 12.840 0.989 99.193 o
2 11 0 169.183 158.153 1.848 3.067 o
2 11 1 69.090 68.110 1.292 13.723 o
2 11 2 33.192 32.345 1.115 38.969 o
2 11 3 58.325 61.329 1.145 17.573 o
2 11 4 15.760 13.751 0.796 105.414 o
2 11 5 76.173 74.798 1.595 11.286 o
2 11 6 49.465 49.492 1.279 22.057 o
2 11 7 5.391 5.550 0.783 211.629 o
2 11 8 186.592 183.932 2.065 2.476 o
2 11 9 28.871 28.090 1.047 47.172 o
2 11 10 26.066 28.256 1.196 46.976 o
2 11 11 23.759 21.382 0.992 61.477 o
2 11 12 60.034 57.797 1.422 16.614 o
2 11 13 7.711 6.902 0.794 177.568 o
2 11 14 5.485 4.457 0.764 223.631 o
2 12 0 13.523 13.283 0.763 120.193 o
2 12 1 76.763 79.144 1.380 11.256 o
2 12 2 136.922 130.053 1.677 4.433 o
2 12 3 12.730 13.519 0.843 115.149 o
2 12 4 36.835 38.683 1.050 34.058 o
2 12 5 8.852 8.912 0.786 161.220 o
2 12 6 79.185 79.080 1.643 10.480 o
2 12 7 28.998 31.505 1.214 41.649 o
2 12 8 17.151 15.599 0.912 88.290 o
2 12 9 41.883 43.141 1.212 27.640 o
2 12 10 30.009 31.291 1.299 39.149 o
2 12 11 7.589 6.605 0.802 178.175 o
2 12 12 27.902 30.167 1.509 37.311 o
2 12 13 17.267 15.628 1.449 57.648 o
2 13 0 37.465 39.843 1.207 31.409 o
2 13 1 0.940 1.419 0.543 583.123 o
2 13 2 19.768 20.500 0.945 72.592 o
2 13 3 48.408 47.299 1.145 23.779 o
2 13 4 34.542 34.816 1.105 36.817 o
2 13 5 37.195 38.911 1.288 30.957 o
2 13 6 13.197 14.713 0.879 106.851 o
2 13 7 67.355 71.269 1.454 13.367 o
2 13 8 62.799 63.142 1.576 14.783 o
2 13 9 19.053 17.951 0.970 76.156 o
2 13 10 127.226 132.369 2.251 4.542 o
2 13 11 51.339 54.310 1.764 17.896 o
2 13 12 78.811 76.411 4.066 6.309 o
2 14 0 0.200 0.129 0.531 724.710 o
2 14 1 0.553 -0.181 0.557 637.777 o
2 14 2 62.901 66.955 1.550 14.434 o
2 14 3 85.544 86.061 1.628 9.306 o
2 14 4 21.342 18.798 1.108 63.825 o
2 14 5 39.157 39.890 1.348 28.802 o
2 14 6 7.592 8.939 0.837 160.702 o
2 14 7 18.700 18.776 1.099 69.408 o
2 14 8 41.562 42.161 1.359 26.762 o
2 14 9 17.456 15.716 1.100 75.408 o
2 14 10 7.277 5.475 1.724 61.236 o
2 15 0 78.481 76.935 1.660 10.687 o
2 15 1 32.814 32.646 1.202 37.780 o
2 15 2 44.424 49.456 1.426 23.177 o
2 15 3 29.939 31.111 1.385 37.697 o
2 15 4 32.068 32.755 1.652 31.155 o
2 15 5 45.630 46.055 1.726 21.184 o
2 15 6 126.576 132.870 2.027 4.653 o
2 15 7 26.842 26.266 1.422 41.739 o
2 15 8 19.182 21.790 2.336 28.340 o
2 16 0 3.590 2.774 0.907 203.034 o
2 16 1 87.680 86.433 1.882 8.721 o
2 16 2 0.377 -1.613 0.802 322.373 o
2 16 3 16.105 13.877 1.915 41.810 o
2 16 4 19.401 18.962 1.921 37.822 o
2 16 5 25.996 26.503 3.718 12.638 o
3 0 1 19.508 19.826 0.370 100.509 o
3 0 2 807.284 819.767 2.116 0.152 o
3 0 3 155.226 152.021 0.827 3.634 o
3 0 4 2.176 0.532 0.128 1757.280 o
3 0 5 205.619 225.822 0.859 2.014 o
3 0 6 201.945 198.627 0.847 2.234 o
3 0 7 89.432 85.442 0.597 9.870 o
3 0 8 142.932 164.147 0.946 3.804 o
3 0 9 24.075 21.972 0.396 78.940 o
3 0 10 34.563 28.950 0.541 47.655 o
3 0 11 77.662 73.954 0.878 12.268 o
3 0 12 117.760 118.493 1.411 5.660 o
3 0 13 30.939 29.677 0.760 49.051 o
3 0 14 77.778 80.901 1.406 10.938 o
3 0 15 0.300 0.052 0.519 752.715 o
3 0 16 10.206 10.580 0.818 140.276 o
3 0 17 0.332 0.259 0.658 469.993 o
3 0 18 13.156 13.229 1.091 90.526 o
3 0 19 42.231 37.539 2.788 15.603 o
3 1 0 145.803 168.398 0.744 3.678 o
3 1 1 92.129 89.939 0.747 9.184 o
3 1 2 1235.810 1300.490 3.536 0.064 o
3 1 3 15.608 13.600 0.301 146.100 o
3 1 4 28.722 35.859 0.520 51.409 o
3 1 5 313.011 321.636 1.368 0.947 o
3 1 6 465.918 463.907 1.492 0.451 o
3 1 7 1030.760 1067.110 4.941 0.092 o
3 1 8 225.424 191.381 1.245 1.969 o
3 1 9 11.828 9.870 0.347 201.515 o
3 1 10 75.259 70.594 0.794 13.131 o
3 1 11 120.288 116.662 1.072 5.700 o
3 1 12 67.322 64.114 0.973 15.265 o
3 1 13 11.923 12.084 0.569 158.016 o
3 1 14 52.138 49.841 1.064 22.056 o
3 1 15 274.513 275.283 2.875 1.188 o
3 1 16 32.163 31.785 1.102 40.435 o
3 1 17 14.109 14.021 0.882 104.225 o
3 1 18 4.342 4.580 0.784 230.267 o
3 1 19 0.645 1.369 1.269 127.497 o
3 2 0 412.217 423.492 1.857 0.557 o
3 2 1 68.078 71.580 0.449 14.982 o
3 2 2 407.732 447.334 1.703 0.546 o
3 2 3 237.833 240.942 1.107 1.610 o
3 2 4 491.463 512.992 1.958 0.393 o
3 2 5 368.615 385.587 1.560 0.684 o
3 2 6 98.711 99.767 0.848 7.947 o
3 2 7 14.066 16.044 0.370 144.131 o
3 2 8 130.948 131.423 1.262 4.766 o
3 2 9 91.250 88.581 0.891 9.269 o
3 2 10 41.895 43.386 0.693 31.621 o
3 2 11 144.095 137.734 1.147 4.165 o
3 2 12 60.620 61.993 0.901 17.521 o
3 2 13 75.266 75.826 1.078 12.247 o
3 2 14 7.577 7.829 0.589 227.793 o
3 2 15 35.132 37.396 1.149 34.675 o
3 2 16 39.059 39.781 1.225 30.186 o
3 2 17 2.061 1.296 0.606 439.564 o
3 2 18 23.256 21.979 1.010 61.229 o
3 2 19 16.908 15.265 2.725 23.701 o
3 3 0 697.670 753.107 1.995 0.195 o
3 3 1 415.131 391.768 1.835 0.580 o
3 3 2 71.034 67.904 0.498 14.668 o
3 3 3 550.954 581.936 3.297 0.309 o
3 3 4 39.736 47.181 0.491 32.990 o
3 3 5 120.680 135.007 1.164 5.176 o
3 3 6 328.883 345.779 1.816 0.845 o
3 3 7 545.503 550.664 2.384 0.327 o
3 3 8 110.521 96.986 0.851 7.067 o
3 3 9 35.489 36.557 0.648 40.723 o
3 3 10 41.435 40.983 0.799 32.084 o
3 3 11 205.910 201.938 1.748 2.109 o
3 3 12 11.161 11.008 0.642 158.680 o
3 3 13 30.028 28.632 0.881 48.792 o
3 3 14 11.658 11.603 0.648 151.286 o
3 3 15 175.121 177.846 1.981 2.733 o
3 3 16 25.356 25.088 1.068 53.410 o
3 3 17 32.893 35.076 1.281 35.484 o
3 3 18 59.505 57.630 1.751 15.496 o
3 3 19 9.357 9.761 1.799 53.137 o
3 4 0 28.012 27.837 0.374 61.902 o
3 4 1 735.926 760.898 3.000 0.180 o
3 4 2 93.203 99.552 0.835 8.497 o
3 4 3 40.638 44.380 0.787 31.515 o
3 4 4 361.978 366.200 2.206 0.718 o
3 4 5 48.264 39.985 0.860 27.500 o
3 4 6 26.822 26.517 0.605 61.650 o
3 4 7 467.341 456.263 2.011 0.452 o
3 4 8 182.817 184.067 1.242 2.620 o
3 4 9 27.329 26.524 0.490 62.887 o
3 4 10 108.691 113.135 1.464 6.329 o
3 4 11 70.948 70.166 1.213 13.322 o
3 4 12 29.971 29.786 1.016 45.446 o
3 4 13 61.802 56.779 1.379 16.440 o
3 4 14 19.728 18.715 0.932 75.486 o
3 4 15 95.713 94.097 1.691 7.840 o
3 4 16 17.336 15.576 0.862 91.080 o
3 4 17 60.037 60.803 1.710 15.179 o
3 4 18 4.383 4.546 0.889 193.127 o
3 5 0 624.566 601.049 4.203 0.256 o
3 5 1 5.794 6.332 0.351 379.837 o
3 5 2 56.810 61.716 0.728 19.240 o
3 5 3 56.447 46.223 0.838 21.997 o
3 5 4 132.544 139.855 1.748 4.392 o
3 5 5 298.923 268.772 3.182 1.075 o
3 5 6 9.852 10.339 0.482 203.137 o
3 5 7 14.457 9.195 0.413 167.062 o
3 5 8 169.571 172.465 1.361 2.973 o
3 5 9 129.669 124.612 1.118 5.011 o
3 5 10 2.733 2.387 0.480 526.887 o
3 5 11 28.192 28.256 0.804 53.316 o
3 5 12 105.398 99.277 1.491 7.019 o
3 5 13 57.147 59.216 1.349 17.482 o
3 5 14 5.732 4.121 0.651 267.396 o
3 5 15 32.672 35.409 1.276 35.595 o
3 5 16 25.480 27.036 1.106 50.812 o
3 5 17 11.408 11.501 0.867 123.999 o
3 5 18 16.610 15.386 1.314 65.417 o
3 6 0 43.919 44.323 0.956 28.151 o
3 6 1 205.005 204.870 2.256 2.060 o
3 6 2 582.206 553.701 6.429 0.285 o
3 6 3 195.121 184.574 1.661 2.382 o
3 6 4 268.019 248.334 1.378 1.353 o
3 6 5 212.390 210.107 1.967 1.968 o
3 6 6 328.948 331.691 2.071 0.864 o
3 6 7 111.826 105.615 1.081 6.561 o
3 6 8 38.899 38.452 0.692 36.045 o
3 6 9 87.039 88.526 1.107 9.588 o
3 6 10 193.034 187.731 1.902 2.367 o
3 6 11 25.078 27.215 0.837 58.620 o
3 6 12 52.221 54.401 1.369 19.661 o
3 6 13 65.574 66.111 1.402 14.383 o
3 6 14 90.730 88.060 1.725 8.539 o
3 6 15 90.147 93.324 1.663 8.411 o
3 6 16 67.059 68.946 1.435 13.698 o
3 6 17 1.780 3.069 0.722 319.011 o
3 6 18 24.291 24.493 2.838 19.778 o
3 7 0 30.530 33.752 0.756 46.917 o
3 7 1 263.943 241.074 1.921 1.388 o
3 7 2 162.827 158.745 1.505 3.259 o
3 7 3 75.520 80.750 0.893 12.033 o
3 7 4 15.753 12.081 0.549 131.569 o
3 7 5 39.102 29.286 0.725 39.933 o
3 7 6 43.515 40.473 0.826 30.579 o
3 7 7 15.993 12.469 0.607 123.701 o
3 7 8 20.696 20.399 0.715 80.830 o
3 7 9 101.257 96.118 1.153 7.706 o
3 7 10 73.356 73.644 1.253 12.477 o
3 7 11 18.416 18.776 0.914 79.812 o
3 7 12 26.631 27.028 0.988 52.286 o
3 7 13 27.859 27.227 1.257 44.086 o
3 7 14 5.607 4.776 0.776 215.725 o
3 7 15 35.819 36.458 1.371 31.638 o
3 7 16 7.829 8.530 0.872 153.528 o
3 7 17 17.955 17.619 1.488 53.808 o
3 8 0 16.275 14.507 0.448 128.271 o
3 8 1 215.286 216.807 2.081 1.892 o
3 8 2 185.640 178.249 1.514 2.598 o
3 8 3 29.132 28.048 0.672 54.642 o
3 8 4 231.916 210.571 1.543 1.786 o
3 8 5 65.654 67.708 1.012 15.149 o
3 8 6 154.424 153.216 1.525 3.540 o
3 8 7 5.918 5.486 0.434 349.503 o
3 8 8 64.799 66.508 1.189 15.073 o
3 8 9 28.631 28.698 1.069 46.606 o
3 8 10 28.816 27.683 1.013 48.250 o
3 8 11 47.305 49.648 1.131 23.831 o
3 8 12 71.586 70.066 1.489 12.622 o
3 8 13 44.553 47.926 1.437 23.367 o
3 8 14 53.404 53.713 1.658 17.953 o
3 8 15 56.253 59.248 1.777 15.954 o
3 8 16 1.797 1.129 0.711 350.747 o
3 9 0 100.726 97.618 1.620 7.344 o
3 9 1 18.812 20.456 0.910 76.737 o
3 9 2 29.865 29.050 0.720 51.786 o
3 9 3 32.581 32.108 0.866 43.677 o
3 9 4 275.521 266.241 2.806 1.210 o
3 9 5 35.344 37.315 0.933 37.272 o
3 9 6 86.686 89.115 1.245 9.457 o
3 9 7 31.761 33.812 0.926 42.698 o
3 9 8 14.079 16.642 0.769 108.728 o
3 9 9 18.544 22.573 0.932 73.671 o
3 9 10 17.736 17.100 0.903 84.727 o
3 9 11 16.317 14.559 0.804 100.793 o
3 9 12 105.023 105.899 2.057 6.393 o
3 9 13 100.932 101.154 2.092 6.787 o
3 9 14 20.118 20.357 1.256 58.427 o
3 9 15 22.526 24.100 1.271 51.831 o
3 10 0 0.126 0.133 0.460 969.124 o
3 10 1 123.097 122.476 1.775 5.133 o
3 10 2 92.984 92.558 1.784 8.051 o
3 10 3 7.500 5.360 0.622 237.653 o
3 10 4 6.547 7.029 0.622 239.475 o
3 10 5 61.061 62.325 1.461 15.651 o
3 10 6 38.172 36.102 1.149 32.880 o
3 10 7 11.422 10.221 0.695 151.590 o
3 10 8 41.827 39.401 1.155 29.280 o
3 10 9 40.712 38.996 1.135 30.297 o
3 10 10 2.441 2.543 0.581 424.375 o
3 10 11 28.944 27.535 1.004 48.385 o
3 10 12 7.731 6.826 0.990 137.623 o
3 10 13 14.491 13.635 1.034 90.638 o
3 10 14 7.250 7.797 0.985 138.358 o
3 10 15 22.464 19.237 2.774 21.405 o
3 11 0 13.680 11.525 0.749 125.619 o
3 11 1 394.319 396.699 3.230 0.603 o
3 11 2 40.422 45.138 1.235 27.692 o
3 11 3 10.191 9.490 0.725 159.318 o
3 11 4 10.544 10.465 0.772 145.471 o
3 11 5 35.370 36.158 1.111 35.480 o
3 11 6 53.493 53.468 1.372 19.381 o
3 11 7 38.458 39.756 1.214 30.700 o
3 11 8 52.584 50.194 1.436 19.901 o
3 11 9 270.845 282.923 2.808 1.190 o
3 11 10 12.938 11.024 0.787 126.779 o
3 11 11 19.046 20.506 1.258 59.882 o
3 11 12 10.388 8.933 0.933 127.004 o
3 11 13 40.862 41.871 1.476 26.093 o
3 11 14 70.148 65.633 3.576 7.999 o
3 12 0 6.117 6.241 0.648 243.768 o
3 12 1 11.618 12.424 0.781 131.105 o
3 12 2 62.719 62.787 1.267 15.806 o
3 12 3 31.667 33.271 1.199 38.571 o
3 12 4 109.833 109.286 2.064 5.998 o
3 12 5 92.492 98.302 1.973 7.642 o
3 12 6 5.165 6.575 0.847 188.816 o
3 12 7 65.972 70.907 1.504 13.542 o
3 12 8 0.415 0.013 0.619 530.272 o
3 12 9 18.237 18.666 1.252 62.992 o
3 12 10 2.985 3.610 0.690 307.571 o
3 12 11 28.694 27.839 1.535 37.086 o
3 12 12 43.386 42.119 2.236 18.684 o
3 13 0 27.494 30.473 1.200 44.027 o
3 13 1 86.152 83.949 1.483 9.546 o
3 13 2 59.855 60.841 1.330 16.587 o
3 13 3 1.956 2.011 0.615 419.990 o
3 13 4 28.028 29.260 1.296 42.020 o
3 13 5 82.872 83.032 1.833 9.480 o
3 13 6 21.532 19.610 1.020 66.373 o
3 13 7 10.885 7.475 0.840 142.328 o
3 13 8 51.871 51.819 1.430 19.899 o
3 13 9 95.339 98.109 2.089 7.302 o
3 13 10 15.998 15.394 0.987 86.936 o
3 13 11 9.382 9.142 2.405 32.560 o
3 14 0 3.387 3.287 0.598 363.377 o
3 14 1 4.085 3.598 0.663 299.549 o
3 14 2 89.144 92.577 1.806 8.378 o
3 14 3 33.501 32.744 1.256 36.307 o
3 14 4 8.777 7.356 0.800 165.214 o
3 14 5 26.066 26.295 1.136 49.716 o
3 14 6 34.370 36.615 1.191 35.014 o
3 14 7 19.848 20.090 1.054 67.809 o
3 14 8 1.726 2.872 0.740 310.282 o
3 14 9 29.440 34.657 2.989 16.585 o
3 15 0 40.392 36.486 1.304 29.542 o
3 15 1 23.623 22.055 1.031 59.760 o
3 15 2 1.104 1.226 0.625 459.332 o
3 15 3 17.531 18.736 0.994 77.686 o
3 15 4 10.602 11.269 0.893 125.339 o
3 15 5 7.087 6.199 0.851 172.464 o
3 15 6 14.370 13.154 1.317 71.290 o
3 15 7 9.504 9.295 1.736 56.401 o
3 16 0 119.220 120.500 4.195 3.932 o
3 16 1 12.622 10.738 2.612 27.086 o
3 16 2 31.590 36.243 2.600 19.296 o
3 16 3 46.218 46.947 4.456 7.846 o
4 0 0 282.676 297.269 2.413 1.108 o
4 0 1 6.486 5.317 0.323 385.821 o
4 0 2 4.708 5.672 0.371 428.906 o
4 0 3 105.159 100.787 1.347 7.076 o
4 0 4 5.478 6.591 0.286 418.966 o
4 0 5 5.785 3.815 0.205 521.060 o
4 0 6 31.703 33.902 0.499 48.676 o
4 0 7 112.124 119.347 0.767 6.199 o
4 0 8 10.249 13.484 0.380 194.032 o
4 0 9 2.546 1.622 0.304 890.224 o
4 0 10 131.900 130.175 1.410 4.710 o
4 0 11 25.491 23.630 0.663 66.122 o
4 0 12 1.168 0.806 0.440 819.541 o
4 0 13 0.061 -0.082 0.433 1116.180 o
4 0 14 86.404 88.486 1.497 9.241 o
4 0 15 230.839 239.766 2.605 1.605 o
4 0 16 19.389 19.983 1.116 66.000 o
4 0 17 37.006 38.148 1.420 29.762 o
4 0 18 79.179 77.825 2.215 9.519 o
4 1 0 49.982 45.399 0.492 26.652 o
4 1 1 771.260 806.554 2.012 0.163 o
4 1 2 21.496 22.652 0.550 81.451 o
4 1 3 141.803 137.416 0.758 4.316 o
4 1 4 78.061 80.664 1.165 11.272 o
4 1 5 247.356 246.477 1.225 1.508 o
4 1 6 405.009 385.149 2.324 0.602 o
4 1 7 96.636 99.409 0.898 8.131 o
4 1 8 102.464 98.299 0.968 7.616 o
4 1 9 135.200 129.853 1.187 4.640 o
4 1 10 34.190 35.259 0.665 42.711 o
4 1 11 4.984 4.349 0.375 444.974 o
4 1 12 72.920 73.015 1.088 12.907 o
4 1 13 47.671 46.889 1.139 24.255 o
4 1 14 52.013 53.196 1.264 20.469 o
4 1 15 3.258 4.252 0.640 324.589 o
4 1 16 40.381 41.114 1.311 28.138 o
4 1 17 92.609 94.614 1.939 7.823 o
4 1 18 14.814 10.331 1.275 75.956 o
4 2 0 127.770 132.094 0.727 5.011 o
4 2 1 450.501 451.526 2.069 0.477 o
4 2 2 20.989 24.304 0.360 86.082 o
4 2 3 319.420 330.143 1.348 0.908 o
4 2 4 542.029 517.969 2.875 0.342 o
4 2 5 313.995 294.880 2.684 0.972 o
4 2 6 97.159 96.804 0.744 8.287 o
4 2 7 138.373 143.389 1.143 4.268 o
4 2 8 65.879 60.291 0.847 16.395 o
4 2 9 47.523 47.157 0.799 26.233 o
4 2 10 216.572 213.270 1.682 1.923 o
4 2 11 28.778 27.602 0.770 53.645 o
4 2 12 138.845 139.926 1.742 4.168 o
4 2 13 92.169 91.428 1.414 8.566 o
4 2 14 170.724 176.581 2.070 2.813 o
4 2 15 38.791 39.751 1.340 29.147 o
4 2 16 9.568 9.755 0.894 135.047 o
4 2 17 50.635 49.005 1.482 20.518 o
4 2 18 117.633 111.888 2.654 5.137 o
4 3 0 15.944 19.600 0.497 112.346 o
4 3 1 334.663 339.171 1.316 0.842 o
4 3 2 18.609 18.106 0.537 101.041 o
4 3 3 69.629 68.017 0.866 14.476 o
4 3 4 42.558 43.669 0.862 29.887 o
4 3 5 328.064 335.341 2.483 0.854 o
4 3 6 61.778 60.048 1.010 17.172 o
4 3 7 7.528 7.493 0.401 289.720 o
4 3 8 0.578 0.594 0.308 1623.560 o
4 3 9 55.726 56.681 1.084 19.346 o
4 3 10 68.175 73.472 1.242 13.481 o
4 3 11 92.739 89.816 1.584 8.417 o
4 3 12 24.790 24.997 0.923 58.643 o
4 3 13 29.835 29.696 1.003 45.937 o
4 3 14 47.368 47.220 1.195 23.962 o
4 3 15 61.471 58.419 1.715 15.107 o
4 3 16 12.914 12.747 0.911 109.048 o
4 3 17 15.340 15.368 0.945 92.070 o
4 4 0 768.893 808.975 2.964 0.163 o
4 4 1 0.266 0.204 0.235 3018.820 o
4 4 2 98.897 94.813 0.775 8.199 o
4 4 3 103.745 104.244 1.525 6.934 o
4 4 4 230.002 222.113 1.697 1.741 o
4 4 5 490.313 492.892 2.403 0.403 o
4 4 6 42.002 39.809 0.859 31.624 o
4 4 7 18.140 19.183 0.573 98.873 o
4 4 8 119.460 113.721 1.364 5.718 o
4 4 9 33.135 34.313 0.762 43.274 o
4 4 10 8.370 7.775 0.705 188.024 o
4 4 11 15.261 15.109 0.840 101.106 o
4 4 12 29.989 31.094 0.949 45.948 o
4 4 13 47.028 44.422 1.173 24.924 o
4 4 14 29.352 28.249 1.286 41.422 o
4 4 15 11.045 11.041 0.858 128.214 o
4 4 16 4.454 6.337 0.856 194.077 o
4 4 17 21.403 20.368 1.069 63.868 o
4 5 0 474.488 460.143 2.562 0.438 o
4 5 1 174.211 168.303 1.457 2.909 o
4 5 2 118.905 113.560 1.020 5.884 o
4 5 3 22.530 21.711 0.606 77.805 o
4 5 4 188.430 187.261 2.020 2.427 o
4 5 5 2.069 2.181 0.365 786.099 o
4 5 6 2.779 0.662 0.320 895.978 o
4 5 7 18.924 20.110 0.635 90.823 o
4 5 8 45.493 40.236 0.877 28.993 o
4 5 9 99.389 94.455 1.148 7.950 o
4 5 10 7.222 5.819 0.592 248.849 o
4 5 11 93.549 89.467 1.359 8.578 o
4 5 12 23.081 24.433 1.004 59.551 o
4 5 13 19.793 19.228 0.975 72.614 o
4 5 14 20.440 17.766 0.949 74.088 o
4 5 15 0.045 0.782 0.648 485.167 o
4 5 16 12.315 11.279 0.872 119.290 o
4 5 17 25.830 24.905 2.419 24.338 o
4 6 0 13.245 14.538 0.540 141.166 o
4 6 1 36.208 39.676 0.758 37.325 o
4 6 2 305.325 298.064 1.784 1.019 o
4 6 3 24.092 21.475 0.711 70.452 o
4 6 4 14.331 16.401 0.802 105.339 o
4 6 5 25.791 23.974 0.704 64.006 o
4 6 6 161.269 152.885 1.824 3.313 o
4 6 7 55.888 56.990 1.041 19.398 o
4 6 8 16.877 16.047 0.725 101.301 o
4 6 9 179.148 182.360 1.917 2.630 o
4 6 10 157.232 164.200 1.972 3.246 o
4 6 11 97.593 92.191 1.575 7.870 o
4 6 12 121.767 125.168 1.807 5.118 o
4 6 13 2.101 3.264 0.699 325.366 o
4 6 14 3.593 2.251 0.715 293.724 o
4 6 15 0.830 0.371 0.704 394.990 o
4 6 16 52.119 55.966 1.732 17.621 o
4 6 17 34.686 37.206 3.861 10.817 o
4 7 0 13.920 12.290 0.549 143.607 o
4 7 1 322.348 306.003 2.138 0.930 o
4 7 2 117.579 111.563 1.305 5.911 o
4 7 3 280.409 274.433 2.034 1.187 o
4 7 4 110.033 107.784 1.491 6.400 o
4 7 5 208.193 215.262 2.197 1.968 o
4 7 6 39.961 35.565 0.973 33.687 o
4 7 7 317.291 296.795 3.075 0.946 o
4 7 8 124.522 121.926 1.495 5.194 o
4 7 9 72.515 74.466 1.517 12.033 o
4 7 10 43.707 43.722 1.197 26.613 o
4 7 11 128.454 132.715 1.764 4.683 o
4 7 12 55.737 58.911 1.728 16.330 o
4 7 13 36.968 34.108 1.561 29.227 o
4 7 14 16.650 16.113 1.215 70.075 o
4 7 15 43.907 47.874 1.554 22.764 o
4 7 16 6.218 6.606 1.695 63.575 o
4 8 0 148.134 145.204 1.576 3.825 o
4 8 1 18.433 16.919 0.735 92.948 o
4 8 2 61.039 56.443 1.088 17.680 o
4 8 3 15.175 12.848 0.731 115.895 o
4 8 4 12.995 13.749 0.683 130.347 o
4 8 5 54.138 56.714 1.229 19.284 o
4 8 6 31.202 33.792 1.012 41.907 o
4 8 7 102.900 100.808 1.457 7.174 o
4 8 8 5.968 4.615 0.560 298.962 o
4 8 9 14.680 15.759 0.952 93.071 o
4 8 10 57.753 63.357 1.452 16.374 o
4 8 11 25.709 25.338 1.124 51.168 o
4 8 12 138.644 140.597 2.114 4.050 o
4 8 13 12.712 13.649 1.228 80.290 o
4 8 14 5.809 5.988 0.847 185.663 o
4 8 15 10.861 11.184 1.132 96.851 o
4 9 0 3.048 2.209 0.494 496.522 o
4 9 1 4.235 4.766 0.547 349.921 o
4 9 2 4.931 5.583 0.533 326.347 o
4 9 3 8.104 8.153 0.612 211.876 o
4 9 4 94.349 91.161 1.488 8.294 o
4 9 5 6.113 5.219 0.642 254.658 o
4 9 6 9.133 7.827 0.673 187.093 o
4 9 7 49.731 51.177 1.180 22.169 o
4 9 8 160.978 163.018 1.992 3.170 o
4 9 9 5.859 5.311 0.698 236.377 o
4 9 10 94.452 95.374 1.769 7.815 o
4 9 11 31.305 32.630 1.254 38.233 o
4 9 12 143.811 140.643 2.544 3.749 o
4 9 13 2.304 3.205 0.847 238.921 o
4 9 14 21.698 22.038 1.503 46.648 o
4 10 0 0.021 -0.006 0.419 1207.420 o
4 10 1 6.501 7.175 0.639 233.496 o
4 10 2 135.142 130.764 1.936 4.401 o
4 10 3 43.442 42.587 1.284 26.332 o
4 10 4 68.341 72.568 1.436 13.102 o
4 10 5 34.285 32.953 1.163 36.993 o
4 10 6 116.456 121.686 1.754 5.487 o
4 10 7 46.610 43.179 1.210 25.171 o
4 10 8 80.136 84.045 1.467 10.306 o
4 10 9 13.133 14.467 0.942 101.680 o
4 10 10 26.345 26.740 1.207 47.270 o
4 10 11 1.044 1.324 0.696 381.528 o
4 10 12 119.796 124.664 2.541 4.843 o
4 10 13 2.608 1.408 0.873 234.334 o
4 11 0 4.155 4.654 0.630 304.320 o
4 11 1 86.640 86.535 1.616 9.174 o
4 11 2 14.400 14.915 0.852 103.883 o
4 11 3 15.995 15.750 0.954 88.762 o
4 11 4 108.328 111.286 1.860 6.167 o
4 11 5 4.240 4.142 0.743 251.768 o
4 11 6 54.724 56.838 1.650 17.200 o
4 11 7 35.776 36.321 1.309 32.512 o
4 11 8 125.519 131.237 2.129 4.684 o
4 11 9 0.212 0.910 0.686 427.068 o
4 11 10 21.010 23.884 1.156 58.118 o
4 11 11 8.905 9.627 0.927 133.942 o
4 11 12 48.741 46.416 3.980 9.063 o
4 12 0 22.665 22.606 1.331 50.673 o
4 12 1 5.348 4.214 0.676 262.557 o
4 12 2 85.261 87.498 1.639 9.243 o
4 12 3 16.123 14.369 0.973 89.110 o
4 12 4 11.365 10.768 0.888 123.403 o
4 12 5 5.383 4.436 0.787 216.736 o
4 12 6 121.568 121.717 2.026 5.103 o
4 12 7 71.909 76.332 1.941 11.064 o
4 12 8 100.343 106.511 2.498 6.281 o
4 12 9 14.534 13.482 1.091 86.263 o
4 12 10 40.843 41.022 1.551 25.597 o
4 12 11 25.220 22.145 2.828 19.924 o
4 13 0 7.247 5.728 0.820 180.840 o
4 13 1 77.936 79.242 1.814 10.329 o
4 13 2 31.813 31.945 1.182 39.326 o
4 13 3 12.991 11.991 0.945 106.808 o
4 13 4 23.270 21.658 1.149 56.585 o
4 13 5 42.759 47.983 1.416 24.290 o
4 13 6 37.238 38.677 1.497 28.580 o
4 13 7 0.442 0.598 0.689 420.225 o
4 13 8 2.356 2.155 0.876 231.833 o
4 13 9 2.380 1.291 1.287 118.879 o
4 13 10 7.304 5.299 2.672 27.835 o
4 14 0 23.165 22.212 1.122 57.219 o
4 14 1 12.822 12.294 0.956 105.779 o
4 14 2 49.921 54.505 1.550 19.450 o
4 14 3 3.375 3.154 0.705 295.279 o
4 14 4 107.681 110.100 2.013 6.136 o
4 14 5 44.325 42.505 1.516 24.008 o
4 14 6 86.482 84.587 2.212 8.455 o
4 14 7 17.990 19.028 2.064 35.058 o
4 15 0 0.483 0.393 1.187 147.894 o
4 15 1 73.514 69.876 2.957 8.932 o
4 15 2 11.152 10.957 1.480 68.224 o
4 15 3 66.053 71.716 5.593 4.741 o
5 0 1 50.770 51.602 0.508 24.502 o
5 0 2 0.813 1.332 0.283 1494.610 o
5 0 3 342.282 324.452 2.923 0.819 o
5 0 4 70.596 74.688 0.893 13.513 o
5 0 5 31.174 28.873 0.544 52.738 o
5 0 6 16.960 19.511 0.596 101.907 o
5 0 7 233.866 227.689 1.767 1.677 o
5 0 8 62.569 59.764 0.992 17.035 o
5 0 9 295.680 295.642 2.264 1.056 o
5 0 10 10.467 11.844 0.623 163.913 o
5 0 11 48.694 48.603 1.183 23.132 o
5 0 12 8.287 7.384 0.577 223.898 o
5 0 13 22.181 20.362 0.896 69.337 o
5 0 14 46.681 43.672 1.351 23.993 o
5 0 15 113.235 122.136 2.066 5.470 o
5 0 16 14.747 15.554 1.177 77.059 o
5 0 17 94.459 89.798 4.644 4.742 o
5 1 0 9.463 11.346 0.332 228.063 o
5 1 1 14.619 12.723 0.591 132.945 o
5 1 2 74.209 72.820 0.716 13.216 o
5 1 3 1.967 1.439 0.249 1195.770 o
5 1 4 5.875 5.654 0.496 318.216 o
5 1 5 13.041 11.533 0.515 157.550 o
5 1 6 32.830 34.834 0.750 43.482 o
5 1 7 50.733 48.328 0.971 23.456 o
5 1 8 6.326 5.370 0.520 299.633 o
5 1 9 3.673 3.525 0.466 457.497 o
5 1 10 40.356 41.633 0.959 31.302 o
5 1 11 94.008 92.313 1.436 8.322 o
5 1 12 147.989 145.934 1.828 3.760 o
5 1 13 29.765 28.081 0.980 47.486 o
5 1 14 0.818 0.050 0.671 437.549 o
5 1 15 15.363 15.098 1.132 79.083 o
5 1 16 16.665 16.868 1.087 76.722 o
5 1 17 18.267 19.173 1.932 38.171 o
5 2 0 201.662 191.789 1.181 2.269 o
5 2 1 51.692 53.428 0.653 23.166 o
5 2 2 23.485 22.419 0.437 79.048 o
5 2 3 204.135 194.896 1.165 2.215 o
5 2 4 754.434 777.790 3.360 0.171 o
5 2 5 82.056 78.316 1.134 10.893 o
5 2 6 24.714 24.020 0.668 67.306 o
5 2 7 81.761 81.281 1.002 10.878 o
5 2 8 260.017 254.318 2.238 1.358 o
5 2 9 114.197 115.696 1.494 5.901 o
5 2 10 0.910 1.752 0.442 783.882 o
5 2 11 3.683 3.708 0.554 379.844 o
5 2 12 50.541 47.654 1.247 22.183 o
5 2 13 0.018 -0.708 0.483 908.085 o
5 2 14 27.808 25.584 1.172 47.086 o
5 2 15 15.797 14.234 1.100 81.272 o
5 2 16 4.219 4.945 0.937 178.569 o
5 2 17 113.453 113.996 3.728 4.510 o
5 3 0 6.341 6.848 0.266 384.175 o
5 3 1 44.334 44.498 0.549 30.284 o
5 3 2 421.406 424.075 2.071 0.540 o
5 3 3 308.549 304.303 1.886 0.991 o
5 3 4 24.678 25.509 0.714 64.462 o
5 3 5 11.169 9.730 0.619 167.784 o
5 3 6 20.527 17.884 0.685 86.714 o
5 3 7 64.027 58.671 0.916 16.973 o
5 3 8 64.865 62.647 1.131 15.673 o
5 3 9 175.900 171.775 2.101 2.757 o
5 3 10 400.021 408.423 3.150 0.582 o
5 3 11 62.373 62.336 1.494 15.235 o
5 3 12 47.268 45.535 1.344 23.382 o
5 3 13 52.266 51.778 1.209 20.910 o
5 3 14 23.637 22.021 1.185 54.531 o
5 3 15 24.865 23.874 1.316 47.740 o
5 3 16 45.453 50.210 1.624 21.237 o
5 4 0 326.882 326.916 1.567 0.885 o
5 4 1 14.390 13.624 0.424 146.867 o
5 4 2 40.987 37.842 0.673 34.648 o
5 4 3 337.095 327.844 1.906 0.846 o
5 4 4 66.748 64.899 1.091 15.044 o
5 4 5 248.285 239.327 1.909 1.505 o
5 4 6 10.622 9.694 0.579 180.094 o
5 4 7 21.457 20.016 0.700 79.801 o
5 4 8 27.065 24.682 0.775 58.946 o
5 4 9 17.635 18.701 1.040 74.957 o
5 4 10 2.819 2.745 0.593 395.592 o
5 4 11 41.952 38.075 1.080 30.318 o
5 4 12 6.889 7.434 0.784 185.337 o
5 4 13 20.187 18.280 0.897 76.624 o
5 4 14 34.878 33.948 1.170 35.971 o
5 4 15 64.154 66.969 1.652 13.870 o
5 4 16 12.380 10.638 1.036 102.374 o
5 5 0 73.599 69.005 0.864 13.523 o
5 5 1 146.021 142.329 1.209 4.011 o
5 5 2 137.280 136.117 1.582 4.336 o
5 5 3 34.697 37.547 0.971 37.273 o
5 5 4 76.136 75.720 1.135 12.020 o
5 5 5 7.185 7.358 0.555 248.280 o
5 5 6 12.369 12.585 0.638 143.605 o
5 5 7 53.243 55.402 1.402 19.003 o
5 5 8 78.269 80.486 1.539 10.681 o
5 5 9 139.021 138.006 1.996 4.118 o
5 5 10 46.802 46.815 1.303 23.589 o
5 5 11 17.274 17.354 1.016 78.825 o
5 5 12 18.238 19.174 1.040 72.989 o
5 5 13 4.532 4.439 0.657 284.627 o
5 5 14 21.582 19.998 0.973 67.858 o
5 5 15 41.068 42.757 1.506 25.502 o
5 5 16 1.642 0.126 1.732 69.180 o
5 6 0 69.282 64.204 0.995 14.746 o
5 6 1 271.507 260.963 2.466 1.260 o
5 6 2 122.522 121.081 1.246 5.404 o
5 6 3 12.336 10.950 0.729 137.922 o
5 6 4 114.439 108.844 1.707 5.972 o
5 6 5 39.764 36.626 1.134 31.736 o
5 6 6 169.710 163.058 2.158 2.951 o
5 6 7 4.003 3.478 0.557 371.103 o
5 6 8 16.789 19.316 0.871 86.234 o
5 6 9 14.669 14.275 1.031 89.343 o
5 6 10 12.303 11.816 0.880 117.201 o
5 6 11 6.777 7.385 0.822 177.038 o
5 6 12 17.756 15.347 0.957 83.890 o
5 6 13 13.426 12.704 0.890 109.035 o
5 6 14 41.923 42.245 1.355 26.587 o
5 6 15 8.806 8.672 1.000 125.816 o
5 7 0 2.208 1.681 0.382 763.423 o
5 7 1 13.234 11.612 0.552 151.165 o
5 7 2 71.158 68.074 1.415 13.044 o
5 7 3 4.470 4.121 0.517 372.551 o
5 7 4 18.367 17.313 0.911 82.122 o
5 7 5 30.359 32.055 0.975 44.456 o
5 7 6 79.677 87.606 1.700 9.790 o
5 7 7 14.173 15.204 0.856 103.872 o
5 7 8 27.716 28.321 1.085 47.597 o
5 7 9 156.317 161.480 2.029 3.289 o
5 7 10 61.355 60.611 1.539 15.517 o
5 7 11 102.231 100.968 1.883 6.887 o
5 7 12 1.080 0.855 0.679 405.031 o
5 7 13 93.305 95.746 2.198 7.428 o
5 7 14 105.833 108.617 2.224 6.130 o
5 7 15 52.060 48.663 3.745 9.481 o
5 8 0 82.697 81.346 1.388 10.260 o
5 8 1 21.214 17.852 0.921 73.461 o
5 8 2 212.863 207.721 2.380 1.943 o
5 8 3 51.742 50.948 1.281 20.891 o
5 8 4 20.686 19.737 0.925 72.259 o
5 8 5 10.881 11.184 0.776 140.168 o
5 8 6 35.653 38.109 1.122 34.336 o
5 8 7 40.724 38.266 1.266 29.207 o
5 8 8 171.889 187.084 2.556 2.620 o
5 8 9 34.755 36.081 1.369 32.487 o
5 8 10 67.223 66.892 1.930 12.510 o
5 8 11 22.315 20.972 1.154 58.435 o
5 8 12 33.596 34.944 1.361 33.801 o
5 8 13 27.732 32.800 1.911 29.488 o
5 8 14 40.831 47.599 4.351 8.388 o
5 9 0 0.065 -0.535 0.582 623.385 o
5 9 1 52.862 54.216 1.309 19.773 o
5 9 2 65.645 69.257 1.435 13.953 o
5 9 3 246.233 241.868 2.488 1.484 o
5 9 4 20.985 20.844 1.107 62.616 o
5 9 5 8.015 7.867 0.852 158.599 o
5 9 6 11.900 10.983 0.812 129.680 o
5 9 7 20.296 19.779 0.908 73.954 o
5 9 8 3.036 2.829 0.703 306.558 o
5 9 9 174.552 181.346 2.361 2.655 o
5 9 10 1.805 1.248 0.796 287.908 o
5 9 11 49.111 45.600 1.601 20.909 o
5 9 12 0.453 -0.434 0.777 341.440 o
5 9 13 35.433 42.761 3.402 12.646 o
5 10 0 0.887 1.697 0.611 475.501 o
5 10 1 27.176 27.281 1.085 48.955 o
5 10 2 24.131 24.234 1.134 53.839 o
5 10 3 105.278 105.496 1.595 6.732 o
5 10 4 62.310 61.446 1.494 15.350 o
5 10 5 21.883 24.153 1.147 56.847 o
5 10 6 13.694 13.873 0.972 98.067 o
5 10 7 1.584 1.045 0.652 412.632 o
5 10 8 1.848 1.934 0.717 334.397 o
5 10 9 8.700 7.587 0.886 148.201 o
5 10 10 88.012 93.715 2.028 8.156 o
5 10 11 65.200 69.995 1.790 12.991 o
5 10 12 3.925 5.954 2.025 48.042 o
5 11 0 13.481 13.036 1.011 96.765 o
5 11 1 18.341 20.148 1.206 63.672 o
5 11 2 4.488 4.723 0.717 254.817 o
5 11 3 16.155 15.481 0.889 93.362 o
5 11 4 29.117 30.431 1.462 37.186 o
5 11 5 240.352 244.533 3.267 1.471 o
5 11 6 11.148 10.329 0.857 129.731 o
5 11 7 0.543 1.023 0.667 434.654 o
5 11 8 11.136 9.150 1.124 100.056 o
5 11 9 99.853 104.869 2.293 6.551 o
5 11 10 38.877 39.938 1.808 24.171 o
5 11 11 2.730 5.010 1.557 79.813 o
5 12 0 151.885 158.574 3.047 3.169 o
5 12 1 43.749 48.546 1.723 21.423 o
5 12 2 12.775 13.242 1.364 71.148 o
5 12 3 11.556 10.308 1.415 72.444 o
5 12 4 102.318 104.388 1.993 6.670 o
5 12 5 3.158 2.999 0.811 245.416 o
5 12 6 14.680 12.230 1.114 85.797 o
5 12 7 25.745 26.868 1.493 40.795 o
5 12 8 95.000 102.395 2.668 6.558 o
5 12 9 1.773 0.129 1.166 147.763 o
5 13 0 0.240 1.205 0.768 339.923 o
5 13 1 8.714 11.369 1.270 89.094 o
5 13 2 1.537 0.804 0.792 299.227 o
5 13 3 35.144 34.328 1.627 29.321 o
5 13 4 11.244 9.657 0.995 113.266 o
5 13 5 17.509 19.288 1.242 64.155 o
5 13 6 33.603 34.886 1.510 31.670 o
5 13 7 6.702 7.057 1.687 63.304 o
5 14 0 52.260 57.755 2.346 14.402 o
5 14 1 70.081 74.632 2.621 9.807 o
5 14 2 1.791 0.085 0.828 278.257 o
5 14 3 77.349 80.897 3.922 6.494 o
5 14 4 35.935 29.950 3.462 12.956 o
6 0 0 3.172 0.646 0.531 488.797 o
6 0 1 95.560 92.701 1.215 8.344 o
6 0 2 80.731 84.922 1.246 10.472 o
6 0 3 93.919 99.397 1.516 7.929 o
6 0 4 38.862 35.486 0.893 35.443 o
6 0 5 2.119 1.724 0.497 564.502 o
6 0 6 0.074 -0.063 0.436 1099.450 o
6 0 7 345.202 348.279 2.129 0.788 o
6 0 8 38.486 36.468 1.065 33.469 o
6 0 9 93.410 93.835 1.402 8.337 o
6 0 10 55.165 54.531 1.095 19.867 o
6 0 11 7.164 6.947 0.646 223.256 o
6 0 12 24.851 25.107 0.994 56.332 o
6 0 13 55.650 57.719 1.568 17.202 o
6 0 14 80.487 83.298 1.883 9.655 o
6 0 15 110.152 112.745 2.773 5.372 o
6 1 0 231.110 224.154 2.205 1.694 o
6 1 1 75.846 75.887 1.129 12.063 o
6 1 2 107.766 106.325 1.238 6.744 o
6 1 3 106.931 97.973 1.638 6.850 o
6 1 4 46.425 44.203 1.160 25.367 o
6 1 5 19.245 16.496 0.661 94.989 o
6 1 6 177.556 178.500 1.825 2.703 o
6 1 7 100.392 97.679 1.422 7.525 o
6 1 8 103.601 102.244 1.630 6.943 o
6 1 9 0.228 -0.138 0.397 1274.540 o
6 1 10 53.317 54.911 1.259 19.733 o
6 1 11 44.011 43.987 1.180 26.515 o
6 1 12 8.277 7.830 0.639 204.782 o
6 1 13 3.633 3.360 0.729 275.035 o
6 1 14 73.846 72.070 2.318 10.234 o
6 1 15 3.905 3.181 0.958 181.931 o
6 2 0 115.299 103.538 1.396 6.250 o
6 2 1 74.296 67.253 0.953 13.423 o
6 2 2 3.188 3.281 0.338 641.623 o
6 2 3 88.492 82.235 1.223 9.675 o
6 2 4 60.076 55.424 1.365 17.133 o
6 2 5 282.613 276.749 2.934 1.141 o
6 2 6 58.582 56.637 1.267 17.755 o
6 2 7 78.602 79.411 1.457 10.845 o
6 2 8 7.580 7.960 0.740 186.868 o
6 2 9 33.982 33.315 1.144 37.372 o
6 2 10 14.509 13.888 0.731 116.705 o
6 2 11 48.167 48.707 1.110 23.780 o
6 2 12 5.954 5.692 0.645 252.024 o
6 2 13 286.668 295.857 3.101 1.072 o
6 2 14 29.527 31.949 1.347 38.398 o
6 2 15 7.464 7.911 1.086 120.644 o
6 3 0 29.670 31.732 0.740 49.730 o
6 3 1 64.388 68.186 1.179 14.999 o
6 3 2 60.496 60.859 1.031 17.366 o
6 3 3 8.596 7.502 0.542 227.793 o
6 3 4 11.836 14.157 0.901 111.654 o
6 3 5 39.940 37.098 1.082 32.003 o
6 3 6 61.565 62.484 1.248 16.195 o
6 3 7 12.745 13.173 0.899 110.066 o
6 3 8 61.402 57.459 1.479 16.097 o
6 3 9 47.329 47.390 1.165 24.129 o
6 3 10 37.880 36.101 1.244 31.961 o
6 3 11 35.595 31.674 1.257 35.059 o
6 3 12 51.490 52.529 1.261 20.797 o
6 3 13 19.093 17.649 0.962 76.891 o
6 3 14 18.182 18.797 1.084 71.245 o
6 3 15 3.840 2.534 0.972 180.860 o
6 4 0 314.954 313.818 2.445 0.937 o
6 4 1 57.412 61.413 1.140 17.849 o
6 4 2 44.862 43.606 0.988 27.577 o
6 4 3 32.750 32.601 0.917 42.420 o
6 4 4 19.016 15.527 0.947 80.746 o
6 4 5 59.439 60.459 1.397 16.513 o
6 4 6 126.338 123.183 1.652 5.020 o
6 4 7 2.826 2.945 0.588 396.181 o
6 4 8 33.306 33.933 1.067 38.882 o
6 4 9 22.867 25.203 0.993 59.625 o
6 4 10 17.673 17.360 0.970 80.536 o
6 4 11 21.460 23.100 1.072 61.142 o
6 4 12 2.780 1.993 0.605 398.901 o
6 4 13 0.079 0.778 0.584 590.400 o
6 4 14 17.118 17.587 1.018 78.822 o
6 4 15 6.432 2.461 1.419 89.384 o
6 5 0 346.579 340.631 3.078 0.780 o
6 5 1 114.768 118.337 1.598 5.743 o
6 5 2 7.334 8.584 0.757 182.041 o
6 5 3 168.448 165.026 2.389 2.914 o
6 5 4 19.157 18.316 1.167 65.649 o
6 5 5 11.584 10.765 0.771 137.671 o
6 5 6 38.730 39.377 1.171 31.104 o
6 5 7 50.804 48.366 1.159 22.424 o
6 5 8 64.772 67.485 1.551 13.991 o
6 5 9 87.921 93.266 1.775 8.499 o
6 5 10 20.773 21.208 1.160 60.533 o
6 5 11 11.278 12.518 0.880 120.484 o
6 5 12 111.650 108.048 1.906 6.036 o
6 5 13 26.179 26.493 1.181 48.282 o
6 5 14 11.289 11.341 0.938 116.204 o
6 6 0 8.156 6.558 0.616 220.940 o
6 6 1 86.393 87.020 1.755 8.993 o
6 6 2 71.406 75.215 1.466 12.260 o
6 6 3 2.697 2.388 0.613 387.950 o
6 6 4 3.136 3.049 0.548 417.563 o
6 6 5 8.741 8.171 0.666 190.885 o
6 6 6 71.888 71.985 1.477 12.430 o
6 6 7 12.557 12.077 0.841 119.737 o
6 6 8 57.112 52.172 1.467 18.016 o
6 6 9 104.498 108.484 1.834 6.515 o
6 6 10 86.431 85.990 1.696 9.122 o
6 6 11 15.421 18.016 1.216 70.603 o
6 6 12 59.894 64.575 1.616 15.128 o
6 6 13 31.989 34.368 1.551 32.247 o
6 6 14 31.886 29.328 2.126 25.381 o
6 7 0 329.471 324.009 3.026 0.858 o
6 7 1 170.891 174.265 2.127 2.823 o
6 7 2 57.042 57.581 1.463 17.288 o
6 7 3 26.241 27.851 1.216 46.510 o
6 7 4 178.890 183.314 2.309 2.573 o
6 7 5 58.993 62.587 1.316 16.635 o
6 7 6 14.298 13.345 0.914 101.938 o
6 7 7 158.265 154.087 2.051 3.326 o
6 7 8 120.936 120.753 1.873 5.230 o
6 7 9 2.718 2.807 0.742 289.727 o
6 7 10 4.631 5.844 0.802 212.220 o
6 7 11 81.684 90.021 2.005 8.968 o
6 7 12 4.456 5.863 0.822 207.434 o
6 7 13 42.625 40.710 3.500 11.551 o
6 8 0 5.175 4.772 0.715 244.169 o
6 8 1 99.730 100.621 1.858 7.102 o
6 8 2 21.785 25.359 1.212 53.910 o
6 8 3 12.477 12.977 0.923 109.151 o
6 8 4 29.829 30.537 1.406 37.615 o
6 8 5 13.742 13.464 0.879 107.143 o
6 8 6 5.786 5.976 0.775 206.906 o
6 8 7 90.439 83.168 1.703 8.840 o
6 8 8 1.014 0.661 0.690 399.477 o
6 8 9 31.480 30.451 1.363 37.103 o
6 8 10 6.422 6.878 0.875 169.417 o
6 8 11 12.882 10.796 1.039 100.107 o
6 8 12 78.554 88.468 3.400 7.038 o
6 9 0 2.985 2.801 0.651 343.396 o
6 9 1 3.436 3.467 0.703 291.716 o
6 9 2 6.810 5.779 0.951 153.696 o
6 9 3 37.655 40.964 1.466 28.073 o
6 9 4 15.560 15.165 1.252 71.065 o
6 9 5 45.000 44.318 1.518 23.316 o
6 9 6 8.829 9.280 0.938 133.530 o
6 9 7 3.195 3.393 0.775 258.849 o
6 9 8 27.404 28.949 1.315 42.372 o
6 9 9 9.738 8.046 0.925 134.047 o
6 9 10 69.298 74.673 1.844 11.792 o
6 9 11 42.288 42.364 3.424 11.839 o
6 10 0 7.780 7.057 0.740 189.325 o
6 10 1 8.679 9.867 1.009 122.295 o
6 10 2 109.011 116.773 2.271 5.694 o
6 10 3 1.143 1.722 0.706 364.677 o
6 10 4 34.666 40.302 1.524 29.242 o
6 10 5 6.270 5.382 0.869 178.277 o
6 10 6 117.076 121.925 2.446 5.071 o
6 10 7 8.852 8.132 1.331 86.843 o
6 10 8 32.468 38.942 1.816 27.080 o
6 10 9 2.643 2.195 0.686 334.640 o
6 10 10 12.766 10.123 2.109 38.939 o
6 11 0 100.766 106.427 2.026 6.678 o
6 11 1 27.380 25.052 1.800 33.732 o
6 11 2 8.416 8.432 0.887 147.264 o
6 11 3 47.099 47.586 1.462 22.220 o
6 11 4 69.346 78.943 1.870 11.405 o
6 11 5 7.743 9.422 0.971 133.815 o
6 11 6 3.737 3.527 0.782 246.319 o
6 11 7 68.846 68.244 2.167 11.503 o
6 11 8 28.529 23.060 2.591 21.702 o
6 11 9 18.869 18.163 3.545 14.746 o
6 12 0 21.474 22.293 1.533 45.842 o
6 12 1 4.764 6.297 0.896 180.104 o
6 12 2 33.019 37.715 1.635 29.451 o
6 12 3 19.124 15.805 1.484 53.669 o
6 12 4 3.529 3.339 0.939 190.085 o
6 12 5 23.974 25.573 1.535 41.892 o
6 13 0 39.887 44.545 3.067 13.777 o
6 13 1 8.902 8.041 1.637 63.353 o
6 13 2 30.657 34.775 4.035 10.459 o
7 0 1 79.117 69.273 1.509 11.419 o
7 0 2 12.812 12.930 1.016 98.806 o
7 0 3 42.039 42.111 1.231 27.672 o
7 0 4 24.452 25.507 1.137 52.393 o
7 0 5 26.864 27.523 0.827 55.534 o
7 0 6 20.288 22.167 0.933 70.047 o
7 0 7 12.643 11.573 0.735 133.225 o
7 0 8 76.990 83.000 1.960 9.948 o
7 0 9 3.234 3.664 0.686 303.989 o
7 0 10 22.888 26.192 1.252 50.607 o
7 0 11 10.755 7.748 0.985 120.844 o
7 0 12 70.703 74.166 1.831 11.648 o
7 0 13 0.385 0.017 0.746 371.509 o
7 1 0 44.106 38.301 1.267 27.260 o
7 1 1 142.048 136.250 1.944 4.063 o
7 1 2 22.877 18.996 1.036 63.696 o
7 1 3 55.364 56.389 1.329 18.515 o
7 1 4 67.662 65.146 1.496 13.797 o
7 1 5 17.622 17.713 0.833 88.404 o
7 1 6 39.681 38.328 1.076 31.811 o
7 1 7 219.658 226.843 2.639 1.757 o
7 1 8 133.054 136.682 1.967 4.358 o
7 1 9 12.935 11.935 0.792 123.719 o
7 1 10 28.162 28.109 0.953 50.188 o
7 1 11 61.441 63.613 1.417 15.551 o
7 1 12 9.602 10.921 1.049 110.892 o
7 1 13 23.554 20.666 1.520 44.968 o
7 2 0 105.521 105.830 1.743 6.600 o
7 2 1 11.506 10.919 0.859 125.994 o
7 2 2 29.844 32.219 1.453 36.101 o
7 2 3 75.966 80.711 1.714 10.674 o
7 2 4 33.890 33.551 1.313 34.822 o
7 2 5 76.916 76.958 1.827 10.584 o
7 2 6 7.526 5.772 0.681 215.979 o
7 2 7 21.929 21.902 0.945 66.283 o
7 2 8 52.458 54.580 1.387 19.466 o
7 2 9 22.729 23.457 1.125 56.847 o
7 2 10 12.265 12.400 0.765 129.322 o
7 2 11 86.612 84.336 1.614 9.302 o
7 2 12 12.558 13.268 1.113 90.365 o
7 2 13 11.934 10.724 1.055 101.917 o
7 3 0 54.039 53.705 1.204 19.940 o
7 3 1 0.564 0.393 0.489 786.138 o
7 3 2 114.392 114.952 1.530 5.893 o
7 3 3 128.129 132.585 1.832 4.673 o
7 3 4 44.390 43.007 1.346 25.245 o
7 3 5 54.092 50.337 1.396 19.582 o
7 3 6 97.868 96.735 2.113 7.141 o
7 3 7 32.739 31.605 1.225 37.921 o
7 3 8 42.556 42.105 1.391 25.985 o
7 3 9 2.612 2.721 0.717 307.959 o
7 3 10 82.771 82.340 1.725 9.697 o
7 3 11 28.234 26.641 1.303 42.962 o
7 3 12 4.843 6.626 0.796 207.358 o
7 3 13 21.811 19.986 1.826 38.343 o
7 4 0 2.689 2.660 0.535 457.800 o
7 4 1 26.201 25.692 1.011 53.312 o
7 4 2 45.670 47.195 1.243 24.430 o
7 4 3 49.942 51.813 1.450 20.457 o
7 4 4 18.097 15.479 0.874 87.942 o
7 4 5 2.466 2.715 0.745 293.609 o
7 4 6 138.955 138.364 2.066 4.091 o
7 4 7 79.645 78.337 1.754 10.276 o
7 4 8 1.704 1.108 0.712 352.135 o
7 4 9 20.219 21.019 1.203 59.889 o
7 4 10 41.264 38.855 1.374 27.649 o
7 4 11 39.782 40.634 1.619 25.507 o
7 4 12 127.075 130.924 2.146 4.621 o
7 4 13 32.488 32.557 2.567 19.815 o
7 5 0 133.002 140.255 1.794 4.353 o
7 5 1 22.773 19.315 1.219 56.615 o
7 5 2 38.212 39.418 1.365 29.313 o
7 5 3 0.215 -0.316 0.632 520.856 o
7 5 4 82.387 80.951 1.663 9.922 o
7 5 5 28.027 28.626 1.285 42.578 o
7 5 6 51.305 49.326 1.457 20.372 o
7 5 7 43.341 40.997 1.672 23.411 o
7 5 8 35.461 37.579 1.557 29.143 o
7 5 9 21.835 17.721 1.236 58.609 o
7 5 10 91.082 94.039 2.106 7.781 o
7 5 11 14.653 11.984 0.935 101.328 o
7 5 12 31.718 31.633 1.745 30.274 o
7 6 0 0.211 0.342 0.569 625.529 o
7 6 1 56.568 58.276 1.492 17.202 o
7 6 2 42.413 46.380 1.332 25.506 o
7 6 3 153.567 153.762 2.316 3.384 o
7 6 4 9.803 9.582 0.848 141.219 o
7 6 5 90.370 94.383 1.991 7.965 o
7 6 6 33.992 35.162 1.410 32.742 o
7 6 7 15.332 16.547 1.195 73.499 o
7 6 8 1.997 1.641 0.923 218.302 o
7 6 9 8.275 7.153 0.991 133.611 o
7 6 10 89.809 87.342 2.521 7.616 o
7 6 11 15.036 20.466 1.503 55.035 o
7 6 12 32.743 35.204 5.325 6.499 o
7 7 0 29.794 29.309 1.199 42.256 o
7 7 1 40.063 42.018 1.383 27.354 o
7 7 2 71.120 71.485 1.819 11.815 o
7 7 3 59.840 61.842 1.765 14.907 o
7 7 4 5.043 4.576 0.869 192.812 o
7 7 5 33.408 35.265 1.404 33.198 o
7 7 6 2.493 2.875 0.789 266.796 o
7 7 7 3.187 4.087 0.924 194.659 o
7 7 8 3.447 5.005 0.933 185.653 o
7 7 9 23.832 21.524 1.197 54.198 o
7 7 10 7.908 7.131 1.100 118.445 o
7 7 11 11.874 12.397 3.116 19.785 o
7 8 0 55.705 61.559 1.846 15.522 o
7 8 1 74.016 75.643 1.881 10.953 o
7 8 2 47.176 43.710 1.636 21.702 o
7 8 3 38.525 40.302 1.437 28.102 o
7 8 4 44.756 43.248 1.710 22.117 o
7 8 5 35.164 34.386 1.465 31.471 o
7 8 6 2.715 2.284 0.885 222.837 o
7 8 7 42.913 39.754 1.837 22.392 o
7 8 8 0.865 1.148 0.801 302.497 o
7 8 9 6.478 7.873 1.028 134.737 o
7 8 10 53.908 51.621 5.216 5.870 o
7 9 0 2.586 1.697 0.768 287.067 o
7 9 1 51.012 56.012 1.691 18.136 o
7 9 2 6.920 7.908 1.071 125.291 o
7 9 3 52.437 57.549 1.670 17.625 o
7 9 4 63.634 64.527 1.771 13.840 o
7 9 5 114.949 121.006 2.708 5.021 o
7 9 6 3.966 3.754 1.037 158.185 o
7 9 7 24.284 24.284 1.675 38.746 o
7 9 8 11.625 12.768 1.592 59.686 o
7 9 9 20.328 17.418 3.222 17.247 o
7 10 0 75.050 78.353 1.859 10.676 o
7 10 1 36.542 39.264 1.412 29.809 o
7 10 2 29.588 27.347 1.307 41.198 o
7 10 3 46.663 49.488 1.850 19.430 o
7 10 4 28.074 26.388 1.593 36.937 o
7 10 5 28.055 25.557 1.530 38.577 o
7 10 6 19.673 20.320 1.711 42.989 o
7 11 0 7.544 7.911 1.329 90.301 o
7 11 1 126.923 130.271 2.763 4.352 o
7 11 2 8.730 7.627 1.481 74.695 o
7 11 3 0.970 1.644 1.092 167.494 o
7 11 4 16.383 17.848 1.953 39.195 o
7 11 5 3.621 3.222 2.093 46.035 o
8 0 0 81.733 80.678 3.415 7.059 o
8 0 1 0.092 0.374 0.772 350.228 o
8 0 2 73.116 74.743 2.139 10.567 o
8 0 3 0.051 -0.154 0.622 546.696 o
8 0 4 362.435 364.650 3.666 0.698 o
8 0 5 71.391 74.907 1.819 11.516 o
8 0 6 17.411 18.185 1.121 71.597 o
8 0 7 5.231 4.246 0.863 194.514 o
8 0 8 39.153 36.453 1.495 28.166 o
8 0 9 17.006 16.747 1.355 61.615 o
8 0 10 3.697 4.458 1.190 125.811 o
8 0 11 13.021 13.460 3.011 20.792 o
8 1 0 43.490 45.582 1.559 23.358 o
8 1 1 30.945 31.407 1.444 35.732 o
8 1 2 91.381 93.279 1.830 8.112 o
8 1 3 38.396 37.325 1.756 25.463 o
8 1 4 43.773 44.407 1.475 24.169 o
8 1 5 34.447 38.203 1.428 31.213 o
8 1 6 46.819 46.596 1.465 22.505 o
8 1 7 2.320 1.314 0.874 238.130 o
8 1 8 10.102 9.651 1.083 107.313 o
8 1 9 56.262 62.740 1.692 15.894 o
8 1 10 17.656 16.326 1.413 58.277 o
8 1 11 9.315 9.409 1.804 53.104 o
8 2 0 57.294 54.796 1.429 17.750 o
8 2 1 7.437 6.814 0.744 193.164 o
8 2 2 50.906 50.792 1.283 21.222 o
8 2 3 21.898 19.072 1.128 61.727 o
8 2 4 39.901 45.697 1.742 23.235 o
8 2 5 89.397 88.298 2.337 7.862 o
8 2 6 2.821 2.476 0.844 238.024 o
8 2 7 6.670 4.350 0.962 156.709 o
8 2 8 0.612 0.925 0.859 271.726 o
8 2 9 23.363 24.537 1.376 47.355 o
8 2 10 14.204 13.583 1.175 80.738 o
8 2 11 0.448 1.001 3.018 23.223 o
8 3 0 1.835 2.328 0.660 375.971 o
8 3 1 55.991 56.476 1.414 17.946 o
8 3 2 54.953 56.616 1.468 17.992 o
8 3 3 57.940 56.677 1.453 17.204 o
8 3 4 82.861 86.028 1.806 9.356 o
8 3 5 13.655 13.719 0.920 103.134 o
8 3 6 28.128 27.545 1.265 43.459 o
8 3 7 37.735 36.861 1.513 28.624 o
8 3 8 39.079 41.268 1.543 26.460 o
8 3 9 8.337 6.998 1.004 131.568 o
8 3 10 51.303 51.397 1.665 18.863 o
8 3 11 77.500 74.235 7.151 3.140 o
8 4 0 6.582 5.045 0.799 196.260 o
8 4 1 2.950 3.568 0.743 277.802 o
8 4 2 3.273 4.230 0.775 251.129 o
8 4 3 32.190 28.612 1.295 38.495 o
8 4 4 22.542 22.494 1.091 59.107 o
8 4 5 94.893 94.828 1.955 7.608 o
8 4 6 14.675 14.461 1.247 73.842 o
8 4 7 52.217 54.897 1.827 17.251 o
8 4 8 54.097 59.608 1.883 15.949 o
8 4 9 5.622 7.010 1.017 143.520 o
8 4 10 80.014 81.385 3.433 7.113 o
8 5 0 4.164 3.081 0.692 287.068 o
8 5 1 33.106 33.780 1.231 36.589 o
8 5 2 31.768 31.713 1.240 38.469 o
8 5 3 44.209 47.072 1.448 23.609 o
8 5 4 9.975 9.270 0.978 121.883 o
8 5 5 17.359 18.712 1.146 69.805 o
8 5 6 40.788 42.387 1.484 25.930 o
8 5 7 53.874 57.581 1.881 16.247 o
8 5 8 9.046 8.529 1.299 89.036 o
8 5 9 45.969 49.018 3.155 12.275 o
8 6 0 3.666 3.323 0.866 214.271 o
8 6 1 15.200 12.597 0.896 101.516 o
8 6 2 13.674 12.978 0.917 104.873 o
8 6 3 81.537 86.029 1.748 9.592 o
8 6 4 34.310 33.895 1.533 31.206 o
8 6 5 15.336 15.531 1.037 85.171 o
8 6 6 4.080 3.319 0.807 232.437 o
8 6 7 29.009 29.235 1.637 34.416 o
8 6 8 3.714 6.253 1.899 54.114 o
8 7 0 8.915 6.214 0.964 137.305 o
8 7 1 3.967 4.134 0.736 259.116 o
8 7 2 3.919 3.498 0.720 273.140 o
8 7 3 41.784 44.762 1.562 24.228 o
8 7 4 5.887 6.291 0.871 177.311 o
8 7 5 6.355 4.927 0.939 162.267 o
8 7 6 47.407 46.459 2.039 18.415 o
8 7 7 3.161 3.798 2.175 42.835 o
8 8 0 41.924 46.236 1.752 22.281 o
8 8 1 59.627 64.106 1.784 14.641 o
8 8 2 154.858 153.375 2.710 3.255 o
8 8 3 29.351 32.438 1.538 34.860 o
8 8 4 8.271 7.038 1.032 127.259 o
8 8 5 17.303 20.464 2.062 35.099 o
8 9 0 4.365 3.548 1.643 71.220 o
8 9 1 52.773 54.567 2.505 13.867 o
8 9 2 0.357 -0.115 1.090 176.765 o
8 9 3 30.620 32.239 1.940 27.823 o
8 9 4 37.898 35.528 3.380 12.889 o
9 0 1 143.191 141.105 2.861 3.650 o
9 0 2 13.106 14.091 1.451 64.550 o
9 0 3 28.511 26.962 1.854 31.534 o
9 0 4 31.700 33.298 2.001 26.289 o
9 0 5 27.184 27.763 1.689 35.139 o
9 0 6 14.307 14.717 1.833 45.566 o
9 0 7 18.022 17.375 2.958 20.275 o
9 1 0 17.638 18.590 1.509 52.779 o
9 1 1 38.861 42.037 1.786 23.967 o
9 1 2 128.889 132.431 2.762 4.249 o
9 1 3 51.204 49.884 1.919 17.676 o
9 1 4 13.851 13.412 1.286 74.020 o
9 1 5 78.273 83.170 2.367 9.053 o
9 1 6 7.953 7.828 2.185 39.469 o
9 1 7 0.647 -0.433 2.135 46.324 o
9 2 0 7.642 8.493 1.132 112.361 o
9 2 1 68.739 71.283 2.419 10.650 o
9 2 2 12.999 12.519 1.246 79.570 o
9 2 3 33.564 33.130 1.598 30.971 o
9 2 4 28.106 26.849 1.590 36.804 o
9 2 5 6.377 7.223 0.993 143.347 o
9 2 6 85.256 89.493 3.295 6.760 o
9 2 7 14.645 15.498 2.281 32.372 o
9 3 0 13.559 17.823 1.874 43.544 o
9 3 1 4.046 3.772 1.126 137.922 o
9 3 2 13.791 14.912 1.380 66.949 o
9 3 3 2.006 3.027 0.896 221.997 o
9 3 4 0.540 0.162 0.789 327.685 o
9 3 5 35.285 36.719 2.242 21.666 o
9 3 6 24.604 23.208 1.766 36.795 o
9 4 0 55.198 54.661 2.250 14.577 o
9 4 1 3.552 2.889 1.051 159.793 o
9 4 2 11.745 16.746 1.717 51.457 o
9 4 3 18.205 18.317 1.273 62.363 o
9 4 4 10.605 8.105 1.672 59.254 o
9 4 5 0.911 1.738 1.230 133.718 o
9 4 6 37.262 33.556 4.388 8.819 o
9 5 0 10.012 7.852 1.473 72.980 o
9 5 1 9.473 8.272 1.285 89.598 o
9 5 2 31.523 37.897 2.990 15.983 o
9 5 3 20.823 21.992 1.854 37.635 o
9 5 4 9.894 9.079 1.288 87.303 o
9 6 0 32.566 31.298 3.884 11.098 o
;
_iucr_refine_instructions_details
;
TITL 
CELL 0.71073 5.5795 9.74 11.7064 90 90 90
ZERR 4 0.0004 0.0006 0.0007 0 0 0
LATT -1
SYMM 0.5-X,-Y,0.5+Z
SYMM 0.5+X,0.5-Y,-Z
SYMM -X,0.5+Y,0.5-Z
SFAC C H N O
UNIT 16 40 8 16

L.S. 4
PLAN  20
CONF
FMAP 2
MORE -1
BOND $H
ACTA
WGHT 0.045134 0.060845
FVAR 1.152621
REM <olex2.extras>
REM <HklSrc "%.\\fk_03409_int_db_v128.hkl">
REM </olex2.extras>

O1    4    -0.10941  0.60555  0.73780  11.00000  0.00868  0.00957  0.01247 =
 0.00269  0.00058  0.00194
O5    4     0.12149  0.67601  0.49538  11.00000  0.01143  0.00836  0.00944 =
 0.00215 -0.00173  0.00068
O3    4     0.00916  0.45515  0.49835  11.00000  0.01172  0.00920  0.01139 =
 -0.00102 -0.00316 -0.00149

O2    4     0.70186  0.27268  0.61297  11.00000  0.01541  0.01352  0.01229 =
 -0.00088  0.00136 -0.00280
H2a   2     0.66154  0.20713  0.57081  11.00000 -1.50000
H2b   2     0.79769  0.31972  0.58129  11.00000 -1.50000

N     3    -0.10706  0.43524  0.86953  11.00000  0.01047  0.01134  0.00956 =
 0.00306  0.00231  0.00011
N1    3     0.41830  0.65615  0.67322  11.00000  0.00736  0.00843  0.00821 =
 0.00057 -0.00081 -0.00082
H1a   2     0.44615  0.71343  0.61338  11.00000 -1.20000
H1b   2     0.32839  0.69968  0.72461  11.00000 -1.20000
H1c   2     0.55900  0.64113  0.70237  11.00000 -1.20000
C1    1    -0.01627  0.50065  0.77925  11.00000  0.00721  0.00794  0.00744 =
 0.00038 -0.00015 -0.00097
C2    1     0.12800  0.55695  0.53485  11.00000  0.00724  0.00817  0.00666 =
 0.00001 -0.00008  0.00074
C3    1     0.30970  0.52614  0.63005  11.00000  0.00680  0.00714  0.00710 =
 0.00044 -0.00006  0.00056
H3    2     0.43383  0.47801  0.59480  11.00000 -1.20000
C4    1     0.20985  0.44038  0.72765  11.00000  0.00781  0.00789  0.00854 =
 0.00186  0.00044  0.00117
H4a   2     0.32600  0.43448  0.78878  11.00000 -1.20000
H4b   2     0.17259  0.35123  0.69697  11.00000 -1.20000
Ha    2    -0.23301  0.47184  0.90674  11.00000  0.02179
Hb    2    -0.04170  0.36110  0.89775  11.00000  0.01917
HKLF 4

END
Q1 1 0.15 0.611111 0.5 11 0.05 0.41
Q2 1 0.1 0.472222 0.75 11 0.05 0.39
Q3 1 0.1 0.5 0.5 11 0.05 0.36
Q4 1 -0.05 0.555556 0.75 11 0.05 0.35
Q5 1 -0.05 0.472222 0.825 11 0.05 0.35
Q6 1 0.2 0.527778 0.575 11 0.05 0.32
Q7 1 0.25 0.5 0.675 11 0.05 0.28
Q8 1 0.4 0.583333 0.65 11 0.05 0.23
Q9 1 0.75 0.194444 0.625 11 0.05 0.19
Q10 1 -0.1 0.388889 0.875 11 0.05 0.18

  REM The information below was added by Olex2.
  REM
  REM R1 = 0.0269 for 3356 Fo > 4sig(Fo) and 0.0289 for all 3495 data
  REM 123 parameters refined using 0 restraints
  REM Highest difference peak 0.4114, deepest hole -0.1841
  REM Mean Shift 0.0000, Max Shift -0.0003.

  REM +++ Tabular Listing of Refinement Information +++
  REM R1_all = 0.0289
  REM R1_gt = 0.0269
  REM wR_ref = 0.0726
  REM GOOF = 1.0796
  REM Shift_max = -0.0003
  REM Shift_mean = 0.0000
  REM Reflections_all = 3495
  REM Reflections_gt = 3356
  REM Parameters = 123
  REM Hole = -0.1841
  REM Peak = 0.4114
  REM Flack = -0.23(14)

  
;
_olex2_exptl_crystal_mounting_method  'Cryo Loop'
_olex2_submission_special_instructions  'No special instructions were received'
