data_fk_03482_intdb_v128
_audit_creation_date               2024-03-13
_audit_creation_method
;
Olex2 1.5-alpha
(compiled 2023.11.24 svn.r209d9fb2 for OlexSys, GUI svn.r6869)
;
_audit_contact_author_address      ?
_audit_contact_author_email        ?
_audit_contact_author_name         ''
_audit_contact_author_phone        ?
_publ_contact_author_id_orcid      ?
_publ_section_references
;
Bourhis, L.J., Dolomanov, O.V., Gildea, R.J., Howard, J.A.K., Puschmann, H.
 (2015). Acta Cryst. A71, 59-75.

Dolomanov, O.V., Bourhis, L.J., Gildea, R.J, Howard, J.A.K. & Puschmann, H.
 (2009), J. Appl. Cryst. 42, 339-341.
;
_chemical_name_systematic          '2-Aminobutanedioic acid'
_chemical_formula_moiety           '2(C4 H7 N O4)'
_chemical_formula_sum              'C8 H14 N2 O8'
_chemical_formula_weight           133.1
_chemical_absolute_configuration   unk
loop_
  _atom_type_symbol
  _atom_type_scat_dispersion_real
  _atom_type_scat_dispersion_imag
  _atom_type_scat_Cromer_Mann_a1
  _atom_type_scat_Cromer_Mann_a2
  _atom_type_scat_Cromer_Mann_a3
  _atom_type_scat_Cromer_Mann_a4
  _atom_type_scat_Cromer_Mann_b1
  _atom_type_scat_Cromer_Mann_b2
  _atom_type_scat_Cromer_Mann_b3
  _atom_type_scat_Cromer_Mann_b4
  _atom_type_scat_Cromer_Mann_c
  _atom_type_scat_source
  _atom_type_scat_dispersion_source
 C 0.00313 0.00162 2.31000 1.02000 1.58860 0.86500 20.84390 10.20750 0.56870
 51.65120 0.21560 'International Tables Volume C Table 6.1.1.4 (pp. 500-502)'
 'Brennan, Cowan, Rev. Sci. Instrum., 1992, 63, 850'
 H 0.00000 0.00000 0.49300 0.32291 0.14019 0.04081 10.51090 26.12570 3.14236
 57.79970 0.00304 'International Tables Volume C Table 6.1.1.4 (pp. 500-502)'
 'Brennan, Cowan, Rev. Sci. Instrum., 1992, 63, 850'
 N 0.00612 0.00332 12.21260 3.13220 2.01250 1.16630 0.00570 9.89330 28.99750
 0.58260 -11.52900 'International Tables Volume C Table 6.1.1.4 (pp. 500-502)'
 'Brennan, Cowan, Rev. Sci. Instrum., 1992, 63, 850'
 O 0.01085 0.00610 3.04850 2.28680 1.54630 0.86700 13.27710 5.70110 0.32390
 32.90890 0.25080 'International Tables Volume C Table 6.1.1.4 (pp. 500-502)'
 'Brennan, Cowan, Rev. Sci. Instrum., 1992, 63, 850'

_space_group_crystal_system        'monoclinic'
_space_group_IT_number             4
_space_group_name_H-M_alt          'P 1 21 1'
_space_group_name_Hall             ' P 2yb'
loop_
  _space_group_symop_id
  _space_group_symop_operation_xyz
 1 x,y,z
 2 -x,y+1/2,-z

_symmetry_Int_Tables_number        4
_cell_length_a                     5.119(3)
_cell_length_b                     6.894(4)
_cell_length_c                     7.595(5)
_cell_angle_alpha                  90
_cell_angle_beta                   100.64(5)
_cell_angle_gamma                  90
_cell_volume                       263.4(3)
_cell_formula_units_Z              2
_cell_measurement_temperature      100
_exptl_absorpt_coefficient_mu      0.024
_exptl_absorpt_correction_type     multi-scan
_exptl_crystal_density_diffrn      0.271
_exptl_crystal_F_000               22.022
_diffrn_reflns_av_R_equivalents    0.0218
_diffrn_reflns_av_unetI/netI       0.0196
_diffrn_reflns_Laue_measured_fraction_full  1.0000
_diffrn_reflns_Laue_measured_fraction_max  0.9640
_diffrn_reflns_limit_h_max         9
_diffrn_reflns_limit_h_min         -9
_diffrn_reflns_limit_k_max         10
_diffrn_reflns_limit_k_min         -12
_diffrn_reflns_limit_l_max         13
_diffrn_reflns_limit_l_min         -13
_diffrn_reflns_number              15534
_diffrn_reflns_point_group_measured_fraction_full  1.0000
_diffrn_reflns_point_group_measured_fraction_max  0.8703
_diffrn_reflns_theta_full          25.2417
_diffrn_reflns_theta_max           39.88
_diffrn_reflns_theta_min           2.73
_diffrn_ambient_temperature        100
_diffrn_detector                   Pilatus200K
_diffrn_detector_area_resol_mean   5.81
_diffrn_detector_type              'DECTRIS PILATUS 200K'
_diffrn_measured_fraction_theta_full  1.0000
_diffrn_measured_fraction_theta_max  0.9640
_diffrn_measurement_device         'Eulerian 4-circle diffractometer'
_diffrn_measurement_device_type    'STOE STADIVARI'
_diffrn_measurement_method         'rotation method, \w scans'
_diffrn_radiation_collimation      '0.6 mm diameter'
_diffrn_radiation_monochromator    'Graded multilayer mirror'
_diffrn_radiation_probe            x-ray
_diffrn_radiation_type             'Mo K\a'
_diffrn_radiation_wavelength       0.71073
_diffrn_source                     'Genix Mo'
_reflns_Friedel_coverage           0.765
_reflns_limit_h_max                8
_reflns_limit_h_min                -9
_reflns_limit_k_max                10
_reflns_limit_k_min                -12
_reflns_limit_l_max                13
_reflns_limit_l_min                -13
_reflns_number_gt                  2628
_reflns_number_total               2825
_reflns_threshold_expression       I>=2u(I)
_computing_molecular_graphics      'Olex2 1.5-alpha (Dolomanov et al., 2009)'
_computing_publication_material    'Olex2 1.5-alpha (Dolomanov et al., 2009)'
_computing_structure_refinement   
 'olex2.refine 1.5-alpha (Bourhis et al., 2015)'
_computing_structure_solution     
 'olex2.solve 1.5-alpha (Bourhis et al., 2015)'
_refine_diff_density_max           0.5951
_refine_diff_density_min           -0.2834
_refine_diff_density_rms           0.0796
_refine_ls_abs_structure_details  
 'Hooft, R.W.W., Straver, L.H., Spek, A.L. (2010). J. Appl. Cryst., 43, 665-668.'
_refine_ls_abs_structure_Flack     0.1(2)
_refine_ls_d_res_high              0.5543
_refine_ls_d_res_low               7.4642
_refine_ls_goodness_of_fit_ref     1.1636
_refine_ls_hydrogen_treatment      constr
_refine_ls_matrix_type             full
_refine_ls_number_constraints      7
_refine_ls_number_parameters       103
_refine_ls_number_reflns           2825
_refine_ls_number_restraints       1
_refine_ls_R_factor_all            0.0409
_refine_ls_R_factor_gt             0.0369
_refine_ls_restrained_S_all        1.1636
_refine_ls_shift/su_max            -0.0008
_refine_ls_shift/su_mean           0.0001
_refine_ls_structure_factor_coef   Fsqd
_refine_ls_weighting_details      
 'w=1/[\s^2^(Fo^2^)+(0.0565P)^2^+0.0183P] where P=(Fo^2^+2Fc^2^)/3'
_refine_ls_weighting_scheme        calc
_refine_ls_wR_factor_gt            0.0919
_refine_ls_wR_factor_ref           0.0939
_olex2_refinement_description
;
1. Fixed Uiso
 At 1.2 times of:
  All C(H,H,H,H,H,H) groups
 At 1.5 times of:
  All C(H) groups
;
_atom_sites_solution_primary       iterative
loop_
  _atom_site_label
  _atom_site_type_symbol
  _atom_site_fract_x
  _atom_site_fract_y
  _atom_site_fract_z
  _atom_site_U_iso_or_equiv
  _atom_site_adp_type
  _atom_site_occupancy
  _atom_site_refinement_flags_posn
 O O 0.11282(12) 0.47383(10) -0.08387(9) 0.01276(12) Uani 1.000000 .
 O3 O 0.24974(12) 0.51258(10) 0.60961(8) 0.01277(12) Uani 1.000000 .
 O1 O -0.18138(11) 0.50096(10) 0.48166(9) 0.01293(12) Uani 1.000000 .
 N1 N 0.35881(13) 0.70756(11) 0.31616(9) 0.01002(12) Uani 1.000000 .
 O2 O 0.50309(17) 0.32405(13) 0.00894(10) 0.02119(16) Uani 1.000000 .
 C1 C 0.13544(14) 0.56542(12) 0.29481(10) 0.00876(12) Uani 1.000000 .
 C2 C 0.06047(14) 0.52515(11) 0.47832(10) 0.00883(12) Uani 1.000000 .
 C3 C 0.21612(17) 0.37325(12) 0.21959(11) 0.01161(13) Uani 1.000000 .
 C4 C 0.29334(16) 0.38942(12) 0.03755(11) 0.01128(13) Uani 1.000000 .
 H1 H -0.018(3) 0.616(3) 0.219(2) 0.01354(15) Uiso 1.000000 R
 H3a H 0.350(3) 0.325(3) 0.295(2) 0.01354(15) Uiso 1.000000 R
 H3b H 0.057(3) 0.290(3) 0.210(2) 0.01354(15) Uiso 1.000000 R
 H H 0.177(3) 0.481(3) -0.200(2) 0.01692(19) Uiso 1.000000 R
 H1a H 0.390(3) 0.744(3) 0.203(2) 0.01354(15) Uiso 1.000000 R
 H1b H 0.320(3) 0.816(3) 0.369(2) 0.01354(15) Uiso 1.000000 R
 H1c H 0.511(3) 0.659(3) 0.375(2) 0.01354(15) Uiso 1.000000 R

loop_
  _atom_site_aniso_label
  _atom_site_aniso_U_11
  _atom_site_aniso_U_22
  _atom_site_aniso_U_33
  _atom_site_aniso_U_12
  _atom_site_aniso_U_13
  _atom_site_aniso_U_23
 O 0.0146(2) 0.0160(3) 0.0081(2) 0.0021(2) 0.00317(17) 0.0025(2)
 O3 0.0119(2) 0.0199(3) 0.0067(2) 0.0017(2) 0.00219(15) 0.0022(2)
 O1 0.0103(2) 0.0166(3) 0.0127(2) -0.0006(2) 0.00414(16) 0.0027(2)
 N1 0.0118(2) 0.0099(3) 0.0088(2) -0.0020(2) 0.00337(19) -0.0003(2)
 O2 0.0226(3) 0.0308(4) 0.0114(3) 0.0131(3) 0.0066(2) 0.0023(3)
 C1 0.0100(2) 0.0101(3) 0.0066(2) -0.0008(2) 0.00266(19) 0.0004(2)
 C2 0.0111(2) 0.0092(3) 0.0070(2) 0.0010(2) 0.00352(18) 0.0005(2)
 C3 0.0182(3) 0.0100(3) 0.0076(3) 0.0006(2) 0.0046(2) -0.0002(2)
 C4 0.0155(3) 0.0114(3) 0.0073(3) 0.0008(3) 0.0031(2) -0.0008(2)

loop_
  _geom_bond_atom_site_label_1
  _geom_bond_atom_site_label_2
  _geom_bond_distance
  _geom_bond_site_symmetry_2
  _geom_bond_publ_flag
 O C4 1.3146(13) . ?
 O H 1.000(16) . ?
 O3 C2 1.2584(13) . ?
 O1 C2 1.2541(12) . ?
 N1 C1 1.4917(12) . ?
 N1 H1a 0.934(17) . ?
 N1 H1b 0.888(19) . ?
 N1 H1c 0.888(16) . ?
 O2 C4 1.2203(12) . ?
 C1 C2 1.5376(14) . ?
 C1 C3 1.5294(14) . ?
 C1 H1 0.947(17) . ?
 C3 C4 1.5106(14) . ?
 C3 H3a 0.875(18) . ?
 C3 H3b 0.990(17) . ?

loop_
  _geom_angle_atom_site_label_1
  _geom_angle_atom_site_label_2
  _geom_angle_atom_site_label_3
  _geom_angle
  _geom_angle_site_symmetry_1
  _geom_angle_site_symmetry_3
  _geom_angle_publ_flag
 H O C4 109.8(10) . . ?
 H1a N1 C1 109.3(11) . . ?
 H1b N1 C1 111.8(11) . . ?
 H1b N1 H1a 106.2(15) . . ?
 H1c N1 C1 113.1(11) . . ?
 H1c N1 H1a 106.5(14) . . ?
 H1c N1 H1b 109.5(16) . . ?
 C2 C1 N1 109.55(6) . . ?
 C3 C1 N1 110.80(6) . . ?
 C3 C1 C2 108.18(6) . . ?
 H1 C1 N1 111.0(11) . . ?
 H1 C1 C2 107.3(10) . . ?
 H1 C1 C3 110.0(11) . . ?
 O1 C2 O3 126.39(7) . . ?
 C1 C2 O3 116.49(6) . . ?
 C1 C2 O1 117.06(6) . . ?
 C4 C3 C1 114.35(7) . . ?
 H3a C3 C1 108.4(12) . . ?
 H3a C3 C4 108.8(10) . . ?
 H3b C3 C1 104.8(10) . . ?
 H3b C3 C4 109.2(10) . . ?
 H3b C3 H3a 111.3(16) . . ?
 O2 C4 O 124.49(8) . . ?
 C3 C4 O 113.94(7) . . ?
 C3 C4 O2 121.54(8) . . ?

loop_
  _geom_torsion_atom_site_label_1
  _geom_torsion_atom_site_label_2
  _geom_torsion_atom_site_label_3
  _geom_torsion_atom_site_label_4
  _geom_torsion
  _geom_torsion_site_symmetry_1
  _geom_torsion_site_symmetry_2
  _geom_torsion_site_symmetry_3
  _geom_torsion_site_symmetry_4
  _geom_torsion_publ_flag
 O C4 C3 C1 -53.78(8) . . . . ?
 O3 C2 C1 N1 -39.29(8) . . . . ?
 O3 C2 C1 C3 81.59(8) . . . . ?
 O1 C2 C1 N1 143.27(8) . . . . ?
 O1 C2 C1 C3 -95.85(8) . . . . ?
 N1 C1 C3 C4 -60.43(7) . . . . ?
 O2 C4 C3 C1 127.98(9) . . . . ?

loop_
  _diffrn_refln_index_h
  _diffrn_refln_index_k
  _diffrn_refln_index_l
  _diffrn_refln_intensity_net
  _diffrn_refln_intensity_u
 -2 -5 4 75.17 3.98
 -2 -4 4 861.65 10.77
 -2 -4 5 54.79 3.87
 -2 -3 4 38.4 2.54
 -2 -3 5 288.33 6.5
 -2 -3 6 149.16 5.32
 -2 -2 4 133.76 4.25
 -2 -2 5 692.57 9.62
 -2 -2 6 162.84 5.47
 -2 -1 5 6.21 1.69
 -2 -1 6 351.03 7.25
 -2 -1 7 78.73 4.04
 -2 0 5 37.01 2.46
 -2 0 6 97.17 4.14
 -2 0 7 32.05 3.07
 -2 1 7 80.91 3.66
 -2 1 8 175.41 5.74
 -1 -7 3 3.03 2.08
 -1 -7 4 22.61 2.96
 -1 -6 2 179.19 4.44
 -1 -6 3 551.79 8.22
 -1 -6 4 300.05 6.74
 -1 -5 2 93.41 3.25
 -1 -5 3 66.92 3.18
 -1 -5 4 56.7 3.29
 -1 -4 1 870.16 7.28
 -1 -4 3 583.31 7.56
 -1 -4 4 103.73 3.69
 -1 -4 5 427.43 7.77
 -1 -4 6 120.57 4.91
 -1 -3 3 185.8 4.16
 -1 -3 4 780.64 8.75
 -1 -3 5 56.94 2.98
 -1 -3 6 96.43 4.19
 -1 -2 1 1128.78 6.98
 -1 -2 2 1729.93 10.05
 -1 -2 5 262.55 5.48
 -1 -2 6 96.1 4.14
 -1 -1 2 473.72 5.02
 -1 -1 3 2321.77 12.15
 -1 -1 5 473.57 6.88
 -1 -1 6 44.53 2.68
 -1 -1 7 88.22 3.88
 -1 0 2 17.41 1.2
 -1 0 3 9754.95 23.34
 -1 0 4 307.13 4.97
 -1 0 6 219.84 5.12
 -1 0 7 2.35 2.13
 -1 0 8 -0.13 1.9
 -1 1 3 2339.23 10.88
 -1 1 4 137.55 3.19
 -1 1 5 468.77 6.29
 -1 1 6 38.99 2.55
 -1 1 8 59.1 3.4
 -1 2 4 1029.94 7.72
 -1 2 5 270.75 4.67
 -1 2 6 95.8 3.26
 -1 2 7 96.97 3.78
 -1 2 8 56.83 3.49
 -1 3 7 115.87 3.71
 -1 3 8 20.99 2.46
 0 -8 2 113.87 3.86
 0 -8 3 177.69 5.16
 0 -7 3 10.64 1.93
 0 -7 4 204.38 5.53
 0 -6 0 881.49 6.31
 0 -6 2 415.83 6.15
 0 -5 0 0.96 0.6
 0 2 8 79.61 3.93
 0 3 3 178.83 1.96
 0 3 4 341.12 3.58
 0 3 6 722.45 7.3
 0 3 7 103.47 3.38
 0 3 8 43.15 2.83
 0 4 5 454.81 4.37
 0 4 6 52.15 2.1
 0 4 7 112.43 3.21
 1 -8 2 48.5 2.82
 1 -7 0 105.5 2.5
 1 -3 -2 460.71 3.32
 1 -2 -2 1742.47 7.16
 1 -1 -2 465.07 4.08
 1 0 -2 20.2 1.24
 1 1 -1 618.6 4.88
 1 2 -1 1130.4 6.9
 1 3 0 262.01 3.19
 1 4 2 1077.74 5.12
 1 5 5 43.23 1.2
 2 -5 -3 153.4 2.58
 2 -4 -3 101.06 2.43
 2 -3 -3 183.47 3.38
 2 -2 -3 1071.88 8.25
 2 -1 -3 87.28 2.68
 2 0 -4 37.41 2.18
 2 1 -3 85.54 2.91
 2 1 -2 240.28 4.27
 2 2 -2 1795.07 11.52
 2 4 -1 842.56 7.8
 2 4 0 116.44 2.89
 2 5 2 99.82 2.49
 3 -4 -4 153.79 3.75
 3 -3 -5 216.63 4.67
 3 -3 -4 1085.45 9.98
 3 -2 -5 592.91 7.74
 3 -1 -5 831.95 9.37
 3 -1 -4 37.98 2.61
 3 0 -4 699.7 8.7
 3 2 -3 83.87 3.5
 3 2 -2 285.76 5.53
 3 3 -2 4.77 1.48
 3 4 -2 646.01 8.4
 3 4 -1 119.63 3.87
 3 4 0 195.8 4.43
 3 5 -1 13.03 1.77
 3 5 0 149.31 3.97
 3 5 1 411 6.38
 3 6 0 130.59 3.59
 3 6 2 186.63 3.99
 4 -4 -5 99.36 3.73
 4 -4 -4 360.04 6.65
 4 -3 -4 12.82 1.97
 4 -2 -6 102.31 4.13
 4 -2 -4 748.31 9.77
 4 -1 -6 13.34 2.15
 4 -1 -5 394.68 7.39
 4 -1 -4 133.81 4.76
 4 0 -5 1594.95 14.78
 4 0 -4 9.91 2.06
 4 1 -4 127.97 4.79
 4 1 -3 170.41 4.92
 4 2 -3 305.66 6.79
 4 3 -4 16.52 2.41
 4 4 -3 74.5 3.64
 4 5 -2 68.3 3.74
 4 5 0 93.86 4
 4 6 0 50.26 3
 4 6 1 34.2 2.54
 -7 0 -2 1.91 2.35
 -7 1 -2 15.62 2.88
 -6 -4 -1 153.79 6.46
 -6 -4 0 3.18 2.95
 -6 -3 -2 73.25 4.89
 -6 -3 -1 16.46 2.88
 -6 -2 -3 164.53 6.23
 -6 -2 -2 69.81 4.61
 -6 -2 -1 12.43 2.81
 -6 -1 -4 8.91 2.65
 -6 -1 -3 2.93 2.48
 -6 -1 -2 50.56 3.76
 -6 -1 -1 16.22 2.9
 -6 -1 0 42.65 3.7
 -6 0 -4 97.98 4.7
 -6 0 -2 0.52 2.13
 -6 0 -1 1.41 2.11
 -6 0 0 3.02 1.97
 -6 1 -5 48.47 4.06
 -6 1 -4 11.6 2.57
 -6 1 -3 4.96 2.03
 -6 1 -2 47.88 3.4
 -6 1 -1 12.3 2.56
 -6 2 -4 60.91 3.7
 -6 2 -3 156.07 4.97
 -6 2 -2 70.3 3.56
 -6 2 -1 15.56 2.46
 -5 -6 -1 97.6 4.92
 -5 -5 -3 117.59 5.44
 -5 -5 -1 42.52 3.58
 -5 -5 0 13.13 3.34
 -5 -4 -4 39.78 4.07
 -5 -4 -3 13.93 2.81
 -5 -4 -2 5.85 2.87
 -5 -4 0 13.78 2.98
 -5 -3 -5 10.34 2.93
 -5 -3 -4 16.4 2.8
 -5 -3 -3 74.07 4.12
 -5 -3 -2 141.51 5.51
 -5 -3 -1 247.02 6.45
 -5 -3 0 114.1 4.52
 -5 -2 -5 -1.22 1.95
 -5 -2 -4 48.2 3.66
 -5 -2 -3 23.77 2.74
 -5 -2 -2 69.14 3.87
 -5 -2 -1 302.21 6.96
 -5 -2 0 25.49 2.97
 -5 -1 -6 1.31 2.77
 -5 -1 -5 62.05 4.05
 -5 -1 -4 6.99 2.27
 -5 -1 -3 36.72 3.13
 -5 -1 -2 226.42 5.79
 -5 0 -6 4.39 2.72
 -5 0 -5 68.97 4.05
 -5 0 -4 74.45 3.62
 -5 0 -3 212.45 5.67
 -5 0 -2 503.22 8.09
 -5 0 -1 60.47 3.43
 -5 0 0 63.52 3.45
 -5 1 -6 1.98 2.03
 -5 1 -5 59.36 3.74
 -5 1 -4 6.89 1.84
 -5 1 -3 30.16 2.56
 -5 1 -2 217.28 5.18
 -5 2 -5 3.52 2.09
 -5 2 -4 42.92 3.01
 -5 2 -3 27.13 2.59
 -5 2 -1 309.38 5.6
 -5 3 -5 7.77 2.1
 -5 3 -4 22.31 2.35
 -5 3 -3 80.8 3.22
 -5 3 -2 130.4 3.58
 -5 3 -1 268 5.04
 -4 -7 -3 88.04 4.69
 -4 -7 -2 147.18 5.88
 -4 -7 -1 37.05 3.93
 -4 -6 -4 66.89 4.44
 -4 -6 -3 169.3 6.17
 -4 -6 -2 21.58 3.04
 -4 -6 0 42.57 3.55
 -4 -5 -5 18.6 3.13
 -4 -5 -4 63.5 4.25
 -4 -5 -3 85.24 4.59
 -4 -5 -2 189.24 6.07
 -4 -5 -1 395.51 8.22
 -4 -4 -6 26.1 3.39
 -4 -4 -5 11.24 2.45
 -4 -4 -4 8.35 2.21
 -4 -4 -3 12.89 2.34
 -4 -4 -2 48.55 3.18
 -4 -4 -1 257.85 6.18
 -4 -4 0 155.3 4.83
 -4 -4 1 66.92 3.8
 -4 -3 -6 32.29 3.8
 -4 -3 -5 50.97 3.83
 -4 -3 -4 195.83 5.62
 -4 -3 -2 274.68 6.22
 -4 -3 -1 366.28 7.14
 -4 -3 0 130.03 4.22
 -4 -3 1 88.47 3.8
 -4 -2 -7 35.39 3.97
 -4 -2 -6 27.36 3.37
 -4 -2 -5 0.82 1.92
 -4 -2 -4 16.35 2.32
 -4 -2 -3 25.57 2.69
 -4 -2 -2 23.39 2.27
 -4 -2 -1 237.7 5.49
 -4 -1 -7 46.63 3.59
 -4 -1 -6 94.58 4.6
 -4 -1 -4 153.9 4.77
 -4 -1 -3 13.54 2.03
 -4 -1 -2 1639.65 13.02
 -4 -1 0 292.86 5.65
 -4 0 -5 388.92 7.35
 -4 0 -4 7.77 1.82
 -4 0 -3 46.89 2.58
 -4 0 -2 302.54 5.6
 -4 0 -1 4.14 1.65
 -4 0 0 0.54 1.39
 -4 1 -7 51.73 3.78
 -4 1 -6 84.07 4.12
 -4 1 -5 7.55 1.85
 -4 1 -4 161.1 4.58
 -4 1 -3 10.76 1.88
 -4 1 -2 1580.92 11.51
 -4 2 -7 28.09 2.81
 -4 2 -5 0.29 1.62
 -4 2 -4 18.62 2.28
 -4 2 -3 16.27 2.01
 -4 2 -2 21.52 1.93
 -4 2 -1 234.75 4.3
 -4 2 0 201.12 3.96
 -4 3 -8 4.93 2.12
 -4 3 -7 25.24 2.96
 -4 3 -6 29.33 2.65
 -4 3 -5 50.33 2.84
 -4 3 -3 301.26 4.9
 -4 4 -5 17.3 2.11
 -4 4 -4 7.53 1.35
 -4 4 -3 13.67 1.55
 -3 -9 -2 1.82 2.24
 -3 -8 -3 46.61 3.65
 -3 -8 -2 50.83 3.7
 -3 -8 -1 110.84 4.74
 -3 -7 -5 24.75 3.62
 -3 -7 -4 48.42 3.58
 -3 -7 -3 45.54 3.91
 -3 -7 -2 76.4 4.18
 -3 -7 -1 95.39 4.26
 -3 -6 -5 9.22 2.44
 -3 -6 -4 15.47 2.66
 -3 -6 -3 11.33 2.29
 -3 -6 -2 192.89 5.7
 -3 -6 -1 12.94 2.18
 -3 -6 0 127.27 4.72
 -3 -5 -3 98.01 4.16
 -3 -5 -2 14.89 2.14
 -3 -4 -7 43.18 3.48
 -3 -4 -6 65.29 4.22
 -3 -4 -5 17.23 2.57
 -3 -4 -4 107.74 4.14
 -3 -4 -3 409.5 7.34
 -3 -4 -2 7.49 1.93
 -3 -4 -1 174.4 4.57
 -3 -4 0 197.5 4.93
 -3 -4 1 108.04 3.74
 -3 -3 -6 86.86 4.31
 -3 -3 -5 75.17 3.85
 -3 -3 -2 319.73 5.86
 -3 -2 -8 16.7 2.92
 -3 -2 -6 -0.47 1.71
 -3 -2 -5 252.84 5.83
 -3 -2 -4 138.47 4.15
 -3 -2 -3 4.21 1.46
 -3 -1 -7 11.61 2.63
 -3 -1 -6 69.42 3.79
 -3 -1 -4 191.05 4.7
 -3 -1 -3 4.04 1.73
 -3 -1 -2 318.84 5.22
 -3 -1 -1 65.16 2.61
 -3 -1 0 161.49 3.61
 -3 -1 1 70.86 2.54
 -3 0 -5 50.83 2.89
 -3 0 -4 16.5 1.81
 -3 0 -3 22.95 1.87
 -3 1 -3 2.23 1.11
 -3 1 -2 324.22 4.71
 -3 2 -4 137.75 3.52
 -3 2 -3 1.7 1.24
 -3 3 -4 97.88 2.9
 -3 3 -3 55.89 2.16
 -3 4 -4 113.32 2.98
 -3 4 -2 5.2 0.74
 -3 5 -5 185.36 3.79
 -3 5 -4 195.7 3.5
 -2 -9 -3 7.03 2.18
 -2 -9 -2 15.84 2.61
 -2 -8 -5 40.8 3.72
 -2 -8 -4 2.55 2.13
 -2 -8 -3 78.11 3.87
 -2 -8 -1 98.4 4.23
 -2 -7 -6 1.91 2.03
 -2 -7 -5 7.26 2.08
 -2 -7 -4 1.56 1.74
 -2 -7 -3 56.25 3.52
 -2 -7 -1 117.86 4.23
 -2 -6 -7 52.47 3.7
 -2 -6 -6 19.23 2.72
 -2 -6 -4 129.97 4.53
 -2 -6 -3 121.66 4.05
 -2 -6 -1 449.58 7.16
 -2 -6 0 155.24 4.26
 -2 -5 -8 39.21 3.91
 -2 -5 -7 42.23 3.85
 -2 -5 -5 62.63 3.54
 -2 -5 -4 75.97 3.66
 -2 -5 -3 50.58 2.77
 -2 -5 -2 100.03 3.55
 -2 -5 -1 583.11 7.71
 -2 -5 0 34.82 2.47
 -2 -4 -6 230.81 5.92
 -2 -4 -5 -0.93 1.47
 -2 -3 -6 204.4 5.34
 -2 -3 -5 124.23 4.14
 -2 -3 -3 493.55 6.76
 -2 -3 -1 527.51 6.2
 -2 -3 0 514.61 6.23
 -2 -3 1 546.43 6.44
 -2 -2 -1 38.77 1.7
 -2 -1 -3 227.28 4.11
 -2 -1 -2 1057.82 7.95
 -2 0 0 652.46 5.28
 -2 1 -1 458.16 4.21
 -2 1 0 573.37 4.37
 -2 2 -1 37.29 1.22
 -2 2 0 839.3 4.3
 -2 6 -3 118.15 1.61
 -1 -8 -5 51.66 3.35
 -1 -8 -4 52.67 3.21
 -1 -8 -3 29.16 2.67
 -1 -7 -7 2.85 2.1
 -1 -7 -6 112.09 4.55
 -1 -7 -4 110.7 3.91
 -1 -7 -3 66.28 3.18
 -1 -7 -2 15.8 2.05
 -1 -7 -1 32.68 2.41
 -1 -6 -8 87.9 4.48
 -1 -6 -7 98.14 4.37
 -1 -6 -5 28.85 2.74
 -1 -6 -4 -0.03 1.33
 -1 -6 -3 13.41 1.79
 -1 -6 -2 2.58 1.42
 -1 -6 -1 392.77 5.73
 -1 -5 -8 33.71 3.22
 -1 -5 -7 17.75 2.69
 -1 -5 -6 40.5 3.1
 -1 -5 -5 45.62 2.69
 -1 -5 -4 890.14 9.36
 -1 -5 -2 105.15 2.97
 -1 -5 -1 163.76 3.61
 -1 -4 -4 6.78 1.7
 -1 -2 -1 982.76 6.37
 -1 -2 0 4955.36 13.57
 -1 -1 -1 1381.71 6.62
 -1 -1 0 4264.93 10.91
 -1 5 -2 107.27 1.98
 -1 6 -3 14.99 1.3
 -1 6 -2 3.31 0.62
 0 -8 -4 13.58 1.87
 0 -7 -8 109.05 4.63
 0 -7 -7 38.56 3.29
 0 -7 -6 7.89 1.84
 0 -7 -5 135.74 4.05
 0 -7 -4 203.68 4.45
 0 -7 -3 11.04 1.45
 0 -7 -2 114.85 2.99
 0 -6 -8 94.26 4.46
 0 -6 -7 56.44 3.5
 0 -6 -6 66.56 3.35
 0 -6 -5 4.34 1.52
 0 -6 -4 85.19 3.03
 0 -6 -3 51.77 2.3
 0 -6 -2 421.88 5.34
 0 -5 -4 101.17 3.09
 0 -5 -3 78.05 2.54
 0 -4 -1 1280.99 6.86
 0 -4 0 1002.48 6.03
 0 -3 -1 1427.25 6.5
 0 -2 -1 4986.04 10.14
 0 -2 0 4742.22 8.88
 0 2 0 5019.69 8.83
 0 3 -1 1419.35 6.4
 0 3 0 1.46 0.56
 0 4 -2 475.13 4.77
 0 4 -1 1411.68 6.98
 0 4 0 1097.21 5.75
 0 5 -3 77.55 2.46
 0 5 -2 157.49 2.98
 0 5 -1 310.17 3.59
 0 6 -2 435.24 4.83
 1 -7 -7 79.95 3.55
 1 -7 -6 87.96 3.34
 1 -7 -5 205.69 4.3
 1 -7 -4 25.33 1.65
 1 -6 -4 309.21 4.61
 1 -5 -2 92.05 1.87
 1 -4 -2 633.8 4.33
 1 -4 -1 847.3 3.65
 1 -3 -1 1244.27 3.78
 1 1 -1 633.2 4.59
 1 1 0 4398.41 10.65
 1 3 -1 1349.71 8.01
 1 4 -1 876.25 6.77
 1 5 -1 203.32 3.62
 1 5 0 165.01 3.29
 2 -1 -1 272.07 3.14
 2 -1 0 593.95 4.21
 2 0 -1 350.13 3.96
 2 0 0 654.83 4.98
 2 1 -2 242.7 3.9
 2 1 1 448.29 4.55
 2 2 -2 1807.72 10.6
 2 2 1 40.36 1.88
 3 -5 -3 23.14 0.94
 3 -4 -3 146.79 2.6
 3 -3 -1 244.91 2.57
 3 -2 -2 280.61 3.73
 3 -1 -3 528.32 6.19
 3 -1 -2 5.37 1.25
 3 -1 -1 69.47 2.07
 3 -1 0 158.92 2.89
 3 0 -2 3202.02 14.21
 3 0 -1 0.94 1.05
 3 0 0 601.38 5.84
 4 -4 -2 113.98 1.98
 4 -3 -3 306.4 4.5
 4 -2 -1 380.46 4.71
 0 -4 2 447.16 4.46
 0 -4 3 162.2 2.49
 0 -4 4 259.72 2.64
 0 -3 0 2.03 0.95
 0 -3 1 1392.34 7.19
 0 -3 2 47.31 1.45
 0 -3 3 181.76 2.14
 0 -3 4 325.01 2.35
 0 -2 0 4770.24 11.64
 0 -2 1 4915.2 10.57
 0 -2 6 136.24 1.97
 0 -1 0 0.06 0.41
 0 -1 8 19.89 1.53
 0 0 6 89.52 2.6
 0 0 7 76.18 2.61
 0 1 1 453.47 3.33
 0 1 7 817.37 8.64
 0 1 8 21.95 2.24
 0 2 0 5092.52 12.79
 0 2 1 4948.02 14.02
 0 2 4 268.07 4.55
 0 2 6 137.92 4.07
 0 3 2 53.5 2.22
 0 3 3 187 4.07
 0 3 4 357.25 5.9
 0 3 5 5.21 1.85
 0 3 8 44.84 3.27
 0 4 1 1257.35 9.81
 0 4 2 462.65 6.32
 0 5 5 125.02 4.78
 0 5 6 343.96 7.61
 1 -5 3 189.24 3.7
 1 -3 -2 476.72 5.68
 1 0 -3 9882.06 15.98
 1 0 8 27.19 2.3
 1 0 9 43.88 2.9
 1 1 9 11.65 2.28
 1 2 7 87.09 3.83
 1 2 8 35.11 3.23
 1 2 9 35.79 3.41
 1 2 10 72.51 4.11
 1 3 -2 443.23 3.66
 1 3 7 354.52 7.27
 1 3 8 33.88 3.26
 1 3 9 64.49 4.15
 1 3 10 15.86 3.22
 1 4 0 397.42 5.15
 1 4 1 941.49 8.7
 1 4 3 104.46 3.58
 1 4 4 4.93 1.66
 1 4 7 63.97 3.9
 1 4 8 14.66 2.78
 1 4 9 0.03 2.38
 1 5 -1 206.38 4.07
 1 5 1 161.76 4.22
 1 5 4 910.61 11.76
 1 5 5 47.82 3.53
 1 5 6 39.85 3.89
 1 5 7 15.9 3
 1 5 8 37.73 4.39
 1 6 0 1.54 1.5
 1 6 2 5.5 2.22
 1 6 4 -0.39 1.97
 1 6 6 14.36 2.94
 1 6 7 102.08 5.24
 1 7 3 68.16 3.94
 1 7 4 111.11 4.94
 1 7 5 273.37 7.87
 1 7 6 132.56 6.58
 2 -1 -5 3.68 1.03
 2 0 -5 35.76 1.62
 2 1 -5 4.7 0.7
 2 1 9 13.52 2.59
 2 2 9 28.32 3.56
 2 2 10 90.89 5.12
 2 3 -4 36.68 0.83
 2 3 8 80.75 4.55
 2 3 9 2.26 2.49
 2 4 7 35.43 4.02
 2 4 8 145.51 5.97
 2 5 -1 67.45 2.68
 2 5 4 83.71 4.33
 2 5 5 68.08 3.92
 2 5 6 9.76 2.68
 2 5 7 38.15 3.84
 2 6 -2 95.91 3.29
 2 6 1 464.69 7.91
 2 6 2 15.32 2.25
 2 6 3 122.1 4.68
 2 6 4 129.58 5.13
 2 6 5 153.85 6.19
 2 6 6 16.04 3.35
 2 7 -1 54.63 3.08
 2 7 0 16.74 2.37
 2 7 3 55.38 3.86
 2 7 4 3.05 3.14
 2 7 5 10.57 3.78
 2 8 1 101.92 4.46
 2 8 2 20.98 3.34
 2 8 3 83.67 4.73
 2 8 4 3.68 2.76
 3 0 -6 106.02 2.89
 3 2 -6 53.49 1.39
 3 4 -5 136.34 1.82
 3 6 -4 158.08 3.36
 3 6 -3 223.84 4.68
 3 6 -2 397.55 6.51
 3 6 5 6.28 2.82
 3 7 -3 107.2 3.45
 3 7 -2 31.99 2.69
 3 7 -1 51.93 3.44
 3 7 0 93.61 4.21
 3 7 1 99.61 4.35
 3 7 3 46.09 3.7
 3 7 4 43.59 4.26
 3 8 -1 41.94 3.47
 3 8 0 14.85 2.78
 3 8 1 121.63 5.12
 3 8 2 57.87 4.42
 3 8 3 45.24 4.1
 3 9 0 21.54 3.22
 3 9 1 11.22 3.14
 4 7 -3 24.08 2.68
 4 7 -2 113.08 4.29
 4 7 0 41.04 3.49
 4 8 -2 82.66 4.12
 4 8 0 138.67 5.85
 4 8 1 11.14 2.98
 5 8 -1 21.75 3.13
 -4 2 4 727.7 6.23
 -3 0 3 46.88 1.71
 -3 1 4 38.3 1.54
 -3 2 4 338.55 3.39
 -2 -2 1 268.08 4.02
 -2 -1 2 257.56 3.59
 -2 1 3 85.93 1.62
 -2 7 3 76.57 2.46
 -2 8 2 30.91 2.44
 -2 9 1 157.91 4.7
 -2 10 0 72.35 4.21
 -1 -4 -5 236.15 3.7
 -1 -4 -4 5.67 1.03
 -1 -3 -3 60.83 1.82
 -1 -3 -2 258.73 3.55
 -1 -3 -1 45.44 1.95
 -1 -2 -1 981.51 5.92
 -1 -2 0 4988.55 13.52
 -1 -1 1 637.57 4.33
 -1 5 3 63.27 1.81
 -1 6 2 192.53 3.99
 -1 6 3 498.32 5.28
 -1 8 2 345.92 6.01
 -1 9 1 100.19 4.13
 -1 9 2 38.33 2.83
 -1 10 -1 -2.42 2.26
 -1 10 0 27.65 3.41
 0 -3 -5 5.16 0.64
 0 -3 -4 361.37 3.12
 0 -2 -2 2542.74 6.82
 0 2 1 4978.85 10.18
 0 3 1 1454.77 7.41
 0 5 2 154.28 3.22
 0 6 0 861.86 8.83
 0 7 0 1.5 1.66
 0 7 2 124.07 3.59
 0 8 0 81.87 3.82
 0 9 -3 65.06 4.38
 0 9 -1 51.65 3.78
 0 9 0 -0.84 1.88
 0 9 1 49.68 3.39
 0 10 -1 88.4 4.71
 0 10 0 84.86 4.56
 1 1 -2 452.07 3.87
 1 1 -1 609.06 4.16
 1 4 0 397.09 5.26
 1 5 -2 96.89 3.51
 1 6 -2 181.78 5.01
 1 6 0 3.88 1.32
 1 7 -3 6.33 2.42
 1 7 -2 15.49 2.33
 1 7 0 104.06 3.78
 1 8 -5 61.83 4.78
 1 8 -4 47.87 4.27
 1 8 -3 45.8 3.44
 1 8 -2 326.28 7.42
 1 8 -1 103.02 4.29
 1 8 0 48.61 3.39
 1 9 -3 45.71 4.3
 1 9 -2 36.88 3.78
 1 9 -1 99.9 4.86
 2 1 -7 85.47 2.91
 2 1 -6 347.04 5.14
 2 1 -5 6.09 1.07
 2 2 -9 8.63 2.12
 2 2 -8 4.11 1.51
 2 2 -6 151.92 3.94
 2 2 -5 713.95 7.76
 2 2 -3 1054.84 8.22
 2 2 -2 1816.19 10.32
 2 3 -10 10.22 2.6
 2 3 -9 51.92 3.63
 2 3 -8 104.85 4.15
 2 3 -7 58.63 3.35
 2 3 -6 142 4.22
 2 3 -4 43.87 2.58
 2 3 -2 139.75 3.54
 2 4 -10 12.53 3
 2 4 -8 4.31 2.48
 2 4 -6 4.74 2.16
 2 4 -5 59.13 3.31
 2 4 -4 830.41 9.58
 2 4 -3 111.38 3.66
 2 4 -2 154.75 3.93
 2 5 -8 16.53 3.32
 2 5 -5 4.64 1.89
 2 5 -4 80.1 3.58
 2 5 -3 163.16 4.6
 2 5 -1 71.68 2.98
 2 6 -8 25.5 3.39
 2 6 -7 28.91 3.47
 2 6 -5 6.53 2.5
 2 6 -4 33.79 3.44
 2 6 -3 40.29 3.22
 2 6 -2 92.23 3.83
 2 6 -1 77.07 3.39
 2 7 -6 104.48 5.48
 2 7 -5 82.67 5.06
 2 7 -4 103 4.95
 2 7 -3 81.94 4.09
 2 7 -2 27.24 3.26
 2 8 -5 160.34 6.26
 2 8 -3 19.6 2.97
 2 9 -2 16.9 2.8
 3 2 -8 154.86 4.38
 3 2 -7 22.21 2.24
 3 2 -6 53.45 2.51
 3 3 -10 1.7 1.82
 3 3 -9 35.4 3.12
 3 3 -8 60.49 3.53
 3 3 -7 60.19 3.3
 3 3 -6 64.82 3.07
 3 3 -5 208.6 4.85
 3 4 -10 165.95 5.87
 3 4 -8 2.24 2.05
 3 4 -7 197.4 5.74
 3 5 -9 293.57 7.79
 3 5 -8 0.61 2.07
 3 5 -5 30.77 3.06
 3 6 -7 13.41 2.76
 3 6 -6 21.1 3.24
 3 7 -6 39.11 3.99
 3 7 -5 94.37 5.14
 3 7 -4 8.84 2.67
 -6 2 -2 70.05 3.41
 -6 3 -2 77.16 4.12
 -6 3 -1 22.63 3
 -6 4 -3 72.77 4.32
 -6 4 -2 10.77 2.61
 -6 4 -1 152.56 5.88
 -6 5 -3 109.16 5.41
 -6 5 -2 10.83 3.3
 -6 5 -1 19.21 3.38
 -5 2 -3 29.97 2.45
 -5 2 -2 67.24 3.21
 -5 3 -3 69.32 3.56
 -5 3 -2 134.81 4.66
 -5 4 -3 17.08 2.7
 -5 4 -2 9.57 2.39
 -5 5 -3 106.77 5.25
 -5 5 -2 67.3 4.7
 -5 5 -1 47.09 3.96
 -5 6 -3 3.46 3.36
 -5 6 -2 61.46 5.19
 -5 6 -1 102.01 5.41
 -4 -4 1 62.67 2.23
 -4 1 -2 1574.9 10.33
 -4 2 -2 24.81 2.37
 -4 3 -3 311.54 6.33
 -4 3 -2 258.42 5.65
 -4 4 -3 9.64 2.49
 -4 4 -2 37.01 3.28
 -4 5 -3 82.8 4.45
 -4 5 -2 185.21 6.01
 -4 5 -1 389.77 8.85
 -4 6 -3 161.28 6.34
 -4 6 -1 38.88 4.22
 -4 7 -3 92.65 5.9
 -4 7 -2 159.35 6.67
 -4 7 -1 38.6 4.06
 -4 7 0 37.63 4.51
 -3 -4 1 116.33 2.83
 -3 -3 0 138.3 2.33
 -3 2 -3 2.6 1.19
 -3 2 -2 549.43 6.7
 -3 3 -3 62.01 3.16
 -3 5 -3 81.59 4.3
 -3 5 -2 18.58 3.04
 -3 6 -3 13.93 2.71
 -3 6 -1 17.44 2.82
 -3 7 -3 44.43 3.97
 -3 7 -2 78.39 5.27
 -3 7 -1 100.42 5.7
 -3 7 0 92.97 5.54
 -3 8 -1 121.21 5.94
 -3 8 0 12.89 3.29
 -2 -3 0 500.62 4.33
 -2 -3 1 536.62 5.04
 -2 3 -3 451.88 6.58
 -2 3 -2 189.77 4.23
 -2 4 -2 177.07 4.69
 -2 5 -2 100.65 4.06
 -2 5 -1 591.44 9.06
 -2 6 -3 121.94 4.91
 -2 6 -2 16.23 2.66
 -2 6 -1 437.08 8.29
 -2 7 -2 126.22 5.61
 -2 7 -1 125.12 5.67
 -2 7 0 10.53 2.91
 -2 8 -2 16.78 3.83
 -2 8 -1 102.03 5.36
 -2 8 0 160.99 6.11
 -2 8 1 10.16 2.85
 -2 9 -1 0.42 3.01
 -2 9 0 83.74 5.63
 -2 9 2 13.09 3.24
 -2 9 3 35.5 4.44
 -1 -3 1 1287.57 8.06
 -1 -3 2 463.96 5.5
 -1 -2 0 5115.14 11.22
 -1 1 -1 1400.01 6.84
 -1 3 -2 255 4.61
 -1 4 -2 1078.7 10.26
 -1 4 -1 887.2 9.01
 -1 5 -2 103.63 4.13
 -1 6 -2 4.61 2.2
 -1 7 -1 35.1 3.89
 -1 7 0 103.65 4.77
 -1 7 1 50.83 3.4
 -1 8 0 43.75 4.18
 -1 8 2 339.04 8.18
 -1 9 -1 10.17 3.36
 -1 9 0 59.37 4.25
 -1 9 1 96.09 5.45
 -1 9 3 49.31 4.21
 -1 9 4 18.92 3.23
 0 -3 2 46.23 2.41
 0 -2 1 5074.36 13.89
 0 -2 2 2507.24 10.9
 0 -2 3 1052.51 7.87
 0 2 -1 5008.62 13.89
 0 4 -1 1224.52 9.73
 0 5 -1 305.94 5.77
 0 5 0 0.29 1.19
 0 6 -1 226.69 5.52
 0 6 1 215.66 4.96
 0 7 -1 129.74 4.73
 0 7 1 126.56 4.6
 0 7 2 111.63 4.28
 0 8 1 71.93 4.07
 0 8 2 110.67 4.67
 0 8 3 167.28 5.35
 0 9 1 48.23 3.96
 0 9 4 -2.66 1.9
 0 10 2 66.84 4.4
 0 10 3 3.34 2.62
 1 -1 3 499.81 5.09
 1 -1 4 1019.61 7.59
 1 0 2 31.26 1.11
 1 2 1 929.22 4.07
 1 3 1 44.19 1.52
 1 5 1 154.65 3.58
 1 5 2 109.45 2.97
 1 6 1 398.39 6.28
 1 6 2 6.87 1.56
 1 6 3 13.71 1.83
 1 7 2 12.47 1.77
 1 7 3 64.03 3.07
 1 7 5 256.8 5.37
 1 8 2 44.47 3.06
 1 8 3 26.15 2.58
 1 8 4 55.78 3.2
 2 0 5 1.75 1.09
 2 1 4 158.54 2.29
 2 1 5 247.04 3.38
 2 2 4 32.95 0.87
 2 2 5 55.87 1.52
 2 2 6 29.03 1.47
 -6 2 5 32.97 3.02
 -6 3 5 15.4 2.86
 -6 3 6 17.09 2.79
 -6 3 7 77.05 4.77
 -6 4 7 16.82 3.86
 -6 5 5 15.39 3.29
 -6 5 6 11.39 3.41
 -5 3 4 25.03 2.77
 -5 3 5 44.03 3.44
 -5 4 3 47.34 3.63
 -5 4 4 66.13 4
 -5 4 5 32.02 3.86
 -5 5 5 25.14 3.43
 -5 5 6 50.91 4.99
 -5 6 4 106.75 6.22
 -5 6 5 19.58 4.35
 -4 -1 3 158.42 2.04
 -4 2 2 109.32 3.49
 -4 2 3 300.08 5.63
 -4 3 2 1.13 2.08
 -4 3 3 317.22 6.61
 -4 4 2 111.36 4.53
 -4 5 2 72.25 4.64
 -4 5 3 127.03 5.56
 -4 5 5 158.71 6.2
 -4 6 3 59.6 5.07
 -4 6 4 13.71 3.21
 -4 6 5 149.75 6.38
 -4 6 6 143.83 6.27
 -4 7 3 20.43 3.5
 -4 7 4 82.41 5.7
 -4 7 5 52.03 5.69
 -3 -4 4 148.93 3.35
 -3 -3 3 290.31 3.59
 -3 2 1 718.46 7.38
 -3 3 1 254.45 5.42
 -3 3 2 6.53 1.72
 -3 4 3 154.19 5.08
 -3 5 2 76.44 4.39
 -3 6 2 393.35 9.11
 -3 6 3 214.7 6.81
 -3 6 4 163.93 6.52
 -3 7 4 8.89 3.28
 -3 7 5 94.83 6.12
 -3 7 6 38.19 4.66
 -3 8 4 17.97 4.28
 -2 -3 2 136.49 2.7
 -2 1 1 251.49 3.36
 -2 4 1 876.53 10.07
 -2 4 2 148.42 4.34
 -2 5 1 69.37 3.89
 -2 5 2 148.55 5
 -2 6 1 79.06 4.17
 -2 6 2 95.69 4.99
 -2 7 2 27.75 3.87
 -2 7 3 75.49 5.22
 -2 7 4 110.48 6.23
 -2 7 5 85.51 5.75
 -2 8 3 17.83 4.32
 -2 8 4 87.79 6.01
 -2 8 5 169.32 8.03
 -1 -3 1 1297.74 7.87
 -1 1 0 4286.34 11.13
 -1 2 0 4889.23 15.98
 -1 3 1 1281.85 9.79
 -1 4 0 393.1 6.4
 -1 4 1 860.4 9.32
 -1 5 0 162.97 4.87
 -1 5 1 208.65 5.26
 -1 5 2 93.87 3.95
 -1 6 1 290.79 6.94
 -1 6 2 183.01 6.01
 -1 7 1 53.99 4.19
 -1 7 2 11.72 2.89
 -1 7 3 6.93 2.74
 -1 8 3 45.01 4.97
 -1 8 4 43.99 4.81
 0 -3 1 1407.14 9.15
 0 1 0 1.09 0.53
 0 2 0 5130.92 13.95
 0 4 0 1076.78 9.73
 0 4 1 1297.46 10.36
 0 5 0 1.42 1.73
 0 5 1 307 6.17
 0 6 1 245.46 6.19
 0 7 1 123.92 5.5
 0 7 2 110.77 5.02
 0 7 3 12.1 2.66
 0 8 2 124.7 6
 0 8 3 169.68 6.48
 0 8 4 17.35 3.27
 0 8 5 61.08 4.79
 0 9 2 63.92 5.43
 0 9 3 63.45 5.54
 0 9 4 4.81 3.05
 1 -2 0 5089.29 14.93
 1 -1 0 4271.29 11.23
 1 2 0 4954.97 11.6
 1 3 0 267.27 3.99
 1 5 0 165.21 4.34
 1 6 1 400.45 7.27
 1 6 2 4.77 1.81
 1 7 2 15.99 2.63
 1 7 3 68.33 3.79
 1 8 3 24.99 3.65
 1 8 4 64.83 4.9
 1 8 5 61.06 5.22
 1 9 2 45.79 4.11
 1 9 4 53.85 4.48
 2 -2 1 43.23 2.2
 2 -1 0 587.54 5.14
 2 0 0 664.42 3.92
 2 3 0 502.02 4.45
 2 5 1 587.42 7.33
 2 6 1 455.74 7.4
 2 6 2 17.2 2.28
 2 7 1 111.27 4.24
 2 7 3 55.43 3.58
 2 8 2 20.08 3.24
 2 8 3 84.15 4.48
 2 8 4 5.63 2.63
 2 8 5 48.63 4.3
 2 9 3 10.9 3.41
 2 9 4 23.38 3.76
 3 -2 1 195.79 4.1
 3 5 1 390.67 5.46
 3 6 2 185.45 4.62
 3 7 2 81.91 3.85
 3 7 3 46.78 3.29
 3 7 4 49.19 3.62
 4 -1 1 420.7 5.67
 4 0 1 3.32 1.05
 4 1 1 438.61 3.93
 -3 -3 9 32.99 3.36
 -3 -2 6 63.49 3.03
 -3 -2 7 16.05 2.36
 -3 -2 9 231.35 6.92
 -3 -2 10 156.12 6.42
 -3 -1 6 9.03 2.22
 -3 -1 8 36.47 3.75
 -3 -1 9 17.24 3
 -3 -1 10 25.39 3.81
 -3 -1 11 211.88 8.09
 -3 0 6 110.41 4.33
 -3 0 7 4.63 2.31
 -3 0 8 8.17 2.6
 -3 0 9 -0.55 2.63
 -3 0 10 341.67 9.8
 -3 1 6 11.89 2.48
 -3 1 7 17.61 2.94
 -3 1 8 29.15 3.78
 -3 1 10 22.7 4.54
 -3 2 7 18.45 3.73
 -3 2 8 142.77 6.47
 -3 2 10 170.05 8.08
 -3 3 7 57.64 4.55
 -3 3 8 61.55 5.14
 -3 4 8 1.77 3.15
 -3 4 9 214.73 8.9
 -2 -3 4 39.82 1.46
 -2 -2 11 52.47 5.54
 -2 -1 5 4.9 1.75
 -2 -1 11 12.96 4.6
 -2 0 6 93.07 4.51
 -2 0 10 2.54 3.86
 -2 1 4 87.87 3.55
 -2 1 5 6.11 1.79
 -2 1 6 324.6 7.02
 -2 1 8 170.22 6.95
 -2 1 10 170.64 8.07
 -2 2 4 118.51 4.43
 -2 2 5 690.81 10.04
 -2 2 8 0.21 2.35
 -2 2 9 7.53 3.23
 -2 2 10 109.43 6.82
 -2 3 4 44.77 3.21
 -2 3 5 323.5 7.72
 -2 3 7 60.35 4.36
 -2 3 8 106.02 6.08
 -2 3 9 51.28 5.09
 -2 4 5 59.38 4.05
 -2 4 6 2.79 2.73
 -2 4 7 132.54 6.4
 -2 4 8 1.17 2.95
 -2 4 9 154.58 8.13
 -2 5 6 516.2 11.01
 -2 5 7 22.11 3.89
 -2 5 8 13.87 4.16
 -2 6 7 28.15 4.53
 -2 6 8 29.76 4.94
 -1 -5 3 61.3 1.37
 -1 1 2 452.01 5.21
 -1 2 3 574.59 7.25
 -1 3 2 450.48 6.49
 -1 3 3 185.41 4.68
 -1 3 4 810.96 10.27
 -1 3 5 57.59 3.62
 -1 4 3 582.04 8.86
 -1 4 4 110.21 4.59
 -1 4 5 409.65 8.79
 -1 4 7 13.85 3.69
 -1 4 8 84.99 5.69
 -1 4 9 90.02 6.77
 -1 5 5 8.49 2.76
 -1 5 6 73.98 4.96
 -1 5 7 1.14 3.03
 -1 5 8 18.22 4.09
 -1 6 4 286.32 7.19
 -1 6 6 42.71 4.68
 -1 6 7 215.05 8.84
 -1 6 8 13.86 4.97
 -1 7 6 106.75 6.46
 -1 7 7 105.05 6.9
 0 -6 2 400.95 5.45
 0 -4 1 1360.18 8.33
 0 -3 0 2.65 0.88
 0 -2 0 4802.13 11.49
 0 2 1 5025.26 15.34
 0 3 1 1372.77 9
 0 4 2 442.1 6.51
 0 5 2 154.87 4.44
 0 5 3 79.47 3.71
 0 5 4 104.74 4.82
 0 6 3 54.51 3.53
 0 6 5 5.27 2.66
 0 6 6 78.12 5.62
 0 6 7 49.25 5.26
 0 6 8 92.24 6.43
 0 7 4 214.38 6.77
 0 7 6 7.43 3.69
 0 7 7 40.37 5
 0 8 6 28.84 4.59
 1 -4 0 385.63 5.64
 1 -3 -1 1255.92 9.43
 1 -2 -1 1159.45 8.32
 1 -1 -1 627.54 5.29
 1 3 0 267.11 3
 1 4 0 401.47 4.13
 1 5 2 106.73 3.52
 1 6 2 4.18 1.63
 1 6 4 1.7 2.15
 1 6 5 30.76 3.9
 1 7 4 109.04 5.11
 1 7 5 260.75 7.76
 1 7 7 2.36 3.88
 1 8 5 54.08 4.45
 1 8 6 74.17 6.13
 2 -2 -2 1804.35 12.37
 2 -1 -2 237.14 4.36
 2 0 -2 20.85 1.85
 2 1 -2 234.65 3.37
 2 5 0 34.22 1.46
 2 6 2 19.08 2.06
 2 7 2 126.19 4.12
 2 7 4 2.03 2.13
 2 7 5 6.61 2.61
 2 7 6 2.04 3.42
 2 8 4 2.99 2.22
 2 8 5 41.5 4.3
 2 8 6 43.19 4.77
 3 0 -3 51.34 2.68
 3 1 -3 551.73 6.34
 3 2 -2 284.92 3.98
 3 3 -2 7.36 0.82
 3 7 3 43.99 3.26
 4 2 -3 303.07 5.16
 4 3 -2 1.13 0.94
 -3 -4 -3 403.46 5.14
 -2 -3 -4 141.58 2.03
 -2 -3 -3 476.85 4.33
 -2 -3 -2 198.7 3.18
 -2 -3 -1 530.55 5.37
 -2 -3 0 512.88 5.67
 -2 -1 -7 64.58 1.48
 -2 1 6 336.81 4.57
 -2 2 -8 202.22 4.96
 -2 2 7 97.63 2.42
 -2 3 -8 77.34 3.98
 -2 4 -9 88.83 4.76
 -2 4 -8 142.93 5.37
 -2 5 -8 43.28 3.99
 -2 6 -7 55.01 4.93
 -2 10 2 42.77 4.13
 -1 -2 -3 1003.63 3.45
 -1 -2 -2 769.85 4.12
 -1 -2 0 5054.72 13.13
 -1 -2 1 1116.05 6.98
 -1 -2 2 1772.31 9.24
 -1 -1 2 469.35 4.29
 -1 -1 3 2389.07 10.46
 -1 -1 4 137.52 3.08
 -1 0 5 593.07 5.7
 -1 1 -7 60.14 2.48
 -1 1 -6 613.45 6.84
 -1 1 5 472.48 4.19
 -1 2 -8 34.38 2.45
 -1 2 -7 82.81 3.27
 -1 2 5 270.28 2.84
 -1 3 -9 61.89 3.59
 -1 3 -8 30.58 2.87
 -1 3 -7 368.83 6.85
 -1 4 -7 56.45 3.62
 -1 5 -9 80.37 5.09
 -1 5 -7 11.54 2.54
 -1 5 -6 41.14 3.74
 -1 6 -8 86.2 5.23
 -1 6 -7 103.99 5.27
 -1 6 -6 16.43 2.8
 -1 7 -6 126.37 5.78
 -1 7 -5 260.21 7.49
 -1 7 4 25.35 2.18
 -1 8 -4 63.12 4.93
 -1 8 3 42.45 2.81
 -1 8 4 44.37 2.69
 -1 9 -2 44.19 4.16
 -1 9 -1 5.38 2.73
 -1 9 1 94.31 4.48
 -1 9 2 34.78 2.82
 -1 9 3 50.49 3.26
 -1 10 1 123.25 5.7
 -1 10 2 55.86 4.05
 0 1 -3 1275.79 7.44
 0 2 -7 238.99 5.06
 0 2 -5 751.17 7.78
 0 3 -8 42.66 3.19
 0 3 -7 106.07 3.95
 0 3 -6 713.9 8.99
 0 3 -5 3.14 1.35
 0 3 3 181.7 1.95
 0 4 -8 100.19 4.59
 0 4 -6 52.22 3.51
 0 4 -5 464.38 7.67
 0 4 -4 260.86 5.5
 0 4 3 160.55 2.51
 0 5 -8 82.23 4.51
 0 5 -7 240.14 6.85
 0 5 -6 326.39 7.4
 0 5 -5 122.2 4.7
 0 5 -4 99.35 4.14
 0 5 -3 75.59 3.44
 0 5 2 146.17 3.37
 0 5 4 99.84 2.11
 0 6 -8 95.85 4.98
 0 6 -7 54.87 4.37
 0 6 -6 58.05 3.86
 0 6 -5 4.39 2.18
 0 6 -4 89.53 4.33
 0 6 -1 230.04 5.48
 0 6 2 413.92 6.03
 0 6 3 51.33 2.24
 0 7 -7 46.27 4.9
 0 7 -6 15.69 3.58
 0 7 -5 137.12 5.58
 0 7 -3 11.16 2.41
 0 7 -2 114.03 4.62
 0 7 -1 124.39 4.53
 0 7 1 119.12 3.9
 0 7 2 122.51 3.93
 0 7 3 12.34 1.82
 0 8 -3 173.96 6.26
 0 8 -2 126.6 5.19
 0 8 -1 75.29 4.21
 0 8 0 82.31 4.25
 0 8 1 71.89 3.61
 0 8 2 119.79 4.19
 0 9 -3 59.22 4.4
 0 9 -2 64.25 4.69
 0 9 0 -1.64 1.62
 0 9 1 49.45 3.4
 0 9 2 57.43 3.51
 0 10 0 80.98 4.95
 0 10 1 85.4 4.55
 1 2 -3 571.28 6.37
 1 3 -5 54.04 2.79
 1 3 -4 818.96 8.66
 1 3 -3 184.51 4.11
 1 4 -6 121.86 4.63
 1 4 -5 408.46 7.16
 1 4 -4 107.44 3.7
 1 4 -1 878.51 8.48
 1 4 0 415.09 5.47
 1 5 -6 70.58 3.92
 1 5 -4 52.81 3.55
 1 5 -3 63.48 3.18
 1 5 -2 97.65 3.72
 1 5 0 161.7 3.92
 1 5 1 161.98 3.75
 1 6 -6 36.6 3.4
 1 6 -5 251.68 6.88
 1 6 -4 297.75 7.12
 1 6 -3 547.23 9.2
 1 6 -2 192.21 5.52
 1 6 -1 297.29 6.15
 1 6 0 1.62 1.46
 1 6 1 415.23 6.6
 1 7 -6 112.34 5.89
 1 7 -5 203.31 6.73
 1 7 -4 25.13 3.18
 1 7 -2 12.73 2.31
 1 8 -4 45.26 3.93
 1 8 -2 335.03 7.96
 1 8 -1 100.35 4.44
 1 8 0 46.66 3.55
 1 9 -3 53.4 4.92
 1 9 -2 39.06 4.19
 0 -3 -2 49.69 2.28
 0 -3 -1 1390.71 8.2
 0 -3 0 2.05 0.88
 0 -2 -3 1031.38 8.55
 0 -2 -2 2489.2 11.54
 0 -2 -1 5032.01 13.48
 0 -2 0 4806.49 9.81
 0 -1 -3 1274.41 9
 0 -1 -2 691.28 5.63
 0 -1 3 1318.53 7.56
 0 0 -2 1830.86 7.94
 0 0 -1 129.96 1.64
 0 0 1 125.7 1.54
 0 0 2 1816.27 7.94
 0 0 4 867.82 8.3
 0 1 1 441.32 3.59
 0 1 2 686.13 5.69
 0 1 4 150.66 3.85
 1 -4 4 5.93 0.94
 1 -3 5 89.01 2.83
 1 -3 6 378.67 6.06
 1 -2 5 412.36 6.22
 1 -2 6 665.33 8.58
 1 -2 7 86.51 4.09
 1 -1 -4 130.8 3.48
 1 -1 5 131.75 4.01
 1 -1 6 619.25 8.85
 1 0 -4 307.01 4.93
 1 0 6 101.37 4.19
 1 0 7 902.78 12.08
 1 1 -5 448.19 5.77
 1 1 -4 134.39 2.99
 1 1 4 1013.93 10.09
 1 1 5 131.61 4.36
 1 1 7 64.56 4.26
 1 2 -5 270.64 4.37
 1 2 -4 1007.04 6.74
 1 2 3 961.2 9.28
 1 2 5 434 7.84
 1 2 6 694.17 10.75
 1 3 -3 179.11 1.87
 1 3 2 252.95 4.75
 1 3 3 62.68 3.06
 1 3 4 599.85 8.89
 1 3 5 94.4 4.3
 1 4 2 1045.49 9.77
 1 4 5 247.78 6.85
 1 5 1 172.7 4.11
 1 5 2 109.13 3.85
 1 5 3 190.65 5.27
 2 -5 6 12.07 1.7
 2 -4 6 237.39 5.19
 2 -4 7 35.49 3.09
 2 -3 6 201.92 5.14
 2 -3 8 73.91 4.3
 2 -2 6 30.79 2.99
 2 -2 7 169.22 5.57
 2 -2 8 222.75 6.75
 2 -1 6 65.58 3.74
 2 -1 8 2.9 2.52
 2 -1 9 16.23 3.4
 2 0 9 20.38 4.24
 2 1 8 -0.93 2.79
 2 1 9 13.17 3.71
 2 2 5 53.95 3.83
 2 2 6 25.57 3.13
 2 2 7 171.7 6.38
 2 2 8 212.4 7.98
 2 3 4 140.4 4.99
 2 3 5 120.87 5.36
 2 3 6 193.1 6.84
 2 3 7 93.99 6.08
 2 3 8 79.01 5.85
 2 4 -5 54.38 1.75
 2 4 3 15.31 2.33
 2 4 4 142.34 5.29
 2 4 6 246.19 7.62
 2 5 0 33.5 2.18
 2 5 1 588.7 7.98
 2 5 3 54.16 3.94
 2 5 4 86.23 4.84
 2 5 6 10.06 3.36
 2 6 0 159.31 3.98
 2 6 1 448.24 7.29
 2 6 2 19.99 2.77
 2 6 4 136.61 6.06
 3 -4 7 42.61 3.75
 3 -3 7 178.27 6.03
 3 -2 8 19.25 3.97
 3 -2 9 72.69 5.6
 3 -1 8 51.22 4.73
 3 -1 9 1.43 3.94
 3 0 7 4.7 3.67
 3 1 7 11.68 3.39
 3 1 8 48.12 5.07
 3 2 6 2.24 2.63
 3 2 7 38.34 5.05
 3 2 8 23.04 4.82
 3 3 6 88.37 5.99
 3 3 7 182.67 7.7
 3 4 5 11.16 3.17
 3 4 6 75.69 5.77
 3 4 7 46.32 5.95
 3 5 3 86.85 4.66
 3 5 4 221.92 7.34
 3 5 5 191.99 7.47
 3 5 6 36.77 5.36
 3 6 1 14.83 2.27
 3 6 2 191.73 6.13
 3 6 3 14.13 3.4
 3 6 5 8.13 3.71
 3 7 0 90.12 3.75
 3 7 1 97.97 4.26
 3 7 2 82.04 4.67
 3 7 3 46.14 4.54
 3 7 4 50.33 5.1
 3 7 5 29.98 4.74
 4 -3 8 9.16 4.07
 4 -2 8 99.83 6.53
 4 1 7 59.63 5.86
 4 2 7 24.22 4.42
 4 3 6 33.48 4.53
 4 4 6 31.66 5.69
 4 5 4 59.51 5.58
 4 6 3 161.84 6.99
 4 6 4 72.36 5.48
 4 7 1 41.43 3.83
 4 7 3 97.03 5.76
 4 7 4 162.73 7.38
 4 8 2 41.83 4.58
 4 8 3 -0.13 3.33
 5 7 2 12.18 3.39
 -2 0 -3 585.58 5.73
 -2 1 -3 227.92 3.37
 -2 1 -2 1082.09 6.42
 -2 2 -3 438.87 3.97
 -1 -3 -2 248.63 4.32
 -1 -1 -2 1322.74 7.34
 -1 -1 -1 1380.18 6.82
 -1 0 -1 3005.41 8.31
 -1 1 -1 1418.37 4.21
 -1 5 -2 106.17 1.78
 -1 6 -3 14.01 1.19
 0 -3 -2 53.76 2.09
 0 -3 -1 1411.08 7.59
 0 -2 -1 4965.02 11.64
 0 2 0 5078.8 10.49
 0 6 -2 421.72 5.42
 0 6 -1 234.21 4.01
 0 7 -3 13.91 1.83
 0 7 -2 111.09 3.05
 1 -5 -2 99.85 2.7
 1 1 1 1427.96 6.83
 1 3 1 49.24 2.02
 1 4 1 943.76 8.12
 1 5 -1 197.7 4.3
 1 5 0 166.55 3.87
 1 6 -1 304.94 5.49
 1 6 0 3.14 1.61
 1 7 -2 14.64 2.14
 1 7 -1 52.5 2.98
 1 8 -4 42.62 3.16
 1 8 -3 42.13 3.07
 1 8 -2 336.76 6.52
 1 8 -1 94.39 3.68
 2 -4 -1 864.96 4.61
 2 0 1 1836.91 8.64
 2 3 1 543.23 6.59
 2 4 1 729.68 8.2
 2 5 0 34.23 2.78
 2 5 1 594.81 8.14
 2 6 -1 82.12 3.68
 2 6 0 163.69 4.69
 2 6 1 448.55 7.41
 2 7 -2 30.69 3.06
 2 7 0 17.63 2.46
 2 8 -3 15.87 2.59
 2 8 -2 33.78 3.4
 2 8 -1 8.29 2.35
 2 9 -4 14.59 3.02
 2 9 -3 36.93 3.65
 2 9 -2 12.83 2.98
 3 0 1 138.78 3.19
 3 1 1 61.51 2.59
 3 1 2 309.39 4.97
 3 2 1 208.52 4.53
 3 2 2 545.01 7.17
 3 3 1 112.57 4.03
 3 3 2 319.97 6.03
 3 4 0 188.72 5.1
 3 4 1 185.24 5.1
 3 4 2 6.83 2.36
 3 6 0 139.89 5.21
 3 6 1 13.39 2.65
 3 7 -2 32.37 3.71
 3 7 -1 52.32 4.12
 3 7 0 89.9 4.42
 3 8 -3 212.7 6.72
 3 8 -2 70.91 4.72
 3 8 -1 40.01 3.69
 3 8 0 16.48 3.26
 3 9 -4 209.4 7.23
 3 9 -3 15.11 3.63
 3 9 -2 13.34 3.25
 3 9 -1 31.51 3.79
 4 -3 0 132.2 2.26
 4 -1 1 423.13 5.36
 4 0 1 4.28 1.47
 4 1 1 444.5 6.9
 4 1 2 1628.2 12.17
 4 2 1 231.11 5.51
 4 2 2 24.13 2.52
 4 3 0 131.91 4.85
 4 3 2 266.7 6.15
 4 4 1 283.16 6.78
 4 4 2 38.18 3.46
 4 5 -1 47.16 4.08
 4 6 -1 23.37 3.39
 4 6 0 53.73 4.37
 4 6 1 38.33 4.19
 4 7 -2 110.85 5.75
 4 7 -1 134.45 6
 4 7 0 34.52 3.88
 4 7 1 42.12 4.26
 4 8 -3 111.41 5.99
 4 8 -2 83.59 5.56
 4 8 -1 27.16 3.79
 5 -2 0 25.43 2.1
 5 -1 0 106.53 3.59
 5 0 0 61.99 3.36
 5 0 1 58.97 3.14
 5 1 0 115.66 4.42
 5 1 1 85.1 3.89
 5 2 0 21.92 3.28
 5 2 2 68.91 3.9
 5 3 1 244.2 6.42
 5 3 2 136.11 5.28
 5 4 0 19.79 3.57
 5 5 -1 130.09 6.15
 5 5 0 15.49 3.14
 5 6 -1 27.08 3.97
 5 6 0 12.29 3.22
 5 6 1 97.16 5.43
 6 -2 -1 54.23 3.15
 6 -2 0 55.73 2.79
 6 -1 0 40.93 3.11
 6 0 0 6.4 2.55
 6 0 1 2.35 1.99
 6 1 0 49.61 4
 6 1 1 13.49 2.87
 6 2 -1 55.02 4.47
 6 2 0 59.73 4.5
 6 2 1 13.2 2.79
 6 3 -1 29.93 4.28
 6 3 0 77.65 5.15
 6 3 1 21.76 3.61
 6 4 -1 -0.26 3.24
 6 4 0 2.75 2.84
 6 4 1 156.72 6.71
 7 -1 -1 10.78 2.9
 7 0 -1 44.78 4.23
 7 0 0 28.62 3.17
 7 1 -1 9.34 3.52
 7 1 0 131.34 5.47
 7 2 -2 66.3 5.51
 7 2 -1 71.03 5.38
 7 2 0 24.8 4.15
 7 2 1 1.27 3.59
 -3 5 2 66.8 2.85
 -2 -5 -3 47.03 2.04
 -2 -3 0 517.07 6.19
 -2 -2 0 924.96 7.93
 -2 -1 1 280.37 5
 -2 0 1 348.33 4.99
 -2 1 2 259.06 4.74
 -2 2 2 1808.26 10.98
 -2 3 2 132.15 3.12
 -2 4 2 154.33 3.19
 -2 6 1 78.62 2.3
 -1 -4 -2 1025.35 5.78
 -1 -3 -1 42.17 1.52
 -1 -2 0 5039.18 13.37
 -1 0 1 57.01 1.89
 -1 1 1 644.06 4.78
 -1 2 1 1101.03 5.75
 -1 3 1 1315.16 6.07
 -1 4 1 883.92 4.66
 0 5 0 0.72 0.45
 0 7 -1 132.05 2.78
 1 -5 -6 74.51 2.75
 1 -4 -4 103.63 2.48
 1 0 -1 63.16 1.92
 1 1 -1 616.28 5.2
 1 2 -1 1097.42 7.34
 1 3 -1 1311.82 8.56
 1 6 -2 170.56 4.27
 1 8 -4 41.75 3.24
 2 -4 -9 151.09 5.96
 2 -4 -8 5.02 2.26
 2 -4 -7 127.22 4.64
 2 -4 -6 5.74 1.9
 2 -4 -5 57.32 2.53
 2 -3 -7 60.37 4.16
 2 -3 -6 141.57 4.81
 2 -3 -4 38.29 2.23
 2 -2 -5 694.96 9.11
 2 -2 -4 129.82 3.93
 2 0 -3 411.9 6.45
 2 1 -3 89.58 3.59
 2 2 -3 1034.71 11.08
 2 5 -2 147.27 4.25
 2 6 -4 33.17 3.51
 2 6 -3 38.19 3.1
 2 7 -5 83.26 5.18
 2 7 -4 105.49 4.82
 2 7 -3 79.13 3.72
 2 8 -7 -0.58 3.27
 2 8 -6 14.14 3.85
 2 8 -5 163.71 6.23
 2 8 -4 90.6 4.29
 3 -4 -9 213.68 6.95
 3 -4 -7 193.65 5.67
 3 -3 -10 5.58 3.09
 3 -3 -9 31.99 4.33
 3 -3 -8 54.04 4.59
 3 -3 -7 59.73 4.13
 3 -3 -6 67.49 3.85
 3 -2 -10 161.86 7.78
 3 -2 -8 154.04 6.44
 3 -2 -7 16.51 3.05
 3 -1 -10 24.95 4.78
 3 -1 -6 9.69 3.02
 3 -1 -5 829.81 11.55
 3 -1 -4 41.8 3.09
 3 0 -7 1.52 2.36
 3 0 -5 107.69 4.89
 3 0 -3 46.92 2.81
 3 1 -6 9.63 3.24
 3 1 -5 793.2 11.52
 3 1 -3 515.88 8.15
 3 2 -6 66.36 4.8
 3 2 -5 605.67 10.64
 3 2 -3 81.2 3.7
 3 3 -6 67.57 4.52
 3 3 -5 213.34 6.75
 3 3 -3 279.18 6.29
 3 4 -6 180.99 6.86
 3 4 -5 135.57 5.85
 3 4 -4 154.54 5.74
 3 4 -3 143.92 4.89
 3 5 -8 2.74 4.18
 3 5 -7 28.35 4.53
 3 5 -6 134.78 6.36
 3 5 -3 19.15 2.52
 3 6 -8 31.79 5.06
 3 6 -7 10.38 3.61
 3 6 -4 167.81 5.96
 3 7 -7 12.11 4.61
 3 7 -6 43.65 4.92
 3 7 -4 8.94 2.84
 3 8 -6 6.36 3.3
 3 8 -5 14.54 2.91
 4 -3 -10 24.24 4.53
 4 -3 -9 44.88 4.64
 4 -2 -9 114.72 6.01
 4 -2 -8 87.3 5.76
 4 -1 -9 58.48 5.86
 4 -1 -7 85.01 5.21
 4 -1 -6 15.75 3.01
 4 0 -9 182.28 8.1
 4 0 -8 261.09 9.15
 4 0 -7 286.63 8.92
 4 0 -5 1621.4 16.61
 4 1 -9 60.93 6.38
 4 1 -8 218.99 8.81
 4 1 -7 87.97 5.98
 4 1 -6 14.12 3.26
 4 1 -5 406.43 9.11
 4 2 -7 141.69 7.13
 4 2 -6 107.3 5.93
 4 3 -8 243.13 9.2
 4 3 -7 255.16 9.25
 4 3 -5 79.82 5.32
 4 4 -8 40.45 5.94
 4 4 -6 78.85 5.45
 4 4 -5 94.72 5.19
 4 5 -7 32.72 4.51
 4 6 -7 108.04 6.68
 4 6 -6 145.64 6.7
 4 7 -6 100.08 6.08
 5 0 -8 160.94 7.54
 5 1 -8 524.96 12.66
 5 1 -7 63.01 5.11
 5 2 -8 25.05 4.63
 5 3 -7 46.94 5.04
 5 4 -7 122.45 7.14
 -6 -1 7 2.64 3.2
 -6 -1 8 1.57 3.43
 -6 0 6 151.64 6.98
 -6 0 7 10.9 4.23
 -6 0 8 190.3 8.48
 -6 1 6 29.54 5.08
 -6 1 7 2.53 4.43
 -6 2 6 16.85 4.19
 -5 -3 7 45.43 3.97
 -5 -2 8 21.35 3.71
 -5 -1 5 41 4.14
 -5 -1 7 54.98 4.89
 -5 0 4 75.48 5.08
 -5 0 5 103.23 5.8
 -5 0 6 5.52 2.86
 -5 0 8 175.31 7.99
 -5 1 6 36.77 4.57
 -5 1 7 59.6 5.83
 -5 1 8 531.12 12.88
 -5 2 4 105.95 6.61
 -5 2 6 12.46 3.83
 -5 2 7 222.83 9.5
 -5 2 8 19.62 5.15
 -5 3 5 44.3 5.46
 -5 4 6 74.35 6.68
 -4 -2 4 728.87 9.13
 -4 -1 3 165.81 4.92
 -4 -1 4 133.94 4.83
 -4 0 4 10.89 2.85
 -4 0 5 1616.22 16.7
 -4 1 3 171.34 6.08
 -4 1 4 125.15 5.65
 -4 1 5 386.86 8.84
 -4 2 3 287.99 7.96
 -4 2 4 721.43 12.34
 -4 2 5 274.22 8.62
 -4 3 3 316.42 8.75
 -4 3 6 151.04 7.01
 -4 4 5 94.48 6.58
 -4 4 7 78.12 6.15
 -4 5 4 108.09 6.44
 -4 5 5 168.34 8.32
 -4 5 7 34.6 5.51
 -4 6 5 150.56 8.23
 -4 6 6 144.61 8.65
 -3 -3 3 297.05 4.12
 -3 0 2 3140.61 18.04
 -3 1 2 5.63 1.93
 -3 2 2 292.02 7.09
 -3 3 2 5.26 2.35
 -3 5 3 24.16 3.77
 -3 5 4 85.28 5.94
 -3 5 6 134.94 7.43
 -3 6 5 50.52 5.84
 -3 6 6 16.93 5.06
 -3 6 7 10.35 4.8
 -3 7 6 38.66 6.04
 -2 0 1 345.22 5.03
 -2 2 1 254.04 5.47
 -2 2 2 1850.08 14.45
 -2 3 2 140.8 4.74
 -2 4 2 147.45 5.09
 -2 4 3 108.98 4.84
 -2 5 2 140.11 5.41
 -2 5 3 157.67 6.23
 -2 5 4 79.23 4.85
 -2 6 3 40.25 4.65
 -2 6 4 32.38 4.02
 -2 6 6 112.65 6.59
 -2 7 4 104.02 6.5
 -2 7 6 101.95 6.93
 -2 7 7 37.27 5.47
 -2 8 5 172.23 8.24
 -2 8 6 12.77 4.13
 -1 -5 2 91.8 2.48
 -1 -3 1 1299.25 5.16
 -1 4 1 832.48 9.75
 -1 4 2 595.54 8.57
 -1 5 2 95.44 4.2
 -1 5 3 65.66 4.11
 -1 6 3 499.53 9.62
 -1 6 4 289.59 7.9
 -1 7 3 6.73 3.24
 -1 7 4 22.56 3.74
 -1 7 5 234.64 8.38
 -1 8 4 44.99 4.89
 -1 8 5 60.32 5.29
 -1 8 6 229.63 9.03
 -1 8 7 21.64 5.6
 -1 9 5 69.27 6.17
 0 -4 1 1331.63 9.5
 0 -2 0 4795.21 12.23
 0 5 2 149.9 4.45
 0 6 2 424.34 7.82
 0 6 3 53.71 3.67
 0 7 3 8.25 2.65
 0 7 4 217.39 6.75
 0 8 4 14.93 2.87
 0 8 5 59.29 4.71
 0 8 6 22.53 3.88
 0 8 7 149.98 7.42
 1 -4 0 382.7 6.17
 1 -2 0 5040.13 17.48
 1 -1 0 4298.24 14
 1 5 1 173.39 3.56
 1 6 2 4.72 1.54
 1 7 3 63.57 3.3
 2 -1 0 565.14 6.85
 2 6 2 17.6 1.55
 3 0 -1 3.68 1.47
 3 0 0 611.99 7.87
 3 1 0 163.03 3.86
 3 2 0 557.58 5.86
 4 2 0 194.34 4.51
 4 3 1 346.84 5.68
 4 4 1 269.06 4.03
 -2 -1 -2 1060.41 8.91
 -2 -1 -1 442.53 5.62
 -2 3 -1 550.41 5.25
 -2 4 -2 184.15 3.51
 -2 5 -2 96.74 2.37
 -1 -4 -3 98.49 3
 -1 -3 -2 257.07 4.15
 -1 -3 -1 42.61 2.02
 -1 -2 -1 953.4 6.52
 -1 -1 -1 1412.79 7.41
 -1 6 -2 4.36 0.67
 0 -4 -2 466.56 4.36
 0 -3 -1 1437.11 5.78
 0 7 -2 122.68 1.9
 1 -6 -4 305.71 4.01
 1 -1 0 4299.9 9.68
 1 1 0 4263.99 12.17
 1 2 0 4969.5 13.94
 1 3 0 261.97 3.7
 1 4 0 396.33 4.75
 2 4 0 120.67 3.56
 2 5 0 34.08 2.43
 2 6 -1 82.28 3.23
 2 7 -2 26.85 2.34
 2 7 -1 61.15 2.93
 2 8 -2 27.31 2.38
 3 -2 -1 726.81 7.55
 3 -1 -1 73.85 3.07
 3 -1 0 156.21 3.92
 3 2 0 553.22 7.81
 3 3 -1 255.16 5.86
 3 4 -1 115.29 4.27
 3 6 -2 400.87 7.87
 3 6 -1 58.03 3.52
 3 7 -3 107.1 4.66
 3 7 -2 27.03 2.98
 3 7 -1 52.75 3.43
 3 8 -4 14.61 2.68
 3 8 -3 206.27 5.82
 3 8 -2 60.56 3.55
 4 -5 -3 113.29 3.21
 4 -4 -3 82.06 3.39
 4 -4 -2 110.55 3.6
 4 -3 -1 83.85 3.34
 4 -2 -2 111.91 4.23
 4 -2 -1 373.06 6.66
 4 -1 -1 55.2 3.31
 4 -1 0 309.58 6.53
 4 0 -1 5.6 2.08
 4 1 -1 58.93 3.43
 4 1 0 295.94 6.59
 4 2 0 192.83 5.7
 4 3 -1 88.34 4.51
 4 3 0 136.94 5.27
 4 4 -2 120.52 5.3
 4 4 -1 61.61 3.81
 4 4 0 173.11 5.93
 4 5 -2 68.18 4.6
 4 5 -1 52.14 4.09
 4 6 -3 55.45 4.79
 4 6 -2 45.49 4.22
 4 7 -4 86.59 5.52
 4 7 -3 21.58 3.54
 4 8 -5 1.35 2.69
 4 8 -4 18.09 3.51
 4 8 -3 117.43 5.54
 4 8 -2 80.26 4.66
 5 -5 -5 26.38 3.07
 5 -5 -4 50.65 3.17
 5 -4 -4 63.91 3.87
 5 -4 -3 47.69 3.32
 5 -4 -2 192.4 5.16
 5 -2 -3 148.69 5.57
 5 -2 -1 36.17 3.48
 5 -1 -2 92.29 4.82
 5 0 -2 13.31 2.7
 5 0 -1 734.74 11.45
 5 1 0 113.75 5.32
 5 2 -2 285.44 7.63
 5 2 -1 33.96 4.2
 5 2 0 22.19 3.19
 5 3 -1 187.46 6.81
 5 3 0 124.68 5.69
 5 4 -3 49.82 5.03
 5 4 -1 64.48 4.61
 5 5 -3 136.47 6.6
 5 5 -1 126.93 6.27
 5 6 -4 102.5 6.41
 5 6 -3 33.63 4.22
 5 6 -2 6.12 3.48
 5 6 -1 23.11 3.6
 5 7 -4 39.96 4.97
 5 7 -3 4.6 3.88
 5 7 -2 75.11 5.61
 6 -4 -4 204.36 6.34
 6 -4 -3 36.45 3.54
 6 -3 -5 20 4.03
 6 -3 -4 3.82 3.13
 6 -3 -3 41.18 4.07
 6 -3 -2 169.42 5.98
 6 -2 -4 5.72 2.81
 6 -2 -3 15.07 3.44
 6 -2 -2 78.8 4.98
 6 -1 -4 10.68 3.21
 6 -1 -2 42.27 4.3
 6 -1 -1 115.01 5.48
 6 0 -3 18.14 3.52
 6 0 -2 15.12 3.21
 6 0 -1 46.84 4.02
 6 1 -1 113.87 5.64
 6 2 -4 5.98 3.2
 6 2 -3 15.81 4.32
 6 2 -2 86.76 6.05
 6 2 -1 49.9 4.41
 6 3 -3 34.19 4.89
 6 3 -2 166.67 7.39
 6 3 -1 25.03 4.28
 6 4 -2 15.6 3.76
 6 4 -1 -2.09 2.92
 6 5 -2 55.17 5.86
 7 -3 -5 23.94 4.53
 7 -3 -4 3.83 3.07
 7 -3 -3 69.2 5.13
 7 -2 -5 9.8 4.36
 7 -2 -4 5.62 3.99
 7 -2 -3 261.24 8.33
 7 -1 -4 29.43 4.61
 7 -1 -3 0.87 3.65
 7 -1 -2 18.41 4.62
 7 0 -4 2.54 3.41
 7 0 -3 124.55 7.01
 7 0 -2 3.08 3.35
 7 1 -3 0.86 4.54
 7 1 -2 11.81 3.79
 0 -4 0 1028.79 6.71
 0 -4 1 1281.89 5.91
 0 -4 4 262.73 3.3
 0 -3 0 2.07 0.79
 0 -3 6 705.81 8.68
 0 -3 8 42.67 3.59
 0 -3 9 133.04 5.81
 0 -2 -1 4993.44 13.93
 0 -2 0 4751.98 10.52
 0 -2 6 136.84 4.43
 0 -2 7 250.15 6.54
 0 -2 8 55.14 4.05
 0 -2 9 312.46 8.35
 0 -1 5 485.75 7.02
 0 -1 6 463.5 7.93
 0 -1 7 820.8 11.85
 0 -1 8 18.7 2.94
 0 0 4 871.57 8.7
 0 0 6 90.09 3.98
 0 0 9 5.43 3.19
 0 1 4 154.71 4.2
 0 1 5 505.38 8.26
 0 1 6 497.05 9.26
 0 1 7 823.05 12.84
 0 1 8 19.14 3.64
 0 1 9 273 9
 0 2 1 5006.13 14.6
 0 2 5 754.78 10.76
 0 2 6 134.85 5.22
 0 2 7 239.3 7.22
 0 2 8 73.35 5.55
 0 2 9 303.85 9.57
 0 3 3 181.19 4.47
 0 3 4 338.2 6.76
 0 3 5 3.99 2.22
 0 3 6 736.23 12.01
 0 3 7 104.05 5.35
 0 4 4 263.05 6.35
 0 4 6 51.2 4.58
 1 -6 0 2.7 1.45
 1 -6 1 382.4 5.2
 1 -4 8 13.65 2.73
 1 -3 -2 473.81 6.28
 1 -3 9 70.42 5.24
 1 -2 8 36.48 4.07
 1 -2 10 77.84 6.09
 1 -1 -3 2455.04 13.28
 1 -1 10 7.92 3.53
 1 0 -4 294.9 4.98
 1 0 -3 9607.63 24.19
 1 0 7 885.78 12.79
 1 0 8 25.72 3.68
 1 0 9 43.52 5.07
 1 0 10 158.59 8.21
 1 1 -3 2399.51 10.5
 1 1 8 32.39 4.51
 1 1 10 7.49 4.85
 1 2 -2 1770.01 5.69
 1 2 6 700.71 11.58
 1 2 7 77.2 5.41
 1 3 4 592.4 9.07
 1 3 6 366.97 8.54
 1 3 9 59.18 5.95
 1 4 0 376.64 4.26
 1 4 2 1034.76 9.92
 1 4 3 102.19 4.04
 1 4 6 246.85 8.32
 1 4 7 64.64 4.94
 1 4 8 15.58 4.78
 1 5 3 190 5.62
 1 5 4 893.51 12.51
 1 5 5 50.91 4.36
 1 5 6 41.85 4.99
 1 5 7 12.22 3.79
 1 6 4 0.36 2.1
 1 6 5 26.31 3.52
 2 -3 9 -2.56 3.36
 2 -2 9 29.54 4.08
 2 -1 9 14.8 4.39
 2 0 9 18.08 4.78
 2 1 -5 3.41 1.35
 2 1 -4 86.71 2.88
 2 1 9 9.66 4.05
 2 2 -5 692.67 7.25
 2 2 -4 114.16 2.85
 2 2 8 214.66 8.51
 2 2 9 28.25 5.63
 2 3 -4 35.88 1.55
 2 3 7 104.54 6.13
 2 4 7 32.54 4.36
 2 5 -1 65.44 1.88
 2 5 3 57.22 3.92
 2 5 4 87.51 5.04
 2 5 5 71.95 5.19
 2 5 6 9.32 3.36
 2 5 7 32.79 5.59
 2 6 2 17.22 2.62
 2 6 3 118.87 5.03
 2 6 5 158.06 6.96
 2 6 6 13.99 4.44
 2 6 7 63.52 6.62
 2 7 2 125.28 4.55
 2 7 3 56.8 4.08
 2 7 4 4.47 2.64
 2 7 5 8.28 3.9
 2 7 6 8.3 4.44
 3 4 7 41.15 5.02
 3 5 6 33.93 4.81
 3 6 3 13.18 2.98
 3 6 5 4.2 3.85
 3 6 6 161.46 7.92
 3 7 1 101.32 4.12
 3 7 2 86.33 4.48
 3 7 4 46.54 4.82
 3 7 5 28.11 4.53
 3 8 4 53.8 4.81
 3 8 5 13.8 4.19
 4 6 5 16.97 3.94
 4 7 1 45.91 3.42
 4 7 2 152.97 5.78
 4 7 3 90.58 5.19
 4 7 4 170.1 7.34
 -5 0 -6 4.34 2.52
 -5 1 -7 108.71 5.92
 -5 1 -6 0.5 2.75
 -5 2 -6 160.85 7.88
 -4 -1 -6 87.75 4.12
 -4 0 -7 135.7 5.79
 -4 0 -6 21.02 2.99
 -4 1 -8 26.18 3.91
 -4 1 -7 61.22 4.77
 -4 1 -6 91.44 5.03
 -4 2 -6 33.1 3.99
 -4 3 -6 35.72 4.44
 -4 4 -6 32.8 4.94
 -3 -5 0 144.57 3.21
 -3 -5 1 16 1.88
 -3 -4 -2 6.74 0.66
 -3 -3 -4 102.16 2.21
 -3 -1 -6 72.11 3.64
 -3 0 -7 1.86 1.96
 -3 0 -6 63.08 3.79
 -3 0 -5 45.3 3.33
 -3 1 -7 11.25 2.96
 -3 1 -6 73.75 4.54
 -3 2 -8 15.2 3.41
 -3 2 -7 41.13 4.28
 -3 2 -6 3.52 2.59
 -3 3 -8 38.02 4.94
 -3 3 -7 176.59 7.31
 -3 3 -6 90.07 5.23
 -3 4 -7 54.86 5.49
 -3 4 -6 72.76 5.72
 -3 5 -6 36.74 4.76
 -3 5 -5 194.4 7.66
 -3 6 -5 5.28 3.85
 -3 8 -3 59.48 6.24
 -2 -4 0 117.27 2.58
 -2 -2 -4 37.43 1.78
 -2 -1 -5 281.16 5.52
 -2 0 -6 89.69 3.88
 -2 0 -5 0.65 1.49
 -2 1 -7 71.37 4.28
 -2 1 -6 63.15 3.64
 -2 2 -6 25.86 2.98
 -2 3 -7 104.54 5.71
 -2 3 -6 198.7 6.52
 -2 4 -7 35.86 4.44
 -2 4 -6 241.7 7.77
 -2 4 -5 0.71 2.58
 -2 5 -7 34.4 4.96
 -2 5 -6 9.23 3.04
 -2 5 -5 73.43 4.87
 -2 5 -4 87.76 5.48
 -2 6 -6 13.56 3.79
 -2 6 -5 146.03 6.68
 -2 6 -4 136.62 6.25
 -2 7 -4 1.57 2.87
 -2 7 -3 54.11 5.11
 -2 8 -4 3.92 3.63
 -2 8 -2 21.61 4.22
 -2 9 -3 6.77 3.43
 -2 9 -2 15.87 4.2
 -2 9 -1 2.27 3.07
 -2 9 0 87.58 5.48
 -2 10 -1 76.4 5.52
 -1 -3 2 479.24 6.14
 -1 -3 3 170.37 4.26
 -1 -2 1 1131.35 7
 -1 -2 3 574.78 7.14
 -1 -1 -3 500.46 4.76
 -1 -1 4 123.93 3.67
 -1 0 -5 759.85 8.74
 -1 1 -4 1009.9 9.96
 -1 2 -4 183.52 4.81
 -1 3 -4 611.9 9.37
 -1 4 -6 233.12 7.37
 -1 4 -5 223.73 6.82
 -1 4 -4 4.42 2.22
 -1 4 -3 101.61 4.33
 -1 5 -6 41.21 4.77
 -1 5 -4 908.74 13.16
 -1 6 -6 12.79 4.1
 -1 6 -5 31.05 4.08
 -1 6 -4 3.17 2.4
 -1 6 -2 6.56 2.25
 -1 7 -6 139 7.65
 -1 7 -4 109.91 6.07
 -1 7 -3 62.12 4.54
 -1 7 -2 15.06 2.78
 -1 7 -1 34.82 3.14
 -1 8 -5 59.1 5.59
 -1 8 -4 56.04 5.25
 -1 8 -3 22.24 3.96
 -1 8 -2 47.35 4.26
 -1 8 -1 18.81 3.02
 -1 8 0 45.86 3.66
 -1 8 1 92.46 4.06
 -1 9 -4 32.09 5.08
 -1 9 -3 63.1 5.61
 -1 9 -2 42.56 4.27
 -1 9 -1 5.57 2.28
 -1 9 0 56.89 3.64
 -1 9 1 91.15 4.12
 -1 10 -2 4.08 2.8
 0 -1 2 697.25 5.9
 0 -1 4 167.69 4.28
 0 0 3 649.24 6.01
 0 0 4 894.71 7.95
 0 1 3 1317.24 7.56
 0 1 4 159.88 3.33
 0 1 5 506.1 6.42
 0 2 -4 277.07 5.78
 0 2 -1 4984.74 15.28
 0 2 4 276.68 3.91
 0 3 -2 52.63 2.6
 0 3 5 5.15 0.97
 0 3 6 710.69 7.15
 0 4 -3 160.63 4.66
 0 4 -2 450.13 6.86
 0 4 -1 1130.6 9.65
 0 4 5 455.45 4.46
 0 4 6 51.37 2.06
 0 5 -4 90.86 4.39
 0 5 -3 75.33 3.85
 0 5 0 0.6 0.96
 0 5 5 122.75 1.84
 0 6 -4 90.5 5.09
 0 6 0 881.91 9.41
 0 6 3 49.12 1.6
 0 7 -3 13.92 2.89
 0 7 -2 121.27 5.12
 0 7 0 0.69 1.27
 0 7 3 11.15 1.09
 0 8 -2 113.6 5.04
 0 8 -1 67.66 3.9
 0 8 0 74.75 3.51
 -7 0 -1 4.69 3.42
 -7 1 -2 19.54 4.36
 -7 1 -1 9.46 3.47
 -7 2 -1 0.19 3.32
 -6 -1 -2 49.03 3.64
 -6 -1 -1 14.28 2.5
 -6 0 -3 8.52 2.59
 -6 0 -2 1.28 2.32
 -6 1 -3 0.13 2.53
 -6 1 -2 50.15 4.54
 -6 2 -3 165.11 7.41
 -6 3 -3 28.72 4.82
 -6 3 -2 73.7 5.59
 -6 4 -2 10.29 4.13
 -6 4 -1 160.06 8.1
 -5 -2 -2 74.26 2.92
 -5 -1 -2 225.91 5.59
 -5 1 -2 212.24 6.3
 -5 2 -4 41.66 4.59
 -5 2 -3 27.16 4.26
 -5 3 -4 20.52 3.89
 -5 3 -3 73.33 5.72
 -5 3 -2 137.42 6.65
 -5 4 -4 32.05 4.73
 -5 4 -3 13.31 3.77
 -5 4 -2 7.72 3.48
 -5 5 -3 107.44 7.06
 -5 5 -2 64.14 6.26
 -5 5 -1 52.83 5.44
 -5 6 -1 104.25 6.84
 -4 -3 -1 357.98 3.56
 -4 -1 -2 1696.24 12.78
 -4 0 -3 44.31 3.31
 -4 0 -2 283.79 6.02
 -4 1 -3 14.26 2.57
 -4 1 -2 1615.35 14.83
 -4 2 -4 17.61 3.13
 -4 2 -3 18.27 2.93
 -4 2 -2 25.7 3.38
 -4 3 -4 201.2 7.28
 -4 3 -3 305.98 8.57
 -4 4 -4 10.05 3.45
 -4 4 -3 12.55 4.04
 -4 4 -2 37.6 4.08
 -4 5 -4 55.92 6.06
 -4 5 -3 77.73 5.46
 -4 5 -1 385.05 9.83
 -4 6 -3 158.94 7.73
 -4 6 -2 31.97 5.37
 -4 6 -1 39.2 4.88
 -4 7 -2 158.73 8.6
 -4 7 -1 41.8 5.1
 -4 8 1 26.47 5.02
 -3 -5 2 67.77 2.64
 -3 0 -3 23.95 2.51
 -3 0 -2 256.26 5.02
 -3 1 -3 0.59 1.6
 -3 2 -3 3.81 2.26
 -3 3 -3 56.34 3.84
 -3 4 -2 8.06 3.06
 -3 5 -3 87.95 5.36
 -3 5 -2 18.85 3.41
 -3 5 -1 420.97 9.59
 -3 6 -3 13.43 3.63
 -3 6 -1 14.3 3.19
 -3 7 -2 81.07 5.92
 -3 7 -1 96.16 6.09
 -3 7 0 93.94 5.31
 -3 8 -2 58.2 6.25
 -3 8 -1 118.84 6.79
 -3 8 0 17.14 4.65
 -3 8 1 40.63 5.33
 -3 9 0 24.3 5.63
 -3 9 1 27.98 4.74
 -3 9 2 16.12 4.73
 -2 -5 2 141.83 3.77
 -2 -4 1 860.5 6.8
 -2 -3 0 526.56 3.52
 -2 1 -2 1043.82 9.72
 -2 2 -2 233.19 5.36
 -2 3 -3 459.31 8.49
 -2 3 -2 184.59 5.11
 -2 5 -3 57.78 5
 -2 5 -1 570.37 9.74
 -2 6 -2 19.4 3.41
 -2 7 0 9.97 3.52
 -2 8 -2 21.28 4.5
 -2 8 -1 100.29 5.6
 -2 8 0 181.37 7.51
 -2 8 1 9.86 3.01
 -2 9 1 157.52 7.12
 -2 10 1 13.66 3.61
 -1 -3 1 1284.3 7.94
 -1 -2 0 5087.68 9.31
 -1 0 -1 3076.47 9.72
 -1 1 -1 1411.56 8.34
 -1 3 -2 246.21 5.4
 -1 3 -1 52.89 2.75
 -1 5 -1 155.98 5.18
 -1 6 0 3.14 1.99
 -1 7 -1 36.07 4.05
 -1 7 0 102.85 4.67
 -1 7 1 51.95 3.75
 -1 8 0 43.92 4.13
 -1 8 1 102.49 5.12
 -1 9 0 53.4 4.62
 -1 9 1 90.52 5.02
 -1 9 2 33.06 3.71
 0 -3 2 48.45 2.42
 0 -2 1 4961.19 14.74
 0 -2 2 2418.89 12.22
 0 -2 3 1015.52 9.06
 0 -1 1 454.72 4.01
 0 2 -1 5062.12 15.57
 0 3 0 1.21 1.06
 0 4 -1 1154.82 10.02
 0 5 0 0.01 1.56
 0 6 1 246.44 5.36
 0 7 0 0.8 1.56
 0 7 2 109.99 3.86
 0 8 1 75.21 3.69
 0 8 2 107.92 4
 1 -1 2 1318.39 8.78
 1 -1 3 508.5 6.68
 1 0 2 28.79 1.77
 1 0 3 1.04 1.27
 1 0 4 361.68 5.72
 1 5 2 101.23 2.04
 1 6 3 15.18 1.19
 2 2 5 53.96 2.46
 2 3 5 109.35 2.75
 -1 -2 -3 959.91 8.39
 -1 -1 -3 519.19 6.15
 -1 0 -4 349.15 5.39
 -1 1 -4 1038.19 8.36
 0 -5 -2 142.94 3.32
 0 -4 -2 452.44 5.41
 0 -4 -1 1323.79 7.65
 0 -3 -3 176.83 3.9
 0 -3 -2 50.11 2.17
 0 -3 -1 1424.5 7.4
 0 -2 -1 4979.97 12.16
 0 3 -5 5.67 1.3
 0 4 -5 466.67 5.09
 0 4 -4 268.69 3.08
 1 -6 -2 161.78 3.55
 1 -5 -1 201.66 3.24
 1 -5 0 158.42 1.96
 1 -1 2 1306.95 7.13
 1 0 2 28.05 1.67
 1 3 2 241.75 4.45
 1 5 -1 207.21 3.2
 2 -6 0 156.45 2.12
 2 -4 2 177.82 2.55
 2 -2 3 376.53 5.13
 2 -1 3 227.39 4.41
 2 0 3 595.27 7.18
 2 0 4 600.36 8
 2 1 3 225.08 4.91
 2 1 4 161.58 4.59
 2 3 2 186.9 4.38
 2 3 3 454.36 7.41
 2 4 1 760.45 8.66
 2 4 2 171.12 4.6
 2 4 3 10.21 2.03
 2 5 0 33.61 2.43
 2 5 1 597.08 8.05
 2 5 2 102.01 4.06
 2 6 -1 74.96 2.83
 2 6 0 162.93 4.21
 2 6 1 461.15 7.44
 2 7 -2 28.73 1.97
 2 7 -1 54.83 2.55
 3 -3 3 59 2.81
 3 -3 4 101.89 3.56
 3 -2 3 3.86 1.51
 3 -2 4 145.16 4.36
 3 -1 3 2.37 1.45
 3 -1 4 188.6 5.07
 3 0 3 23.87 2.62
 3 0 4 17.93 2.91
 3 0 5 46.6 3.73
 3 1 3 3.94 2.09
 3 1 4 191.34 5.64
 3 1 5 571.95 9.91
 3 2 3 3.65 1.88
 3 2 4 140.11 5.17
 3 3 2 319.74 6.56
 3 3 4 91.23 4.3
 3 4 2 8.63 2.56
 3 4 4 109.45 4.88
 3 6 1 13.72 2.85
 3 6 2 180.37 5.86
 3 7 -2 27.04 2.59
 3 7 -1 51.04 3.16
 3 7 0 85.68 4
 4 -4 3 14.48 2.18
 4 -4 4 7.12 2.17
 4 -3 3 307.18 6.39
 4 -3 4 209.93 5.59
 4 -2 3 22.87 2.6
 4 -2 4 18.83 2.76
 4 -2 5 2.98 2.71
 4 -1 3 14.41 3.01
 4 -1 4 156.83 5.46
 4 -1 5 8.01 2.73
 4 0 4 6.38 2.46
 4 0 5 383.64 8.37
 4 1 3 11.44 2.49
 4 1 4 154.24 5.59
 4 1 5 9.87 3.18
 4 2 3 20.32 3.12
 4 2 4 19.57 3.88
 4 2 5 1.04 3.04
 4 3 3 299.22 7.52
 4 3 4 207.5 7.23
 4 3 5 50.58 4.4
 4 4 3 12.02 3.18
 4 4 4 9.04 3.82
 4 5 1 377.68 8.08
 4 5 2 175.66 6.42
 4 5 3 83.18 5.29
 4 6 0 50.91 3.94
 4 6 2 28.48 3.93
 4 6 3 168.49 6.98
 4 7 -1 133.33 5.26
 4 7 0 36.32 3.72
 4 7 1 40.18 4.05
 4 7 2 161.07 6.58
 4 8 0 116.35 5.24
 5 -4 3 14.36 2.55
 5 -4 4 35.24 3.48
 5 -3 3 77.4 4.42
 5 -3 4 19.65 3.27
 5 -3 5 10.83 3.22
 5 -2 3 29.87 3.47
 5 -2 4 50.11 4.34
 5 -2 5 4.49 3.29
 5 -1 4 9.28 3.43
 5 -1 5 60.21 4.72
 5 0 3 222.73 7.02
 5 0 4 69.62 5.08
 5 1 3 28.84 3.65
 5 1 4 8.86 3.03
 5 1 5 59.74 5.16
 5 2 3 23.65 3.94
 5 2 5 2.19 3.19
 5 3 3 66.12 5.12
 5 3 5 12.03 4.96
 5 4 2 11.26 3.32
 5 4 3 18.08 3.73
 5 5 1 46.4 5.01
 5 5 2 63.21 5.14
 5 5 3 115.94 6.94
 5 6 0 9.53 3.1
 5 6 1 100.83 6.25
 5 6 2 59.36 5.93
 5 7 -1 166.82 6.54
 5 7 0 169.41 6.83
 5 7 1 42.72 4.98
 6 -3 3 27.67 3.84
 6 -3 4 12.23 3.48
 6 -2 3 161.78 6.66
 6 -2 4 60.63 5.17
 6 -1 3 6.84 3.15
 6 -1 4 8.99 3.45
 6 0 3 6.96 3.24
 6 0 4 101.8 6.13
 6 1 3 4.2 3.31
 6 2 3 172.62 8.07
 6 3 2 75.7 5.85
 -4 0 -7 129.38 4.97
 -4 1 -7 56.05 4.02
 -4 2 -8 107.09 5.74
 -4 2 -7 24.89 3.8
 -4 3 -7 23.52 3.74
 -3 -4 -2 4.83 0.78
 -3 -3 -4 100.09 1.74
 -3 -2 -6 -0.46 0.87
 -3 -1 -7 14.4 1.9
 -3 -1 -6 66.8 3.01
 -3 0 -7 4.23 2.08
 -3 0 -6 67.69 3.41
 -3 1 -8 56.92 4.26
 -3 1 -7 12.82 2.41
 -3 1 -6 70.65 3.89
 -3 2 -9 70.12 5.06
 -3 2 -8 18.84 3.18
 -3 2 -7 38.26 3.47
 -3 3 -8 29.77 3.94
 -3 3 -7 173.87 6.82
 -3 4 -7 40.29 4.81
 -3 4 -6 65.28 5.15
 -2 -4 0 115.64 2.66
 -2 -2 -4 34.33 1.34
 -2 -1 -6 62.01 2.67
 -2 -1 -5 258.54 4.48
 -2 0 -7 142.37 4.76
 -2 0 -6 84.85 3.56
 -2 0 -5 1.12 1.49
 -2 1 -7 65.72 3.72
 -2 1 -6 67.12 3.77
 -2 2 -8 197.9 6.4
 -2 2 -7 179.15 6.13
 -2 3 -8 85.31 5.39
 -2 3 -7 91.48 5.12
 -2 4 -7 38.3 4.02
 -2 4 -6 235.81 7.42
 -2 5 -7 32.76 4.12
 -2 5 -6 8.36 3.1
 -2 5 -5 61.82 4.73
 -2 6 -6 16.84 3.99
 -2 6 -5 160.44 6.83
 -2 7 -5 7.86 3.37
 -2 7 -4 2.45 2.63
 -2 9 -2 17.25 3.68
 -2 9 -1 -0.38 2.31
 -2 10 0 62.78 4.77
 -1 -3 1 1298.98 8.32
 -1 -3 2 440.9 5.58
 -1 -2 0 5030.24 11.72
 -1 -2 1 1140.01 6.99
 -1 -2 2 1710.61 9.99
 -1 -2 3 595.79 6.65
 -1 -1 3 2391.45 12.35
 -1 -1 4 132.12 3.63
 -1 1 -6 634.74 8.87
 -1 1 -5 137.06 4.05
 -1 1 -4 1016.69 9.09
 -1 2 -7 85.28 4.35
 -1 2 -6 709.97 10.4
 -1 3 -7 340.74 8.02
 -1 3 -6 384.17 8.2
 -1 3 -5 99.62 4.15
 -1 4 -7 65.83 5.04
 -1 4 -5 244.59 6.74
 -1 4 -4 5.12 1.89
 -1 5 -7 13 3.68
 -1 5 -6 41.28 3.81
 -1 5 -5 50.05 4.41
 -1 5 -4 904.19 12.4
 -1 6 -7 99.41 6.21
 -1 6 -4 3.1 2.16
 -1 6 -3 12.36 2.41
 -1 7 -6 133.72 6.67
 -1 7 -3 64.69 4.44
 -1 7 -2 17.05 2.65
 -1 8 -5 58.1 5.19
 -1 8 -3 30.39 3.64
 -1 8 -2 44.77 3.83
 -1 8 -1 17.26 2.93
 -1 8 0 47.09 3.46
 -1 9 -3 58.9 4.67
 -1 9 -2 39.69 4.19
 -1 9 0 53.67 3.87
 -1 10 -2 5.29 3.33
 -1 10 -1 3.23 2.53
 0 0 -1 126.52 1.43
 0 0 1 133.25 1.5
 0 0 2 1806.39 7.33
 0 0 3 664.73 5.42
 0 0 4 899.26 7.3
 0 1 -4 155.06 3.75
 0 1 -2 667.51 5.52
 0 1 -1 449.23 3.61
 0 1 3 1291.57 6.6
 0 1 4 159.63 2.96
 0 2 -5 729.83 9.45
 0 2 -3 1049.32 9.02
 0 2 4 263.69 3.17
 0 2 5 740.68 6.03
 0 3 -5 3.21 1.51
 0 3 -3 185.79 4.33
 0 3 -2 46.09 2.12
 0 3 4 348.17 3.13
 0 3 5 3.79 0.73
 0 4 -4 265.08 6.11
 0 4 -3 159.52 4.42
 0 4 -1 1266.78 9.82
 0 5 -6 348.32 8.77
 0 5 -5 125.77 5.57
 0 5 -4 90.42 4.23
 0 5 -3 77.14 3.7
 0 5 0 1.79 1.08
 0 6 -5 5.15 2.77
 0 6 -3 51.64 3.69
 0 6 -2 434.88 7.93
 0 6 -1 224.23 5.23
 0 6 0 870.39 9.23
 0 6 1 233.88 4.39
 0 6 3 53.85 1.72
 0 7 -5 144.56 6.48
 0 7 -4 209.59 7.11
 0 7 -3 9.9 2.51
 0 7 -2 123.44 5.03
 0 7 -1 125.46 4.44
 0 7 0 2.48 1.63
 0 7 1 127.49 3.74
 0 7 2 105.06 2.97
 0 7 3 9.52 1.15
 0 8 -4 15.46 3.22
 0 8 -3 161.63 5.95
 0 8 -2 127.31 5.44
 0 8 -1 70.04 3.84
 0 8 0 78.9 3.83
 0 8 1 70.12 3.23
 0 9 -2 58.85 4.44
 0 9 -1 45.15 3.71
 0 9 0 0.65 1.57
 -8 -5 0 22.56 5.44
 -8 -5 1 -1.14 4.44
 -8 -4 -2 17.75 5.34
 -8 -4 -1 7.13 5.5
 -8 -4 0 -0.25 4.49
 -8 -3 -2 5.29 4.72
 -8 -3 -1 23.98 5.75
 -8 -3 0 7.4 4.99
 -8 -3 1 20.08 5.76
 -8 -3 2 133.69 8.36
 -8 -2 -3 49.21 7.3
 -8 -2 -1 2.12 4.44
 -8 -2 0 9.41 5.4
 -8 -2 1 64 6.61
 -8 -1 -2 7.06 5.52
 -8 -1 -1 3.74 4.4
 -8 -1 0 0.19 4.4
 -8 -1 1 15.82 5.05
 -8 -1 2 2.53 4.43
 -8 0 -3 38.14 6.34
 -8 0 -2 86.96 7.88
 -8 0 -1 29.44 6.03
 -8 0 2 16.92 5.39
 -8 1 -3 35.44 6.78
 -8 1 -2 9.27 5.69
 -8 1 0 2.18 4.21
 -8 1 1 16.42 5.85
 -8 1 2 -1.15 4.36
 -8 2 -2 30.06 6.25
 -8 2 -1 7.47 4.55
 -8 2 1 58.93 7.13
 -8 2 2 65.38 7.45
 -8 3 -3 24.92 5.76
 -8 3 -1 31.74 5.58
 -8 3 0 3.39 4.3
 -8 3 1 9.16 4.77
 -8 3 2 139.02 8.72
 -8 4 -2 21.56 4.98
 -8 4 -1 14.82 4.99
 -8 4 0 5 4.08
 -8 4 1 57.55 6.77
 -7 -7 -1 4.53 4.45
 -7 -6 -3 18.07 4.92
 -7 -6 -2 19.53 5.04
 -7 -6 1 16.25 4.46
 -7 -5 -4 20.6 5.67
 -7 -5 -3 10.57 4.83
 -7 -5 -2 -0.16 4.05
 -7 -5 -1 1.87 4.29
 -7 -4 -5 28.94 5.9
 -7 -4 -4 3.49 4.71
 -7 -4 -3 34.99 5.62
 -7 -4 -2 35.43 5.94
 -7 -4 -1 5.83 4.87
 -7 -4 0 9.34 4.11
 -7 -4 1 59.18 6.16
 -7 -4 2 198.95 9.45
 -7 -3 -5 4.97 4.91
 -7 -3 -4 26.56 5.42
 -7 -3 -3 64.91 6.86
 -7 -3 -2 31.93 5.31
 -7 -3 -1 102.29 7.45
 -7 -3 0 68.92 6.98
 -7 -3 2 28.32 4.97
 -7 -2 -5 6.69 4.86
 -7 -2 -4 17.96 5.31
 -7 -2 -3 4.84 4.39
 -7 -2 -1 -0.87 4.55
 -7 -2 0 22.74 4.54
 -7 -2 1 59.44 5.8
 -7 -2 2 60.81 6.73
 -7 -2 3 276.38 10.39
 -7 -1 -6 8.21 5.65
 -7 -1 -5 1.3 4.59
 -7 -1 -3 10.39 4.38
 -7 -1 -2 17.8 5.47
 -7 -1 -1 10.28 4.92
 -7 -1 0 124.46 7.28
 -7 -1 2 14.82 4.95
 -7 -1 3 4.25 4
 -7 0 -6 91.85 8.21
 -7 0 -5 -3.88 5.17
 -7 0 -4 28.58 5.64
 -7 0 -3 14.31 5.17
 -7 0 -2 1.46 3.83
 -7 0 -1 6.31 3.96
 -7 0 0 29.87 4.99
 -7 0 1 49.23 5.31
 -7 0 3 129.49 7.93
 -7 1 -6 1.86 4.67
 -7 1 -4 57.87 6.31
 -7 1 -3 8.06 4.3
 -7 1 -2 15.52 5.11
 -7 1 -1 11.6 4.91
 -7 1 3 3.13 3.65
 -7 2 -5 9.49 5.77
 -7 2 -4 21.84 5.07
 -7 2 -3 4.41 4.07
 -7 2 -2 29.17 5.64
 -7 2 0 22.08 5.21
 -7 2 1 67.87 6.38
 -7 2 2 67.69 6.53
 -7 3 -5 7.45 4.65
 -7 3 -4 26.22 5.89
 -7 3 -3 60.88 6.79
 -7 3 -2 31.03 5.23
 -7 3 -1 106.43 7.35
 -7 3 1 17.95 4.36
 -7 4 -5 33.76 6.18
 -7 4 -4 4.51 4.03
 -7 4 -3 35.74 5.29
 -7 4 -2 39.41 5.14
 -7 4 -1 5.45 4.13
 -7 4 0 10.97 4.41
 -7 4 1 51.91 5.44
 -7 5 -4 20.7 5.21
 -7 5 -3 12.14 4.3
 -7 5 -2 5.47 3.98
 -7 5 -1 4.09 3.81
 -7 5 0 44.57 5.7
 -7 5 1 45.35 5.24
 -6 -7 -3 24.19 4.54
 -6 -7 -2 11.72 4.36
 -6 -7 -1 3.96 3.47
 -6 -7 0 7.07 4.12
 -6 -6 -6 11.58 4.89
 -6 -6 -5 16.4 4.46
 -6 -6 -4 11.19 4.72
 -6 -6 -3 54.57 5.79
 -6 -6 -2 5.17 3.54
 -6 -6 -1 1.07 3.27
 -6 -6 0 2.21 3.27
 -6 -6 1 48.78 5.15
 -6 -5 -6 25.06 6.02
 -6 -5 -5 6.66 4.89
 -6 -5 -3 113.92 7.2
 -6 -5 -2 15.99 4.04
 -6 -5 -1 16.79 4.77
 -6 -5 0 17.17 4.06
 -6 -5 1 32.41 5.2
 -6 -4 -7 15.34 5.28
 -6 -4 -6 35.95 6.29
 -6 -4 -5 30.76 5.71
 -6 -4 -4 74.17 6.27
 -6 -4 -3 70.33 6.64
 -6 -4 -2 10.99 4.03
 -6 -4 -1 145.71 7.04
 -6 -4 0 4.67 3.43
 -6 -4 1 -1.63 2.96
 -6 -4 2 13.47 3.91
 -6 -3 -7 34.21 6.81
 -6 -3 -6 5.04 4.62
 -6 -3 -5 9.82 4.79
 -6 -3 -4 6.83 4.32
 -6 -3 -3 27.29 5.19
 -6 -3 -2 76.98 6.42
 -6 -3 -1 16.32 4.07
 -6 -3 0 76.12 6.08
 -6 -3 1 20.58 4.48
 -6 -3 2 162.54 7.48
 -6 -2 -7 30.42 6.61
 -6 -2 -6 5.98 4.54
 -6 -2 -4 57.92 6.79
 -6 -2 -2 76.4 6.29
 -6 -2 -1 9.07 3.75
 -6 -2 0 53.23 5.14
 -6 -2 2 80.23 5.59
 -6 -2 3 16.19 4.04
 -6 -1 -7 6.44 5.4
 -6 -1 -6 14.67 5.37
 -6 -1 -4 7.04 3.93
 -6 -1 -3 5.04 4.12
 -6 -1 -1 15.03 3.65
 -6 -1 0 44.32 4.93
 -6 -1 2 40.39 4.41
 -6 -1 3 162.17 7.29
 -6 0 -8 43.45 6.81
 -6 0 -6 67.05 7.02
 -6 0 -5 14.6 4.53
 -6 0 -4 108.84 7.61
 -6 0 -1 1.02 2.95
 -6 0 0 2.63 2.94
 -6 0 1 42.9 4.87
 -6 0 2 18.99 3.7
 -6 0 3 19.82 3.97
 -6 1 -7 5.41 4.67
 -6 1 -6 14.11 4.87
 -6 1 -5 53.48 6.21
 -6 1 -4 8.35 4.15
 -6 1 -3 1.71 3.33
 -6 1 -1 10.14 3.29
 -6 1 0 52.86 5.22
 -6 1 1 109.32 6
 -6 1 2 48.43 5.27
 -6 2 -7 29.3 6.11
 -6 2 -6 8.52 4.49
 -6 2 -5 49.72 5.99
 -6 2 -4 66.93 6.7
 -6 2 -3 170.43 7.77
 -6 2 -2 81.02 6.15
 -6 2 -1 12.44 3.62
 -6 2 0 56.32 4.65
 -6 2 1 51.95 5.13
 -6 2 2 78.43 5.25
 -6 2 3 19.74 3.8
 -6 3 -7 37.46 6.11
 -6 3 -5 16.89 5.58
 -6 3 -4 11.07 4.31
 -6 3 -3 24.09 4.29
 -6 3 -2 68.29 5.69
 -6 3 -1 17.74 3.71
 -6 3 2 161.58 7.26
 -6 4 -7 16.65 5.36
 -6 4 -6 34.98 5.62
 -6 4 -5 32.28 5.19
 -6 4 -3 79.38 6.4
 -6 4 -2 9.58 3.45
 -6 4 -1 149.27 6.95
 -6 4 0 2.05 3.1
 -6 4 1 -3.05 2.57
 -6 4 2 15.77 3.49
 -6 5 -6 24.63 4.76
 -6 5 -5 4.12 4
 -6 5 -4 7.85 4.09
 -6 5 -3 99.41 6.47
 -6 5 -2 12.59 3.4
 -6 5 -1 12.46 3.92
 -6 5 0 19.75 3.76
 -6 5 1 42.38 4.82
 -6 6 -1 2.85 2.93
 -6 6 0 -0.16 2.83
 -5 -7 -5 6.27 3.5
 -5 -7 -4 8.04 3.51
 -5 -7 -3 61.25 5.09
 -5 -7 -2 5.9 2.99
 -5 -7 0 175.68 6.95
 -5 -6 -7 30.04 5.41
 -5 -6 -4 27.65 4.29
 -5 -6 -3 0.85 2.88
 -5 -6 -2 63.97 4.99
 -5 -6 -1 103.24 5.71
 -5 -6 0 11.23 3.24
 -5 -6 1 23.01 3.55
 -5 -5 -8 37.2 5.67
 -5 -5 -7 66.97 6.39
 -5 -5 -6 1.84 4.55
 -5 -5 -5 21.31 4.44
 -5 -5 -4 101.82 6.7
 -5 -5 -1 48.27 4.57
 -5 -5 0 13.25 3.11
 -5 -5 2 96.57 5.88
 -5 -4 -8 44.11 6.58
 -5 -4 -6 175.37 8.38
 -5 -4 -3 10.3 3.44
 -5 -4 -2 7.89 3.05
 -5 -4 -1 15.92 3.4
 -5 -4 0 15.06 3.17
 -5 -4 1 73.72 5.09
 -5 -3 -9 18.17 5.52
 -5 -3 -8 44.44 5.98
 -5 -3 -7 -4.61 3.96
 -5 -3 -5 9.82 4.05
 -5 -3 -3 69.7 5.42
 -5 -3 -2 142.8 6.51
 -5 -3 -1 265.17 8.45
 -5 -3 0 118.94 5.56
 -5 -3 2 29.95 4.05
 -5 -2 -8 197.4 9.35
 -5 -2 -7 59.88 6.72
 -5 -2 -6 149.87 7.63
 -5 -2 -5 2.01 3.3
 -5 -2 -4 48.26 4.77
 -5 -2 -2 79.5 5.61
 -5 -2 0 25.97 3.6
 -5 -2 1 35.4 3.47
 -5 -2 2 325.71 8.81
 -5 -2 3 148.41 6.51
 -5 -1 -9 52.41 7.36
 -5 -1 -8 75.22 7.55
 -5 -1 -6 -1.88 3.84
 -5 -1 -5 64.26 6.08
 -5 -1 -4 11.81 4.12
 -5 -1 -3 27.71 4.09
 -5 -1 -1 85.45 5.2
 -5 -1 0 112.55 5.63
 -5 -1 1 281.9 7.9
 -5 -1 3 244.42 7.82
 -5 0 -8 126.47 7.79
 -5 0 -7 47.31 6.24
 -5 0 -5 69.38 5.48
 -5 0 -4 67.38 5.12
 -5 0 -3 222.8 8.26
 -5 0 -1 60.61 4.37
 -5 0 0 65.34 4.29
 -5 0 1 774.37 12.7
 -5 0 2 8.53 2.71
 -5 0 3 155.56 6.45
 -5 1 -9 42.25 6.01
 -5 1 -7 102.69 7.7
 -5 1 -6 2.39 3.46
 -5 1 -5 66.81 5.42
 -5 1 -4 4.43 3.05
 -5 1 -3 31.86 4.22
 -5 1 -2 229.61 7.98
 -5 1 0 122.3 5.72
 -5 1 1 270.88 7.53
 -5 1 2 91.21 4.9
 -5 1 3 242.26 7.55
 -5 2 -9 12.96 5.67
 -5 2 -8 190.6 9.65
 -5 2 -7 54.56 6.63
 -5 2 -6 160.21 8.21
 -5 2 -5 2.59 3.29
 -5 2 -1 323.3 8.62
 -5 2 0 21.81 3.5
 -5 2 1 32.49 3.78
 -5 2 2 297.61 8.16
 -5 2 3 148.96 6.07
 -5 3 -9 24.69 5.55
 -5 3 -8 35.72 5.51
 -5 3 -7 -4.29 3.82
 -5 3 -5 12.65 4.19
 -5 3 -4 23.79 4.57
 -5 3 -3 69.98 5.49
 -5 3 -1 258.06 7.51
 -5 3 0 123.83 5.39
 -5 4 -8 45.7 5.75
 -5 4 -7 81.68 6.62
 -5 4 -5 16.31 3.87
 -5 4 -4 29.68 4.24
 -5 4 -3 20.27 4.17
 -5 4 -2 10.84 3.02
 -5 4 -1 23.8 3.68
 -5 4 0 15.58 2.95
 -5 4 2 188.48 6.53
 -5 5 -8 41.84 5.68
 -5 5 -6 0.08 3.57
 -5 5 -5 20.7 4.54
 -5 5 -4 83.66 5.71
 -5 5 -3 113.38 6.07
 -5 5 -1 42.77 3.88
 -5 5 0 13.23 2.66
 -5 5 1 124.36 5.41
 -5 6 -5 48.49 5.19
 -5 6 -4 36.11 4.37
 -5 6 -3 1.57 2.48
 -5 6 -2 57.51 4.28
 -5 6 -1 101 4.84
 -5 6 0 13.22 2.67
 -4 -7 -6 28.17 4.6
 -4 -7 -5 4.25 3.6
 -4 -7 -4 142.21 6.26
 -4 -7 -3 89.56 5.05
 -4 -7 -2 149.09 5.64
 -4 -7 -1 39.59 3.72
 -4 -6 -9 22.53 5.33
 -4 -6 -7 158.1 7.88
 -4 -6 -6 82.93 6.19
 -4 -6 -5 14.49 3.52
 -4 -6 -4 71.7 5.12
 -4 -6 -3 175.94 6.55
 -4 -6 -2 19.83 3.25
 -4 -5 -9 14.14 4.43
 -4 -5 -8 1.15 3.95
 -4 -5 -7 36.49 5.32
 -4 -5 -6 78.3 5.97
 -4 -5 -5 20.52 3.75
 -4 -5 -4 69.52 5.25
 -4 -5 -3 89.7 5.46
 -4 -5 -2 197.74 6.79
 -4 -4 -9 53.35 6.61
 -4 -4 -8 197.36 9.03
 -4 -4 -7 -1.96 4.06
 -4 -4 -6 29.67 4.31
 -4 -4 -5 14.63 3.94
 -4 -4 -4 6.83 2.89
 -4 -4 -3 14.05 3.31
 -4 -4 -2 39.65 4.12
 -4 -3 -10 4.23 4.56
 -4 -3 -9 41.71 5.86
 -4 -3 -8 6.64 3.97
 -4 -3 -5 52.57 4.94
 -4 -3 -4 198.28 7.28
 -4 -3 1 80.64 4.26
 -4 -2 -10 25.31 5.33
 -4 -2 -9 105.96 7.88
 -4 -2 -8 96.05 7.15
 -4 -2 -6 30.43 4.57
 -4 -2 -5 3.49 2.91
 -4 -2 -4 19.07 3.21
 -4 -2 -3 22.46 3.2
 -4 -2 0 187.04 5.79
 -4 -2 2 108.72 5.01
 -4 -1 -10 8.29 4.45
 -4 -1 -9 35.84 5.49
 -4 -1 -7 52.83 5.6
 -4 -1 -6 92.01 5.47
 -4 -1 -5 5.88 2.59
 -4 -1 -4 156.27 5.97
 -4 -1 1 59.93 3.83
 -4 -1 2 62.03 3.95
 -4 0 -9 85.52 7.35
 -4 0 -8 170.06 8.44
 -4 0 -7 124.83 6.69
 -4 0 -6 22.79 3.65
 -4 0 -4 8.36 2.58
 -4 0 -3 43.49 4.02
 -4 0 -1 5.14 2.13
 -4 0 0 -0.07 2.12
 -4 0 1 9.6 2.08
 -4 0 3 160.44 5.47
 -4 1 -10 10.25 4.41
 -4 1 -9 31.25 5.64
 -4 1 -8 21.77 4.51
 -4 1 -7 53.1 5.6
 -4 1 -6 93.74 5.5
 -4 1 -5 7.04 2.77
 -4 1 -4 155.86 5.89
 -4 1 -3 13 3.06
 -4 1 -1 424.97 8.83
 -4 1 0 283.91 6.76
 -4 1 1 57.92 3.65
 -4 1 2 61.47 3.68
 -4 1 3 163 5.4
 -4 2 -10 19.83 5.97
 -4 2 -9 116.01 7.42
 -4 2 -8 111.2 7.16
 -4 2 -7 29.04 4.6
 -4 2 -5 2.12 2.6
 -4 2 -3 17.63 3.18
 -4 2 -1 219.74 6.45
 -4 2 0 200.13 5.86
 -4 2 1 366.38 7.56
 -4 3 -10 7.17 4.69
 -4 3 -9 36.94 5.31
 -4 3 -7 19.29 4.18
 -4 3 -6 28.5 3.93
 -4 3 -3 297.9 7.81
 -4 3 -1 320.92 7.41
 -4 3 0 135.13 4.88
 -4 3 1 86.72 4.07
 -4 3 2 1.75 2.18
 -4 4 -9 62.86 6.46
 -4 4 -8 190.02 8.52
 -4 4 -7 2.02 3.1
 -4 4 -6 29.55 4.55
 -4 4 -5 14.49 3.15
 -4 4 -3 12.9 2.93
 -4 4 1 63.45 3.79
 -4 4 2 118.65 4.68
 -4 5 -9 14.11 4.22
 -4 5 -8 0.94 3.63
 -4 5 -7 30.94 4.47
 -4 5 -6 80.39 5.41
 -4 5 -5 28.43 3.87
 -4 5 -1 383.32 7.52
 -4 5 0 102.12 4.19
 -4 5 1 51.74 3.39
 -4 6 -7 170.13 7.57
 -4 6 -6 80.78 5.63
 -4 6 -5 13.59 3.15
 -4 6 -4 73.67 4.71
 -4 6 -3 159.66 5.65
 -3 -7 -6 57.61 4.8
 -3 -7 -5 25.24 3.58
 -3 -7 -2 75.52 3.55
 -3 -6 -10 35.07 5.28
 -3 -6 -9 42.08 5.02
 -3 -6 -8 17.61 4.12
 -3 -6 -7 4.42 3.65
 -3 -6 -6 149.01 6.42
 -3 -6 -4 20.38 3
 -3 -6 -2 180.17 5.36
 -3 -6 -1 13.65 2.06
 -3 -6 0 133.21 4.4
 -3 -5 -10 -4.27 4.37
 -3 -5 -8 48.15 5.44
 -3 -5 -7 92.05 5.97
 -3 -5 -5 192.65 6.48
 -3 -5 -2 15.78 2.71
 -3 -5 -1 404.54 7.59
 -3 -5 0 145.18 4.56
 -3 -5 1 12.8 2.2
 -3 -4 -9 0.07 3.7
 -3 -4 -8 8.06 3.67
 -3 -4 -7 44.97 4.34
 -3 -4 -6 63.12 4.91
 -3 -4 -5 13.92 2.8
 -3 -4 -2 5.07 2.46
 -3 -4 1 113.76 4.21
 -3 -4 2 658.26 9.41
 -3 -3 -11 22.76 5.43
 -3 -3 -10 3.65 4.04
 -3 -3 -9 17.76 4.6
 -3 -3 -8 30.14 4.46
 -3 -3 -6 83.57 5.05
 -3 -3 -5 69.57 4.3
 -3 -3 -3 48.8 3.44
 -3 -3 -2 318.11 6.9
 -3 -3 0 131.99 4.5
 -3 -3 1 252.96 5.78
 -3 -3 2 7.18 2.3
 -3 -2 -11 50.15 6.35
 -3 -2 -10 6.1 4.28
 -3 -2 -9 69.86 5.84
 -3 -2 -8 13.14 3.98
 -3 -2 -7 40.34 4.29
 -3 -2 -5 249.93 7.1
 -3 -2 -3 4.37 1.93
 -3 -2 -2 547.17 8.68
 -3 -1 -11 8.31 4.94
 -3 -1 -10 23.99 5.37
 -3 -1 -9 -0.23 3.95
 -3 -1 -8 53.79 4.94
 -3 -1 -7 14.76 3.3
 -3 -1 -6 68.17 4.42
 -3 -1 -5 557.4 10.43
 -3 -1 -3 2.81 1.75
 -3 -1 1 70.54 3.08
 -3 -1 2 5.07 1.79
 -3 0 -10 5.18 4.91
 -3 0 -9 11.62 4.74
 -3 0 -7 2.34 2.58
 -3 0 -6 68.25 4.43
 -3 0 -5 42.86 3.44
 -3 0 0 612.95 8.49
 -3 0 2 3159.43 18.8
 -3 1 -11 8.91 4.72
 -3 1 -10 31.56 5.49
 -3 1 -9 -4.76 3.32
 -3 1 -7 13.62 3.18
 -3 1 -6 75.08 4.88
 -3 1 -5 565.72 10.54
 -3 1 -3 1.81 1.98
 -3 1 -2 314.67 6.39
 -3 1 -1 60.7 3.27
 -3 1 0 160.94 4.47
 -3 1 1 72.43 3.1
 -3 1 2 5.41 1.93
 -3 2 -11 54.1 6.64
 -3 2 -10 0.52 3.78
 -3 2 -8 20.32 4.3
 -3 2 -7 42.42 4.89
 -3 2 -3 3.6 2.08
 -3 2 -1 203.66 5.05
 -3 2 0 529.56 7.6
 -3 2 1 745.07 8.8
 -3 2 2 282.24 5.79
 -3 3 -11 14.64 5.23
 -3 3 -7 176.81 6.92
 -3 3 -6 92.55 5
 -3 3 -5 72.02 4.21
 -3 3 -3 58.23 3.5
 -3 3 -2 311.2 6.31
 -3 3 0 123.57 3.86
 -3 3 1 244.68 5.17
 -3 3 2 7.31 1.67
 -3 4 -10 2.94 3.88
 -3 4 -9 6.36 3.76
 -3 4 -8 7.37 3.42
 -3 4 -7 47.8 4.97
 -3 4 -6 76.57 5.12
 -3 4 -3 403.77 7.56
 -3 4 -2 8.27 2.15
 -3 4 -1 180.49 4.7
 -3 4 0 190.96 4.49
 -3 4 1 121.62 3.78
 -3 5 -10 -1.52 3.93
 -3 5 -9 16.38 4.08
 -3 5 -7 92.37 5.73
 -3 5 -6 34.26 3.86
 -3 5 -5 184.23 5.95
 -3 5 -3 89.9 4.08
 -3 5 0 147.12 3.81
 -3 6 -9 43.2 4.92
 -3 6 -8 16.14 3.58
 -3 6 -7 6.27 2.84
 -3 6 -6 149.92 5.89
 -3 6 -5 6.29 2.73
 -3 6 -3 16.29 2.33
 -3 6 -2 177.92 4.49
 -3 6 -1 13.2 1.68
 -3 6 0 133.19 3.27
 -2 -7 -7 25.24 3.6
 -2 -7 -6 6.55 2.72
 -2 -7 -4 2.38 1.65
 -2 -7 -2 112.95 3.17
 -2 -6 -10 47.64 5.58
 -2 -6 -9 -1.17 2.83
 -2 -6 -8 28.63 3.9
 -2 -6 -6 14.76 3.16
 -2 -6 -3 119.59 4.14
 -2 -6 0 155.71 3.6
 -2 -5 -11 88.53 6.91
 -2 -5 -9 1.51 3.41
 -2 -5 -8 42.51 4.94
 -2 -5 -6 13.44 2.71
 -2 -5 -4 75.62 3.77
 -2 -5 -3 47.96 3.01
 -2 -5 -2 95.11 3.48
 -2 -5 -1 575.88 7.11
 -2 -4 -11 21.6 4.89
 -2 -4 -10 36.01 5.53
 -2 -4 -9 85.99 6.15
 -2 -4 -8 134.51 6.22
 -2 -4 -6 246.47 7.09
 -2 -4 -4 132.27 4.47
 -2 -4 -3 12.62 2.05
 -2 -3 -11 23.21 4.72
 -2 -3 -4 143.69 4.62
 -2 -3 -3 483.42 7.48
 -2 -3 1 553.17 6.79
 -2 -2 -12 52.02 6.25
 -2 -2 -2 225.56 4.68
 -2 -2 -1 39.12 2.55
 -2 -2 0 915.63 8.55
 -2 -2 1 256.97 4.77
 -2 -1 -2 1076.97 9.66
 -2 -1 0 574.9 6.56
 -2 -1 1 260.27 4.7
 -2 0 -2 436.93 6.37
 -2 0 -1 1823.06 11.46
 -2 0 1 327.47 5
 -2 1 -2 1080.57 9.63
 -2 1 -1 467.55 5.93
 -2 1 0 593.27 6.5
 -2 1 1 261.82 4.47
 -2 2 -2 239.53 4.9
 -2 2 0 844.45 7.45
 -2 3 -3 446.92 6.74
 -2 3 -2 182.73 4.02
 -2 3 -1 550.19 6.36
 -2 3 0 481.67 5.47
 -2 3 1 550.33 5.94
 -2 4 -3 10.53 1.73
 -2 4 -2 175.09 3.9
 -2 4 -1 758.9 7.23
 -2 4 0 118.66 2.67
 -2 5 -11 104.63 7.19
 -2 5 -4 82.48 3.7
 -2 5 -2 103.16 3.15
 -2 5 -1 584.15 5.84
 -2 5 0 31.57 1.49
 -2 6 -10 45.23 5.57
 -2 6 -9 -1.57 3.22
 -2 6 -8 35.07 4.11
 -2 6 -7 61.68 4.61
 -2 6 -6 19.86 2.92
 -2 6 -2 17.62 1.62
 -2 6 -1 445.74 3.92
 -1 -7 -4 111.34 3.31
 -1 -6 -11 22.41 4.48
 -1 -6 -10 52.77 5.45
 -1 -6 -9 10.33 3.71
 -1 -6 -8 94.31 5.24
 -1 -6 -7 105.07 4.91
 -1 -6 -5 27.7 2.61
 -1 -6 -4 1.53 1.28
 -1 -6 -3 13.98 1.66
 -1 -5 -4 874.83 9.47
 -1 -5 -3 189.92 4.07
 -1 -4 -2 1029.95 7.79
 -1 -4 -1 928.53 6.73
 -1 -4 0 386.8 4.03
 -1 -3 -2 264.4 4.19
 -1 -3 -1 40.42 1.83
 -1 -3 0 253.71 3.31
 -1 -2 -1 946.27 6.43
 -1 -2 0 5038.68 13.71
 -1 -2 1 1115.55 6.98
 -1 -1 -1 1395.68 7.51
 -1 -1 0 4384.89 12.42
 -1 -1 1 653.84 5.2
 -1 0 -1 3006.29 10.58
 -1 0 0 336.82 3.63
 -1 0 1 56.83 1.75
 -1 1 1 628.94 4.71
 -1 2 -1 967.25 5.96
 -1 2 0 4960.5 11.49
 -1 3 -1 40.75 1.46
 -1 3 0 256.67 2.54
 -1 4 -1 914.84 5.26
 -1 6 -3 14.63 1.53
 -1 6 -2 4.14 0.71
 0 -6 -4 90.28 2.73
 0 -5 -2 147.44 2.07
 0 -3 -1 1367.56 4.63
 0 4 -1 1408.63 5.02
 -8 -4 -2 24.48 5.56
 -8 -3 -2 2.38 4.57
 -8 -3 -1 30.79 6.61
 -8 -2 -3 53.45 7.02
 -8 -2 -2 27.97 5.72
 -8 -2 -1 3.49 5.28
 -8 -1 -3 38.21 6.75
 -8 -1 -2 8.75 5.89
 -8 -1 -1 4.9 4.5
 -8 0 -3 43.55 6.46
 -8 0 -2 80.01 7.85
 -8 0 -1 34.3 6.01
 -8 1 -3 34.7 6.95
 -8 1 -2 13.58 5.9
 -8 1 -1 4.68 4.51
 -8 2 -3 59.89 7.13
 -8 2 -1 6.74 5.28
 -8 3 -3 22.14 5.78
 -8 3 -2 5.52 4.97
 -7 -6 -3 15.78 4.98
 -7 -6 -2 15.38 4.68
 -7 -5 -4 24.64 6.01
 -7 -5 -3 11.68 5.06
 -7 -5 -2 2.54 4.02
 -7 -5 -1 2.64 3.93
 -7 -4 -5 31.34 6.65
 -7 -4 -4 5.56 4.67
 -7 -4 -3 34.98 5.81
 -7 -4 -1 5.69 4.14
 -7 -4 0 5.95 4.18
 -7 -3 -5 5.83 4.91
 -7 -3 -4 30.9 5.84
 -7 -3 -3 64.67 6.75
 -7 -3 -2 31.92 5.83
 -7 -3 -1 102.43 7.91
 -7 -3 0 67.38 6.51
 -7 -2 -5 7.96 5.9
 -7 -2 -4 18.81 5.39
 -7 -2 -3 9.12 5.13
 -7 -2 -2 22.12 4.97
 -7 -2 -1 0.96 3.92
 -7 -1 -5 1.1 4.5
 -7 -1 -4 56.68 7.13
 -7 -1 -3 9.52 4.55
 -7 -1 -2 23.98 5.74
 -7 -1 -1 10.12 4.94
 -7 0 -6 87.45 8.88
 -7 0 -5 -0.01 4.44
 -7 0 -4 28.2 6.01
 -7 0 -3 14.29 4.85
 -7 0 -2 2.68 4.17
 -7 0 -1 3.95 3.99
 -7 0 0 25.46 5.21
 -7 1 -6 0.34 4.66
 -7 1 -5 2.36 4.44
 -7 1 -3 6.4 4.5
 -7 1 -2 24.32 5.78
 -7 2 -6 11.83 5.95
 -7 2 -5 11.5 5.32
 -7 2 -4 22.31 6.06
 -7 2 -3 7.92 5.2
 -7 2 -1 -0.05 3.87
 -7 2 0 25.13 4.74
 -7 3 -5 8.42 4.99
 -7 3 -4 26.1 5.18
 -7 3 -3 74.4 6.76
 -7 3 -2 31.68 5.85
 -7 3 -1 105.91 7.39
 -7 4 -5 26.31 5.74
 -7 4 -4 7.48 4.15
 -7 4 -3 36.22 5.41
 -7 4 -2 38.84 5.37
 -7 5 -4 24.15 4.71
 -7 5 -3 12.28 4.29
 -6 -7 -5 26.19 5.02
 -6 -7 -4 0.2 3.59
 -6 -7 -2 10.64 3.65
 -6 -6 -6 13.94 4.91
 -6 -6 -5 9.75 4.48
 -6 -6 -4 7.41 4.75
 -6 -6 -3 57.16 6.08
 -6 -6 -2 7.45 3.9
 -6 -6 -1 0.48 3.16
 -6 -5 -6 23.58 5.3
 -6 -5 -4 9.66 4.26
 -6 -5 -3 115.27 7.85
 -6 -5 -2 13.08 4.66
 -6 -5 -1 12.74 3.85
 -6 -5 0 16.9 4.39
 -6 -4 -6 30.09 6.12
 -6 -4 -5 31.7 6.19
 -6 -4 -4 83.6 7.36
 -6 -4 -2 9.05 4.55
 -6 -4 -1 146.87 7.85
 -6 -4 0 0.99 3.35
 -6 -3 -6 5.62 4.97
 -6 -3 -5 7.85 5.29
 -6 -3 -4 5.96 4
 -6 -3 -3 28.7 5.52
 -6 -3 -2 79.44 6.95
 -6 -3 -1 15.39 3.88
 -6 -3 0 75.02 6.17
 -6 -3 1 25.01 4.67
 -6 -2 -7 30.13 5.74
 -6 -2 -6 6.28 4.79
 -6 -2 -4 62.8 6.29
 -6 -2 -2 76.7 5.99
 -6 -2 -1 8.3 3.58
 -6 -2 1 47.53 4.79
 -6 -1 -7 7.75 5.3
 -6 -1 -6 13.01 5.02
 -6 -1 -5 39.93 6.23
 -6 -1 -4 8.96 4.02
 -6 -1 -3 0.57 3.81
 -6 -1 -2 53.97 5.88
 -6 -1 -1 17.77 4.01
 -6 -1 1 129.54 7.02
 -6 0 -8 53.08 7.29
 -6 0 -6 63.22 7.12
 -6 0 -5 10.05 5.14
 -6 0 -3 6.02 4.26
 -6 0 -2 2.68 3.94
 -6 0 -1 1.73 3.19
 -6 0 0 5.34 2.98
 -6 0 1 44.76 4.46
 -6 1 -8 24.58 6.2
 -6 1 -7 9.03 4.8
 -6 1 -6 20.39 5.53
 -6 1 -4 9.16 3.96
 -6 1 -3 2.6 3.62
 -6 1 -1 13.93 3.82
 -6 1 0 48.26 5.15
 -6 1 1 123.46 6.43
 -6 2 -7 34.14 6.33
 -6 2 -6 6.3 4.4
 -6 2 -5 44.37 5.79
 -6 2 -3 162.34 7.79
 -6 2 -2 68.41 5.67
 -6 2 -1 12.97 3.59
 -6 2 0 62.62 5.49
 -6 3 -7 27.44 5.8
 -6 3 -6 17.18 4.53
 -6 3 -5 13.56 4.43
 -6 3 -4 11.65 4.17
 -6 3 -3 29.37 5.24
 -6 3 -2 81 6.33
 -6 3 -1 19.7 3.89
 -6 3 0 76.29 6.02
 -6 4 -7 16.8 5.27
 -6 4 -5 32.81 5.04
 -6 4 -4 85.41 6.47
 -6 4 -3 73.47 6.21
 -6 4 -2 13.67 3.78
 -6 4 -1 147.85 7.16
 -6 5 -6 25.17 4.81
 -6 5 -5 6.88 3.99
 -6 5 -4 9.28 4.12
 -6 5 -2 12.74 3.35
 -5 -7 -6 2.17 3.86
 -5 -7 -5 4.9 3.64
 -5 -7 -4 7.69 3.88
 -5 -7 -3 63.75 5.56
 -5 -7 -2 8.87 3.13
 -5 -7 -1 36.37 4.38
 -5 -6 -7 34.9 5.33
 -5 -6 -6 91.51 7.16
 -5 -6 -5 57.63 6.05
 -5 -6 -3 2.95 3.87
 -5 -6 -2 58.84 5.47
 -5 -5 -8 35.14 6.42
 -5 -5 -7 70.65 7.27
 -5 -5 -6 2.69 3.71
 -5 -5 -3 106.29 6.76
 -5 -5 -2 69.62 5.53
 -5 -5 -1 49.69 4.55
 -5 -5 0 18.28 3.92
 -5 -4 -8 46.74 6.39
 -5 -4 -6 162.05 8.24
 -5 -4 -5 13.8 4.11
 -5 -4 -3 16.29 3.65
 -5 -4 -2 5.54 3.12
 -5 -4 -1 13.2 3.76
 -5 -4 1 68.07 5.08
 -5 -3 -8 43.24 6.23
 -5 -3 -7 3.09 5.07
 -5 -3 -5 11.74 3.91
 -5 -3 -4 20.38 4.07
 -5 -3 -2 130.74 6.83
 -5 -3 -1 250.37 8.11
 -5 -3 0 120.82 6.18
 -5 -3 1 173.26 6.79
 -5 -2 -9 24.7 6.03
 -5 -2 -8 191.61 10.34
 -5 -2 -7 60.31 6.25
 -5 -2 -5 1.31 3.94
 -5 -2 -4 46.57 5.33
 -5 -2 -3 30.04 4.05
 -5 -2 -2 77.36 5.38
 -5 -2 -1 307.99 9.07
 -5 -2 0 24.68 3.51
 -5 -2 1 34.49 3.96
 -5 -1 -9 39.35 7.11
 -5 -1 -6 -1.71 4.29
 -5 -1 -5 65.3 6.14
 -5 -1 -4 10.31 3.89
 -5 -1 -3 31.75 4.11
 -5 -1 -2 220.51 7.59
 -5 -1 0 116.27 5.78
 -5 -1 1 277.33 8.1
 -5 0 -9 35.49 7
 -5 0 -8 122.6 8.98
 -5 0 -5 72.61 6.48
 -5 0 -4 69.41 5.75
 -5 0 -2 492.73 10.88
 -5 0 -1 61.41 4.81
 -5 0 0 63.59 4.95
 -5 0 1 757 12.79
 -5 1 -9 37.19 6.19
 -5 1 -8 70 7.1
 -5 1 -7 96.81 7.51
 -5 1 -6 -1.47 3.27
 -5 1 -5 60.07 5.88
 -5 1 -4 6.69 3.27
 -5 1 -3 27.29 3.91
 -5 1 -2 220.06 7.55
 -5 1 -1 87.95 5.27
 -5 1 0 116.49 6
 -5 1 1 280.1 7.84
 -5 2 -5 0.56 3.34
 -5 2 -4 50.47 5.36
 -5 2 -3 22.76 3.73
 -5 2 -2 67.21 5.2
 -5 2 -1 309.81 8.67
 -5 2 0 19.57 3.38
 -5 2 1 37.78 4.35
 -5 3 -9 26.18 5.58
 -5 3 -8 43.81 6.32
 -5 3 -7 -3.22 3.62
 -5 3 -5 11 3.61
 -5 3 -4 19.35 3.97
 -5 3 -2 137.65 6.51
 -5 3 -1 270.48 8.05
 -5 3 0 120.1 5.64
 -5 4 -7 86.67 6.77
 -5 4 -4 28.39 4.09
 -5 4 -3 16.63 3.41
 -5 4 -1 20.07 3.22
 -5 5 -8 42.03 5.56
 -5 5 -7 69.25 6.15
 -5 5 -5 19.88 3.93
 -5 5 -4 84.92 5.89
 -5 5 -3 114.76 5.98
 -5 5 -2 62.58 4.6
 -5 5 -1 52.86 4.32
 -5 6 -4 32.86 4.07
 -5 6 -3 0.74 2.55
 -5 6 -2 55.16 4.35
 -4 -7 -8 5.05 3.74
 -4 -7 -7 26.99 4.81
 -4 -7 -5 6.01 3.59
 -4 -7 -3 93.2 5.48
 -4 -7 -2 151.05 6.02
 -4 -7 -1 43.2 3.89
 -4 -6 -8 37 6.01
 -4 -6 -7 153.37 8.34
 -4 -6 -6 75.86 6.35
 -4 -6 -5 15.68 3.48
 -4 -6 -4 65.68 5.05
 -4 -6 -3 168.47 6.81
 -4 -6 -2 23.69 3.42
 -4 -6 -1 39.12 3.83
 -4 -5 -9 13.05 5.18
 -4 -5 -7 30.05 5.58
 -4 -5 -6 75.63 6.32
 -4 -5 -5 27.45 4.41
 -4 -5 -2 189.21 6.83
 -4 -4 -9 52.71 7.21
 -4 -4 -8 203.64 9.88
 -4 -4 -7 3.83 4.44
 -4 -4 -6 28.69 4.49
 -4 -4 -5 10.27 3.48
 -4 -4 -4 9.86 3.64
 -4 -4 -3 11 2.9
 -4 -4 -2 44.74 4.11
 -4 -3 -10 9.01 4.86
 -4 -3 -9 37.75 6.82
 -4 -3 -8 11.83 5.15
 -4 -3 -6 36.21 5.22
 -4 -3 -5 51.61 5.44
 -4 -3 -4 196.31 7.38
 -4 -3 -3 305.82 8.33
 -4 -3 1 86.9 4.33
 -4 -2 -10 21.52 6.53
 -4 -2 -8 95.09 6.94
 -4 -2 -7 37.7 5.65
 -4 -2 -6 31.72 4.69
 -4 -2 -4 20.56 3.37
 -4 -2 -3 26 3.44
 -4 -2 0 188.64 6.02
 -4 -2 1 356.74 7.79
 -4 -1 -10 8.6 5.14
 -4 -1 -8 21.75 4.69
 -4 -1 -5 8.52 2.92
 -4 -1 -4 155.18 6.4
 -4 -1 -3 15.24 2.91
 -4 -1 0 300.92 7.3
 -4 -1 1 59.73 3.93
 -4 0 -10 -0.62 5.31
 -4 0 -9 77.9 6.75
 -4 0 -8 171.32 8.63
 -4 0 -7 125.65 7.54
 -4 0 -6 25.41 4.65
 -4 0 -5 379.25 10.12
 -4 0 -1 5.96 2.2
 -4 0 0 0.37 1.88
 -4 1 -10 10.7 4.91
 -4 1 -8 23.53 4.92
 -4 1 -7 55.81 5.52
 -4 1 -6 86.75 5.57
 -4 1 -5 7.66 3.01
 -4 1 -1 402.23 8.5
 -4 1 0 308.65 7.51
 -4 2 -10 22.18 5.26
 -4 2 -9 113.28 8.34
 -4 2 -8 109.59 7.8
 -4 2 -7 24.41 4.43
 -4 2 -6 29.99 4.86
 -4 2 -5 3.58 2.84
 -4 2 -4 20.33 3.43
 -4 2 -1 203.17 6.22
 -4 2 1 356.46 7.62
 -4 3 -10 6.06 4.42
 -4 3 -9 35.04 6.12
 -4 3 -7 25.46 4.55
 -4 3 -6 30.95 4.3
 -4 3 -5 54.52 4.97
 -4 3 -4 202.96 6.93
 -4 3 -1 331.42 7.65
 -4 3 0 129.47 4.72
 -4 4 -10 39.17 6.32
 -4 4 -9 61.22 6.67
 -4 4 -8 193.33 8.95
 -4 4 -7 1.7 3.44
 -4 4 -6 32.21 4.28
 -4 4 -5 17.6 3.46
 -4 4 -4 8.3 2.85
 -4 4 -1 265.58 6.69
 -4 4 0 164.96 5.37
 -4 5 -8 1.66 3.69
 -4 5 -7 30.46 5.04
 -4 5 -6 76.08 5.67
 -4 5 -5 26.93 3.87
 -4 5 -4 59.21 4.23
 -4 6 -6 68.79 5.24
 -4 6 -5 12.5 3.08
 -4 6 -4 71.1 4.41
 -3 -7 -8 31.88 5.17
 -3 -7 -7 106.18 6.45
 -3 -7 -6 47.2 4.8
 -3 -7 -5 22.75 3.78
 -3 -7 -4 42.87 3.98
 -3 -7 -2 81.28 3.98
 -3 -6 -10 28.44 5.97
 -3 -6 -8 15.57 4.74
 -3 -6 -7 3.97 3.91
 -3 -6 -6 146.24 7.01
 -3 -6 -5 6.53 3.01
 -3 -6 -2 180.08 5.66
 -3 -6 -1 16.67 2.27
 -3 -6 0 137.05 4.44
 -3 -5 -10 -2.34 3.88
 -3 -5 -9 23.67 5.12
 -3 -5 -5 199.22 7.35
 -3 -5 -4 197.13 6.67
 -3 -5 -2 15.78 2.49
 -3 -5 -1 405.36 7.74
 -3 -5 0 142.28 4.61
 -3 -4 -10 -0.52 4
 -3 -4 -9 2.92 4.02
 -3 -4 -8 13.13 3.88
 -3 -4 -7 50.38 5.52
 -3 -4 -5 15.2 3.16
 -3 -4 -2 4.92 2.09
 -3 -4 -1 175.6 5.24
 -3 -4 0 198.64 5.42
 -3 -4 1 114.97 4.09
 -3 -3 -11 17.49 5.27
 -3 -3 -10 0.04 4.49
 -3 -3 -9 13.43 4.42
 -3 -3 -8 34.19 5.27
 -3 -3 -6 85.83 5.26
 -3 -3 -5 77.37 4.95
 -3 -3 -3 51.64 4.03
 -3 -3 -1 111.73 4.19
 -3 -2 -11 43.35 7.01
 -3 -2 -10 1.54 3.99
 -3 -2 -9 72.71 6.96
 -3 -2 -8 14.08 3.96
 -3 -2 -6 -2.45 2.18
 -3 -2 -5 250.39 7.41
 -3 -2 -2 563.42 9.24
 -3 -1 -11 11.61 5.75
 -3 -1 -10 23.77 5.11
 -3 -1 -9 0.81 3.78
 -3 -1 -8 56.09 5.42
 -3 -1 -7 12.19 3.34
 -3 -1 -3 4.85 2.24
 -3 -1 0 153.79 4.66
 -3 -1 1 74.27 3.56
 -3 0 -11 167.62 9.75
 -3 0 -10 2.15 4.02
 -3 0 -9 7.38 3.88
 -3 0 -8 116.27 7
 -3 0 -7 2.63 3.22
 -3 0 -6 68.59 5.26
 -3 0 -3 21.77 2.56
 -3 0 0 617.36 8.49
 -3 0 1 1.15 1.51
 -3 1 -11 8.77 4.93
 -3 1 -10 32.71 5.59
 -3 1 -9 -0.12 3.81
 -3 1 -8 49.88 5.07
 -3 1 -6 75.86 4.78
 -3 1 -3 3.3 1.91
 -3 1 -2 316.15 6.71
 -3 1 -1 58.6 3.05
 -3 1 0 164.88 4.7
 -3 2 -10 7.26 4.64
 -3 2 -9 74.03 6.63
 -3 2 -7 33.32 4.41
 -3 2 -6 3.25 2.97
 -3 2 -5 259.42 7.56
 -3 2 -3 2.96 1.94
 -3 2 -2 556.94 8.84
 -3 2 0 541.26 7.87
 -3 2 1 734.59 9.06
 -3 3 -10 2.71 3.98
 -3 3 -9 9.36 4.11
 -3 3 -8 44.7 4.96
 -3 3 -7 173.93 7.4
 -3 3 -6 91.94 5.43
 -3 3 -5 70.89 4.52
 -3 3 -3 62.12 3.97
 -3 3 -2 324.62 6.71
 -3 3 -1 112.96 4.17
 -3 3 0 132.33 4.01
 -3 4 -9 11.54 3.92
 -3 4 -6 68.33 4.9
 -3 4 -5 11.41 2.68
 -3 4 -3 385.43 7.64
 -3 4 -2 6.06 1.81
 -3 4 -1 180 4.81
 -3 4 0 201.97 4.79
 -3 5 -10 0.72 4.17
 -3 5 -9 16.57 4.03
 -3 5 -8 44.65 5.07
 -3 5 -7 90.48 5.49
 -3 5 -6 31.55 3.67
 -3 5 -5 187.8 6.3
 -3 5 -3 86.57 3.94
 -3 5 -2 17.73 2.23
 -3 5 -1 423.01 6.67
 -3 6 -7 6.21 2.94
 -3 6 -6 158.77 6.14
 -3 6 -5 7.75 2.6
 -3 6 -4 20.47 2.64
 -3 6 -3 11.13 2.03
 -2 -7 -9 12.59 4.02
 -2 -7 -8 3.43 3.73
 -2 -7 -7 25.97 4.04
 -2 -7 -6 4.83 2.54
 -2 -7 -5 5.84 2.37
 -2 -7 -2 109.04 3.48
 -2 -6 -10 42.15 5.73
 -2 -6 -9 0.43 3.36
 -2 -6 -8 31.78 4.33
 -2 -6 -6 15.57 3.53
 -2 -6 -5 157.97 5.88
 -2 -6 -3 120.01 4.36
 -2 -6 -1 463.11 6.57
 -2 -5 -11 93.92 7.56
 -2 -5 -10 8.34 4.38
 -2 -5 -9 2.93 3.56
 -2 -5 -7 39.79 4.32
 -2 -5 -6 9.43 2.78
 -2 -5 -4 75.18 4.09
 -2 -5 -3 49.61 3.24
 -2 -5 -2 101.47 3.72
 -2 -5 -1 588.12 7.56
 -2 -4 -11 14.7 4.78
 -2 -4 -10 43.22 6.19
 -2 -4 -9 84.42 6.82
 -2 -4 -6 242.28 7.31
 -2 -4 -3 13.67 2.21
 -2 -4 -2 182.79 4.78
 -2 -3 -11 16.44 4.97
 -2 -3 -9 -0.01 3.29
 -2 -3 -7 96.24 5.41
 -2 -3 -4 135.94 4.85
 -2 -3 -3 459.57 7.76
 -2 -3 -1 528.36 7
 -2 -3 0 518.86 6.65
 -2 -3 1 543.15 6.64
 -2 -2 -12 45.5 6.81
 -2 -2 -11 79.11 7.3
 -2 -2 -10 94.95 7.57
 -2 -2 -9 27.79 4.52
 -2 -2 -8 212.55 8.01
 -2 -2 -7 179.69 6.97
 -2 -2 -6 36.18 3.58
 -2 -2 -4 38.13 3.18
 -2 -2 -2 221.51 5.04
 -2 -2 -1 36.46 2.28
 -2 -2 0 901.74 8.58
 -2 -2 1 267.77 5.01
 -2 -1 -11 74.18 7.34
 -2 -1 -10 2.71 4
 -2 -1 -9 18.3 4.03
 -2 -1 -8 1.1 2.6
 -2 -1 -7 72.11 5.13
 -2 -1 -6 64.43 4.49
 -2 -1 -3 233.93 5.31
 -2 -1 -2 1085.72 10.31
 -2 -1 -1 453.51 6.41
 -2 -1 1 272.04 4.95
 -2 0 -12 40.59 6.05
 -2 0 -11 25.87 5.15
 -2 0 -10 1.16 3.69
 -2 0 -8 16.03 3.8
 -2 0 -7 144.04 6.04
 -2 0 -6 84.38 4.43
 -2 0 -2 436.93 6.63
 -2 0 -1 1874.21 12.29
 -2 0 0 671.6 7.14
 -2 0 1 338.45 5.17
 -2 1 -12 21.17 5.75
 -2 1 -11 80.22 7.15
 -2 1 -10 1.95 3.72
 -2 1 -8 0.94 2.89
 -2 1 -7 73.16 4.92
 -2 1 -4 161.76 5.02
 -2 1 -2 1085.18 10.09
 -2 1 -1 444.89 6.04
 -2 1 0 597.15 6.75
 -2 1 1 262.56 4.64
 -2 2 -12 41.53 6.49
 -2 2 -11 84.99 7.2
 -2 2 -9 25.8 4.24
 -2 2 -7 175.88 6.75
 -2 2 -6 27.44 3.26
 -2 2 -1 39.93 2.22
 -2 2 0 890.74 8.03
 -2 3 -11 17.19 4.66
 -2 3 -10 17.27 4.27
 -2 3 -9 3.61 3.68
 -2 3 -6 185.99 6.3
 -2 3 -3 464.64 7.15
 -2 3 -2 192.01 4.26
 -2 3 -1 536.56 6.27
 -2 3 0 508.53 5.92
 -2 4 -11 13.23 4.7
 -2 4 -10 35.49 5.26
 -2 4 -9 93.87 6.58
 -2 4 -8 147.96 6.75
 -2 4 -7 29.06 3.51
 -2 4 -6 229.7 6.67
 -2 4 -5 -2.06 1.82
 -2 4 -4 140.97 4.61
 -2 4 -3 12.41 2.02
 -2 4 -2 177.77 4.04
 -2 4 -1 753.44 7.2
 -2 5 -11 77.74 6.43
 -2 5 -10 9.27 3.79
 -2 5 -9 1.75 3.36
 -2 5 -8 41.3 4.41
 -2 5 -6 10.44 2.48
 -2 5 -5 63.32 3.62
 -2 5 -4 85.39 3.67
 -2 5 -3 57.4 2.84
 -2 5 -2 96.48 2.97
 -2 5 -1 578.14 5.6
 -2 6 -8 30.38 4.21
 -2 6 -7 57.35 4.37
 -2 6 -5 154.08 4.84
 -2 6 -2 16.57 1.34
 -1 -7 -8 17.67 3.43
 -1 -7 -7 3.84 2.56
 -1 -7 -6 112.37 4.98
 -1 -7 -4 105.66 3.7
 -1 -7 -3 67.36 2.55
 -1 -6 -10 51.24 5.87
 -1 -6 -8 95.18 5.66
 -1 -6 -7 104.32 5.51
 -1 -6 -6 24.11 3.32
 -1 -6 -5 26.23 2.96
 -1 -6 -4 0.73 1.41
 -1 -6 -3 14.23 1.83
 -1 -6 -1 395.24 3.92
 -1 -5 -11 20.73 4.92
 -1 -5 -10 10.78 4.31
 -1 -5 -9 73.9 5.54
 -1 -5 -8 27.44 3.86
 -1 -5 -7 21.02 3.4
 -1 -5 -6 40.62 3.83
 -1 -5 -5 42.66 3.26
 -1 -5 -3 190.46 4.43
 -1 -5 -1 161.77 3.03
 -1 -4 -11 140.44 7.92
 -1 -4 -10 25.54 4.67
 -1 -4 -9 1.93 3.41
 -1 -4 -8 16.46 3.43
 -1 -4 -7 65.83 5.07
 -1 -4 -5 237.36 6.22
 -1 -4 -4 8.12 1.85
 -1 -4 -2 1032.51 8.52
 -1 -4 -1 896.52 6.93
 -1 -4 0 404.43 4.13
 -1 -3 -12 10.23 4.61
 -1 -3 -11 281.05 10.84
 -1 -3 -10 17.21 4.69
 -1 -3 -9 61.76 6
 -1 -3 -4 619.61 8.64
 -1 -3 -2 253.07 4.38
 -1 -3 0 269.75 3.56
 -1 -2 -12 13.72 5.25
 -1 -2 -11 29.66 5.26
 -1 -2 -10 74.16 6.88
 -1 -2 -2 754.18 7.06
 -1 -2 -1 971.28 6.96
 -1 -2 0 4929.82 13.66
 -1 -1 -12 140.48 9.05
 -1 -1 -11 23.45 5.25
 -1 -1 -2 1297.3 8.98
 -1 -1 -1 1405.3 7.91
 -1 -1 0 4352.28 12.49
 -1 0 -12 2.32 4.11
 -1 0 -11 4.43 4.12
 -1 0 -2 28.62 1.76
 -1 0 -1 3007.16 11.13
 -1 0 0 306.87 3.45
 -1 1 -12 136.89 8.41
 -1 1 -11 30.51 5.97
 -1 1 -2 1256.19 8.4
 -1 1 -1 1450.38 7.65
 -1 1 0 4295.21 11.61
 -1 2 -12 11.56 4.5
 -1 2 -11 34.57 5.67
 -1 2 -2 746.57 6.46
 -1 2 -1 937.53 6.03
 -1 2 0 4914.44 11.9
 -1 3 -12 4.27 4.82
 -1 3 -11 278.52 9.91
 -1 3 -3 64.69 2.58
 -1 3 -2 251.61 3.82
 -1 3 -1 42.33 1.52
 -1 4 -12 41.46 5.65
 -1 4 -11 134.79 7.91
 -1 4 -10 23.06 4.32
 -1 4 -9 3.8 3.19
 -1 4 -8 13.25 3.26
 -1 4 -4 5.89 1.65
 -1 4 -3 100.58 2.95
 -1 4 -2 1044.6 7.06
 -1 4 -1 918.67 4.97
 -1 5 -11 25.24 4.5
 -1 5 -10 5.41 3.46
 -1 5 -9 79.08 5.47
 -1 5 -8 37.82 4.55
 -1 5 -5 47.07 2.86
 -1 5 -3 190.17 3.7
 -1 5 -2 103.21 2.09
 -1 6 -9 4.94 3.07
 -1 6 -8 92.74 5.17
 -1 6 -7 105.31 4.78
 -1 6 -5 29.61 2.5
 -1 6 -4 1.34 1.15
 -1 6 -3 12.99 1.23
 0 -7 -9 137.75 6.61
 0 -7 -8 121.93 5.78
 0 -7 -7 40.42 3.78
 0 -7 -4 203.02 4.23
 0 -6 -8 89.77 5.57
 0 -6 -7 53.83 4.19
 0 -6 -5 6.79 2.09
 0 -6 -4 86.71 3.14
 0 -6 -3 55.22 2.17
 0 -6 -2 400.19 3.38
 0 -5 -12 10.33 4.43
 0 -5 -11 31.76 5.36
 0 -4 -12 56.4 6.66
 0 -4 -1 1284.04 5.11
 0 4 -12 42.17 5.76
 0 5 -12 13.52 4.2
 0 5 -11 37.63 4.96
 0 6 -10 18.04 3.69
 0 6 -9 4.41 3.28
 0 6 -4 86.49 2.55
 0 6 -3 49.57 1.34
 1 -7 -4 24.07 1.72
 -8 -5 0 23 5.77
 -8 -5 1 2.15 4.74
 -8 -5 2 16.19 5.37
 -8 -5 3 7.64 5.9
 -8 -5 4 31.26 5.94
 -8 -5 5 31.79 6.44
 -8 -4 -1 15.9 6.43
 -8 -4 0 4.43 5.03
 -8 -4 1 55.56 7.15
 -8 -4 2 22.63 6.89
 -8 -4 3 34.08 6.19
 -8 -4 4 137.04 9.51
 -8 -4 5 22.28 6.71
 -8 -4 6 35.45 7.37
 -8 -3 -2 5.59 5.05
 -8 -3 0 4.01 5.03
 -8 -3 2 142.45 9.81
 -8 -3 3 68.78 8.1
 -8 -3 4 18.15 5.6
 -8 -3 5 38.81 6.46
 -8 -3 6 -2.81 4.75
 -8 -2 -3 54.8 7.6
 -8 -2 -2 26.17 7.1
 -8 -2 -1 6.79 5.04
 -8 -2 1 58.04 7.65
 -8 -2 2 78.71 8.4
 -8 -2 4 55.88 7.17
 -8 -2 5 16.6 5.61
 -8 -2 6 156.93 9.99
 -8 -2 7 7.95 5.6
 -8 -1 -3 43.86 7.15
 -8 -1 -2 6.36 6.05
 -8 -1 -1 4.01 5.02
 -8 -1 1 11.5 5.09
 -8 -1 2 -2.41 5.74
 -8 -1 3 201.12 10.92
 -8 -1 4 21.43 6.83
 -8 -1 5 40.32 6.46
 -8 -1 6 13.02 5.48
 -8 -1 7 36.38 6.58
 -8 0 -3 54.88 8.21
 -8 0 -2 79.74 8.55
 -8 0 0 13.23 6.25
 -8 0 2 23.35 6.51
 -8 0 3 325.38 12.64
 -8 0 4 7.26 5.61
 -8 0 6 14.65 6.2
 -8 0 7 36.76 7.23
 -8 1 -3 41.7 7.41
 -8 1 -2 12.9 6.59
 -8 1 -1 5.28 4.77
 -8 1 0 2.56 4.77
 -8 1 1 13.79 5.41
 -8 1 2 0.46 4.67
 -8 1 3 202.31 10.39
 -8 1 4 17.48 6.48
 -8 1 6 8.89 5.58
 -8 1 7 28.84 6.45
 -8 2 -3 50.6 7.97
 -8 2 -2 34.65 7.39
 -8 2 0 5.33 4.74
 -8 2 1 60.79 7.68
 -8 2 3 26.63 6.64
 -8 2 4 51.39 6.46
 -8 2 5 19.45 6.1
 -8 2 7 7.04 5.38
 -8 3 0 5.22 5.23
 -8 3 1 9.6 5.07
 -8 3 4 14.3 5.21
 -8 3 5 36.7 5.86
 -8 3 6 1.55 4.26
 -8 3 7 9.2 4.55
 -8 4 -2 20.65 6.22
 -8 4 -1 15.18 5.34
 -8 4 0 1.11 4.65
 -8 4 1 41.79 6.14
 -8 4 2 13.46 4.8
 -8 4 3 27.2 6.38
 -8 4 4 130.11 8.47
 -8 4 5 26.07 5.62
 -8 4 6 36.16 6.03
 -8 4 7 69.04 7.16
 -8 5 -1 8.02 5.06
 -8 5 0 16.12 5.64
 -8 5 1 4.66 4.97
 -8 5 2 14.47 5.25
 -8 5 3 15.73 5.43
 -7 -7 2 6.83 4.29
 -7 -7 4 18.93 5.45
 -7 -6 -3 17.07 4.86
 -7 -6 -2 20.96 4.98
 -7 -6 -1 28.31 5.83
 -7 -6 0 43.38 6.08
 -7 -6 2 19.23 5.57
 -7 -6 3 19.86 5.8
 -7 -6 4 31.71 6.02
 -7 -6 5 6.62 4.89
 -7 -5 -4 25.81 5.42
 -7 -5 -2 2.19 4.34
 -7 -5 -1 3.78 5.33
 -7 -5 0 44.64 6.37
 -7 -5 2 57.49 6.45
 -7 -5 3 20.36 5.03
 -7 -5 4 109.11 7.92
 -7 -5 5 18.98 5.59
 -7 -4 -5 30.12 6.03
 -7 -4 -4 -0.3 5.3
 -7 -4 -3 30.55 5.58
 -7 -4 -2 44.07 6.59
 -7 -4 -1 9.61 4.63
 -7 -4 0 14.61 5.58
 -7 -4 1 59.22 6.79
 -7 -4 2 198.34 9.58
 -7 -4 3 17.31 5.25
 -7 -4 5 66.75 6.83
 -7 -4 6 3.54 5.43
 -7 -3 -5 8.13 5.84
 -7 -3 -4 24.12 5.52
 -7 -3 -2 36.56 5.78
 -7 -3 -1 106.31 7.9
 -7 -3 0 64.98 6.37
 -7 -3 1 22.38 5.08
 -7 -3 2 23.29 5.13
 -7 -3 3 75.14 7.3
 -7 -3 4 5.88 4.78
 -7 -3 5 27.12 5.92
 -7 -3 6 16.2 4.94
 -7 -3 7 18.76 6.17
 -7 -2 -6 11.76 5.64
 -7 -2 -5 15.78 5.53
 -7 -2 -4 19.65 5.31
 -7 -2 -3 5.44 5.13
 -7 -2 0 20.68 5.04
 -7 -2 1 60.35 6.34
 -7 -2 2 70.88 7.16
 -7 -2 4 0.79 5.13
 -7 -2 5 13.29 4.96
 -7 -2 6 35.61 5.85
 -7 -2 7 0.62 4.22
 -7 -1 -6 6.33 5.14
 -7 -1 -5 0.88 5.64
 -7 -1 -4 51.81 6.64
 -7 -1 -3 7.24 5.77
 -7 -1 -1 9.82 4.89
 -7 -1 1 10 4.22
 -7 -1 2 16.81 5.15
 -7 -1 3 3.16 3.95
 -7 -1 4 30.1 5.26
 -7 -1 5 20.25 4.98
 -7 -1 6 10.39 4.68
 -7 -1 7 29.81 5.75
 -7 -1 8 145.49 9.39
 -7 0 -6 89.23 8.93
 -7 0 -5 -2.31 4.33
 -7 0 -4 24.83 5.79
 -7 0 -3 19.39 5.01
 -7 0 -2 0.87 4.47
 -7 0 -1 8.34 4.38
 -7 0 0 25.44 5.1
 -7 0 1 49.86 6.16
 -7 0 3 120.66 7.61
 -7 0 5 3.57 4
 -7 0 6 0.39 4.08
 -7 0 7 6.93 4.68
 -7 0 8 7.81 5.21
 -7 1 -5 2.87 4.75
 -7 1 -4 53.04 6.92
 -7 1 -3 7.33 4.46
 -7 1 -2 20.09 5.7
 -7 1 -1 10.05 5.04
 -7 1 1 13.42 4.36
 -7 1 3 -0.5 4.86
 -7 1 4 22.95 5.41
 -7 1 5 18.38 4.65
 -7 1 6 11.89 4.76
 -7 1 7 19.9 5.87
 -7 2 -5 15.24 5.23
 -7 2 -4 25.61 5.53
 -7 2 -2 27.82 5.45
 -7 2 -1 5.63 4.47
 -7 2 2 64.41 6.5
 -7 2 3 267.7 10.14
 -7 2 4 1.04 3.8
 -7 2 5 15.02 5.47
 -7 2 6 43.21 5.6
 -7 2 7 0.23 4.68
 -7 3 -5 13.19 5.68
 -7 3 -3 72.83 7.44
 -7 3 -2 33 5.81
 -7 3 -1 110.92 7.48
 -7 3 0 78.49 7.17
 -7 3 1 18.49 4.44
 -7 3 2 33.11 5.34
 -7 3 3 76.28 6.52
 -7 3 4 5.37 4.65
 -7 3 6 12.26 4.99
 -7 3 7 21.19 5.01
 -7 4 -4 7.3 5.8
 -7 4 -3 32.76 6.44
 -7 4 -2 45.14 5.9
 -7 4 -1 9.69 4.69
 -7 4 1 61.6 6.61
 -7 4 3 12.92 4.26
 -7 4 4 56.21 6.41
 -7 4 5 71.12 6.68
 -7 4 6 -1.2 3.74
 -7 4 7 61.04 6.24
 -7 5 -4 23.93 6.13
 -7 5 -3 6.63 5.16
 -7 5 -2 0.24 4.08
 -7 5 0 49.47 6.34
 -7 5 1 35.27 5.35
 -7 5 3 18.23 4.23
 -7 5 4 98.76 6.7
 -7 5 5 19.67 4.19
 -7 6 -3 19.88 5.5
 -7 6 -2 29.06 5.33
 -7 6 -1 36.57 5.36
 -7 6 0 52.53 6.04
 -6 -7 -1 -0.97 3.93
 -6 -7 0 7.12 4.08
 -6 -7 1 7.41 4.01
 -6 -7 2 0.45 3.82
 -6 -6 -4 12.83 4.4
 -6 -6 -2 10.72 4.38
 -6 -6 -1 -0.63 3.46
 -6 -6 0 -2.27 3.8
 -6 -6 1 49.19 5.61
 -6 -6 2 79.96 6.47
 -6 -6 3 1.21 3.9
 -6 -6 5 57.16 6.39
 -6 -5 -6 31.29 5.7
 -6 -5 -5 4.04 4.5
 -6 -5 -4 9.58 4.61
 -6 -5 -3 117.34 7.5
 -6 -5 -2 14.75 4.79
 -6 -5 -1 11.83 3.97
 -6 -5 0 17.42 4.19
 -6 -5 1 35.32 5.56
 -6 -5 2 39.43 5.04
 -6 -5 3 11.16 3.98
 -6 -5 4 2.87 4.39
 -6 -5 5 19.61 4.93
 -6 -5 6 7.23 4.04
 -6 -4 -7 14.99 5.68
 -6 -4 -5 33.18 5.28
 -6 -4 -4 89.59 7.37
 -6 -4 -3 71.44 6.44
 -6 -4 -2 8.76 4.12
 -6 -4 0 1.33 3.84
 -6 -4 1 -2.85 2.97
 -6 -4 2 10.32 4.13
 -6 -4 3 31.07 5.14
 -6 -4 4 222.8 9.23
 -6 -4 5 22.78 4.79
 -6 -4 6 29.88 5.2
 -6 -3 -6 10.93 4.54
 -6 -3 -5 15.19 4.46
 -6 -3 -4 7.75 4.87
 -6 -3 -2 77.97 6.51
 -6 -3 -1 14.85 4.26
 -6 -3 0 73.8 6.12
 -6 -3 1 26.53 4.21
 -6 -3 2 168.55 7.66
 -6 -3 4 7.71 4.43
 -6 -3 5 22.17 4.59
 -6 -3 6 20.15 4.39
 -6 -2 -7 36.11 6.24
 -6 -2 -5 47.83 5.94
 -6 -2 -3 161.53 8.29
 -6 -2 -2 73.94 6.57
 -6 -2 -1 8.82 3.53
 -6 -2 1 45.57 4.66
 -6 -2 2 84.13 6.09
 -6 -2 3 13.36 4.4
 -6 -2 5 30.2 5.04
 -6 -2 6 24.11 4.59
 -6 -1 -8 33.55 6.47
 -6 -1 -7 13.06 5.87
 -6 -1 -6 16.87 5.72
 -6 -1 -3 -0.15 3.17
 -6 -1 -2 54.89 5.13
 -6 -1 -1 13.67 4.34
 -6 -1 2 45.67 4.78
 -6 -1 4 5.41 3.63
 -6 -1 5 47.54 5.08
 -6 -1 6 26.64 4.8
 -6 -1 7 2.46 3.64
 -6 0 -6 68.67 6.57
 -6 0 -5 9.03 4.81
 -6 0 -3 5.99 3.66
 -6 0 -1 3.82 3.26
 -6 0 0 1.95 2.91
 -6 0 1 38.2 4.43
 -6 0 2 14.05 4.12
 -6 0 4 91.29 6.58
 -6 0 5 35.92 4.94
 -6 0 6 153.05 7.58
 -6 0 7 15.25 4.48
 -6 1 -5 43.89 6.28
 -6 1 -4 6.5 3.86
 -6 1 -3 3.4 3.47
 -6 1 -2 52.34 5.24
 -6 1 0 47.64 5.47
 -6 1 1 127.62 6.92
 -6 1 3 168.47 7.51
 -6 1 4 12.11 3.66
 -6 1 5 51.78 5.52
 -6 1 6 29.19 4.67
 -6 1 7 2.47 3.54
 -6 2 -5 48.68 6.27
 -6 2 -4 59.97 6.55
 -6 2 -3 175.28 7.92
 -6 2 -2 74.54 5.98
 -6 2 -1 9.98 4.25
 -6 2 0 56.11 5.18
 -6 2 1 56.81 5.54
 -6 2 3 17.16 3.77
 -6 2 4 4.49 4.07
 -6 2 5 31.37 4.47
 -6 2 6 24.42 4.27
 -6 2 7 44.26 5.34
 -6 3 -5 11.75 5.4
 -6 3 -4 9.93 4.18
 -6 3 -3 34.09 5.18
 -6 3 -2 75.23 6.21
 -6 3 -1 19.09 3.93
 -6 3 0 69.11 5.69
 -6 3 1 26.81 4.12
 -6 3 4 5.97 3.29
 -6 3 5 16.17 4.43
 -6 3 6 22.02 4.17
 -6 3 7 81.21 5.98
 -6 4 -6 38.84 6.07
 -6 4 -4 89.59 7.02
 -6 4 -2 9.42 4.42
 -6 4 -1 160.74 7.69
 -6 4 0 5.97 3.57
 -6 4 2 18.54 3.65
 -6 4 3 44.37 5.26
 -6 4 6 39.98 4.85
 -6 5 -6 28.11 6.23
 -6 5 -5 4.37 4.94
 -6 5 -4 10.02 4.15
 -6 5 -3 106.11 7.25
 -6 5 -2 16.9 4.22
 -6 5 -1 16.18 3.88
 -6 5 0 19.93 3.91
 -6 5 2 49.64 5.05
 -6 5 3 17.65 3.61
 -6 5 4 2.41 3.02
 -6 5 5 17.99 3.63
 -6 5 6 12.17 3.47
 -6 6 -5 21.28 4.82
 -6 6 -4 17.96 4.53
 -6 6 -3 53.96 6.04
 -6 6 -2 6.58 3.69
 -6 6 -1 -0.81 3.7
 -6 6 0 -1.01 3.25
 -6 6 1 51.19 5.07
 -6 6 2 77.44 5.54
 -5 -7 -2 9.44 3.45
 -5 -7 -1 43.73 4.83
 -5 -7 0 173.2 6.87
 -5 -7 3 12.06 3.29
 -5 -7 4 50.74 5.33
 -5 -6 -5 50.11 5.57
 -5 -6 -4 32.31 4.66
 -5 -6 -3 3.13 3.13
 -5 -6 -2 54.39 5.07
 -5 -6 -1 102.22 5.85
 -5 -6 1 25.88 4.04
 -5 -6 2 3.39 3.6
 -5 -6 4 107.82 6.21
 -5 -6 5 19.11 4.55
 -5 -5 -8 38.73 5.84
 -5 -5 -7 63.07 6.25
 -5 -5 -6 4.98 3.77
 -5 -5 -5 18.22 4.17
 -5 -5 -4 96.26 6.13
 -5 -5 -3 114.01 6.23
 -5 -5 -2 68.8 5.25
 -5 -5 -1 44.62 4.88
 -5 -5 0 18.15 4
 -5 -5 1 125.14 6.22
 -5 -5 2 99.38 5.99
 -5 -5 3 136.02 6.77
 -5 -5 4 55.85 5.25
 -5 -5 5 28.99 4.2
 -5 -4 -8 42.36 6.51
 -5 -4 -6 175.46 7.96
 -5 -4 -5 13.62 4.23
 -5 -4 -4 34.92 4.91
 -5 -4 -3 16.17 4.19
 -5 -4 -2 8.86 3.37
 -5 -4 -1 16.38 3.33
 -5 -4 0 15.41 3.19
 -5 -4 1 74.69 5.34
 -5 -4 2 193.7 7.6
 -5 -4 4 74.98 5.75
 -5 -4 5 26.79 4.09
 -5 -4 6 72.82 6.03
 -5 -3 -5 12.63 3.77
 -5 -3 -3 78.68 5.43
 -5 -3 -2 138.86 6.63
 -5 -3 -1 236.76 7.8
 -5 -3 0 119.27 6.14
 -5 -3 1 186.51 7.13
 -5 -3 2 26.05 4.28
 -5 -3 3 129.74 6.37
 -5 -3 4 22.22 3.75
 -5 -3 5 43.62 4.4
 -5 -2 -4 44.11 5.3
 -5 -2 -3 31.04 4.04
 -5 -2 -2 81.36 5.4
 -5 -2 -1 316 8.71
 -5 -2 0 29.61 3.91
 -5 -2 2 314.81 8.62
 -5 -2 3 154.05 6.85
 -5 -2 4 110.88 6.15
 -5 -2 5 113.85 6.53
 -5 -2 7 201.58 8.31
 -5 -1 -3 28.93 3.97
 -5 -1 -2 222.04 7.47
 -5 -1 -1 82.38 5.36
 -5 -1 0 111.36 5.52
 -5 -1 1 282.46 7.86
 -5 -1 2 101.78 5.48
 -5 -1 3 237.69 7.88
 -5 -1 4 60.46 5.05
 -5 -1 5 34.42 3.96
 -5 -1 6 42.48 4.82
 -5 -1 7 58.33 5.31
 -5 0 -3 213.16 7.48
 -5 0 -2 516.29 10.79
 -5 0 0 63.85 4.83
 -5 0 1 752.76 12.48
 -5 0 2 12.32 2.87
 -5 0 3 138.75 5.97
 -5 0 5 103.31 5.5
 -5 0 6 5.81 3.57
 -5 0 7 5.89 3.34
 -5 1 -2 229.19 7.54
 -5 1 -1 83.84 4.76
 -5 1 0 116.55 5.79
 -5 1 1 282.66 7.78
 -5 1 2 95.97 4.96
 -5 1 3 234.29 7.73
 -5 1 4 57.68 4.89
 -5 1 5 38.35 4.09
 -5 1 6 42.49 4.88
 -5 1 7 55.25 5.29
 -5 2 -2 71.06 4.62
 -5 2 -1 324.06 8.58
 -5 2 0 22.72 3.48
 -5 2 1 33.13 3.96
 -5 2 2 293.18 7.94
 -5 2 5 113.89 5.86
 -5 2 6 16.37 3.29
 -5 2 7 210.32 7.96
 -5 3 -1 255.55 7.64
 -5 3 0 124.88 5.52
 -5 3 1 175.79 6.48
 -5 3 2 25.32 3.51
 -5 3 3 133.46 5.9
 -5 3 4 27.04 3.61
 -5 3 5 43 4.59
 -5 3 6 45.51 4.35
 -5 4 -3 17.89 3.59
 -5 4 -2 8.64 3.23
 -5 4 -1 20.91 3.61
 -5 4 0 15.57 3.23
 -5 4 2 196.14 6.73
 -5 4 4 68.16 4.78
 -5 4 5 31.43 3.67
 -5 4 6 74.19 5.07
 -5 5 -3 120.26 6.4
 -5 5 -2 67.21 4.86
 -5 5 0 12.6 3.41
 -5 5 1 122.96 5.47
 -5 5 2 94.67 5.05
 -5 5 3 131.8 5.52
 -5 5 4 55 4.27
 -5 6 -4 34.73 4.6
 -5 6 -3 1.07 3.22
 -5 6 -2 58.62 5.01
 -5 6 0 9.26 2.72
 -5 6 1 25.2 3.25
 -5 6 2 6.5 2.81
 -5 7 -6 1.5 4.02
 -5 7 -5 5.79 3.9
 -5 7 -4 4.93 3.41
 -5 7 -3 68.87 5.3
 -4 -7 2 122.59 5.31
 -4 -7 3 24.14 3.48
 -4 -6 -6 71.08 5.32
 -4 -6 -5 11.05 3.13
 -4 -6 -3 177.12 6.28
 -4 -6 2 44.38 4.05
 -4 -6 3 61.06 4.46
 -4 -6 4 11.8 3.31
 -4 -5 -8 -0.46 3.47
 -4 -5 -7 34.68 5.01
 -4 -5 -6 79.15 5.7
 -4 -5 -5 23.38 3.96
 -4 -5 -4 67.19 4.78
 -4 -5 3 117.18 5.31
 -4 -5 4 119.1 5.71
 -4 -5 5 167.85 6.81
 -4 -4 -5 12.72 3.49
 -4 -4 -4 6.95 2.7
 -4 -4 -3 15.43 2.78
 -4 -4 4 381.19 9.1
 -4 -3 -3 302.17 7.88
 -4 -3 1 79.05 4.21
 -4 -3 5 89.39 5.45
 -4 -3 6 157.66 6.7
 -4 -2 1 371.75 8.04
 -4 -2 5 264.25 7.61
 -4 -1 0 288.23 6.87
 -4 -1 1 53.31 3.52
 -4 -1 2 59.56 4
 -4 -1 6 19.77 3.1
 -4 0 -1 5.62 2.12
 -4 0 3 158.65 5.72
 -4 0 6 21.73 3.57
 -4 1 0 279.27 6.5
 -4 1 1 61.81 4.06
 -4 1 2 63.22 4.09
 -4 1 3 164.01 5.47
 -4 1 6 12.14 2.87
 -4 2 3 300.43 7.32
 -4 2 6 117.72 5.33
 -4 3 0 133.2 4.99
 -4 3 3 321.63 7.33
 -4 3 6 164.86 6.16
 -4 4 0 165.65 5.4
 -4 4 1 59.5 3.77
 -4 4 2 112.21 4.56
 -4 4 3 78.62 4.19
 -4 5 -2 174.87 6.08
 -4 5 0 98.5 4.44
 -4 5 1 49.53 3.52
 -4 5 3 128.33 4.58
 -4 5 4 109.64 4.31
 -4 6 1 26.69 2.89
 -4 6 2 50.37 3.25
 -4 6 3 56.45 3.21
 -4 6 4 11.09 2.06
 -4 7 -3 92.56 5.01
 -4 7 -2 157.69 5.49
 -3 -7 -1 95.56 3.59
 -3 -7 0 89.35 3.54
 -3 -7 1 49.65 3.08
 -3 -6 -6 140.35 5.63
 -3 -6 -3 13.9 2.33
 -3 -6 -2 191.31 5.12
 -3 -6 -1 18.28 2.38
 -3 -6 0 137.12 4.54
 -3 -6 1 57.25 3.42
 -3 -5 -2 19.7 2.59
 -3 -5 -1 414.91 7.45
 -3 -5 1 12.63 2.52
 -3 -5 3 20.95 2.77
 -3 -4 -2 5.95 1.89
 -3 -4 -1 179.57 5.14
 -3 -4 0 191.72 5.08
 -3 -4 1 109.83 4.3
 -3 -4 2 652.98 9.63
 -3 -4 3 159.15 5.38
 -3 -3 -1 112.63 4.01
 -3 -3 0 135.89 4.52
 -3 -3 2 7.14 1.96
 -3 -3 3 295.99 6.75
 -3 -3 4 1137.25 13.39
 -3 -2 3 84.37 4.09
 -3 -2 4 321.11 7.1
 -3 -1 0 155.09 4.5
 -3 -1 1 71.01 3.13
 -3 -1 5 754.36 10.9
 -3 0 0 594.51 7.89
 -3 0 2 3143.78 18.56
 -3 0 3 49.54 3.45
 -3 0 4 678.2 9.77
 -3 0 5 105.64 4.58
 -3 1 0 153.71 4.23
 -3 1 1 73.94 3.17
 -3 1 2 5.66 1.75
 -3 1 3 523.24 8.09
 -3 2 0 558.52 7.76
 -3 2 1 751.92 8.82
 -3 2 4 337.48 6.9
 -3 3 0 127.97 3.96
 -3 3 1 250.4 5.45
 -3 3 2 6.69 1.66
 -3 3 3 306.22 6.03
 -3 3 4 1131.02 11.59
 -3 3 5 215.78 5.59
 -3 4 2 677.7 8.4
 -3 4 4 160.8 4.41
 -3 5 -1 403.43 6.94
 -3 5 0 150.85 4.14
 -3 5 1 13.45 1.86
 -3 5 3 22.08 2.19
 -3 6 -1 13.14 1.99
 -3 6 0 138.64 3.88
 -3 6 1 59.81 2.61
 -3 6 2 399.67 5.27
 -3 7 -2 80.05 3.64
 -2 -6 -5 153.4 4.45
 -2 -6 -4 123.84 3.71
 -2 -6 -3 122.11 3.46
 -2 -6 -2 18.7 1.84
 -2 -6 -1 473.38 6.06
 -2 -6 0 161.46 3.62
 -2 -6 1 80.33 2.89
 -2 -5 -3 50.99 2.65
 -2 -5 -2 101.57 3.27
 -2 -4 3 105.24 3.95
 -2 -3 -1 530.83 6.39
 -2 -3 0 505.26 6.37
 -2 -2 -1 42.83 2.51
 -2 -2 0 925.73 8.36
 -2 -2 1 261.41 4.93
 -2 -2 2 1881.91 13.02
 -2 -1 0 576.15 6.35
 -2 -1 1 270.25 4.72
 -2 -1 2 234.76 4.81
 -2 -1 3 83.81 3.22
 -2 0 0 679.72 6.8
 -2 0 2 22.86 2.03
 -2 0 3 428.36 6.52
 -2 0 4 41.32 2.76
 -2 1 0 555.48 6.15
 -2 1 1 256.64 4.42
 -2 1 2 255.39 4.93
 -2 1 3 87.97 3.31
 -2 2 0 881.51 7.55
 -2 2 1 248.99 4.25
 -2 2 2 1728.24 10.91
 -2 2 3 1065.2 9.18
 -2 2 4 122.18 3.7
 -2 3 0 481.93 5.63
 -2 3 1 533.73 5.7
 -2 3 2 141.52 3.25
 -2 4 0 120.7 2.95
 -2 4 1 860.08 6.85
 -2 4 3 106.31 2.75
 -2 5 0 34.65 1.9
 -2 5 1 69.62 2.06
 -2 5 2 144.49 2.45
 -2 6 0 166.3 2.97
 -1 -6 -4 1.79 0.95
 -1 -6 -3 13.64 1.07
 -1 -5 -2 104.72 2.23
 -1 -5 -1 161.59 2.42
 -1 -4 -2 1037.56 6.8
 -1 -4 -1 927.21 6.04
 -1 -4 0 389.91 4.15
 -1 -4 1 839.13 6.64
 -1 -3 -1 40.37 1.58
 -1 -3 0 256.49 3.46
 -1 -3 1 1310.82 8.16
 -1 -2 0 4970.11 13.38
 -1 -2 2 1832.76 10.35
 -1 -1 0 4285.14 11.72
 -1 -1 1 649.54 5.41
 -1 0 0 325.79 3.4
 -1 0 1 57.21 1.94
 -1 0 2 17.31 1.43
 -1 1 1 635.03 4.65
 -1 1 2 452.35 4.59
 -1 2 1 1082.53 5.5
 -1 2 2 1750.92 7.97
 -1 3 1 1286.25 5.35
 -1 5 0 161.29 1.74
 -6 -7 -4 1.99 3.93
 -6 -7 -3 29.96 4.91
 -6 -6 -5 10.73 4.51
 -6 -6 -4 9.09 3.74
 -6 -6 -3 50.95 6.07
 -6 -5 -6 21.53 4.5
 -6 -5 -5 2.63 4.04
 -6 -5 -4 0.48 3.1
 -6 -5 -3 103.12 6.3
 -6 -4 -7 12.96 3.71
 -6 -4 -6 34.45 4.81
 -6 -4 -4 81.1 5.66
 -6 -4 -3 78.99 5.75
 -6 -3 -7 27.46 3.83
 -6 -3 -6 10.52 3.23
 -6 -3 -5 7.68 3.05
 -6 -3 -4 12.56 3.93
 -6 -2 -6 9.79 3.02
 -5 -9 -3 7.79 4.25
 -5 -9 -2 2.27 3.9
 -5 -8 -5 8.98 4.22
 -5 -8 -4 8.46 4.07
 -5 -8 -2 5.24 3.48
 -5 -7 -6 -3.4 3.53
 -5 -7 -5 5.53 3.64
 -5 -7 -2 12.65 4.14
 -5 -7 -1 31.66 4.24
 -5 -6 -6 78.05 6.06
 -5 -6 -5 47.58 5.28
 -5 -6 -4 27 4.23
 -5 -6 -3 2.86 3.01
 -5 -6 -1 96.12 5.84
 -5 -5 -8 44.76 5.27
 -5 -5 -6 0.52 3.47
 -5 -5 -5 21.82 4.04
 -5 -5 -4 87.18 5.71
 -5 -5 -3 115.42 6.04
 -5 -5 -2 71.51 4.97
 -5 -5 -1 47.14 4.57
 -5 -4 -8 44.79 5.1
 -5 -4 -7 75.32 5.61
 -5 -4 -5 15.46 3.16
 -5 -4 -4 29.42 3.67
 -5 -4 -3 17.18 3.39
 -5 -4 -2 6.08 2.98
 -5 -4 -1 9.75 3.01
 -5 -3 -8 37.81 4.55
 -5 -3 -7 -0.99 2.63
 -5 -3 -6 57.23 4.64
 -5 -3 -5 11.75 2.9
 -5 -3 -4 18.16 3.07
 -5 -3 -3 75.25 4.44
 -5 -3 -2 132.99 5.51
 -5 -3 -1 240.76 7.26
 -5 -2 -7 62.55 4.52
 -5 -2 -6 156.94 5.83
 -5 -2 -5 2.43 2.58
 -5 -2 -4 44.34 3.89
 -5 -2 -2 73.49 4.31
 -5 -1 -6 -0.88 2.23
 -5 -1 -4 7.77 2.48
 -5 -1 -3 34.83 3.31
 -5 0 -5 66.05 3.61
 -4 -10 -3 13.63 4.33
 -4 -10 -2 8.17 4.5
 -4 -10 -1 2.96 3.48
 -4 -9 -5 6.37 3.87
 -4 -9 -4 60.05 6.02
 -4 -9 -3 78.93 5.91
 -4 -9 -2 60.42 5.85
 -4 -9 -1 16.8 4.05
 -4 -9 0 31.73 4.63
 -4 -8 -5 78.83 6.62
 -4 -8 -4 8.55 3.69
 -4 -8 -3 4.21 3.93
 -4 -8 -1 8.24 3.17
 -4 -7 -7 27.17 4.91
 -4 -7 -6 25.59 4.59
 -4 -7 -5 7.67 4.03
 -4 -7 -4 139.42 6.72
 -4 -7 -3 85.11 5.76
 -4 -7 0 38.37 3.83
 -4 -6 -8 47.3 5.26
 -4 -6 -7 152.99 7.13
 -4 -6 -5 9.85 3.23
 -4 -6 -3 174.64 6.73
 -4 -6 -2 20.28 3.64
 -4 -6 0 45.41 4.03
 -4 -5 -9 15.67 4.35
 -4 -5 -8 -3.2 2.84
 -4 -5 -7 28.76 4.13
 -4 -5 -6 86.58 5.83
 -4 -5 -5 22.42 3.49
 -4 -5 -3 95.33 5.13
 -4 -5 -2 198.33 6.27
 -4 -5 0 97.48 4.72
 -4 -4 -10 37.63 4.81
 -4 -4 -8 205.37 7.73
 -4 -4 -7 4.73 3.09
 -4 -4 -6 27.53 3.53
 -4 -4 -5 14.97 3.05
 -4 -4 -4 7.09 2.78
 -4 -4 -3 16.15 2.86
 -4 -4 -2 49.49 3.52
 -4 -3 -9 40.37 4.57
 -4 -3 -8 9.54 3.5
 -4 -3 -7 24.45 3.88
 -4 -3 -5 49.81 4
 -4 -3 -4 199.79 5.85
 -4 -3 -3 302.84 6.93
 -4 -2 -9 113.01 5.43
 -4 -2 -8 108.11 5.28
 -4 -2 -7 35.2 3.75
 -4 -2 -6 31.8 3.42
 -4 -2 -5 1.56 1.85
 -4 -2 -4 16.51 2.56
 -4 -2 -1 186.16 5.08
 -4 -1 -8 25.67 2.98
 -4 -1 -7 57.03 3.56
 -4 -1 -6 92.29 4.01
 -4 -1 -3 12.13 1.96
 -4 -1 -2 1643.73 13.26
 -4 -1 -1 438.17 7.6
 -4 0 -7 118.46 4.14
 -4 0 -5 375.78 6.51
 -4 0 -4 8.37 1.84
 -4 0 -3 44.15 2.67
 -4 1 -6 85.81 3.1
 -4 1 -5 9 1.46
 -4 1 -4 156.14 3.83
 -3 -11 -2 12.71 3.85
 -3 -11 -1 10.36 3.8
 -3 -10 -5 65.4 6.12
 -3 -10 -4 1.77 3.93
 -3 -10 -3 50.39 5.51
 -3 -10 -2 31.48 4.65
 -3 -10 -1 52.67 5.17
 -3 -10 0 29.09 4.43
 -3 -9 -5 21.66 4.7
 -3 -9 -2 3.41 3.07
 -3 -9 -1 6.42 3.02
 -3 -9 0 22.73 3.85
 -3 -9 1 25.63 3.85
 -3 -8 -7 96.51 7.14
 -3 -8 -6 -0.84 3.28
 -3 -8 -5 24.21 4.54
 -3 -8 -4 60.72 5.38
 -3 -8 -3 51.66 4.71
 -3 -8 -2 49.28 4.54
 -3 -8 -1 109.11 5.73
 -3 -8 0 13.14 2.94
 -3 -8 1 41.3 3.71
 -3 -7 -8 36.94 5.1
 -3 -7 -7 103.83 6.58
 -3 -7 -6 44.38 5.26
 -3 -7 -5 23.68 4.04
 -3 -7 -4 45.71 4.76
 -3 -7 -3 42.4 4.37
 -3 -7 -2 79.9 4.85
 -3 -7 -1 100.5 4.91
 -3 -7 0 91.08 4.98
 -3 -7 1 48.14 4.05
 -3 -6 -9 41 4.97
 -3 -6 -8 22.64 4.8
 -3 -6 -7 5.96 3.95
 -3 -6 -6 143.78 6.42
 -3 -6 -5 8.42 3.2
 -3 -6 -4 20.5 3.54
 -3 -6 -3 15.03 2.79
 -3 -6 -2 189.03 5.96
 -3 -6 -1 13.45 2.88
 -3 -6 0 135.05 4.98
 -3 -5 -10 -0.25 3.78
 -3 -5 -9 22.34 4.37
 -3 -5 -8 39.7 4.98
 -3 -5 -7 93.01 5.84
 -3 -5 -6 37.72 4.03
 -3 -5 -5 189.26 6.65
 -3 -5 -4 192.03 6.5
 -3 -5 -3 93.26 4.65
 -3 -5 -1 397.09 7.83
 -3 -4 -10 -4.41 3
 -3 -4 -9 3.52 2.92
 -3 -4 -8 10.22 3.26
 -3 -4 -6 72.95 4.69
 -3 -4 -5 12.78 2.62
 -3 -4 -4 108.99 4.83
 -3 -4 -3 400.99 7.89
 -3 -3 -11 24 3.97
 -3 -3 -10 0.56 2.86
 -3 -3 -9 13.94 3.48
 -3 -3 -8 34.93 4.24
 -3 -3 -7 185.37 6.3
 -3 -3 -6 82.14 4.16
 -3 -3 -5 75.35 4.14
 -3 -3 -2 322.93 6.37
 -3 -2 -10 0 2.33
 -3 -2 -9 74.96 4.76
 -3 -2 -8 16.01 3.17
 -3 -2 -7 41.55 3.63
 -3 -2 -6 1.22 1.79
 -3 -2 -3 5.11 1.76
 -3 -2 -2 551.86 7.54
 -3 -2 -1 203.32 4.53
 -3 -2 0 557.72 7.24
 -3 -1 -9 -1.43 2.43
 -3 -1 -7 15.42 2.54
 -3 -1 -5 554.91 8
 -3 -1 -4 192.53 4.64
 -3 -1 -3 3.49 1.68
 -3 -1 -2 326.75 5.44
 -3 -1 -1 63.7 2.66
 -3 0 -8 118.57 4.28
 -3 0 -6 63.15 3.02
 -3 0 -5 44.55 2.54
 -3 0 -4 18.31 1.89
 -3 0 -3 24.54 1.82
 -3 0 -2 271.2 4.61
 -3 0 -1 130.92 3.29
 -3 1 -7 16.37 1.88
 -3 1 -6 65.3 2.58
 -3 1 -5 555.33 6.22
 -3 1 -4 189.47 3.53
 -3 1 -3 1.77 1.02
 -3 2 -5 248.85 3.32
 -2 -11 -4 4.06 3.76
 -2 -11 -3 5.21 3.25
 -2 -11 -2 46.29 5.27
 -2 -11 -1 18 3.64
 -2 -11 0 42.29 4.48
 -2 -10 -6 2.82 4.54
 -2 -10 -5 2.62 3.42
 -2 -10 -4 78.91 5.55
 -2 -10 -3 86.18 5.93
 -2 -10 -2 42.31 4.9
 -2 -10 -1 94.55 5.78
 -2 -10 0 71.56 4.83
 -2 -10 1 5.74 2.93
 -2 -9 -4 21.46 3.79
 -2 -9 -3 7.04 3.11
 -2 -9 -1 5.07 2.56
 -2 -9 0 77.88 4.92
 -2 -9 1 144.37 5.7
 -2 -8 -8 21.6 4.58
 -2 -8 -7 18.4 4.41
 -2 -8 -6 45.73 4.65
 -2 -8 -5 42.61 5.09
 -2 -8 -3 85.12 4.99
 -2 -8 -2 14.13 2.89
 -2 -8 -1 101.42 5.09
 -2 -8 1 8.23 2.25
 -2 -7 -9 13.77 4.92
 -2 -7 -8 3.69 3.23
 -2 -7 -7 29.62 4.25
 -2 -7 -6 4.93 3.45
 -2 -7 -5 5.96 2.73
 -2 -7 -3 54.59 4.06
 -2 -7 -1 122.1 5.06
 -2 -7 0 13.68 2.5
 -2 -7 1 57.97 3.36
 -2 -6 -10 46.3 5.16
 -2 -6 -9 2.84 3.39
 -2 -6 -8 33.2 4.38
 -2 -6 -7 51.6 4.44
 -2 -6 -4 130.77 5.29
 -2 -5 -11 82.05 6.53
 -2 -5 -10 9.69 4.23
 -2 -5 -9 -0.25 3.02
 -2 -5 -8 45.37 4.82
 -2 -5 -7 34.49 4.17
 -2 -5 -6 13.22 2.93
 -2 -5 -5 69.06 3.87
 -2 -5 -4 77.46 3.85
 -2 -5 -3 49.66 3.32
 -2 -5 0 33 2.76
 -2 -5 2 147.11 4.37
 -2 -4 -11 19.18 4.17
 -2 -4 -10 41.92 5
 -2 -4 -9 86.53 5.47
 -2 -4 -8 137.15 6.06
 -2 -4 -7 36.98 3.45
 -2 -4 -6 237.48 6.68
 -2 -4 -5 -0.27 2.06
 -2 -3 -12 68.3 5.46
 -2 -3 -11 24.58 4.16
 -2 -3 -10 16.53 3.63
 -2 -3 -8 72.55 4.7
 -2 -3 -7 99.45 4.49
 -2 -3 -4 137.59 4.34
 -2 -3 -3 453.43 6.97
 -2 -3 0 509.9 6.52
 -2 -2 -11 84.58 5.11
 -2 -2 -10 94.28 5.32
 -2 -2 -8 225.96 6.47
 -2 -2 -5 49.69 2.8
 -2 -2 -4 34.5 2.52
 -2 -2 -3 448.06 6.38
 -2 -2 -2 232.96 4.3
 -2 -2 -1 42.95 2.28
 -2 -2 1 262.69 4.62
 -2 -1 -10 2.76 2.46
 -2 -1 -9 13.73 2.63
 -2 -1 -8 0.43 2.1
 -2 -1 -5 271.95 5.44
 -2 -1 -4 167.67 3.91
 -2 -1 -3 238.94 4.24
 -2 -1 -2 1089.74 8.16
 -2 -1 -1 460.61 5.17
 -2 0 -10 -2.06 2
 -2 0 -9 17.65 2.47
 -2 0 -6 86.29 3.23
 -2 0 -4 579.68 6.04
 -2 0 -3 578.9 5.59
 -2 0 -2 435.9 4.7
 -2 0 -1 1814.52 8.69
 -2 1 -8 -0.08 1.5
 -2 1 -6 63.58 2.49
 -2 1 -5 242.02 3.92
 -2 1 -3 234.09 3.08
 -2 1 -2 1043.47 5.66
 -2 2 -5 51.32 1.64
 -2 2 -4 33.62 1.14
 -2 2 -3 438.46 2.79
 -1 -11 -5 8.78 3.91
 -1 -11 -4 54.55 5.53
 -1 -11 -3 35.97 4.55
 -1 -11 -2 10.09 3.52
 -1 -11 -1 83.2 5.21
 -1 -10 -6 55.9 5.44
 -1 -10 -5 7.53 4.05
 -1 -10 -4 17.47 4.14
 -1 -10 -3 96.03 5.89
 -1 -10 -1 4.91 2.85
 -1 -10 0 21.88 3.06
 -1 -9 -7 12.3 4.49
 -1 -9 -6 6.06 3.84
 -1 -9 -5 114.51 6.39
 -1 -9 -4 48.23 4.39
 -1 -9 -3 56.87 4.29
 -1 -9 -2 38.3 3.54
 -1 -9 -1 8.76 2.46
 -1 -9 0 61.13 4.08
 -1 -9 1 94.72 4.35
 -1 -8 -9 5.04 3.69
 -1 -8 -8 28.95 4.92
 -1 -8 -7 7.29 3.94
 -1 -8 -6 61.35 4.85
 -1 -8 -5 50.21 4.92
 -1 -8 -3 23.92 3.6
 -1 -8 -2 52.48 4.09
 -1 -8 -1 18.68 2.6
 -1 -8 0 42.37 3.42
 -1 -7 -8 12.54 4.27
 -1 -7 -7 1.05 3.41
 -1 -7 -6 119.11 5.64
 -1 -7 -3 68.19 4.14
 -1 -7 -2 18.47 2.89
 -1 -7 2 12.32 2.16
 -1 -6 -10 48.42 5.37
 -1 -6 -9 4.32 3.31
 -1 -6 -8 96.37 5.6
 -1 -6 -7 108.16 5.79
 -1 -6 -5 25.02 3.03
 -1 -6 -4 2.93 1.99
 -1 -6 -3 15.91 2.33
 -1 -6 0 1.53 1.4
 -1 -6 2 159.44 4.12
 -1 -5 -11 28.48 4.53
 -1 -5 -10 13.39 3.81
 -1 -5 -9 73.04 5.74
 -1 -5 -7 21.11 3.25
 -1 -5 -6 41.24 3.66
 -1 -5 -5 44.34 3.28
 -1 -5 -2 107.86 3.83
 -1 -5 0 155.23 3.99
 -1 -5 1 213.65 4.48
 -1 -5 2 93.7 3.08
 -1 -4 -12 35.65 5.09
 -1 -4 -11 129.18 6.87
 -1 -4 -9 4.33 2.99
 -1 -4 -8 14.06 3.27
 -1 -4 -6 250.6 6.72
 -1 -4 0 401.45 5.52
 -1 -4 1 846.56 7.56
 -1 -3 -11 273.06 8.62
 -1 -3 -10 22.66 3.75
 -1 -3 -9 67.02 4.57
 -1 -3 -8 35.69 3.94
 -1 -3 -4 618.26 8.14
 -1 -3 -2 254.34 4.61
 -1 -3 1 1330.86 8.41
 -1 -2 -12 11.83 3.6
 -1 -2 -11 30.82 3.96
 -1 -2 -10 76.56 5.08
 -1 -2 -9 33.12 3.45
 -1 -2 -7 87.79 4.04
 -1 -2 -5 432.93 6.76
 -1 -2 -4 195.78 4.27
 -1 -2 -3 979.13 8.4
 -1 -2 -1 949.43 6.75
 -1 -2 0 4991.1 14.37
 -1 -2 1 1157.38 6.93
 -1 -1 -12 129.29 5.94
 -1 -1 -11 26.67 3.49
 -1 -1 -10 6.69 2.47
 -1 -1 -9 11.68 2.51
 -1 -1 -6 628.96 8.16
 -1 -1 -5 129.23 3.45
 -1 -1 -4 994.66 8.19
 -1 -1 -3 498.97 5.46
 -1 -1 -2 1308.42 7.62
 -1 -1 -1 1417.74 7.03
 -1 -1 0 4323.04 11.2
 -1 0 -11 -2.39 2.12
 -1 0 -10 144.47 5.25
 -1 0 -9 48.12 3.32
 -1 0 -7 888.78 9.52
 -1 0 -6 111.29 3.46
 -1 0 -5 762 7.39
 -1 0 -3 0.38 0.9
 -1 0 -2 30.82 1.33
 -1 0 -1 2988.86 7.94
 -1 0 0 317.2 2.82
 -1 1 -10 4.35 2.17
 -1 1 -9 12.42 1.96
 -1 1 -7 60.56 2.78
 -1 1 -6 625.08 6.79
 -1 1 -5 136 3.03
 -1 1 -4 1034.42 6.62
 -1 1 -2 1226.57 4.42
 -1 2 -8 33.83 2.18
 -1 2 -6 672.08 6.24
 -1 2 -5 435.37 4.45
 -1 2 -4 188.04 2.47
 -1 3 -7 339.91 4.29
 -1 3 -6 371.32 3.97
 -1 3 -5 90.87 1.72
 0 -11 -5 6.22 3.41
 0 -11 -4 2.97 3.31
 0 -11 -3 17.72 3.43
 0 -11 -2 0.69 2.68
 0 -10 -7 7.3 3.77
 0 -10 -6 66.49 5.84
 0 -10 -5 2.88 3.18
 0 -10 -4 2.58 3.28
 0 -10 -3 8.68 2.83
 0 -10 -2 69.58 4.67
 0 -10 -1 75.04 4.32
 0 -10 0 76.96 4.1
 0 -9 -8 55.28 6.04
 0 -9 -7 55.04 5.56
 0 -9 -6 8.4 3.88
 0 -9 -5 35.76 4.03
 0 -9 -4 0.68 2.61
 0 -9 -3 63.13 4.62
 0 -9 -2 57.15 3.96
 0 -9 -1 43.27 3.53
 0 -9 0 0.24 1.91
 0 -8 -9 43.28 5.74
 0 -8 -8 55.58 5.15
 0 -8 -7 165.22 7.01
 0 -8 -6 20.53 4.09
 0 -8 -5 63.04 4.61
 0 -8 -4 13.93 2.81
 0 -8 -3 179.14 5.74
 0 -8 -2 116.23 4.86
 0 -8 -1 75.93 3.88
 0 -7 -10 -2.72 4.02
 0 -7 -9 136.89 7.47
 0 -7 -8 118.4 6.74
 0 -7 -7 39.81 4.71
 0 -7 -5 136.22 5.85
 0 -7 -3 13.14 2.72
 0 -7 0 -1.48 1.64
 0 -7 1 118.91 3.52
 0 -7 2 112.94 3.26
 0 -6 -11 137.59 7.57
 0 -6 -10 34.29 4.69
 0 -6 -9 6.43 3.48
 0 -6 -8 97.13 5.84
 0 -6 -7 55.79 4.58
 0 -6 -6 68.85 4.69
 0 -6 -5 5.12 2.66
 0 -6 -4 87.96 4.2
 0 -6 -2 403.35 6.99
 0 -6 -1 230.09 4.94
 0 -6 0 863.78 8.74
 0 -6 1 236.62 4.34
 0 -6 2 399.79 5.21
 0 -5 -11 32.28 5.13
 0 -5 -10 0.88 3.24
 0 -5 -9 34.87 4.71
 0 -5 -8 81.46 4.83
 0 -5 -7 229.27 6.88
 0 -5 -6 335.82 7.55
 0 -5 -3 79.91 3.62
 0 -5 -2 148.19 4.03
 0 -4 -12 54.39 5.94
 0 -4 -10 101.4 5.58
 0 -4 -9 93.67 5.3
 0 -4 -7 114.01 4.94
 0 -4 -4 265.33 5.52
 0 -4 -1 1315.08 9.27
 0 -4 1 1337.05 7.71
 0 -3 -12 1.89 3.2
 0 -3 -11 1.4 3.36
 0 -3 -9 127.95 5.72
 0 -3 -8 43.97 3.67
 0 -3 -7 110.12 4.77
 0 -3 -5 6.03 1.78
 0 -3 -3 190.68 3.99
 0 -3 -2 50.75 2.12
 0 -3 -1 1440.28 8.5
 0 -3 0 3.07 0.93
 0 -3 1 1410.32 6.65
 0 -2 -13 11.35 3.72
 0 -2 -12 4.35 3.02
 0 -2 -11 7.85 3.12
 0 -2 -9 302.92 7.53
 0 -2 -8 66.21 4.02
 0 -2 -1 5062.71 13.19
 0 -2 0 4751.19 10.83
 0 -2 1 4927.75 9.6
 0 -1 -11 142.31 6.08
 0 -1 -10 44.35 4.11
 0 -1 -9 262.69 6.68
 0 -1 0 -0.11 0.36
 0 0 -12 5.36 2.77
 0 0 -10 300.3 7.34
 0 1 -11 143.13 5.34
 0 1 -10 38.88 3.37
 0 1 0 0.69 0.38
 0 2 -10 49.36 3.28
 1 -11 -6 1.66 3.14
 1 -11 -5 17.82 3.66
 1 -11 -4 17.8 3.61
 1 -10 -7 1.35 3.27
 1 -10 -6 10.62 3.38
 1 -10 -5 7.99 3.61
 1 -10 -4 35.39 4.21
 1 -10 -3 24.17 3.25
 1 -10 -2 44.26 3.8
 1 -9 -8 93.33 6.72
 1 -9 -7 -0.26 3.35
 1 -9 -6 24.31 3.84
 1 -9 -5 56.45 4.91
 1 -9 -4 15.95 3
 1 -9 -3 47.54 3.95
 1 -9 -2 37.61 3.35
 1 -9 -1 97.91 4.09
 1 -8 -9 68.55 5.96
 1 -8 -8 2.8 3.33
 1 -8 -7 13.59 3.49
 1 -8 -6 249.36 8.02
 1 -8 -4 45.01 4.01
 1 -8 -3 45.28 3.61
 1 -8 0 42.11 2.55
 1 -8 1 19.36 1.76
 1 -7 -10 16.45 5.03
 1 -7 -9 10.81 3.69
 1 -7 -8 106.44 5.86
 1 -7 -7 94.96 5.81
 1 -7 -5 208.53 6.63
 1 -7 -3 4.9 1.95
 1 -7 -1 53.95 2.93
 1 -7 0 104.43 3.22
 1 -7 1 31.17 1.76
 1 -6 -11 71.39 6.55
 1 -6 -10 47.57 5.5
 1 -6 -8 16.89 3.29
 1 -6 -7 209.48 6.95
 1 -6 -6 34.31 3.36
 1 -6 -5 248.14 6.51
 1 -6 -4 290.99 6.54
 1 -6 -2 175.81 4.56
 1 -6 -1 293.5 5.27
 1 -6 0 2.82 1.25
 1 -6 1 386.6 4.55
 1 -5 -12 55.48 6.23
 1 -5 -11 38.4 5.37
 1 -5 -10 140.22 6.7
 1 -5 -9 104 5.51
 1 -5 -8 23.34 3.43
 1 -5 -7 3.49 2.27
 1 -5 -6 80.05 4.1
 1 -5 -5 5.81 1.94
 1 -5 -3 62.85 3.19
 1 -5 -2 101.15 3.25
 1 -5 1 159.41 2.67
 1 -4 -12 62.72 5.52
 1 -4 -10 30.28 4.04
 1 -4 -8 80.62 4.77
 1 -4 1 889.54 4.94
 1 -3 -12 21.74 4
 1 -3 -11 1.03 3.55
 1 -3 -10 31.16 4.18
 1 -3 0 262.86 2.92
 1 -3 1 43.39 0.98
 1 -2 -13 5.88 3.92
 1 -2 -11 2.66 3.55
 1 -1 -13 35.42 4.54
 1 -1 -12 1.67 2.89
 1 0 -13 25.2 3.93
 1 0 -12 1.48 2.73
 2 -11 -6 13.64 4.03
 2 -10 -7 16.69 3.72
 2 -10 -6 18.85 3.77
 2 -10 -5 26.39 4.01
 2 -10 -4 74.12 4.76
 2 -10 -3 26.65 3.39
 2 -9 -8 13.97 4.6
 2 -9 -7 16.37 4.29
 2 -9 -6 17.98 3.75
 2 -9 -5 136.03 6.09
 2 -9 -4 15.96 2.85
 2 -9 -3 29.53 3.16
 2 -9 -2 16.92 2.49
 2 -8 -9 3.73 3.65
 2 -8 -8 122.27 6.46
 2 -8 -7 3.43 3.67
 2 -8 -6 12.72 3.16
 2 -8 -5 160.78 6.05
 2 -8 -3 14.85 2.47
 2 -8 -1 8.69 1.75
 2 -7 -10 59.62 5.79
 2 -7 -9 54.63 5.78
 2 -7 -8 103.95 6.18
 2 -7 -6 93.3 5.23
 2 -7 -5 74.3 4.12
 2 -7 -4 99.39 4.47
 2 -7 0 13.84 1.43
 2 -6 -10 90.65 6.56
 2 -6 -9 109.59 6.52
 2 -6 -8 24.28 3.72
 2 -6 -7 24.83 3.83
 2 -6 -6 120.58 5.07
 2 -6 -5 7.49 2.27
 2 -6 -4 34.92 3.27
 2 -6 -2 91.71 3.33
 2 -6 -1 74.38 2.73
 2 -5 -12 38.94 5.58
 2 -5 -11 15.51 4.68
 2 -5 -1 69.31 2.49
 2 -5 1 581.75 3.71
 2 -4 -12 2.44 3.71
 2 -4 1 721.91 3.46
 2 -3 -12 93.92 6.47
 2 -2 -13 30.51 4.93
 2 -1 -13 0.22 2.84
 3 -10 -7 4.19 3.67
 3 -10 -6 3.16 3.35
 3 -9 -8 55.02 5.6
 3 -9 -6 19.07 3.65
 3 -9 -5 11.74 3.2
 3 -9 -4 215.11 6.48
 3 -9 -3 20.72 2.85
 3 -8 -9 1.61 4.03
 3 -8 -8 3.96 4.02
 3 -8 -7 41.7 4.38
 3 -8 -6 5.77 2.82
 3 -8 -5 17.83 2.95
 3 -8 -4 17.91 2.71
 3 -8 -3 206.93 5.63
 3 -7 -10 4.78 4.41
 3 -7 -9 28.35 4.4
 3 -7 -8 25.83 4.54
 3 -7 -7 8.66 3.73
 3 -7 -6 41.96 4.02
 3 -7 -5 95.71 4.97
 3 -7 -4 7.01 2.61
 3 -7 -3 103.96 3.98
 3 -7 -1 51.47 2.43
 3 -6 -11 17.78 4.36
 3 -6 -10 87.2 6.78
 3 -6 -9 20.5 3.95
 3 -6 -2 378.92 6.02
 3 -6 -1 57.15 2.36
 3 -6 0 131.87 2.69
 3 -5 -11 0.36 3.56
 4 -9 -8 0.96 3.3
 4 -9 -7 83.02 5.63
 4 -9 -6 69.69 5.06
 4 -9 -5 67.95 4.55
 4 -8 -9 8.26 3.77
 4 -8 -7 26.64 4.37
 4 -8 -5 1.28 2.61
 4 -8 -4 17.5 2.67
 4 -8 -3 104.03 4.17
 4 -7 -8 25.5 4.39
 5 -8 -8 0.85 3.22
 5 -8 -7 80.72 5.5
 5 -8 -6 62.25 4.78
 -8 -6 3 73.98 6.78
 -8 -5 0 18.46 4.45
 -8 -5 1 -0.17 3.68
 -8 -5 2 16.54 5.19
 -8 -5 3 6.95 4.47
 -8 -5 4 40.47 5.86
 -8 -5 5 39.18 6.14
 -8 -4 -2 23.29 4.86
 -8 -4 -1 7.19 4.03
 -8 -4 0 -2.11 3.6
 -8 -4 1 55.43 6.84
 -8 -4 2 18.58 5.22
 -8 -4 3 28.66 5.63
 -8 -4 5 30.56 5.79
 -8 -4 6 33.36 6.01
 -8 -3 -1 25.15 4.96
 -8 -3 0 3.3 4.25
 -8 -3 1 16.35 4.72
 -8 -3 2 142.91 8.52
 -8 -3 3 65.12 6.39
 -8 -3 4 17.37 5.47
 -8 -3 5 32.99 5.66
 -8 -3 6 3.03 5.47
 -8 -3 7 7.11 5.17
 -8 -2 0 9.23 4.75
 -8 -2 1 65.06 6.27
 -8 -2 2 65.66 6.59
 -8 -2 3 24.28 5.7
 -8 -2 5 20.89 5.99
 -8 -2 6 156.44 9.55
 -8 -2 7 12.26 5.61
 -8 -1 1 15.05 5.11
 -8 -1 2 -2.54 3.97
 -8 -1 3 196.97 9.9
 -8 -1 4 27.02 5.31
 -8 -1 5 41.41 6.09
 -8 -1 6 7.88 4.64
 -8 -1 7 30.04 5.72
 -8 0 2 20.93 5.43
 -8 0 3 316.59 11.33
 -8 0 5 34.82 5.81
 -8 0 6 13.96 4.89
 -8 1 2 -2.02 4.75
 -8 1 3 196.18 9.77
 -8 1 4 21.87 5.21
 -8 1 5 29.51 5.84
 -8 1 6 11.77 5.46
 -8 1 7 28.13 5.59
 -8 1 8 49.49 6.94
 -8 2 3 29.06 5.3
 -8 2 4 44.25 6.06
 -8 2 6 152.72 8.97
 -8 2 7 14.59 5.95
 -8 3 4 17.25 5.72
 -8 3 5 34.52 5.66
 -8 3 6 -1.83 4.27
 -8 3 7 3.57 5.33
 -8 4 3 26.86 6.15
 -8 4 4 146.08 8.61
 -8 4 6 27.94 5.82
 -8 5 4 30.41 5.43
 -8 5 5 26.69 5.6
 -7 -7 4 17.97 4.27
 -7 -7 6 12.14 4.72
 -7 -6 1 18.02 3.91
 -7 -6 2 17.31 4.54
 -7 -6 3 18.87 4.88
 -7 -6 4 25.8 5.12
 -7 -6 5 10.57 4.79
 -7 -6 6 7.15 5.11
 -7 -5 -2 2.78 3.73
 -7 -5 0 44 5.13
 -7 -5 1 46.89 5.34
 -7 -5 3 18.92 4.63
 -7 -5 4 106.3 7.52
 -7 -5 5 16.55 4.6
 -7 -5 6 2.1 5.09
 -7 -5 8 42.15 7.28
 -7 -4 -1 4.9 3.49
 -7 -4 0 7.9 3.75
 -7 -4 2 190.36 8.73
 -7 -4 3 11.48 4.03
 -7 -4 4 57.84 6.64
 -7 -4 5 68.53 7.03
 -7 -4 6 2.13 4.05
 -7 -4 7 53.86 6.04
 -7 -4 8 39.4 5.93
 -7 -3 1 18.6 4.15
 -7 -3 2 31.94 5.29
 -7 -3 3 64.87 6.48
 -7 -3 4 6.75 4.05
 -7 -3 5 27.34 5.24
 -7 -3 6 14.62 4.99
 -7 -3 7 17.36 5.57
 -7 -3 8 18.09 6.09
 -7 -3 9 192.66 10.5
 -7 -2 1 67.85 6.78
 -7 -2 4 1.29 4.33
 -7 -2 5 16.15 4.56
 -7 -2 6 42.39 5.73
 -7 -2 7 2.31 4.76
 -7 -2 8 12.25 4.81
 -7 -2 9 32.03 5.82
 -7 -1 2 13.01 4.16
 -7 -1 3 2.14 3.53
 -7 -1 4 30.99 5.38
 -7 -1 5 18.41 4.53
 -7 -1 6 5.5 4.76
 -7 -1 7 26.33 5.09
 -7 -1 9 37.49 6.06
 -7 0 3 128.78 7.54
 -7 0 4 4.59 3.51
 -7 0 5 7.27 4.88
 -7 0 6 3.99 4.35
 -7 0 7 10.84 4.51
 -7 0 8 7.5 4.36
 -7 0 9 146.27 9.08
 -7 0 10 28.76 6.74
 -7 1 3 -0.3 3.5
 -7 1 4 24.35 4.7
 -7 1 5 12.03 4.22
 -7 1 6 13.04 4.34
 -7 1 7 24.47 4.92
 -7 1 8 142.48 8.03
 -7 1 9 37.58 5.69
 -7 1 10 50.75 6.44
 -7 2 3 265.1 9.6
 -7 2 4 2.01 3.71
 -7 2 5 11.81 4.09
 -7 2 7 4.06 4.4
 -7 2 10 24.16 5.21
 -7 3 4 4.89 3.96
 -7 3 5 24.16 5.46
 -7 3 6 15.66 4.38
 -7 3 7 18.86 4.9
 -7 3 8 13.91 4.37
 -7 3 9 194.31 9.32
 -7 4 3 18.32 5.03
 -7 4 5 83.94 6.71
 -7 4 6 0.72 4.38
 -7 4 8 52.52 6.03
 -7 4 9 0.9 3.98
 -7 5 3 17.2 4.5
 -7 5 4 107.08 7.39
 -7 5 5 17.92 4.27
 -7 5 6 4.93 3.62
 -7 5 7 146.38 7.72
 -7 6 3 17.02 4.2
 -7 6 4 31.96 5.15
 -7 6 5 1.16 3.52
 -6 -8 7 30.07 5.07
 -6 -7 2 6.05 3.1
 -6 -7 3 34.5 4.24
 -6 -7 4 59.03 5.65
 -6 -7 5 5.8 4
 -6 -7 6 15.73 4.56
 -6 -6 0 -0.15 2.77
 -6 -6 2 78.5 5.37
 -6 -6 3 0.92 3.3
 -6 -6 6 17.43 4.63
 -6 -6 8 127.09 8.27
 -6 -5 -2 16.77 3.45
 -6 -5 -1 13.06 3.21
 -6 -5 0 15.2 3.93
 -6 -5 1 38.05 4.51
 -6 -5 3 11.86 3.88
 -6 -5 5 23.09 4.79
 -6 -5 6 7.64 3.97
 -6 -5 7 54.79 6.49
 -6 -5 8 20.44 5.73
 -6 -5 9 29.94 5.92
 -6 -4 0 4 3.42
 -6 -4 1 -1.76 3.03
 -6 -4 2 15.16 4.08
 -6 -4 3 34.21 4.41
 -6 -4 5 28.22 4.66
 -6 -4 6 29.28 5.43
 -6 -4 7 16.88 5.05
 -6 -4 8 -1.17 4.49
 -6 -4 9 113.66 8.87
 -6 -4 10 18.6 6.4
 -6 -3 1 21.5 4.04
 -6 -3 2 167.5 7.07
 -6 -3 4 6.3 3.37
 -6 -3 5 18.15 3.87
 -6 -3 6 20.64 5.04
 -6 -3 7 83.86 6.27
 -6 -3 8 11 4.68
 -6 -3 10 34.09 6.08
 -6 -2 2 75.33 5.79
 -6 -2 3 19.26 3.68
 -6 -2 4 8.05 3.32
 -6 -2 5 24 4.2
 -6 -2 6 18.54 4.01
 -6 -2 7 49.26 5.65
 -6 -2 9 14.65 4.74
 -6 -2 11 20.28 5.73
 -6 -1 5 46.2 4.76
 -6 -1 6 27.84 4.33
 -6 -1 7 -0.42 3.46
 -6 -1 8 3.8 3.95
 -6 -1 9 66.33 6.79
 -6 -1 11 59.4 7.94
 -6 0 3 25.68 4.32
 -6 0 4 87.03 5.51
 -6 0 5 31.32 4.77
 -6 0 6 154.45 7.17
 -6 0 8 189.56 8.89
 -6 0 9 1.76 4.08
 -6 0 10 4.52 4.49
 -6 0 11 10.63 5.76
 -6 1 3 171.3 7.38
 -6 1 4 14.87 3.44
 -6 1 5 45.88 5.3
 -6 1 6 28.05 4.81
 -6 1 7 1.58 3.35
 -6 1 8 3.78 4.33
 -6 1 10 12.49 5.03
 -6 1 11 64.08 7.56
 -6 2 4 8.17 3.92
 -6 2 5 36.8 5.15
 -6 2 6 19.89 4.7
 -6 2 7 54.33 6.06
 -6 2 8 54.12 6.11
 -6 2 9 17.66 4.34
 -6 2 10 81.47 7.34
 -6 2 11 26.9 5.27
 -6 3 4 8.46 3.18
 -6 3 5 13.76 3.62
 -6 3 6 15.88 4.05
 -6 3 7 78.67 6.42
 -6 3 8 9.86 4.35
 -6 3 9 11.98 4.7
 -6 4 4 210.2 7.98
 -6 4 5 24.94 4.62
 -6 4 7 19.34 4.64
 -6 4 8 2.6 3.29
 -6 5 4 3.23 3.15
 -6 5 5 19.33 3.85
 -6 5 6 11.24 3.97
 -6 5 7 65.37 5.69
 -6 5 8 22.51 4.15
 -6 6 3 6.34 3.56
 -6 6 5 69.73 5.49
 -6 7 3 24.71 4.25
 -5 -8 5 13.61 3.81
 -5 -8 6 63.88 5.79
 -5 -8 7 81.79 6.54
 -5 -8 8 -0.16 3.81
 -5 -7 1 148.4 5.52
 -5 -7 2 74.39 4.76
 -5 -7 3 16.34 3.41
 -5 -7 4 48.76 4.71
 -5 -7 5 103.48 6.46
 -5 -7 8 17.43 4.77
 -5 -7 9 15.6 4.65
 -5 -6 -1 103.19 4.81
 -5 -6 0 7.37 2.37
 -5 -6 1 24.74 3.38
 -5 -6 2 4.02 2.98
 -5 -6 3 27.64 3.58
 -5 -6 5 18.3 3.83
 -5 -6 7 33.76 4.95
 -5 -6 8 46.18 6.03
 -5 -6 10 27.55 5.97
 -5 -5 0 11.79 3.03
 -5 -5 1 117.43 5.33
 -5 -5 3 129.93 5.96
 -5 -5 4 55.2 4.85
 -5 -5 5 26.3 4.12
 -5 -5 7 49.6 5.47
 -5 -5 8 80.14 6.99
 -5 -5 10 65.51 6.56
 -5 -4 0 15.64 2.92
 -5 -4 1 74.38 4.87
 -5 -4 4 75.89 5.52
 -5 -4 5 30.86 4.02
 -5 -4 6 72.79 5.95
 -5 -4 7 113.27 6.93
 -5 -4 8 68.05 5.98
 -5 -4 9 0.81 4.03
 -5 -4 10 71.97 7.38
 -5 -3 1 180.73 6.43
 -5 -3 4 22.08 3.36
 -5 -3 5 52.68 4.99
 -5 -3 6 44.96 5.17
 -5 -3 7 40.53 4.77
 -5 -3 9 77.11 6.61
 -5 -3 10 76.31 7.09
 -5 -3 11 19.72 5.38
 -5 -2 2 325.97 8.37
 -5 -2 3 149.98 6.4
 -5 -2 4 119.69 6.03
 -5 -2 5 120.36 6.16
 -5 -2 7 212.73 8.2
 -5 -2 8 23.62 4.38
 -5 -2 10 15.13 4.77
 -5 -2 11 5.15 4.73
 -5 -2 12 41.32 6.73
 -5 -1 3 230.11 7.39
 -5 -1 4 58.83 4.61
 -5 -1 5 40.77 4.23
 -5 -1 6 48.97 4.9
 -5 -1 7 56.06 5.02
 -5 -1 8 530.54 12.76
 -5 -1 9 46.93 6.09
 -5 -1 10 63.57 7.14
 -5 -1 11 11.01 4.74
 -5 -1 12 12.13 5.79
 -5 0 3 141.35 5.66
 -5 0 4 74.34 5.09
 -5 0 5 93.8 5.13
 -5 0 6 2.78 2.68
 -5 0 7 4.42 3.08
 -5 0 8 158.05 7.24
 -5 0 9 146.83 8.08
 -5 0 10 40.54 6.13
 -5 0 12 2.03 4.14
 -5 1 4 56.24 4.59
 -5 1 6 36.8 4.55
 -5 1 7 57.41 4.8
 -5 1 8 534.83 12.06
 -5 1 10 58.13 5.75
 -5 1 11 9.32 4.49
 -5 1 12 5.4 4.35
 -5 2 4 110.88 5.78
 -5 2 5 110.49 5.9
 -5 2 6 13.89 3.47
 -5 2 7 215.29 8.01
 -5 2 8 22.2 4.28
 -5 2 9 25.99 4.73
 -5 2 11 2.72 3.87
 -5 2 12 32.31 5.2
 -5 3 4 22.95 3.37
 -5 3 5 51.67 4.84
 -5 3 6 49.39 4.9
 -5 3 7 50.57 5.1
 -5 3 8 38.96 4.68
 -5 3 9 76.95 6.16
 -5 3 10 73.36 6.33
 -5 4 4 63.79 4.63
 -5 4 5 29.82 3.66
 -5 4 6 70.61 5.15
 -5 4 7 116.27 5.97
 -5 4 8 70.74 5.25
 -5 4 10 79.75 6.15
 -5 5 4 54.12 4.63
 -5 5 6 47.45 4.46
 -5 5 7 51.59 4.51
 -5 5 8 94.48 5.52
 -5 6 4 103.72 5.34
 -5 6 5 16.51 3.25
 -5 7 3 16.36 3.1
 -4 -8 5 2.94 3.4
 -4 -8 7 22.05 4.46
 -4 -8 8 29.99 5.33
 -4 -7 3 20.2 2.97
 -4 -7 4 92.65 5.42
 -4 -7 6 93.98 6.3
 -4 -7 8 26.42 4.74
 -4 -7 9 70.69 7.23
 -4 -7 10 25.9 5.57
 -4 -6 -2 28.49 2.51
 -4 -6 -1 38.67 2.8
 -4 -6 3 60.04 4.35
 -4 -6 4 12.93 2.85
 -4 -6 5 144.74 6.62
 -4 -6 6 156.81 7.4
 -4 -6 7 119.96 7
 -4 -6 8 20.68 4.41
 -4 -6 9 8 4.09
 -4 -6 10 16.66 5.01
 -4 -5 -1 402.8 7.54
 -4 -5 0 100.27 4.25
 -4 -5 1 53.76 3.71
 -4 -5 4 104.05 4.93
 -4 -5 5 173.17 6.86
 -4 -5 6 86.5 5.98
 -4 -5 7 35.26 4.59
 -4 -5 8 30.55 5.49
 -4 -5 9 88.46 6.55
 -4 -5 10 148.16 8.86
 -4 -5 11 6.24 4.94
 -4 -4 0 161.51 5.12
 -4 -4 1 68.45 4.02
 -4 -4 4 374.1 8.71
 -4 -4 5 105.32 5.52
 -4 -4 6 76.63 5.44
 -4 -4 8 41.34 5.3
 -4 -4 10 13.19 4.83
 -4 -3 2 0.7 1.88
 -4 -3 5 85.2 4.92
 -4 -3 6 169.51 6.45
 -4 -3 7 248.53 8.24
 -4 -3 8 266.35 9.48
 -4 -3 10 25.4 5.07
 -4 -3 11 97.53 7.75
 -4 -3 12 4.22 5.48
 -4 -2 2 107.31 4.42
 -4 -2 6 110.65 5.56
 -4 -2 7 142.85 6.66
 -4 -2 8 84.79 6.04
 -4 -2 10 92.92 7.31
 -4 -2 11 12.22 4.34
 -4 -2 12 64.81 7.14
 -4 -1 3 146.13 5.34
 -4 -1 5 392.56 8.81
 -4 -1 6 14.96 2.83
 -4 -1 7 89.62 5.11
 -4 -1 8 202.74 8.02
 -4 -1 12 14.33 4.79
 -4 0 3 153.76 5.26
 -4 0 6 18.51 3.1
 -4 0 9 185.27 8.25
 -4 0 10 37.7 5.82
 -4 1 6 11.88 2.64
 -4 1 7 89.67 4.97
 -4 1 9 56.02 4.92
 -4 1 10 79.91 6.64
 -4 2 7 144.24 6.12
 -4 2 8 91.77 5.56
 -4 2 10 98.76 6.22
 -4 2 11 18.11 4.64
 -4 2 12 67.96 6.48
 -4 3 7 253.03 7.27
 -4 3 9 30.97 4.37
 -4 3 11 99.98 6.37
 -4 4 6 78.22 4.47
 -4 4 7 84.21 4.64
 -4 4 9 85.16 5.46
 -4 5 6 85.6 4.38
 -4 5 8 21.81 3.24
 -3 -8 4 15.35 2.78
 -3 -8 6 8.21 3.2
 -3 -7 1 52.62 2.89
 -3 -7 2 29.27 2.85
 -3 -7 4 6.72 2.85
 -3 -7 5 95.47 5.35
 -3 -7 6 34.97 4.46
 -3 -7 7 7.49 4.14
 -3 -7 8 29.17 5.28
 -3 -6 -2 193.17 3.72
 -3 -6 -1 18.65 1.78
 -3 -6 0 134.04 3.72
 -3 -6 2 375.79 7.09
 -3 -6 5 45.12 4.43
 -3 -6 6 21.47 4.06
 -3 -6 7 15.54 3.61
 -3 -6 8 31.99 4.63
 -3 -6 9 24.21 5.49
 -3 -5 -2 16.54 1.86
 -3 -5 -1 402.37 6.2
 -3 -5 0 146.79 4.09
 -3 -5 1 13.07 1.94
 -3 -5 2 71.85 3.57
 -3 -5 3 22.78 2.99
 -3 -5 5 33.95 4.07
 -3 -5 8 -1.66 2.96
 -3 -5 9 290.05 9.98
 -3 -5 10 11.22 4.48
 -3 -4 1 121.7 4.03
 -3 -4 2 660.89 9.2
 -3 -4 3 148.3 5.04
 -3 -4 6 206.1 7.27
 -3 -4 7 201.18 7.84
 -3 -4 8 3.91 3
 -3 -4 9 227.13 9
 -3 -4 11 139.54 9.08
 -3 -3 1 245.71 5.36
 -3 -3 2 6.82 1.72
 -3 -3 4 1124.08 13.04
 -3 -3 6 68.18 4.32
 -3 -3 7 63.11 5.1
 -3 -3 8 59.41 4.8
 -3 -3 9 34.94 4.55
 -3 -3 10 4.2 3.75
 -3 -3 11 6.73 4.92
 -3 -2 4 322.68 6.95
 -3 -2 6 58.23 4.34
 -3 -2 7 19.41 3.43
 -3 -2 8 157.67 7.09
 -3 -2 9 232.86 8.69
 -3 -2 10 163.71 7.52
 -3 -2 11 252.65 9.94
 -3 -2 12 44.99 6.16
 -3 -1 2 5.03 2
 -3 -1 5 758.12 10.87
 -3 -1 7 24.5 3.32
 -3 -1 9 17.66 3.94
 -3 -1 11 212.48 8.85
 -3 -1 12 10.66 4.68
 -3 0 4 716.15 9.9
 -3 0 5 107.79 4.67
 -3 0 8 5.87 2.76
 -3 0 9 1.37 3.29
 -3 0 10 331.27 9.95
 -3 0 11 -1.49 3.68
 -3 1 3 509.73 7.7
 -3 1 4 34.65 3.13
 -3 1 5 794.69 10.67
 -3 1 7 22.32 3.39
 -3 1 8 29.98 3.71
 -3 1 9 16.42 3.67
 -3 1 11 214.73 8.72
 -3 1 12 12.61 4.29
 -3 2 3 80.54 3.48
 -3 2 4 333.56 6.75
 -3 2 5 611.33 9.28
 -3 2 8 148.93 6.2
 -3 2 10 163.54 7.1
 -3 3 6 67.23 3.86
 -3 3 9 38.54 4.04
 -3 3 10 2.86 2.94
 -3 3 11 16.26 3.83
 -3 4 3 150.18 4.33
 -3 4 4 157.18 4.67
 -3 4 5 135.16 4.4
 -3 4 8 2.9 2.19
 -3 4 9 223.64 6.73
 -3 5 4 85.88 3.46
 -3 5 5 33.58 2.64
 -3 6 4 154 4.09
 -3 6 5 46.15 2.61
 -2 -7 1 57.73 2.44
 -2 -7 2 29 2.48
 -2 -7 3 76.91 3.84
 -2 -7 5 84.36 5.19
 -2 -6 2 89.04 3.52
 -2 -6 5 8.47 2.43
 -2 -5 -1 587.87 5.47
 -2 -5 2 141.66 4.13
 -2 -5 3 151.61 4.77
 -2 -5 4 74.1 4.29
 -2 -5 6 501.67 10.25
 -2 -5 8 10.45 3.67
 -2 -5 9 55.63 5.59
 -2 -4 -1 745.16 6.6
 -2 -4 3 104.58 3.89
 -2 -4 4 863.49 11.24
 -2 -4 6 6.34 2.91
 -2 -4 7 129.73 6.07
 -2 -4 8 5.8 2.94
 -2 -4 9 158.9 7.57
 -2 -3 0 517.18 5.94
 -2 -3 1 557.75 6.64
 -2 -3 2 138.21 3.87
 -2 -3 4 39.81 2.72
 -2 -3 5 300.09 7.06
 -2 -3 7 55.64 4.52
 -2 -3 9 48.08 5.59
 -2 -3 10 12.96 4.12
 -2 -2 1 253.97 4.54
 -2 -2 2 1812.27 12.3
 -2 -2 7 112.63 5.44
 -2 -2 8 3.9 2.55
 -2 -2 9 7.82 3.25
 -2 -1 2 256.01 5
 -2 -1 3 83.27 3.09
 -2 -1 8 169.03 6.76
 -2 -1 9 49.84 5
 -2 -1 10 167.2 8.03
 -2 0 2 21.26 1.76
 -2 0 3 424.55 6.44
 -2 0 4 40.83 2.78
 -2 0 5 37 2.56
 -2 0 6 93.64 4.44
 -2 0 8 80.57 5.05
 -2 0 10 -0.46 3.13
 -2 1 4 88.22 3.42
 -2 1 5 3.32 1.49
 -2 1 6 336.39 7.05
 -2 1 8 166.65 6.27
 -2 1 9 53.15 4.73
 -2 1 10 158.5 6.85
 -2 2 3 1013.25 8.87
 -2 2 4 119.31 3.52
 -2 2 8 2.01 2.05
 -2 2 9 7.9 2.62
 -2 2 10 111.69 6.21
 -2 3 3 181.88 3.94
 -2 3 4 46.5 2.52
 -2 3 6 144.25 4.44
 -2 3 7 58.65 3.74
 -2 3 9 51.12 4.25
 -2 4 3 105.72 3.01
 -2 4 4 859.25 8.15
 -2 4 6 4.4 1.6
 -2 4 7 127.54 4.27
 -2 5 3 157.44 3.35
 -2 5 4 77.04 2.47
 -2 5 5 3.47 1.21
 -2 5 6 533.79 6.67
 -2 5 7 26.39 2.38
 -2 6 3 37.67 1.71
 -1 -5 0 157.89 2.54
 -1 -5 1 196.4 3.61
 -1 -5 4 56.73 3.79
 -1 -5 6 84.63 5.23
 -1 -4 0 402.67 4.01
 -1 -4 1 873.09 7.21
 -1 -4 2 620.77 7.22
 -1 -4 4 98.87 3.77
 -1 -4 5 328.06 7.22
 -1 -4 7 16.21 3.33
 -1 -3 -1 42.65 1.26
 -1 -3 0 270.67 3.23
 -1 -3 1 1285.67 8.07
 -1 -3 2 453.33 5.85
 -1 -2 0 5018.08 12.33
 -1 -2 3 615.86 7.38
 -1 -2 7 93.85 4.7
 -1 -2 8 57.62 4.28
 -1 -1 1 652.15 5.13
 -1 -1 3 2421.51 13.27
 -1 -1 4 138.4 3.82
 -1 -1 8 72.82 4.77
 -1 0 3 9740.45 24.76
 -1 0 5 602.92 8.38
 -1 0 6 224.68 5.8
 -1 0 8 1.36 2.43
 -1 1 2 460.54 4.5
 -1 1 3 2375.76 11.59
 -1 1 5 475.57 7.15
 -1 1 6 41.32 2.79
 -1 2 2 1747.6 8.08
 -1 2 3 583.82 5.49
 -1 2 4 975.18 8.22
 -1 2 5 261.54 5.13
 -1 2 6 91.21 3.67
 -1 2 7 93.92 4.32
 -1 3 2 456.47 4.04
 -1 3 3 184.78 2.94
 -1 3 5 58.58 2.61
 -1 3 6 94.02 3.45
 -1 3 7 125.08 4.39
 -1 4 2 603.12 4.19
 -1 4 3 590.85 4.34
 -1 4 4 110.41 2.46
 -1 4 5 414.31 5.08
 -1 4 6 128.85 3.54
 -1 5 2 99.57 1.39
 -1 5 2 94.55 1.41
 0 -3 3 175.71 4.18
 0 -2 1 4877.8 13.35
 0 -2 2 2540.89 12.26
 0 -2 3 1069.7 9.49
 0 -1 1 461.91 3.66
 0 -1 3 1342.26 9.72
 0 -1 4 163.31 4.42
 0 0 1 131.43 1.71
 0 0 2 1814.53 8.31
 0 0 3 665.94 6.49
 0 1 2 665.94 4.44
 0 1 3 1291.06 8.21
 0 1 4 157.01 3.63
 0 2 0 5057.79 9.45
 -8 -5 -1 6.41 4.71
 -8 -5 0 14.79 5.31
 -8 -5 1 5.49 4.86
 -8 -5 2 18.32 5.32
 -8 -5 4 25.75 6.07
 -8 -4 -2 22.02 6.27
 -8 -4 -1 8.86 5.72
 -8 -4 0 3.4 4.98
 -8 -4 2 17.4 5.38
 -8 -4 3 30.16 6.42
 -8 -4 4 142.88 9.64
 -8 -4 5 29.33 6.24
 -8 -3 -2 10.53 6.27
 -8 -3 -1 28.62 5.83
 -8 -3 0 2.62 5.77
 -8 -3 1 19.36 5.81
 -8 -3 2 145.18 9.28
 -8 -3 3 61.83 6.95
 -8 -3 4 11.79 5.03
 -8 -3 5 35.99 6.17
 -8 -2 -2 22.02 5.97
 -8 -2 -1 4.09 5.38
 -8 -2 2 78.3 7.78
 -8 -2 5 23.46 6.14
 -8 -2 6 149.54 10
 -8 -1 -3 37.04 6.3
 -8 -1 -2 3.24 5.18
 -8 -1 -1 5.24 4.66
 -8 -1 0 6.97 4.64
 -8 -1 1 18.96 5.33
 -8 -1 2 -1.43 4.29
 -8 -1 3 205.85 10.11
 -8 -1 4 20.06 5.24
 -8 -1 5 35.58 6.39
 -8 0 -3 40.93 6.56
 -8 0 0 15.25 5.15
 -8 0 1 12.29 5.46
 -8 0 2 23.85 5.36
 -8 0 3 295.64 11.62
 -8 0 5 31.47 5.71
 -8 0 6 12.44 6.06
 -8 1 -3 45.25 7.73
 -8 1 -2 7.41 5.7
 -8 1 -1 7.79 4.79
 -8 1 0 2.24 4.53
 -8 1 1 17.31 5.13
 -8 1 2 -2.63 4.08
 -8 1 3 210.24 10.31
 -8 1 4 15.5 5.95
 -8 1 5 28.12 5.64
 -8 1 6 12.46 5.39
 -8 2 -3 46.36 7.09
 -8 2 -2 35.21 6.64
 -8 2 -1 6.78 4.9
 -8 2 0 9.15 5.04
 -8 2 3 31.79 5.65
 -8 2 4 55.28 7.3
 -8 2 5 21.71 5.41
 -8 2 6 155.69 9.06
 -8 3 -2 7.78 5.53
 -8 3 -1 26.51 6.03
 -8 3 0 7.17 5.4
 -8 3 1 11.82 4.67
 -8 3 2 135.34 8.34
 -8 3 3 61.58 7.16
 -8 3 4 14.35 4.65
 -8 4 -2 24.09 6.19
 -8 4 -1 15.09 4.97
 -8 4 0 -3.5 4.42
 -8 4 1 59 6.71
 -8 4 3 26.34 5.18
 -8 4 5 25.58 6.09
 -8 5 -1 10.15 4.52
 -8 5 0 20.17 5.13
 -8 5 1 4.27 4.19
 -8 5 2 17.24 5.07
 -7 -7 0 29.56 5.34
 -7 -7 2 9.02 4.71
 -7 -7 3 7.5 4.35
 -7 -6 -3 20.82 5.49
 -7 -6 -1 25.01 5.36
 -7 -6 0 53.55 6.13
 -7 -6 1 14.97 5.05
 -7 -6 2 13.89 4.7
 -7 -5 -4 22.02 5.24
 -7 -5 -3 4.66 4.47
 -7 -5 -2 9.23 4.47
 -7 -5 1 39.47 5.36
 -7 -5 3 18.34 4.68
 -7 -5 4 114.41 8.31
 -7 -5 5 19.11 5.45
 -7 -4 -5 23.98 5.53
 -7 -4 -3 30.38 5.48
 -7 -4 -2 38.09 6
 -7 -4 -1 5.27 4.17
 -7 -4 0 15.93 5.44
 -7 -4 1 59.37 6.71
 -7 -4 3 19.66 5.56
 -7 -4 5 87.34 8.17
 -7 -3 -5 7.67 5.03
 -7 -3 -4 22.34 5.34
 -7 -3 -3 58.72 6.99
 -7 -3 -2 35.41 5.61
 -7 -3 -1 97.2 7.05
 -7 -3 0 66.81 7.06
 -7 -3 1 20.44 4.83
 -7 -3 2 27.08 5.59
 -7 -3 3 70.43 6.59
 -7 -3 4 5.12 5
 -7 -3 5 24.6 5.29
 -7 -3 6 16.97 5.01
 -7 -2 -4 27.32 6.42
 -7 -2 -3 7.97 4.78
 -7 -2 -1 4.79 5.12
 -7 -2 1 52.68 5.42
 -7 -2 2 64.99 6.63
 -7 -2 3 273.33 10.21
 -7 -2 4 2.16 4.9
 -7 -2 5 16.68 5.32
 -7 -2 6 45.43 6.45
 -7 -1 -6 5.38 4.86
 -7 -1 -5 3.73 5.77
 -7 -1 -3 7.75 5.38
 -7 -1 -2 26.33 5.18
 -7 -1 -1 11.06 4.33
 -7 -1 0 130.99 8.17
 -7 -1 3 4.19 4.29
 -7 -1 4 24.09 5
 -7 -1 5 19.44 4.94
 -7 -1 6 11.07 4.84
 -7 0 -6 84.68 8.29
 -7 0 -5 -1.47 4.73
 -7 0 -4 23.1 6.28
 -7 0 -3 16.21 5.12
 -7 0 -2 -0.61 4.2
 -7 0 -1 3.18 4.17
 -7 0 0 31.78 5.25
 -7 0 2 1.05 3.45
 -7 0 3 126.06 7.79
 -7 0 4 2.72 4.01
 -7 0 5 0.55 3.86
 -7 0 6 -1.44 3.85
 -7 1 -6 9.49 5.32
 -7 1 -5 0.83 4.54
 -7 1 -2 22.39 5.09
 -7 1 -1 13.12 4.59
 -7 1 0 121.34 7.14
 -7 1 1 12.66 3.9
 -7 1 2 7.65 4.11
 -7 1 3 1.15 4.09
 -7 1 4 27.65 4.93
 -7 1 5 11.62 4.13
 -7 2 -5 9.23 4.88
 -7 2 -4 25.47 5.3
 -7 2 -3 10.08 4.51
 -7 2 -1 4.22 4.75
 -7 2 0 19.79 4.88
 -7 2 1 70.46 6.75
 -7 2 2 64.28 6.49
 -7 2 3 272.78 10.01
 -7 2 4 2.58 4.12
 -7 2 5 9.2 4.08
 -7 2 6 41.32 6.35
 -7 3 -5 12.49 5.67
 -7 3 -4 26.28 5.3
 -7 3 -2 26.63 5.8
 -7 3 0 79.71 7.01
 -7 3 1 17.57 4.22
 -7 3 3 63.27 5.7
 -7 3 4 8.13 4.35
 -7 3 5 24.92 4.59
 -7 4 -5 31.39 5.84
 -7 4 -4 5.47 5.24
 -7 4 -3 29.51 6.21
 -7 4 -2 37.39 5.32
 -7 4 -1 6.37 4.76
 -7 4 0 7.66 4.63
 -7 4 1 57.99 5.74
 -7 4 2 192.95 8.39
 -7 4 3 16.05 4.72
 -7 4 4 55.04 5.78
 -7 4 5 78.91 6.74
 -7 5 -4 25.03 5.26
 -7 5 -3 9.16 4.29
 -7 5 -2 3.15 4.09
 -7 5 0 47.8 5.86
 -7 5 1 38.5 5.26
 -7 5 4 103.87 6.65
 -6 -7 -2 11.15 4.3
 -6 -7 -1 2.09 3.34
 -6 -7 0 10.5 3.93
 -6 -7 1 11.71 3.68
 -6 -7 2 9.2 4.01
 -6 -7 3 32.49 5.08
 -6 -6 -5 14 4.24
 -6 -6 -4 5.75 4.39
 -6 -6 -3 52.08 5.8
 -6 -6 -2 4.03 3.47
 -6 -6 -1 -1.96 4.11
 -6 -6 0 1.54 4.05
 -6 -6 1 55.61 5.42
 -6 -6 3 3.08 3.7
 -6 -6 4 194.41 8.55
 -6 -5 -6 21.88 5.56
 -6 -5 -5 10.84 4.81
 -6 -5 -4 4.06 4.54
 -6 -5 -3 110.73 7.23
 -6 -5 -2 16.94 4.27
 -6 -5 -1 18.05 4.41
 -6 -5 0 19.81 4.78
 -6 -5 1 40.98 4.61
 -6 -5 3 14.92 4.3
 -6 -4 -6 31.51 5.99
 -6 -4 -5 26.46 5.59
 -6 -4 -3 77.19 6.94
 -6 -4 -2 9.91 4.27
 -6 -4 -1 148.29 7.29
 -6 -4 0 6.41 3.37
 -6 -4 1 -2.79 2.97
 -6 -4 2 10.86 3.8
 -6 -4 3 32.15 4.49
 -6 -4 4 219.15 8.72
 -6 -4 5 29.41 5.06
 -6 -3 -7 31.36 5.75
 -6 -3 -6 14.85 4.79
 -6 -3 -5 10.82 4.28
 -6 -3 -4 6.29 4.77
 -6 -3 -3 30.59 4.7
 -6 -3 -1 18.68 4.45
 -6 -3 0 79.77 6.2
 -6 -3 4 5.58 3.48
 -6 -3 5 22.1 4.84
 -6 -2 -7 31.99 5.72
 -6 -2 -6 4.63 4.78
 -6 -2 -5 53.07 6.52
 -6 -2 -4 70.87 6.33
 -6 -2 -3 157.67 7.62
 -6 -2 -2 70.54 5.39
 -6 -2 -1 13.8 4.06
 -6 -2 0 56.97 4.83
 -6 -2 1 55.19 5.37
 -6 -2 2 74.13 5.28
 -6 -2 3 18.8 4.45
 -6 -2 4 11.41 3.58
 -6 -2 5 31.41 4.87
 -6 -2 6 17.55 4.34
 -6 -1 -8 33.34 7.01
 -6 -1 -7 3.81 4.59
 -6 -1 -6 17.31 5.38
 -6 -1 -5 49.93 5.94
 -6 -1 -4 8.11 4.07
 -6 -1 -3 6.08 3.49
 -6 -1 -2 54.01 5.07
 -6 -1 0 46.6 4.57
 -6 -1 1 119.04 6.1
 -6 -1 2 50.44 5.16
 -6 -1 3 164.7 7.1
 -6 -1 4 6.37 3.4
 -6 -1 5 50.52 5.44
 -6 -1 6 26.91 4.67
 -6 0 -7 46.7 6.13
 -6 0 -6 66.62 6.69
 -6 0 -5 11 4.26
 -6 0 -4 105.97 7.36
 -6 0 -2 2.47 3.87
 -6 0 -1 4.43 3.16
 -6 0 0 3.81 3.15
 -6 0 1 43.25 4.88
 -6 0 2 17.48 3.72
 -6 0 5 30.26 4.31
 -6 1 -7 5.72 4.71
 -6 1 -6 14.25 5.17
 -6 1 -4 9.85 4.21
 -6 1 -3 6.24 3.39
 -6 1 -2 52 4.95
 -6 1 -1 10.28 3.53
 -6 1 1 111.15 6.4
 -6 1 2 42.83 4.37
 -6 1 3 165.28 7.02
 -6 1 4 15.71 3.64
 -6 1 5 52.37 5.48
 -6 1 6 28.48 4.76
 -6 2 -7 28.77 5.53
 -6 2 -6 9.36 4.93
 -6 2 -5 47.59 5.81
 -6 2 -4 61.33 6.04
 -6 2 -3 171.34 7.73
 -6 2 -2 68.62 5.64
 -6 2 -1 11.71 3.37
 -6 2 1 56.09 4.98
 -6 2 2 86.12 5.92
 -6 2 3 16.04 3.62
 -6 2 4 8 3.24
 -6 2 5 33.19 4.94
 -6 2 6 25.41 5.01
 -6 3 -7 34.23 5.78
 -6 3 -6 12.95 4.64
 -6 3 -4 14.63 5.04
 -6 3 -3 24.38 4.26
 -6 3 -2 71.58 5.59
 -6 3 -1 15.82 3.66
 -6 3 0 78.86 5.78
 -6 3 1 25.73 3.9
 -6 3 2 165.68 7.13
 -6 3 3 34.85 4.76
 -6 3 4 9.38 3.24
 -6 3 5 16.41 4.37
 -6 4 -7 17.47 4.99
 -6 4 -6 35.88 6.21
 -6 4 -5 37 5.84
 -6 4 -4 83.9 6.51
 -6 4 -3 67.45 6.41
 -6 4 -2 6.04 3.58
 -6 4 -1 149 6.91
 -6 4 1 -0.69 3.46
 -6 4 2 12.36 3.42
 -6 4 3 43.47 4.96
 -6 4 4 215.15 7.71
 -6 4 5 28.49 4.88
 -6 5 -6 27.88 5.9
 -6 5 -5 8.19 4.76
 -6 5 -4 5.52 4.45
 -6 5 -3 119.45 7.02
 -6 5 -2 13.56 4.44
 -6 5 -1 17.71 3.67
 -6 5 0 16.66 3.54
 -6 5 1 36.59 4.49
 -6 5 2 51.16 4.89
 -6 5 3 15.16 3.62
 -6 5 4 0.33 2.81
 -6 6 -6 18.83 5.26
 -6 6 -5 11.36 4.27
 -6 6 -4 7.94 3.93
 -6 6 -3 51.39 5.45
 -6 6 -2 5.02 3.92
 -6 6 -1 0.5 3.05
 -6 6 1 51.83 4.74
 -6 6 2 76.06 5.56
 -5 -7 -2 10.22 3.14
 -5 -7 -1 38.05 4.41
 -5 -7 0 166.93 6.71
 -5 -7 1 150.57 6.5
 -5 -7 2 76.11 5.37
 -5 -6 -6 81.46 6.3
 -5 -6 -3 2.55 3.01
 -5 -6 -2 57.69 4.98
 -5 -6 -1 109.2 6
 -5 -6 0 9.94 3.67
 -5 -6 1 22.51 3.46
 -5 -6 2 0.47 3.3
 -5 -6 3 28.23 3.91
 -5 -5 -8 41.9 5.98
 -5 -5 -7 69.23 6.6
 -5 -5 -6 5.68 3.67
 -5 -5 -4 97.36 6.16
 -5 -5 -3 114.04 6.17
 -5 -5 -2 71.51 5.34
 -5 -5 0 15.75 3.77
 -5 -5 1 120.12 6.02
 -5 -5 2 100.82 5.57
 -5 -5 3 134.33 6.31
 -5 -5 4 56.16 5.6
 -5 -4 -8 39.59 5.48
 -5 -4 -7 76.84 6.4
 -5 -4 -5 17.76 4.15
 -5 -4 -4 38.79 4.55
 -5 -4 -3 13.59 3.34
 -5 -4 -2 4.36 3.18
 -5 -4 -1 15.14 3.37
 -5 -4 0 16.85 3.73
 -5 -4 1 66.44 5.05
 -5 -4 2 185.22 7.12
 -5 -4 3 47.14 4.97
 -5 -4 4 71.19 5.52
 -5 -4 5 24.96 4.43
 -5 -3 -9 15.15 5.25
 -5 -3 -8 45.25 6.36
 -5 -3 -7 -1.78 3.73
 -5 -3 -6 55.93 6.14
 -5 -3 -5 12.47 3.56
 -5 -3 -4 19.54 3.7
 -5 -3 -3 73.12 5.52
 -5 -3 -2 143.79 6.63
 -5 -3 1 175.55 6.86
 -5 -3 2 25.52 3.56
 -5 -3 3 129.35 6.22
 -5 -3 5 44.4 5.17
 -5 -2 -9 20.63 6.23
 -5 -2 -7 55.23 6.32
 -5 -2 -6 157.81 8
 -5 -2 -5 -0.13 2.96
 -5 -2 -4 47.03 5.01
 -5 -2 -3 23.49 4.24
 -5 -2 -1 321.33 8.66
 -5 -2 0 22.25 3.29
 -5 -2 1 37.94 4.2
 -5 -2 2 315.11 8.27
 -5 -2 4 104.02 5.79
 -5 -2 5 115.22 6.48
 -5 -1 -8 57.45 7.12
 -5 -1 -7 96.19 7.42
 -5 -1 -6 2.25 4.15
 -5 -1 -5 61.59 5.85
 -5 -1 -4 9.98 3.38
 -5 -1 -3 37.78 4
 -5 -1 -2 219.8 7.46
 -5 -1 -1 83.79 5.22
 -5 -1 2 90.45 5.02
 -5 -1 3 236.42 7.42
 -5 -1 5 37.91 4.55
 -5 0 -8 129.99 8.44
 -5 0 -7 42.13 5.67
 -5 0 -6 3.69 3.37
 -5 0 -5 64.28 5.1
 -5 0 -4 77.18 5.39
 -5 0 -1 62.14 4.67
 -5 0 1 773.5 12.61
 -5 0 2 11.36 3.17
 -5 0 3 150.98 6.07
 -5 0 4 75.2 4.62
 -5 0 5 97.2 5.47
 -5 1 -7 104.52 6.77
 -5 1 -6 4.68 3.53
 -5 1 -5 62.71 5.26
 -5 1 -4 9.74 3.02
 -5 1 -3 27.44 4.03
 -5 1 -1 84.86 4.65
 -5 1 0 120.62 5.74
 -5 1 1 276.11 7.78
 -5 1 2 97.04 5.25
 -5 1 4 60.67 4.27
 -5 2 -6 159.33 7.92
 -5 2 -5 2.74 2.99
 -5 2 -4 38.44 4.5
 -5 2 -3 25.83 4.18
 -5 2 -1 322.49 8.38
 -5 2 0 22.03 3.22
 -5 2 2 287.56 7.52
 -5 2 4 116.08 5.72
 -5 2 5 116.78 6.22
 -5 3 -7 -0.07 4.55
 -5 3 -6 63.04 6.23
 -5 3 -5 7.86 3.54
 -5 3 -4 16.24 4.13
 -5 3 -3 82.44 5.61
 -5 3 -2 136.21 6.13
 -5 3 -1 245.17 7.51
 -5 3 0 129.34 5.82
 -5 3 1 176.85 6.25
 -5 3 2 21.71 3.27
 -5 3 4 26.81 3.77
 -5 3 5 47.83 4.44
 -5 4 -5 18.87 4.11
 -5 4 -3 14.53 3.27
 -5 4 -2 6.19 2.77
 -5 4 -1 20.25 3.55
 -5 4 0 19.67 3.43
 -5 4 1 65.02 4.37
 -5 4 2 193.68 6.48
 -5 4 3 56.16 4.19
 -5 5 -8 44.22 5.72
 -5 5 -7 63.21 6.21
 -5 5 -5 15.49 4.68
 -5 5 -4 94.79 6.05
 -5 5 -1 49.74 4.46
 -5 5 0 11.53 2.95
 -5 5 1 128.61 5.42
 -5 5 2 94.96 4.82
 -5 5 3 128.01 5.33
 -5 6 -7 42.24 5.44
 -5 6 -6 81.39 6.51
 -5 6 -5 45 5.29
 -5 6 -4 29.52 4.4
 -5 6 -3 0.82 2.92
 -5 6 -1 103.46 5.31
 -5 6 1 29.71 3.53
 -4 -7 2 119.06 5.4
 -4 -6 -7 158.39 7.24
 -4 -6 -6 86.07 5.74
 -4 -6 -5 12.7 3.45
 -4 -6 -4 66.35 4.88
 -4 -6 -3 169.05 6.18
 -4 -6 -2 27.83 3.6
 -4 -5 -9 12.02 4.78
 -4 -5 -8 -1.82 3.16
 -4 -5 -4 62.57 4.41
 -4 -5 3 119.32 5.5
 -4 -4 -10 35.46 5.98
 -4 -4 -9 64.29 6.22
 -4 -4 -8 202.05 8.61
 -4 -4 -7 0.57 3.19
 -4 -4 -6 32.99 3.9
 -4 -4 -5 12.89 3.74
 -4 -4 -4 8.36 2.88
 -4 -4 -3 13.16 2.66
 -4 -4 4 367.89 8.96
 -4 -3 -6 33.74 4.39
 -4 -3 -5 53.45 4.59
 -4 -3 -4 215.68 7.08
 -4 -3 -3 315.83 7.83
 -4 -2 -4 18.2 2.99
 -4 -2 -3 22.73 3.12
 -4 -2 1 366.47 7.68
 -4 -2 2 106.77 4.88
 -4 -2 5 268.92 7.84
 -4 -1 -3 12.57 2.57
 -4 -1 1 57.87 3.47
 -4 0 -3 46.61 3.87
 -4 0 -1 2.15 1.96
 -4 0 0 -0.26 1.51
 -4 0 1 6.33 2.24
 -4 0 2 39.86 3.39
 -4 0 3 169.7 5.69
 -4 1 -3 15.53 2.69
 -4 1 0 275.07 6.5
 -4 1 1 58.67 3.6
 -4 1 2 63.65 3.42
 -4 1 3 169.96 5.74
 -4 2 -3 18.95 2.77
 -4 2 -1 202.62 5.94
 -4 2 0 193.17 5.75
 -4 2 3 301.79 7.15
 -4 3 0 133.25 4.73
 -4 3 3 303.62 6.81
 -4 3 4 17.38 3.01
 -4 4 -3 14.52 2.76
 -4 4 0 170.55 5.32
 -4 4 2 121.76 4.51
 -4 4 3 73.33 3.85
 -4 4 4 349.78 7.46
 -4 5 -4 56.33 4.46
 -4 5 -3 87.06 4.68
 -4 5 0 102.03 4.31
 -4 5 1 45.64 3.17
 -4 5 2 73.5 3.64
 -4 5 3 124.73 4.42
 -4 6 -5 15.15 3.46
 -4 6 -3 168.26 5.86
 -4 6 0 51.88 3.28
 -4 6 1 25.37 2.66
 -4 6 2 47.2 2.97
 -4 7 -6 21.99 3.75
 -4 7 -5 1.18 2.79
 -4 7 -4 156.34 6.04
 -3 -7 -3 41.55 2.95
 -3 -7 -2 80.46 3.44
 -3 -7 0 85.56 3.49
 -3 -6 -8 24.04 4.04
 -3 -6 -7 10.04 3.37
 -3 -6 -5 4.74 2.21
 -3 -6 -3 14.67 2.31
 -3 -6 -2 183.27 5.13
 -3 -6 -1 12.93 2.08
 -3 -6 0 129.75 4.34
 -3 -6 1 60.43 3.47
 -3 -6 2 382.15 7.69
 -3 -5 -7 91.96 5.67
 -3 -5 -6 37.08 4.01
 -3 -5 -5 195.2 6.15
 -3 -5 -3 96.04 4.22
 -3 -5 -2 18.23 2.36
 -3 -5 -1 411.3 7.46
 -3 -5 1 15.65 2.57
 -3 -4 -3 398.35 7.59
 -3 -4 -2 8.31 2.02
 -3 -4 -1 174.14 4.92
 -3 -4 0 199.73 5.12
 -3 -4 1 117.3 4.19
 -3 -4 2 668.06 9.61
 -3 -4 3 155.04 5.22
 -3 -3 -3 56.42 3.68
 -3 -3 -2 319.99 6.54
 -3 -3 -1 107.56 3.84
 -3 -3 2 6.96 1.91
 -3 -3 3 303.68 6.65
 -3 -3 4 1067.01 12.85
 -3 -2 -2 564.33 8.41
 -3 -2 3 82.73 3.67
 -3 -2 4 328.21 7.18
 -3 -1 0 158.68 4.52
 -3 -1 1 70.45 3.09
 -3 -1 2 3.36 1.87
 -3 0 0 591.26 7.9
 -3 0 1 2.28 1.77
 -3 0 2 3070.39 17.93
 -3 0 4 719.72 10.11
 -3 1 -1 59.38 3.1
 -3 1 0 150.39 4.22
 -3 1 1 68.52 3.23
 -3 1 2 5.12 1.94
 -3 1 3 539.28 8.04
 -3 1 4 38.79 3.01
 -3 2 -1 202.04 4.78
 -3 2 0 543.98 7.49
 -3 2 2 286 5.56
 -3 2 3 81.16 3.53
 -3 3 -1 112.01 3.85
 -3 3 0 136.02 4.03
 -3 3 1 258.92 5.21
 -3 3 2 5.22 1.8
 -3 3 3 296.6 5.74
 -3 4 -2 6.06 1.81
 -3 4 -1 177.21 4.6
 -3 4 0 198.3 4.56
 -3 4 1 119.31 3.65
 -3 4 2 660.87 7.91
 -3 4 3 152.26 4.23
 -3 5 -1 402.92 6.57
 -3 5 0 155.54 4.08
 -3 5 1 15.56 1.84
 -3 5 2 70.62 2.84
 -3 6 -2 174.95 4.7
 -3 6 -1 16.36 2.09
 -3 6 0 132.45 3.46
 -3 7 -4 42.65 3.54
 -2 -6 -5 149.84 4.62
 -2 -6 -4 122.7 3.87
 -2 -6 -2 15.66 1.82
 -2 -6 -1 444.79 5.76
 -2 -6 0 156.33 3.57
 -2 -5 -4 73.76 3.43
 -2 -5 -3 45.99 2.71
 -2 -5 -2 98.93 3.21
 -2 -3 0 506.96 6.31
 -2 -3 1 535.36 6.66
 -2 -2 -1 39.25 2.42
 -2 -2 0 916.86 8.35
 -2 -2 1 269.75 4.87
 -2 -2 2 1890.53 12.69
 -2 -2 3 1084.39 10.69
 -2 -1 -1 452.26 5.83
 -2 -1 0 564.71 6.31
 -2 -1 2 233.56 4.68
 -2 -1 3 85.91 3.23
 -2 0 0 647.24 6.58
 -2 0 1 330.66 4.84
 -2 0 3 420.34 6.56
 -2 1 0 570.71 6.1
 -2 1 1 260.16 4.35
 -2 1 2 244.17 4.53
 -2 1 3 87.78 3.07
 -2 2 0 854.99 7.28
 -2 2 1 244.66 4.09
 -2 2 2 1801.45 10.95
 -2 3 0 493.83 5.5
 -2 3 1 565.55 5.85
 -2 3 2 134.29 3.1
 -2 4 -1 728.92 7
 -2 4 1 876.19 6.65
 -2 4 2 165.56 3.21
 -2 5 -1 583.69 6.17
 -2 5 0 32.74 1.67
 -2 6 -2 17.81 1.86
 -2 6 -1 463.17 5.22
 -2 6 0 163.94 2.27
 -1 -6 -4 1.51 1.11
 -1 -6 -2 3.47 0.66
 -1 -5 -1 159.75 2.54
 -1 -4 -2 1041.39 7.14
 -1 -4 0 394.37 4.15
 -1 -3 -1 40.01 1.62
 -1 -3 0 271.02 3.5
 -1 -3 1 1272.87 7.91
 -1 -2 0 4923.55 13.22
 -1 -2 1 1124.55 7.08
 -1 -1 0 4332.56 11.84
 -1 -1 1 647.1 5.19
 -1 0 0 322.75 3.27
 -1 0 1 57.45 1.79
 -1 0 2 19.28 1.6
 -1 1 0 4260.32 10.63
 -1 1 1 607.92 4.39
 -1 2 0 4955.41 11.19
 -1 2 1 1100.3 5.42
 -1 3 0 273.45 2.76
 -1 3 1 1280.49 5.2
 -1 4 0 412.77 2.93
 -8 -6 2 28.04 5.33
 -8 -6 3 71.69 6.65
 -8 -5 -1 11.45 4.84
 -8 -5 0 18.43 4.77
 -8 -5 1 1.15 4.02
 -8 -5 2 18.59 4.64
 -8 -5 3 9.08 4.64
 -8 -5 4 32.08 5.3
 -8 -5 5 30.35 5.42
 -8 -4 -2 21.57 5.37
 -8 -4 -1 13.32 4.68
 -8 -4 0 0.7 4.76
 -8 -4 1 56.3 6.63
 -8 -4 2 22.83 5.06
 -8 -4 3 30.07 5.26
 -8 -4 5 35.22 5.55
 -8 -4 6 36.87 6.63
 -8 -3 -3 21.65 5.25
 -8 -3 -1 22.83 5.11
 -8 -3 0 9.08 4.42
 -8 -3 1 17.09 4.86
 -8 -3 2 138.7 8.2
 -8 -3 3 67.71 7.39
 -8 -3 5 39.8 6.53
 -8 -3 6 3.61 4.6
 -8 -3 7 1.79 4.4
 -8 -2 -1 -1.27 3.86
 -8 -2 0 9.04 5.38
 -8 -2 2 73.65 7.7
 -8 -2 4 49.63 6.59
 -8 -2 5 25.05 6.14
 -8 -2 6 148.33 9.34
 -8 -2 7 11.26 5.82
 -8 -1 -1 6.28 4.26
 -8 -1 0 1.21 5.01
 -8 -1 1 11.67 5.29
 -8 -1 2 3.21 4.57
 -8 -1 3 208.46 10.12
 -8 -1 4 17.44 5
 -8 -1 6 11.27 5.01
 -8 -1 7 33.32 6.54
 -8 0 0 16.94 4.99
 -8 0 1 13.63 4.79
 -8 0 2 18.42 5.85
 -8 0 3 323.27 11.94
 -8 0 4 16.94 5.06
 -8 0 5 31.69 5.97
 -8 0 6 19.91 5.29
 -8 0 7 34.96 5.79
 -8 0 8 1.53 5.28
 -8 1 0 0 4.98
 -8 1 1 16.75 5.65
 -8 1 2 1.07 3.98
 -8 1 4 18.04 4.95
 -8 1 5 28.07 5.69
 -8 1 6 14.25 5.07
 -8 1 7 34.47 6.12
 -8 1 8 43.44 6.05
 -8 2 0 5.44 4.73
 -8 2 2 67.43 6.83
 -8 2 3 29.86 5.38
 -8 2 4 42.96 6.12
 -8 2 5 19.59 5.5
 -8 2 6 150.4 8.95
 -8 2 7 7.22 4.31
 -8 3 1 12.98 4.94
 -8 3 3 62.06 6.83
 -8 3 4 15.34 4.85
 -8 3 5 39.4 5.78
 -8 3 6 1.56 4.79
 -8 3 7 5.44 4.93
 -8 4 0 2.65 4.19
 -8 4 2 15.53 5.04
 -8 4 3 33.06 5.92
 -8 4 4 140.74 8.35
 -8 4 5 27.68 5.57
 -8 4 6 33.94 5.62
 -8 5 0 19.58 5.1
 -8 5 2 18.74 5.25
 -8 5 4 29.84 5.47
 -8 5 5 28.25 5.24
 -8 6 2 34.09 5.53
 -8 6 3 72.09 6.95
 -7 -7 3 10.95 3.79
 -7 -7 4 18.99 4.65
 -7 -7 6 8.97 4.99
 -7 -6 1 12.04 3.98
 -7 -6 2 14.65 4.07
 -7 -6 3 14.66 4.32
 -7 -6 4 30.68 5.44
 -7 -6 5 4.4 3.83
 -7 -6 6 3.98 4.24
 -7 -6 7 94.29 7.78
 -7 -5 -3 4.07 3.48
 -7 -5 -2 3.51 3.64
 -7 -5 -1 1.28 3.28
 -7 -5 0 47.33 5.57
 -7 -5 1 52.88 5.62
 -7 -5 2 59.12 5.99
 -7 -5 3 16.83 4.72
 -7 -5 4 110.93 7.43
 -7 -5 5 12.48 4.29
 -7 -5 6 8.49 5.17
 -7 -5 7 152.4 8.87
 -7 -4 -4 3.26 3.48
 -7 -4 -2 34.68 5.05
 -7 -4 -1 3.75 3.71
 -7 -4 0 10.29 4
 -7 -4 1 68.2 6.56
 -7 -4 3 19.31 4.63
 -7 -4 4 54.88 6.49
 -7 -4 5 67.3 6.97
 -7 -4 6 3.52 4.97
 -7 -4 7 61.97 7.24
 -7 -4 8 37.72 6.56
 -7 -3 2 26.87 5.29
 -7 -3 3 69.54 6.92
 -7 -3 4 8.17 4.78
 -7 -3 5 29.26 5.08
 -7 -3 6 21.24 4.68
 -7 -3 7 14.08 4.97
 -7 -3 8 16.66 5.84
 -7 -3 9 193.6 9.91
 -7 -2 -1 5.62 3.5
 -7 -2 1 56.13 5.68
 -7 -2 2 64.35 6.4
 -7 -2 3 280.79 10.02
 -7 -2 4 1.14 3.57
 -7 -2 5 12.37 4.64
 -7 -2 7 3.54 4.5
 -7 -2 8 14.39 4.74
 -7 -2 9 34.92 6.67
 -7 -1 0 123.56 6.71
 -7 -1 1 12.56 4.55
 -7 -1 2 11.13 4.33
 -7 -1 3 4.05 3.42
 -7 -1 4 26.87 5.44
 -7 -1 5 15.04 4.19
 -7 -1 6 11.07 4.09
 -7 -1 7 25.78 5.71
 -7 -1 8 133.02 8.62
 -7 -1 9 36.97 5.66
 -7 -1 10 67.24 7.88
 -7 0 1 49.4 5.25
 -7 0 2 -1.12 3
 -7 0 3 121.15 7.5
 -7 0 5 5.51 3.82
 -7 0 6 1.74 3.71
 -7 0 7 11.16 4.28
 -7 0 8 8.38 4.3
 -7 0 9 147.36 8.24
 -7 0 10 27.62 5.59
 -7 1 1 14.64 4.02
 -7 1 2 10.73 4.55
 -7 1 3 3.56 3.48
 -7 1 4 26.34 4.61
 -7 1 5 15.97 4.34
 -7 1 6 12.68 4.13
 -7 1 7 27.19 5.14
 -7 1 8 153.51 8.75
 -7 1 9 39.59 6.43
 -7 1 10 61.77 7.46
 -7 2 1 62.47 5.55
 -7 2 2 65.92 6.42
 -7 2 4 -1.45 3.3
 -7 2 7 2.97 3.76
 -7 2 8 16.55 5.05
 -7 2 9 26.63 5.23
 -7 2 10 27.38 5.1
 -7 3 2 26.5 4.49
 -7 3 4 10.62 3.93
 -7 3 7 20.19 5.16
 -7 3 9 195.93 8.84
 -7 4 2 191.39 8.76
 -7 4 4 55.23 6.21
 -7 4 5 76.74 6.63
 -7 4 6 1.62 3.37
 -7 4 7 60.5 5.85
 -7 4 8 52.06 5.8
 -7 4 9 2.49 4.19
 -7 5 1 39.14 5.05
 -7 5 2 48.53 6.04
 -7 5 3 21.77 4.89
 -7 5 4 103.8 6.95
 -7 5 5 19.14 4.13
 -7 5 6 3.49 3.34
 -7 6 1 15.48 4.23
 -7 6 3 19.37 4.27
 -7 6 4 16.09 4.32
 -7 7 0 21.63 4.32
 -6 -8 7 34.52 5.4
 -6 -7 2 2.12 2.79
 -6 -7 3 25.99 3.99
 -6 -7 4 56.5 5.51
 -6 -7 5 2.63 3.62
 -6 -7 6 17.38 4.83
 -6 -7 7 39.8 5.92
 -6 -7 8 13.63 4.76
 -6 -6 -1 0.19 2.89
 -6 -6 0 -1.21 3.17
 -6 -6 1 55.79 4.97
 -6 -6 3 5.99 3.2
 -6 -6 4 203.89 8.31
 -6 -6 5 62.61 6.09
 -6 -6 6 23.18 4.47
 -6 -6 7 12.38 5.01
 -6 -6 8 138.17 7.93
 -6 -6 9 -0.29 5.08
 -6 -5 -4 3.62 3.55
 -6 -5 -3 111.41 6.3
 -6 -5 -2 17.13 3.75
 -6 -5 -1 12.42 3.82
 -6 -5 0 19.44 3.67
 -6 -5 1 35.76 4.3
 -6 -5 2 42.94 4.79
 -6 -5 3 15.92 3.59
 -6 -5 4 0.12 2.94
 -6 -5 6 9.66 3.95
 -6 -5 7 56.27 5.79
 -6 -5 8 29.11 5.05
 -6 -5 9 28.2 5.59
 -6 -4 -2 14.25 3.98
 -6 -4 -1 159.14 6.99
 -6 -4 0 4.04 3.56
 -6 -4 1 -0.94 3
 -6 -4 2 16.73 3.54
 -6 -4 3 30.48 4.89
 -6 -4 4 212.14 7.95
 -6 -4 5 22.21 4.77
 -6 -4 6 31.39 4.66
 -6 -4 7 16.71 4.43
 -6 -4 8 -0.88 4.09
 -6 -4 10 18.7 5.99
 -6 -3 -1 15.87 3.35
 -6 -3 0 73.38 5.4
 -6 -3 1 25.77 4.47
 -6 -3 3 41.44 4.6
 -6 -3 4 4.78 3.47
 -6 -3 5 17.33 4.4
 -6 -3 7 78.75 6.33
 -6 -3 10 25.02 5.21
 -6 -2 0 55.92 5.11
 -6 -2 1 51.23 4.5
 -6 -2 3 17.73 3.72
 -6 -2 4 6.51 3.15
 -6 -2 5 35.02 4.47
 -6 -2 6 18.73 4.01
 -6 -2 7 43.2 5.18
 -6 -2 8 40.67 5.35
 -6 -2 9 19.35 5.48
 -6 -2 10 95.94 7.55
 -6 -2 11 32.05 6.45
 -6 -1 1 128.98 6.65
 -6 -1 3 170.42 7.46
 -6 -1 4 6.12 2.99
 -6 -1 5 48.81 5.24
 -6 -1 6 27.26 4.51
 -6 -1 7 2.63 3.33
 -6 -1 8 5.44 3.68
 -6 -1 10 12.35 4.63
 -6 -1 11 61.45 7.41
 -6 0 2 15.86 3.92
 -6 0 3 21.87 3.68
 -6 0 4 92.7 6.28
 -6 0 5 29.2 4.26
 -6 0 6 156.82 7.15
 -6 0 7 11.33 4.25
 -6 0 8 199.09 8.77
 -6 0 9 -2.59 3.4
 -6 0 11 5.82 4.24
 -6 1 2 43.38 5.34
 -6 1 4 13.77 3.37
 -6 1 5 57.73 5.23
 -6 1 6 27.32 4.39
 -6 1 7 2.65 3.99
 -6 1 8 2.66 3.33
 -6 1 10 16.07 4.45
 -6 2 2 77.65 5.51
 -6 2 3 14.52 3.26
 -6 2 4 10.23 3.28
 -6 2 5 34.12 4.36
 -6 2 7 48.43 5.58
 -6 2 8 49.15 5.79
 -6 2 9 15.89 4.09
 -6 2 10 92.23 7.18
 -6 2 11 25.93 4.69
 -6 3 2 164.22 7.16
 -6 3 5 16.96 3.71
 -6 3 6 15.84 4.24
 -6 3 7 80.37 5.73
 -6 3 8 12.51 3.83
 -6 3 9 8.66 3.79
 -6 3 10 32.99 4.73
 -6 3 11 1.95 4.26
 -6 4 2 12.97 3.27
 -6 4 3 44.2 4.8
 -6 4 4 219.66 8.09
 -6 4 5 25.07 3.96
 -6 4 6 40.56 4.75
 -6 4 8 3.65 3.16
 -6 4 9 121.1 6.84
 -6 5 4 -0.98 2.81
 -6 5 5 15.83 3.57
 -6 5 6 13.52 3.48
 -6 5 7 69.34 5.29
 -6 6 3 6.35 2.95
 -6 6 4 191.52 7.29
 -6 6 5 53.15 4.91
 -6 7 1 9.11 3.47
 -6 7 2 6.02 2.95
 -5 -8 5 11.66 3.35
 -5 -8 6 56.67 5.51
 -5 -8 7 84 6.17
 -5 -7 1 157.02 5.81
 -5 -7 2 76.79 4.72
 -5 -7 3 13.38 3.31
 -5 -7 4 45.31 4.85
 -5 -7 5 103.07 6.21
 -5 -7 6 16.68 3.91
 -5 -7 8 14.32 4.24
 -5 -6 -2 64.87 4.2
 -5 -6 -1 97.48 4.9
 -5 -6 0 8.81 2.62
 -5 -6 1 20.7 3.38
 -5 -6 2 3.78 2.99
 -5 -6 5 22.36 4.43
 -5 -6 6 30.71 4.62
 -5 -6 7 41.02 4.98
 -5 -6 9 168.91 8.68
 -5 -6 10 28.21 5.72
 -5 -5 -3 111.72 5.17
 -5 -5 -2 70.12 4.57
 -5 -5 -1 48.83 3.99
 -5 -5 0 13.49 3.23
 -5 -5 2 95.01 5.34
 -5 -5 3 129.92 5.72
 -5 -5 4 54.32 4.95
 -5 -5 5 30.74 4.04
 -5 -5 6 35.54 4.64
 -5 -5 7 53.23 5.93
 -5 -5 8 92.46 7
 -5 -5 9 57.41 5.99
 -5 -5 10 70.22 7.13
 -5 -4 -1 13.64 2.96
 -5 -4 0 15.61 2.94
 -5 -4 1 69.13 4.71
 -5 -4 2 199.91 7.04
 -5 -4 4 64.59 4.73
 -5 -4 5 26.26 3.78
 -5 -4 6 70.4 5.42
 -5 -4 7 113.83 7.04
 -5 -4 8 69.91 6.52
 -5 -4 9 -2.21 3.55
 -5 -4 11 9.82 4.65
 -5 -3 0 119 5.43
 -5 -3 2 27.08 3.52
 -5 -3 4 22.05 3.62
 -5 -3 5 50.29 4.62
 -5 -3 6 46.95 4.45
 -5 -3 7 43.2 4.64
 -5 -3 8 39.25 5.21
 -5 -3 9 79.16 6.7
 -5 -3 10 77.42 7.32
 -5 -3 11 27.51 5.72
 -5 -2 1 40.21 3.64
 -5 -2 3 150.09 6.17
 -5 -2 5 109.19 5.73
 -5 -2 6 20.26 3.49
 -5 -2 7 205.07 7.95
 -5 -2 8 21.07 4.03
 -5 -2 9 31.07 4.8
 -5 -2 10 13.98 5.03
 -5 -2 11 2.41 4.09
 -5 -2 12 40.32 6.67
 -5 -1 2 97.02 4.8
 -5 -1 3 243.19 7.55
 -5 -1 4 53.41 4.06
 -5 -1 5 35.66 3.97
 -5 -1 6 47.05 4.57
 -5 -1 7 63.13 4.74
 -5 -1 8 551.71 12.66
 -5 -1 9 38.14 5.57
 -5 -1 10 57.14 6.63
 -5 -1 11 15.56 4.6
 -5 -1 12 9 5.21
 -5 0 2 8.12 2.43
 -5 0 3 156.03 6.3
 -5 0 4 79.77 4.92
 -5 0 5 96.6 5.15
 -5 0 6 3.22 2.7
 -5 0 7 6.56 3.21
 -5 0 8 158.43 7.07
 -5 0 9 148.17 7.85
 -5 0 10 32.53 5.2
 -5 0 11 77.45 7.15
 -5 0 12 5.9 4.93
 -5 1 2 101.21 5.22
 -5 1 3 237.76 7.2
 -5 1 4 62.56 4.9
 -5 1 5 37.92 4.69
 -5 1 6 42.61 4.07
 -5 1 8 550.3 12.17
 -5 1 10 51.07 5.91
 -5 1 11 10.92 4.09
 -5 1 12 7.89 4.05
 -5 2 3 150.79 5.82
 -5 2 5 118.04 5.91
 -5 2 6 11.15 3.23
 -5 2 7 220.61 7.77
 -5 2 8 25.18 4.03
 -5 2 10 16.55 4.71
 -5 2 11 2.62 3.36
 -5 3 3 130.05 5.79
 -5 3 5 49.22 4.34
 -5 3 6 52.29 4.51
 -5 3 7 45.25 4.59
 -5 3 8 39.55 4.27
 -5 3 9 69.84 5.61
 -5 3 10 77.26 6.03
 -5 3 11 22.36 4.27
 -5 4 4 67.11 4.27
 -5 4 5 28.33 3.43
 -5 4 6 70.24 4.85
 -5 4 7 116.72 5.67
 -5 4 8 78.15 5.21
 -5 4 9 -0.4 2.94
 -5 5 2 87.71 4.83
 -5 5 3 131.56 5.71
 -5 5 4 56.89 4.24
 -5 5 5 29 3.66
 -5 5 6 46.26 4.19
 -5 5 7 49.48 4.36
 -5 6 2 3.8 2.84
 -5 6 4 105.36 5.12
 -5 6 5 19.36 3.02
 -5 7 2 77.6 4.71
 -4 -8 3 113.34 4.97
 -4 -8 4 19.68 3.22
 -4 -8 5 3.78 2.9
 -4 -8 6 26.62 4.35
 -4 -7 0 39.71 2.85
 -4 -7 2 111.6 4.71
 -4 -7 3 21.23 2.94
 -4 -7 4 75.19 4.72
 -4 -7 5 51.57 4.61
 -4 -7 6 95.06 5.67
 -4 -7 8 28.79 4.58
 -4 -6 -2 26.39 2.63
 -4 -6 -1 41.28 3.1
 -4 -6 0 48.21 3.41
 -4 -6 3 59.48 4.14
 -4 -6 4 10.06 2.63
 -4 -6 5 142.48 6.3
 -4 -6 6 147.71 6.91
 -4 -6 7 119.87 6.6
 -4 -6 8 22.51 4.29
 -4 -6 9 6.11 4.52
 -4 -5 -2 185.52 5.5
 -4 -5 -1 388.02 7.72
 -4 -5 0 99.05 4.5
 -4 -5 5 172.44 6.38
 -4 -5 6 92.06 5.65
 -4 -5 7 34.97 4.55
 -4 -5 8 22.28 4.12
 -4 -5 9 86.71 6.93
 -4 -4 -1 252.31 6.28
 -4 -4 0 154.42 5.28
 -4 -4 4 383.06 8.74
 -4 -4 5 104.81 5.26
 -4 -4 7 93.3 5.95
 -4 -4 8 43.01 5.46
 -4 -4 9 91.2 6.86
 -4 -4 10 12.25 4.95
 -4 -3 1 83.35 4.18
 -4 -3 5 85.6 4.88
 -4 -3 6 170.76 6.65
 -4 -3 7 239.38 7.93
 -4 -3 8 254.96 8.9
 -4 -3 9 38.42 4.9
 -4 -3 10 29.48 4.88
 -4 -2 1 384.25 7.76
 -4 -2 2 104.82 4.54
 -4 -2 5 276.8 7.58
 -4 -2 6 113.03 5.8
 -4 -2 8 78.44 5.41
 -4 -2 9 125.1 6.52
 -4 -2 10 89.22 7.09
 -4 -2 11 20.03 4.83
 -4 -1 2 62.92 3.75
 -4 -1 3 145.41 5.15
 -4 -1 5 407.44 8.78
 -4 -1 6 18.57 2.97
 -4 -1 7 90.46 5.06
 -4 -1 9 54.78 5.74
 -4 -1 11 43.9 5.36
 -4 0 3 154.8 5.22
 -4 0 6 22.3 3.07
 -4 0 8 283.01 8.62
 -4 0 9 174.28 7.45
 -4 0 11 33.15 5.18
 -4 1 2 62.99 3.59
 -4 1 6 15.23 2.81
 -4 1 7 88.74 5.21
 -4 1 9 62.36 5.42
 -4 1 10 86.93 5.95
 -4 1 11 50.86 6.36
 -4 2 3 285.39 6.79
 -4 2 6 115.44 5.38
 -4 2 8 88.36 5.49
 -4 2 9 117.03 6.34
 -4 2 10 99.26 6.17
 -4 2 11 13.11 4.32
 -4 3 6 153.35 5.73
 -4 3 7 235.99 6.9
 -4 3 8 251.98 7.38
 -4 3 9 36.21 4.46
 -4 3 10 28.53 4.23
 -4 4 7 80.73 4.57
 -4 4 8 45.68 3.92
 -4 4 9 82.9 5.06
 -4 4 10 13.13 3.42
 -4 5 3 115.12 4.54
 -4 5 7 33.71 3.35
 -4 6 3 59.04 3.49
 -4 6 4 13.77 2.16
 -3 -7 0 92.69 3.04
 -3 -7 1 48.52 2.69
 -3 -7 2 26.35 2.64
 -3 -7 4 8 2.38
 -3 -7 5 96.05 5.17
 -3 -7 6 37.99 3.99
 -3 -6 -3 12.01 1.58
 -3 -6 -2 191.59 4.1
 -3 -6 -1 18.23 1.93
 -3 -6 0 132.3 3.83
 -3 -6 1 62.77 3.08
 -3 -6 2 383.93 7.2
 -3 -6 6 21.64 3.52
 -3 -6 7 15.87 3.74
 -3 -5 -2 18.82 2.32
 -3 -5 -1 410.84 6.48
 -3 -5 0 151.14 4.28
 -3 -5 2 65.31 3.57
 -3 -5 5 35.46 3.7
 -3 -5 7 34.52 4.05
 -3 -5 8 -0.86 3.14
 -3 -4 -1 179.18 4.5
 -3 -4 0 198.89 4.85
 -3 -4 2 657.38 9.13
 -3 -4 3 138.88 4.71
 -3 -4 6 209.13 6.91
 -3 -4 9 214.1 8.5
 -3 -3 0 135.84 4.07
 -3 -3 1 248.79 5.37
 -3 -3 2 7.59 1.81
 -3 -3 3 297.73 6.44
 -3 -3 4 1099.95 12.76
 -3 -3 6 67.7 4.12
 -3 -3 7 61.69 4.65
 -3 -3 8 58.86 4.71
 -3 -3 9 31.74 4.36
 -3 -2 6 59.49 4.17
 -3 -2 7 21.62 3.15
 -3 -1 2 3.75 1.55
 -3 -1 5 798.38 11.11
 -3 -1 7 24.15 3.13
 -3 -1 8 35.8 4.3
 -3 -1 9 21.49 3.72
 -3 -1 10 19.05 4.05
 -3 0 2 3198.43 18.24
 -3 0 3 53.31 3.21
 -3 0 4 703.9 9.55
 -3 0 5 98.5 4.03
 -3 0 8 7.89 3.22
 -3 0 9 -0.52 2.51
 -3 1 2 5.23 1.68
 -3 1 3 551.87 8.06
 -3 1 4 34.7 2.52
 -3 1 5 791.7 10.44
 -3 1 7 27.17 3.43
 -3 1 8 24.81 3.58
 -3 1 9 16.59 3.23
 -3 1 10 31.25 4.17
 -3 2 3 79.39 3.5
 -3 2 4 337 6.75
 -3 2 5 614.78 9.08
 -3 2 6 56.23 3.75
 -3 2 8 155.17 5.93
 -3 2 9 227.16 7.36
 -3 3 4 1108.87 11.2
 -3 3 8 52.47 3.93
 -3 3 9 34.71 3.75
 -3 4 3 156.06 4.31
 -3 4 4 163.05 4.44
 -3 4 8 0.83 2.33
 -3 5 2 67.18 3.04
 -3 5 3 22.55 2.28
 -3 5 4 83.61 3.25
 -3 5 6 135.35 4.1
 -3 5 7 28.65 2.63
 -3 6 4 152.96 3.61
 -2 -7 1 60.21 2.38
 -2 -7 2 31.63 2.31
 -2 -6 0 163.77 3.21
 -2 -6 1 81.77 2.86
 -2 -6 2 90.28 3.4
 -2 -6 3 39.69 2.8
 -2 -6 5 6.69 2.37
 -2 -5 2 145.73 4.08
 -2 -5 4 75.39 3.92
 -2 -4 -1 725.59 6.73
 -2 -4 0 123.4 3.12
 -2 -4 4 843.42 10.66
 -2 -4 6 5.61 2.27
 -2 -4 7 130.44 6.01
 -2 -3 0 507.8 5.92
 -2 -3 1 530.59 6.4
 -2 -3 2 139.07 3.88
 -2 -3 4 42.3 2.9
 -2 -3 7 63.77 4.47
 -2 -3 8 112.11 5.73
 -2 -2 1 262.26 4.62
 -2 -2 2 1832.95 12.23
 -2 -2 3 1092.42 10.31
 -2 -2 7 110.19 4.98
 -2 -1 1 265.74 4.34
 -2 -1 2 243.42 4.56
 -2 -1 8 173.84 6.45
 -2 0 2 20.5 1.94
 -2 0 3 422.32 6.2
 -2 0 4 37.64 2.45
 -2 0 5 37.73 2.78
 -2 1 2 231.48 4.2
 -2 1 3 90.14 3.25
 -2 1 4 87.76 3.21
 -2 1 5 3.75 1.67
 -2 1 6 323.34 6.59
 -2 1 8 171.24 6.01
 -2 2 2 1757.05 10.82
 -2 2 3 1013.31 8.73
 -2 2 4 118.61 3.47
 -2 2 5 705.27 8.64
 -2 2 6 144.69 4.34
 -2 2 8 1.76 1.97
 -2 3 2 131.35 3.13
 -2 3 6 143.3 4.3
 -2 3 7 58.52 3.54
 -2 4 2 159.8 3.36
 -2 4 3 101.94 2.78
 -2 4 4 833.13 7.62
 -2 4 5 55.94 2.63
 -2 4 6 3.88 1.56
 -2 5 2 154.05 3.28
 -2 5 3 158.59 3.05
 -2 5 4 76.79 2.28
 -2 5 5 5.42 1.19
 -2 6 3 36.7 1.25
 -1 -5 0 156.46 2.43
 -1 -5 1 209.77 3.59
 -1 -4 -2 1039.17 4.84
 -1 -4 -1 877.62 4.48
 -1 -4 0 392.64 3.9
 -1 -4 1 848.04 6.77
 -1 -4 2 601.62 6.77
 -1 -4 4 101.17 3.61
 -1 -3 -1 42.19 1.37
 -1 -3 0 258.79 3.15
 -1 -3 2 466.05 5.69
 -1 -3 5 54.26 3.17
 -1 -2 0 5012.53 12.52
 -1 -2 1 1153.41 7.07
 -1 -2 2 1789.99 10.24
 -1 -2 3 618.26 7.2
 -1 -2 4 1013.49 9.98
 -1 -1 1 650.3 5.15
 -1 -1 2 465.64 5.03
 -1 -1 4 134.23 3.92
 -1 -1 6 45.84 3.28
 -1 0 1 60.49 1.83
 -1 0 2 18.69 1.46
 -1 0 3 9792.28 24.38
 -1 0 4 305.87 5.26
 -1 0 5 568.23 7.69
 -1 0 6 216.06 5.41
 -1 1 2 460.12 4.45
 -1 1 3 2383.06 11.39
 -1 1 5 455.17 6.63
 -1 1 6 42.74 2.78
 -1 2 2 1729.49 7.82
 -1 2 4 1017.02 8.14
 -1 2 5 266.34 4.94
 -1 3 2 462.38 3.8
 -1 3 3 185.55 2.82
 -1 3 4 818.26 6.69
 -1 4 2 598.82 3.49
 -1 4 3 591 3.92
 0 -1 1 448.3 3.42
 0 0 1 129.23 1.65
 0 2 0 5035.06 8.62
 -6 -6 -6 12.74 4.89
 -6 -5 -6 27.75 5.37
 -6 -5 -5 3.11 4.66
 -6 -4 -6 27.55 5.31
 -6 -4 -5 27.2 5.36
 -6 -4 -4 75.62 6.93
 -6 -3 -7 32.93 6.55
 -6 -3 -6 13.05 5.29
 -6 -3 -4 5.68 3.88
 -6 -2 -7 29.58 5.42
 -6 -2 -6 9.24 4.56
 -6 -2 -5 52.17 5.74
 -6 -2 -4 68.71 6.73
 -6 -1 -7 8.95 4.58
 -6 -1 -6 14.89 4.95
 -6 -1 -5 37.28 5.25
 -6 -1 -4 12.26 4.77
 -6 0 -7 46.31 6.12
 -6 0 -5 7.63 3.97
 -6 0 -4 105.39 7.42
 -6 1 -8 21.53 5.59
 -6 1 -7 9.87 5.03
 -6 1 -6 9.49 5.03
 -6 1 -5 48.32 6.37
 -6 2 -7 32.23 6.18
 -6 2 -6 10.04 4.33
 -6 2 -5 41.2 5.51
 -6 3 -7 26.94 5.94
 -5 -7 -6 0.15 3.54
 -5 -7 -5 2.97 3.6
 -5 -6 -7 31.65 5.36
 -5 -6 -6 81.38 6.82
 -5 -6 -5 53.84 5.59
 -5 -6 -4 27.16 4.22
 -5 -5 -7 62.4 6.94
 -5 -5 -6 0.01 3.49
 -5 -5 -5 17.45 4.04
 -5 -5 -4 87.95 6.02
 -5 -5 -3 115.1 6.5
 -5 -4 -8 38.66 5.58
 -5 -4 -7 84.56 7.35
 -5 -4 -6 173.84 8.3
 -5 -4 -5 19.38 4.13
 -5 -4 -4 30.49 4.71
 -5 -4 -3 12.8 3.54
 -5 -3 -8 39.03 5.78
 -5 -3 -6 58.63 6.4
 -5 -3 -5 10.64 4.16
 -5 -3 -4 16.56 3.81
 -5 -3 -2 137.7 6.71
 -5 -2 -9 31.24 6.09
 -5 -2 -8 185.05 9.47
 -5 -2 -7 61.15 6.33
 -5 -2 -6 153.14 7.72
 -5 -2 -4 47.16 5.04
 -5 -2 -3 23.55 3.66
 -5 -2 -2 74.63 5.05
 -5 -1 -9 43.21 6.59
 -5 -1 -8 71.33 7.38
 -5 -1 -7 104.21 6.96
 -5 -1 -6 -1.4 3.2
 -5 -1 -5 64.74 5.23
 -5 -1 -4 6.35 3.09
 -5 -1 -2 222.95 7.42
 -5 0 -9 33.6 5.71
 -5 0 -8 116.95 8.02
 -5 0 -7 46.44 5.7
 -5 0 -6 5.32 3.53
 -5 0 -3 220.81 7.87
 -5 1 -9 49.77 6.91
 -5 1 -8 71.82 7.03
 -5 1 -7 104.53 7.36
 -5 1 -6 3.81 4.17
 -5 1 -5 61.23 5.79
 -5 1 -4 11.67 3.89
 -5 2 -9 18.14 5.36
 -5 2 -8 195.52 9.03
 -5 2 -6 163.02 7.54
 -5 2 -5 2.79 3.02
 -5 2 -4 40.72 4.54
 -5 2 -3 29.21 3.96
 -5 3 -9 23.6 5.58
 -5 3 -7 3.64 4.39
 -5 3 -6 62.69 5.81
 -5 3 -5 9.22 4.03
 -5 3 -4 15.48 3.97
 -5 4 -8 43.35 5.62
 -5 4 -7 84.45 6.6
 -5 4 -6 165 7.91
 -5 4 -5 17.36 3.71
 -4 -7 -8 3.9 3.87
 -4 -7 -6 30.94 4.73
 -4 -7 -5 2.89 2.9
 -4 -7 -4 144.07 6.37
 -4 -7 -3 83.92 5.07
 -4 -6 -8 35.86 5.34
 -4 -6 -7 165.61 7.87
 -4 -6 -6 84.85 6.5
 -4 -6 -5 10.71 3.42
 -4 -6 -4 70.08 5.2
 -4 -6 -3 166.14 6.28
 -4 -6 -2 20.09 3.11
 -4 -5 -7 26.91 4.63
 -4 -5 -6 78.82 6.26
 -4 -5 -5 22.25 4.21
 -4 -5 -4 60.3 4.88
 -4 -5 -3 94.14 5.02
 -4 -4 -8 211.9 9.59
 -4 -4 -7 0.87 3.37
 -4 -4 -6 27.39 4.34
 -4 -4 -5 11.34 3.27
 -4 -4 -4 4.76 2.8
 -4 -4 -2 49.35 3.71
 -4 -3 -10 3.23 4.38
 -4 -3 -9 43.73 6.27
 -4 -3 -7 24.7 4.86
 -4 -3 -6 30.91 4.29
 -4 -3 -5 51.47 4.96
 -4 -3 -4 213.52 7.36
 -4 -3 -3 312.85 8.15
 -4 -2 -10 19.24 5.93
 -4 -2 -8 100.43 7.3
 -4 -2 -7 32.08 4.54
 -4 -2 -6 32.33 4.16
 -4 -2 -5 0.66 2.44
 -4 -2 -4 17.7 3.12
 -4 -1 -10 11.67 5.55
 -4 -1 -9 36.79 5.5
 -4 -1 -8 23.04 4.84
 -4 -1 -7 47.97 4.76
 -4 -1 -5 7.74 2.68
 -4 -1 -4 149.8 5.89
 -4 -1 -3 12.57 2.67
 -4 0 -10 2 4.44
 -4 0 -9 83.91 7.22
 -4 0 -8 167.41 8.42
 -4 0 -7 123.48 6.66
 -4 0 -6 22.82 3.68
 -4 0 -5 379.55 9.37
 -4 0 -4 8.28 2.52
 -4 0 -3 44.97 3.9
 -4 0 -1 6.65 2.31
 -4 1 -10 11.05 4.85
 -4 1 -9 32.98 5.18
 -4 1 -8 20.92 4.27
 -4 1 -5 8.6 2.87
 -4 1 -4 154.38 6
 -4 2 -8 101.93 7.19
 -4 2 -7 26.85 4.21
 -4 2 -6 31.91 4.27
 -4 2 -5 -0.25 2.69
 -4 2 -4 22.45 3.28
 -4 3 -10 9.2 4.12
 -4 3 -9 37.8 5.47
 -4 3 -8 8.34 4.11
 -4 3 -7 23.77 4.12
 -4 3 -6 28.92 3.92
 -4 4 -10 36.03 5.48
 -4 4 -9 56.12 5.93
 -4 4 -8 197.65 8.31
 -4 4 -7 -1.25 3.54
 -4 4 -5 15.76 3.45
 -4 4 -4 8.87 2.75
 -4 5 -8 -1.31 2.92
 -4 5 -6 78.9 5.35
 -4 5 -5 27.62 3.91
 -3 -7 -7 105.91 6.53
 -3 -7 -6 57.84 4.94
 -3 -7 -5 21.12 3.65
 -3 -7 -4 45.79 3.9
 -3 -7 -2 76.54 3.74
 -3 -6 -9 41.86 5.35
 -3 -6 -8 15.18 4.45
 -3 -6 -7 5.68 3.49
 -3 -6 -6 148.36 6.85
 -3 -6 -5 4.66 2.68
 -3 -6 -4 16.14 3.28
 -3 -5 -10 0.87 4.02
 -3 -5 -9 22.68 4.81
 -3 -5 -8 46.35 5.53
 -3 -5 -7 96.93 6.24
 -3 -5 -6 36.76 4.18
 -3 -5 -5 197.49 7.09
 -3 -5 -2 14.27 2.28
 -3 -5 -1 415.97 7.48
 -3 -4 -9 2.07 3.82
 -3 -4 -8 8.72 4.46
 -3 -4 -7 49.19 4.97
 -3 -4 -6 69.6 5.12
 -3 -4 -5 14.29 3.35
 -3 -4 -4 111.56 5.22
 -3 -4 -2 4.99 2.22
 -3 -4 -1 182.95 5.08
 -3 -3 -11 23.75 5.38
 -3 -3 -10 1.49 4.7
 -3 -3 -9 15.16 4.83
 -3 -3 -8 33.65 4.75
 -3 -3 -7 180.58 7.63
 -3 -3 -6 87.4 5.15
 -3 -3 -5 74 4.54
 -3 -3 -3 51 3.48
 -3 -3 -2 330.78 6.94
 -3 -3 -1 108.13 3.85
 -3 -2 -11 47.86 6.8
 -3 -2 -10 2.82 4.1
 -3 -2 -9 65.76 5.94
 -3 -2 -8 14.77 4.3
 -3 -2 -7 42.99 5
 -3 -2 -6 -1.49 2.41
 -3 -2 -3 4.07 1.98
 -3 -2 -2 551.74 8.64
 -3 -1 -11 12.24 5.53
 -3 -1 -9 1.62 3.41
 -3 -1 -8 54.92 5.72
 -3 -1 -7 14.29 3.82
 -3 -1 -6 73.5 4.77
 -3 -1 -5 543.73 10.22
 -3 0 -11 166.06 9.12
 -3 0 -10 7.63 4.57
 -3 0 -9 12.96 4.49
 -3 0 -8 118.18 6.65
 -3 0 -7 4.79 2.92
 -3 0 -6 66.35 4.47
 -3 0 -5 47.62 3.72
 -3 1 -11 16.07 5.39
 -3 1 -10 29.56 5.09
 -3 1 -9 1.22 3.37
 -3 1 -7 14.85 3.31
 -3 1 -6 68.37 4.44
 -3 1 -5 534.41 9.95
 -3 1 -2 304.54 6.26
 -3 1 -1 60.96 2.98
 -3 2 -11 49.15 6.6
 -3 2 -10 3.74 3.78
 -3 2 -9 78.03 6.5
 -3 2 -8 21.76 3.9
 -3 2 -7 37.69 4.61
 -3 2 -3 4.99 1.98
 -3 2 -2 537.43 8.28
 -3 3 -11 15.76 4.95
 -3 3 -10 0.27 3.6
 -3 3 -9 7.99 3.99
 -3 3 -8 46.51 5.08
 -3 3 -5 65.06 4.09
 -3 3 -3 55.99 3.11
 -3 3 -2 309.61 6.3
 -3 4 -11 76.84 6.68
 -3 4 -10 2.3 3.39
 -3 4 -8 6.99 3.4
 -3 4 -7 52.64 4.71
 -3 4 -6 68.42 4.65
 -3 4 -3 383 7.27
 -3 5 -9 15.21 3.58
 -3 5 -8 41.83 4.63
 -3 5 -7 87.24 5.06
 -3 5 -6 31.36 3.65
 -3 5 -4 170.46 5.31
 -2 -7 -10 47.12 5.61
 -2 -7 -9 13.35 4.01
 -2 -7 -8 4.9 3.38
 -2 -7 -7 26.49 4.01
 -2 -7 -6 2.31 3.03
 -2 -7 -5 4.34 2.33
 -2 -7 -3 54.28 3.05
 -2 -7 -2 116.86 3.49
 -2 -6 -10 49.86 6.05
 -2 -6 -9 3.2 3.8
 -2 -6 -8 27.88 4.53
 -2 -6 -7 53.76 4.67
 -2 -6 -6 14.73 3.19
 -2 -6 -5 157.76 5.74
 -2 -6 -3 118.96 4.21
 -2 -6 -2 18.75 2.12
 -2 -6 -1 449.37 6.15
 -2 -5 -11 84.18 7.66
 -2 -5 -10 12.26 4.98
 -2 -5 -9 0.69 3.6
 -2 -5 -8 39.14 5.21
 -2 -5 -7 39.17 4.89
 -2 -5 -6 12.52 2.95
 -2 -5 -5 65.95 4.35
 -2 -5 -2 97.96 3.6
 -2 -5 -1 577.38 6.99
 -2 -4 -11 17.93 4.93
 -2 -4 -9 83.82 6.13
 -2 -4 -8 136.98 6.8
 -2 -4 -7 37.92 4.69
 -2 -4 -4 134.92 4.68
 -2 -4 -2 178.69 4.43
 -2 -3 -11 19.87 4.94
 -2 -3 -10 20 4.72
 -2 -3 -8 74.58 5.76
 -2 -3 -7 91.45 5.05
 -2 -3 -6 209.04 6.72
 -2 -3 -4 147.79 4.94
 -2 -3 -3 478.11 7.65
 -2 -3 -1 532.85 6.6
 -2 -3 0 517.24 6.22
 -2 -2 -11 71.82 6.76
 -2 -2 -10 90.05 6.88
 -2 -2 -8 212.6 7.98
 -2 -2 -7 167.69 6.37
 -2 -2 -4 33.69 3.15
 -2 -2 -2 226.6 4.9
 -2 -2 -1 42.43 2.25
 -2 -2 0 910.99 8.06
 -2 -1 -12 29.11 5.81
 -2 -1 -9 13.99 4.25
 -2 -1 -8 2.03 3.02
 -2 -1 -7 67.37 4.46
 -2 -1 -6 64.68 3.96
 -2 -1 -3 232.18 5.2
 -2 -1 -2 1093.98 9.85
 -2 -1 -1 452.39 6.08
 -2 -1 0 570 6.36
 -2 0 -12 54.65 6.61
 -2 0 -11 22.02 5.47
 -2 0 -10 -0.53 3.63
 -2 0 -9 18.74 3.83
 -2 0 -8 12.86 3.25
 -2 0 -7 147.21 6.22
 -2 0 -6 89.43 4.66
 -2 0 -3 593.82 8
 -2 0 -2 436.9 6.39
 -2 0 -1 1854.11 11.63
 -2 0 0 686.52 7.02
 -2 1 -12 17.44 4.95
 -2 1 -11 72.42 6.27
 -2 1 -10 3.12 3.49
 -2 1 -9 11.21 4.18
 -2 1 -8 0.77 3.25
 -2 1 -7 65.23 4.25
 -2 1 -4 163.55 4.82
 -2 1 -3 234.88 5.12
 -2 1 -2 1077.71 9.65
 -2 1 -1 450.03 5.8
 -2 2 -12 52.64 6.17
 -2 2 -11 84.19 6.36
 -2 2 -10 89.98 6.53
 -2 2 -9 31.43 4.34
 -2 2 -8 208.88 7.17
 -2 2 -7 175.08 6.41
 -2 2 -5 50.64 3.22
 -2 2 -3 438.84 6.7
 -2 2 -2 238.39 4.77
 -2 2 -1 37.7 2.35
 -2 3 -11 24.92 4.59
 -2 3 -10 20.4 4.22
 -2 3 -9 -1.32 2.79
 -2 3 -8 78.3 5.34
 -2 3 -5 111.09 4.37
 -2 3 -3 442.02 6.54
 -2 4 -11 17.78 4.26
 -2 4 -10 33.83 4.54
 -2 4 -9 87.39 5.72
 -2 4 -8 143.52 5.93
 -2 4 -7 32.22 3.86
 -2 4 -5 -1.92 1.68
 -2 4 -4 137.56 4.25
 -2 4 -3 9.44 1.8
 -2 5 -9 2.57 2.75
 -2 5 -8 39.13 4.04
 -2 5 -7 31.62 3.42
 -2 5 -5 65.29 3.31
 -2 5 -4 81.77 3.3
 -1 -8 -7 6.94 3.22
 -1 -8 -6 62.56 4.33
 -1 -7 -9 4.7 3.85
 -1 -7 -8 15.89 3.95
 -1 -7 -4 108.22 3.98
 -1 -7 -3 64.86 2.78
 -1 -7 -2 17.55 1.46
 -1 -6 -11 22.7 4.89
 -1 -6 -9 7.29 4.02
 -1 -6 -8 97.01 6.15
 -1 -6 -6 18.59 2.93
 -1 -6 -4 1.44 1.61
 -1 -6 -3 13.72 1.86
 -1 -6 -2 2.18 1
 -1 -5 -11 24.08 4.96
 -1 -5 -10 10.59 3.91
 -1 -5 -9 80.06 6.11
 -1 -5 -8 29.36 4.06
 -1 -5 -7 15.88 3.15
 -1 -5 -6 41.53 3.89
 -1 -5 -4 867.98 10.27
 -1 -5 -3 189.6 4.53
 -1 -4 -12 33.7 6.3
 -1 -4 -11 140.91 7.88
 -1 -4 -10 18.6 4.71
 -1 -4 -9 2.39 3.29
 -1 -4 -8 15.32 3.35
 -1 -4 -6 246.06 6.89
 -1 -4 -4 8.19 1.87
 -1 -4 -3 94.84 3.4
 -1 -4 -1 931.4 6.8
 -1 -3 -12 8.31 4.42
 -1 -3 -11 280.67 10.68
 -1 -3 -10 20.29 4.31
 -1 -3 -9 68.87 5.28
 -1 -3 -8 33.53 4.11
 -1 -3 -7 356.39 8.52
 -1 -3 -5 92.75 3.89
 -1 -3 -4 597.53 8.26
 -1 -3 -2 251.61 4.32
 -1 -3 0 270.15 3.23
 -1 -2 -12 13.17 4.98
 -1 -2 -11 28.06 5.39
 -1 -2 -10 84.15 6.35
 -1 -2 -9 35.09 4.26
 -1 -2 -8 41.15 3.78
 -1 -2 -3 1005.09 9.16
 -1 -2 -2 754.76 7
 -1 -2 -1 976.45 6.69
 -1 -2 0 4950.48 12.53
 -1 -1 -12 135.1 8.32
 -1 -1 -11 23.25 5.55
 -1 -1 -10 4.75 3.41
 -1 -1 -8 34.82 4.04
 -1 -1 -7 58.44 4.14
 -1 -1 -2 1302.6 8.71
 -1 -1 -1 1399.31 7.66
 -1 -1 0 4355.34 11.65
 -1 0 -12 3.22 4.22
 -1 0 -11 2.63 3.66
 -1 0 -10 156.57 7.77
 -1 0 -9 43.83 4.46
 -1 0 -5 742.07 9.58
 -1 0 -4 354.79 5.94
 -1 0 -3 1.37 1.59
 -1 0 -2 27.7 2.01
 -1 0 -1 3002.63 10.77
 -1 0 0 334.43 3.47
 -1 1 -12 147 7.9
 -1 1 -11 26.91 4.74
 -1 1 -10 4.86 3.62
 -1 1 -8 35.43 4.3
 -1 1 -7 60.21 3.82
 -1 1 -4 993.85 9.59
 -1 1 -2 1264.63 8.12
 -1 1 -1 1393.2 7.21
 -1 2 -12 6.21 3.88
 -1 2 -11 34.24 4.89
 -1 2 -10 73.7 5.85
 -1 2 -8 34.13 3.59
 -1 2 -7 79.59 4.53
 -1 2 -5 444.16 7.34
 -1 2 -3 941.13 7.96
 -1 2 -1 947.27 5.94
 -1 3 -12 6.83 4.5
 -1 3 -11 269.61 9.26
 -1 3 -10 14.33 3.81
 -1 3 -9 59.54 4.71
 -1 3 -6 374.8 7.39
 -1 3 -5 95.41 3.68
 -1 3 -4 588.2 7.15
 -1 3 -3 66.11 2.4
 -1 3 -2 244.56 3.52
 -1 4 -12 28.44 5.03
 -1 4 -11 127.03 6.81
 -1 4 -10 17.11 3.66
 -1 4 -9 -0.09 2.59
 -1 4 -8 12.38 2.78
 -1 4 -6 234.2 5.74
 -1 4 -5 224.96 4.99
 -1 4 -4 6.26 1.56
 -1 4 -2 1048.66 6.42
 -1 5 -10 12.43 3.51
 -1 5 -9 78.64 4.83
 -1 5 -8 41.1 3.73
 -1 5 -6 36.87 2.79
 -1 5 -5 45.63 2.63
 -1 6 -5 27.7 1.96
 -1 6 -4 1.01 0.87
 0 -8 -8 59.97 4.93
 0 -8 -7 167.44 6.17
 0 -8 -6 20.16 2.95
 0 -7 -10 -0.6 4.03
 0 -7 -9 138.54 6.89
 0 -7 -8 112.88 6.15
 0 -7 -6 10.88 2.51
 0 -7 -4 207.58 4.8
 0 -6 -11 135.36 7.9
 0 -6 -10 33.97 5.21
 0 -6 -9 1.86 3.6
 0 -6 -8 97.48 5.83
 0 -6 -7 58.72 4.38
 0 -6 -6 63.51 4.11
 0 -6 -3 53.11 2.49
 0 -5 -11 30.7 5.09
 0 -5 -10 1.97 4.01
 0 -5 -9 38.19 4.41
 0 -5 -8 82.01 5.11
 0 -5 -7 220.63 6.74
 0 -5 -5 121.12 4.59
 0 -5 -4 97.93 3.72
 0 -5 -3 73.36 2.8
 0 -5 -1 285.13 2.9
 0 -4 -12 54.46 6.08
 0 -4 -11 24.6 4.62
 0 -4 -10 99.26 6.36
 0 -4 -9 93.33 6.2
 0 -4 -8 108.3 5.49
 0 -4 -7 114 5.47
 0 -4 -5 457.8 7.91
 0 -4 -4 260.21 5.36
 0 -4 -2 464.51 5.2
 0 -4 -1 1299.42 6.28
 0 -3 -12 4.73 4.6
 0 -3 -10 214.2 8.63
 0 -3 -8 43.63 4.23
 0 -3 -5 6.78 2.23
 0 -3 -1 1419.99 6.5
 0 -2 -12 5.63 4.84
 0 -2 -11 7.79 3.96
 0 -2 -10 49.16 5.2
 0 -2 -9 306.6 8.9
 0 -2 -8 67.44 4.78
 0 -2 -7 253.11 7.15
 0 -2 -5 717.15 9.11
 0 -1 -13 0.62 4.84
 0 -1 -12 29.48 5.25
 0 -1 -11 151.11 7.57
 0 -1 -9 257.47 8.31
 0 -1 -8 18.06 3.34
 0 -1 -7 729.45 11.2
 0 -1 -6 470.65 8.19
 0 0 -13 118.11 8.11
 0 0 -12 5.91 4.86
 0 0 -11 33.04 5.02
 0 0 -10 290.82 9.09
 0 0 -9 8.01 2.95
 0 0 -8 10.34 2.7
 0 0 -6 91.5 3.91
 0 1 -13 -3.18 3.92
 0 1 -12 27.07 5.16
 0 1 -11 149.93 7.88
 0 1 -8 21.21 3.11
 0 1 -5 494.59 7.28
 0 2 -12 6.26 4.62
 0 2 -11 4.16 3.6
 0 2 -8 70.3 4.55
 0 2 -6 136.5 4.5
 0 2 -5 736.06 8.66
 0 2 -4 264.83 4.72
 0 2 -3 1037.73 7.36
 0 2 -2 2385.77 8.44
 0 3 -12 3.78 3.67
 0 3 -11 2.36 3.25
 0 3 -10 192.32 7.32
 0 3 -9 127.78 5.88
 0 3 -8 45.8 4.03
 0 3 -6 723.27 9.47
 0 3 -5 2.96 1.64
 0 3 -4 359.16 5.23
 0 3 -2 46.62 1.29
 0 4 -12 53.53 5.32
 0 4 -11 30.35 4.23
 0 4 -10 96.37 5.54
 0 4 -9 100.01 5.33
 0 4 -5 446.57 6.33
 0 4 -3 164.84 2.65
 0 5 -10 3.47 3.12
 0 5 -9 37.26 3.88
 0 5 -8 86.2 4.26
 0 5 -6 330.73 6.09
 0 5 -4 91.52 2.33
 0 5 -3 73.29 1.32
 1 -8 -7 13.75 3.17
 1 -8 -6 230.65 6.23
 1 -7 -11 68.38 6.5
 1 -7 -10 14.2 4.25
 1 -7 -9 15.87 3.75
 1 -7 -8 99.11 5.55
 1 -7 -7 92.49 4.94
 1 -7 -4 23.09 2.22
 1 -7 -3 3.23 1.16
 1 -6 -11 72.04 6.61
 1 -6 -10 39.98 5.49
 1 -6 -9 19.19 4.22
 1 -6 -8 16.2 3.32
 1 -6 -7 202.52 6.86
 1 -6 -6 38.74 3.56
 1 -6 -4 298.67 5.83
 1 -6 -1 290.76 2.81
 1 -5 -12 57.31 6.34
 1 -5 -9 101.39 5.76
 1 -5 -8 19.53 3.46
 1 -5 -7 1.15 2.18
 1 -4 -12 67.1 7.06
 1 -4 -11 54.06 5.48
 1 -4 -10 32.38 5.18
 1 -4 -9 90.02 5.73
 1 -4 -8 98.15 5.64
 1 -3 -12 24.75 5
 1 -3 -10 30.95 4.92
 1 -3 -9 254.72 8.22
 1 -2 -13 1.82 4.43
 1 -2 -12 115.79 7.34
 1 -2 -11 3 3.58
 1 -2 -10 193.94 8.2
 1 -1 -13 41.75 6.46
 1 -1 -12 2.92 4.74
 1 -1 -11 123.55 7.29
 1 -1 -10 150.33 7.18
 1 -1 -9 122.46 5.92
 1 0 -13 25.63 5.34
 1 0 -12 5.11 3.9
 1 0 -11 14.19 4.01
 1 0 -10 321.5 9.45
 1 0 -9 87.2 5.13
 1 1 -12 -0.27 3.69
 1 1 -11 105.12 6.59
 1 1 -9 113.11 5.83
 1 2 -13 7.41 4.93
 1 2 -12 120.54 7.59
 1 2 -10 187.43 7.64
 1 2 -9 76.64 5.14
 1 3 -13 -6.71 3.14
 1 3 -12 30.02 4.66
 1 3 -11 7.09 3.48
 1 3 -9 264.79 7.82
 1 3 -8 18.73 3.35
 1 4 -12 69.42 5.81
 1 4 -11 50.69 4.92
 1 4 -10 41.63 4.58
 1 4 -9 93.49 5.08
 1 4 -8 82.59 4.17
 1 5 -10 151.58 6.25
 1 5 -9 91.51 4.79
 1 5 -8 17.71 2.63
 1 5 -6 70.99 3.04
 1 5 -5 7.18 1.33
 1 5 -4 52.62 1.89
 1 5 -3 62.34 1.45
 2 -8 -8 119.07 5.94
 2 -8 -7 -0.03 2.34
 2 -7 -11 6.86 4.44
 2 -7 -10 70.16 6.07
 2 -7 -9 51.8 5.06
 2 -7 -8 104.15 5.63
 2 -7 -7 22.77 3.16
 2 -6 -10 98.61 6.31
 2 -6 -9 112.62 6.83
 2 -5 -11 15.22 4.5
 2 -4 -12 7.33 4.4
 2 -4 -10 12.69 4.47
 2 -3 -12 90.94 6.75
 2 -3 -11 89.26 6.88
 2 -2 -13 30.34 5.57
 2 -1 -13 2.68 4.47
 2 -1 -12 10.02 4.62
 2 -1 -11 11.48 4
 2 0 -13 50.94 6.04
 2 0 -12 114.23 7.83
 2 0 -11 306.72 9.8
 2 1 -13 -2.53 3.74
 2 2 -13 37.96 6.15
 2 2 -12 19.27 4.32
 2 3 -13 21.84 4.61
 2 3 -12 87.73 6.72
 2 3 -11 87.62 6.16
 2 3 -10 7.17 3.08
 2 4 -12 4.04 3.36
 2 4 -11 48.39 5.22
 2 4 -10 11.89 3.28
 2 4 -9 152.85 5.87
 2 5 -10 103.94 5.37
 2 5 -9 54.82 4.28
 2 6 -6 100.31 3.19
 3 -7 -10 10.47 4.19
 3 -7 -9 32 4.61
 3 -6 -11 9.9 4.04
 3 -5 -11 0.85 3.96
 3 0 -13 3.41 4.42
 3 1 -13 10.88 5.42
 3 2 -13 19.83 4.8
 3 3 -12 40.83 5.28
 3 4 -12 69.1 5.92
 3 4 -11 135.51 6.98
 3 5 -10 6.47 2.83
 4 4 -12 151.13 7.42
 -8 -5 6 23 4.89
 -8 -4 6 34.99 5.72
 -8 -3 7 3.86 4.51
 -7 -6 7 103.68 7.02
 -7 -5 4 107.13 6.26
 -7 -5 5 21.57 4.02
 -7 -5 6 6 3.99
 -7 -5 7 152.82 7.66
 -7 -5 8 38.58 5.92
 -7 -4 6 2.17 3.59
 -7 -4 7 58.33 6.34
 -7 -4 8 63.67 6.9
 -7 -4 9 0.25 4.63
 -7 -3 7 23.06 4.85
 -7 -3 8 17.67 5.04
 -7 -3 9 195.81 9.51
 -7 -2 8 11.08 5.22
 -7 -2 9 35.98 5.75
 -7 -1 9 38.65 5.75
 -7 0 10 36.52 6.54
 -7 1 10 64.6 7.39
 -6 -7 7 35.68 4.55
 -6 -7 8 14.45 4.55
 -6 -6 3 2.3 2.64
 -6 -6 5 53.68 4.83
 -6 -6 6 17.47 3.93
 -6 -6 7 17.1 3.86
 -6 -6 8 132.51 7.45
 -6 -6 9 3.14 4.11
 -6 -5 4 0.86 2.76
 -6 -5 5 19.89 3.58
 -6 -5 6 12.66 3.85
 -6 -5 8 28.52 4.86
 -6 -5 9 29.76 4.96
 -6 -4 6 30.97 4.6
 -6 -4 7 12.89 4.51
 -6 -4 8 -0.78 3.36
 -6 -4 9 104.36 7.21
 -6 -4 10 19.61 5.11
 -6 -3 7 76.03 6.57
 -6 -3 8 11.41 4
 -6 -3 9 16.25 4.89
 -6 -3 10 25.79 5.26
 -6 -2 8 42.96 5.22
 -6 -2 9 19.9 4.49
 -6 -2 11 21.8 6.43
 -6 -1 10 6.32 4.59
 -6 0 9 3.59 3.98
 -6 0 10 4.94 4.27
 -6 0 11 8.99 5.49
 -6 1 10 7.35 4.24
 -6 1 11 64.54 6.41
 -6 2 10 82.69 6.83
 -6 3 10 41.6 5.59
 -6 4 10 25.76 4.79
 -6 5 10 -1.94 4.08
 -5 -7 4 41.82 3.87
 -5 -7 5 110.23 5.56
 -5 -7 6 13.1 3.75
 -5 -7 7 7.36 3.4
 -5 -7 8 12.97 4.14
 -5 -7 9 10.35 4.15
 -5 -6 3 35.8 3.49
 -5 -6 4 110.4 5.29
 -5 -6 5 18.96 3.34
 -5 -6 6 41.07 4.62
 -5 -6 8 46.9 5.23
 -5 -6 9 169.39 8.36
 -5 -6 10 23.57 5.5
 -5 -5 3 136.39 5.45
 -5 -5 4 58.3 4.33
 -5 -5 5 27.56 3.56
 -5 -5 6 38.88 4.76
 -5 -5 8 79.9 6.03
 -5 -5 9 66.09 6.39
 -5 -5 10 73.43 7.21
 -5 -4 6 73.44 5.12
 -5 -4 7 110.24 6.75
 -5 -4 8 78.43 6.38
 -5 -4 9 2.75 3.59
 -5 -4 10 76.61 6.92
 -5 -4 11 10.29 4.91
 -5 -3 7 48.21 4.97
 -5 -3 8 47.69 4.9
 -5 -3 9 60.89 6.57
 -5 -3 10 80.64 7
 -5 -3 11 16.15 5.02
 -5 -2 8 22.4 4.4
 -5 -2 9 26.44 4.79
 -5 -2 10 12.68 4.72
 -5 -2 11 1.69 4.82
 -5 -1 8 516.13 11.99
 -5 -1 9 38.34 5.24
 -5 -1 10 63.03 6.5
 -5 -1 11 15.43 4.73
 -5 -1 12 8.59 4.59
 -5 0 10 38.76 5.3
 -5 0 11 86.96 7.54
 -5 0 12 -0.4 3.93
 -5 1 10 62.15 6.39
 -5 1 11 10.39 4.26
 -5 1 12 2.71 4.37
 -5 2 10 12.59 3.76
 -5 2 11 2.08 3.88
 -5 3 10 70.54 6.31
 -5 3 11 22.46 5.33
 -5 4 11 11.8 4.03
 -5 5 10 71.46 5.76
 -5 6 9 169.71 7.6
 -4 -8 5 1.04 2.41
 -4 -8 6 24.5 3.98
 -4 -8 7 27.86 4.52
 -4 -8 8 34.19 4.8
 -4 -8 9 8.67 4.17
 -4 -7 4 86.29 4.45
 -4 -7 5 59.36 4.54
 -4 -7 6 101.86 5.68
 -4 -7 7 50.12 4.93
 -4 -7 10 26.42 5.73
 -4 -6 1 24.99 1.98
 -4 -6 2 48.88 2.95
 -4 -6 4 9.9 2.85
 -4 -6 5 140.97 5.61
 -4 -6 6 163.14 6.81
 -4 -6 7 115.64 6.42
 -4 -6 8 16.08 3.85
 -4 -6 9 7.86 3.92
 -4 -6 10 16.38 4.76
 -4 -5 2 66.11 3.37
 -4 -5 4 104.5 4.87
 -4 -5 5 171.63 6.18
 -4 -5 7 27.72 3.97
 -4 -5 8 21.65 4.41
 -4 -5 9 92.25 6.19
 -4 -5 10 153.3 8.75
 -4 -5 11 10.41 4.64
 -4 -4 5 98.86 4.99
 -4 -4 7 87.59 5.28
 -4 -4 8 41.4 4.52
 -4 -4 9 88.26 6.53
 -4 -4 10 13.44 4.3
 -4 -4 11 36.37 5.63
 -4 -3 6 158.3 6.37
 -4 -3 8 256.25 8.86
 -4 -3 9 39.18 4.95
 -4 -3 11 103.69 7.52
 -4 -3 12 -3.85 3.98
 -4 -2 7 146.61 6.36
 -4 -2 9 122.8 6.53
 -4 -2 10 85.58 6.11
 -4 -2 11 19.01 4.79
 -4 -1 8 207.58 7.72
 -4 -1 9 53.93 5.24
 -4 -1 10 84.84 5.93
 -4 -1 11 44.36 5.65
 -4 0 8 261.01 8.23
 -4 0 9 173.14 7.33
 -4 0 10 25.45 4.63
 -4 0 11 35.88 5.15
 -4 1 10 85.84 6.29
 -4 1 11 40.15 5.57
 -4 1 12 8.02 4.33
 -4 2 9 121.02 6.42
 -4 2 11 12.03 4.14
 -4 2 12 73.7 6.49
 -4 3 9 33.9 4.51
 -4 3 12 -2.2 3.17
 -4 4 9 83.61 5.66
 -4 4 10 14.73 3.82
 -4 4 11 51.77 5.5
 -4 5 9 88.25 5.37
 -4 5 10 149.46 6.93
 -3 -9 7 19.45 3.69
 -3 -9 8 52.05 5.67
 -3 -9 9 15.67 4.74
 -3 -8 4 19.2 2.7
 -3 -8 5 19.1 3.22
 -3 -8 6 7.52 3.17
 -3 -8 7 36 4.91
 -3 -8 8 6.04 4.25
 -3 -8 9 2.09 3.69
 -3 -7 2 32.01 2.29
 -3 -7 3 108.72 4.15
 -3 -7 4 7.5 2.36
 -3 -7 6 35.45 3.79
 -3 -7 7 11.81 4
 -3 -7 8 28.42 4.95
 -3 -7 9 33.49 5.51
 -3 -6 1 59.43 2.29
 -3 -6 2 381.32 6.14
 -3 -6 3 207.88 5.31
 -3 -6 6 19.75 3.41
 -3 -6 7 12.62 3.23
 -3 -6 8 35.8 5.09
 -3 -6 9 26.08 4.69
 -3 -6 10 81.17 6.55
 -3 -6 11 18.75 5.05
 -3 -5 -1 414.73 3.68
 -3 -5 1 18.81 1.8
 -3 -5 3 23.24 2.77
 -3 -5 6 135.72 5.74
 -3 -5 8 0.79 2.77
 -3 -5 10 6.2 4.86
 -3 -5 11 4.49 4.19
 -3 -4 4 158.36 5.09
 -3 -4 6 208.45 6.88
 -3 -4 7 188.42 7.12
 -3 -4 8 2.5 2.79
 -3 -4 9 219.86 8.56
 -3 -4 10 160.39 8.28
 -3 -4 12 62.37 6.91
 -3 -3 6 68.86 4.44
 -3 -3 7 64.57 4.33
 -3 -3 8 63.58 5.13
 -3 -3 9 29.93 4.46
 -3 -3 10 5.54 3.61
 -3 -3 11 14.06 4.41
 -3 -3 12 39.4 5.82
 -3 -2 7 20.48 3.05
 -3 -2 8 156.02 6.63
 -3 -2 9 224.74 7.97
 -3 -2 10 159.22 7.93
 -3 -2 11 240.39 9.58
 -3 -1 7 24.86 3.09
 -3 -1 9 20.1 3.67
 -3 -1 10 23.92 4.05
 -3 -1 11 214.26 8.88
 -3 -1 12 8.65 4.7
 -3 -1 13 6.52 5.4
 -3 0 7 3.58 2.11
 -3 0 9 3.13 2.81
 -3 0 10 341.71 10.18
 -3 0 12 120.62 7.61
 -3 0 13 5.81 4.5
 -3 1 8 30.89 3.52
 -3 1 9 16.11 3.3
 -3 1 10 30.64 4.2
 -3 1 12 13.55 4.27
 -3 1 13 3.34 4.21
 -3 2 8 148.51 5.83
 -3 2 9 226.25 7.67
 -3 2 10 168.99 7.26
 -3 2 13 16.79 4.41
 -3 3 8 52.38 3.97
 -3 3 9 35.09 4.19
 -3 3 11 11.37 3.74
 -3 3 12 50.22 5.69
 -3 4 8 4.72 2.37
 -3 4 9 226.84 7.42
 -3 4 10 169.62 6.94
 -3 4 11 138.44 6.72
 -3 5 8 -0.33 2.13
 -3 5 9 292.76 7.87
 -2 -9 5 135.6 5.76
 -2 -9 6 24.51 3.72
 -2 -9 7 11.39 3.59
 -2 -9 8 9.77 4.41
 -2 -9 9 23.36 4.89
 -2 -8 3 13.58 2.09
 -2 -8 4 95.36 4.53
 -2 -8 6 13.38 3.16
 -2 -8 7 3.46 3.49
 -2 -8 8 128.57 7.26
 -2 -8 9 3.63 4.46
 -2 -8 10 19.92 5.14
 -2 -7 1 54.25 2.01
 -2 -7 2 30.23 2.26
 -2 -7 3 74.31 3.62
 -2 -7 5 80.05 4.72
 -2 -7 6 88.43 5.06
 -2 -7 7 29.27 4.09
 -2 -7 8 98.69 6.82
 -2 -7 10 68.68 6.96
 -2 -6 0 161.46 2.06
 -2 -6 1 78.68 2.41
 -2 -6 2 90.18 3.2
 -2 -6 3 42.68 3.06
 -2 -6 5 8.55 2.51
 -2 -6 6 126.15 5.94
 -2 -6 7 23.02 3.68
 -2 -6 8 25.58 4.17
 -2 -6 11 35.23 6.32
 -2 -5 0 35.55 1.36
 -2 -5 2 138.91 3.67
 -2 -5 7 23.28 3.59
 -2 -5 8 14.93 3.56
 -2 -5 9 50.57 5.98
 -2 -5 10 105.42 7.75
 -2 -5 12 36.63 5.97
 -2 -4 -1 733.16 3.72
 -2 -4 0 123.51 2.42
 -2 -4 3 98.99 3.42
 -2 -4 4 816.99 10.23
 -2 -4 6 4.08 2.08
 -2 -4 7 132.51 5.59
 -2 -4 8 8.07 2.99
 -2 -4 10 13.33 4.11
 -2 -4 11 38.29 5.84
 -2 -4 12 6.8 4.7
 -2 -3 2 136.89 3.48
 -2 -3 4 40.99 2.75
 -2 -3 5 286.47 6.55
 -2 -3 7 60.31 4.04
 -2 -3 9 51.46 5.06
 -2 -3 10 7.28 4.21
 -2 -3 11 89.47 7.21
 -2 -3 12 92.06 7.51
 -2 -2 5 708.06 9.9
 -2 -2 8 2.88 2.38
 -2 -2 9 8.34 3.37
 -2 -2 10 116.66 6.92
 -2 -2 11 53.36 5.98
 -2 -2 12 30.12 5.19
 -2 -2 13 30.03 5.76
 -2 -1 7 75.94 4.37
 -2 -1 9 44.65 4.89
 -2 -1 10 166.39 7.36
 -2 -1 11 12.62 4.22
 -2 -1 12 7.78 4.16
 -2 -1 13 2.3 4.32
 -2 0 6 95.75 4.15
 -2 0 8 83.95 4.68
 -2 0 9 133.12 6.31
 -2 0 10 2.75 3.11
 -2 0 11 309.64 9.99
 -2 0 12 106.23 7.08
 -2 0 13 44.52 5.57
 -2 1 6 347.06 7.22
 -2 1 8 166.47 6.12
 -2 1 9 52.48 4.72
 -2 1 10 164.83 7
 -2 1 13 3.09 4.26
 -2 2 8 3.39 2.37
 -2 2 9 8.11 2.82
 -2 2 12 23.24 4.36
 -2 2 13 42.02 5.37
 -2 3 9 51.55 4.24
 -2 3 10 8.85 2.8
 -2 3 11 98.6 5.69
 -2 3 12 77.53 5.82
 -2 4 8 2.71 2.2
 -2 4 9 159.05 5.76
 -2 4 10 12.42 3.32
 -2 5 8 15.54 2.55
 -2 5 9 51.24 3.8
 -1 -9 4 15.25 2.83
 -1 -9 5 60.91 4.74
 -1 -9 6 25.36 3.9
 -1 -9 7 -1.45 3.1
 -1 -9 9 19.58 4.66
 -1 -8 5 52.99 4.45
 -1 -8 6 227.88 7.77
 -1 -8 7 11.46 3.48
 -1 -8 8 1.69 3.8
 -1 -8 9 71.31 6.84
 -1 -7 1 55.93 2.34
 -1 -7 2 12.03 1.96
 -1 -7 3 3.53 1.78
 -1 -7 5 198.76 6.58
 -1 -7 6 83.12 5.15
 -1 -7 8 102.4 6.52
 -1 -7 9 13.54 5.02
 -1 -7 10 17.25 4.67
 -1 -6 1 293.55 4.54
 -1 -6 2 170.8 4.26
 -1 -6 3 541.53 8.32
 -1 -6 5 246.41 7.04
 -1 -6 6 33.98 3.63
 -1 -6 7 198.14 7.54
 -1 -6 8 12.64 3.62
 -1 -6 9 32.25 4.81
 -1 -6 10 37.89 5.3
 -1 -5 0 159.23 2.41
 -1 -5 1 208.77 3.79
 -1 -5 3 66.69 3.33
 -1 -5 4 56.5 3.41
 -1 -5 6 71.24 4.75
 -1 -5 7 3.57 2.63
 -1 -5 8 16.06 3.73
 -1 -5 10 142.1 8.32
 -1 -5 11 42.4 5.87
 -1 -5 12 51.73 6.44
 -1 -4 1 826.15 6.59
 -1 -4 2 628.82 7.02
 -1 -4 4 109.42 4.08
 -1 -4 6 120.97 5.05
 -1 -4 7 14.42 2.96
 -1 -4 8 97.03 5.99
 -1 -4 9 94.2 6.14
 -1 -4 10 29.63 4.57
 -1 -4 11 46.29 5.83
 -1 -4 12 67.65 7.23
 -1 -3 1 1304.52 7.67
 -1 -3 2 445.09 5.51
 -1 -3 5 54.89 3.43
 -1 -3 7 118.07 5.19
 -1 -3 8 20.43 3.34
 -1 -3 9 269.9 8.68
 -1 -3 10 39.89 5.12
 -1 -3 11 7.59 4.68
 -1 -3 12 23.27 5
 -1 -2 1 1138.92 6.66
 -1 -2 2 1803.41 10.14
 -1 -2 3 599.08 7.02
 -1 -2 4 1024.57 10.13
 -1 -2 8 59.83 4.77
 -1 -2 10 191.6 8.23
 -1 -2 11 -1.28 3.67
 -1 -2 12 113.57 7.57
 -1 -2 13 2.05 4.08
 -1 -1 3 2370.36 12.74
 -1 -1 6 44.85 3.24
 -1 -1 8 66.34 4.67
 -1 -1 9 125.94 6.25
 -1 -1 10 151.41 7.18
 -1 -1 11 124.53 7.34
 -1 -1 12 -1.21 3.76
 -1 -1 13 43.02 5.61
 -1 0 4 289.39 5.01
 -1 0 5 587.28 7.92
 -1 0 8 3.05 2.64
 -1 0 9 91.3 5.01
 -1 0 10 339.84 9.66
 -1 0 11 11.86 3.91
 -1 0 12 4.6 3.81
 -1 1 5 445.85 6.63
 -1 1 6 39.85 2.73
 -1 1 9 116.5 5.29
 -1 1 10 154.89 6.75
 -1 1 12 1.01 3.23
 -1 1 13 40.45 5.22
 -1 2 6 91.88 3.55
 -1 2 7 92.69 4.28
 -1 2 9 79.27 4.65
 -1 2 10 188.75 6.71
 -1 2 12 119.24 6.58
 -1 3 5 53.85 2.49
 -1 3 7 117.16 4.28
 -1 3 9 265.72 7.03
 -1 3 10 33.31 3.95
 -1 3 11 7.25 3.35
 -1 4 5 407.58 5.84
 -1 4 6 121.07 3.66
 -1 4 9 86.17 4.25
 -1 5 6 70.41 2.81
 -1 5 7 0.82 1.49
 -1 6 5 241.97 3.75
 0 -9 7 56.84 5.91
 0 -9 9 30.95 5.87
 0 -8 4 14.64 3.23
 0 -8 5 59.47 4.43
 0 -8 6 22.66 4.27
 0 -8 7 175.41 7.57
 0 -8 8 58.66 5.83
 0 -7 2 121.98 4.29
 0 -7 4 214.67 6.44
 0 -7 5 131.53 5.61
 0 -7 6 9.54 3.09
 0 -7 7 39.29 4.59
 0 -7 8 112.67 7.22
 0 -7 9 136.57 8.18
 0 -6 5 2.96 2.69
 0 -6 6 66.07 4.42
 0 -6 8 89.26 5.96
 0 -6 9 3.24 3.98
 0 -6 10 35.19 5.33
 0 -6 11 133.71 8.47
 0 -5 2 144.47 3.96
 0 -5 3 82.02 3.75
 0 -5 6 344.03 8.59
 0 -5 8 79.06 5.34
 0 -5 9 34.79 4.84
 0 -5 10 0.91 3.83
 0 -4 1 1290.37 8.79
 0 -4 4 270.15 6.14
 0 -4 6 53.64 3.79
 0 -4 8 110.03 6.24
 0 -4 9 91.29 6.33
 0 -4 11 28.26 5.44
 0 -4 12 49.74 6.6
 0 -3 0 2.32 0.7
 0 -3 1 1404.4 8.36
 0 -3 2 50.11 2.51
 0 -3 5 4.6 1.66
 0 -3 7 110.49 5.5
 0 -3 8 40.2 4.45
 0 -3 9 133.05 6.57
 0 -3 10 214.33 9.01
 0 -3 11 1.95 3.9
 0 -3 12 1.83 4.34
 0 -2 0 4763.22 9.76
 0 -2 1 4950.28 13.66
 0 -2 2 2489.98 11.99
 0 -2 4 262.55 5.48
 0 -2 7 250.77 7.28
 0 -2 8 65.55 4.51
 0 -2 9 310.53 9.32
 0 -2 11 7.41 4.38
 0 -1 1 443.14 3.61
 0 -1 3 1318.66 9.43
 0 -1 5 476.01 7.35
 0 -1 8 22.43 3.18
 0 -1 9 255.72 7.99
 0 -1 10 44.66 5.07
 0 -1 11 155.97 8.05
 0 -1 12 33.24 4.89
 0 0 1 130.87 1.65
 0 0 2 1795.87 8.08
 0 0 5 44.2 2.43
 0 0 6 93.23 3.91
 0 0 8 10.18 2.74
 0 0 9 8.29 2.85
 0 0 10 302.99 9.21
 0 0 11 33.11 4.54
 0 0 12 8.83 3.77
 0 0 13 122.85 7.33
 0 1 2 666.42 4.39
 0 1 3 1298.26 7.91
 0 1 7 785.44 10.75
 0 1 8 24.77 3.05
 0 1 9 266.17 7.56
 0 1 10 43.55 4.74
 0 1 11 140.01 7.04
 0 1 12 40.25 5.33
 0 1 13 1.01 3.59
 0 2 2 2396.81 7.07
 0 2 3 1055.09 6.49
 0 2 4 269.81 4.1
 0 2 5 744.87 7.69
 0 2 6 142.85 4.18
 0 2 7 239.15 5.82
 0 2 9 317.24 7.86
 0 2 10 52.05 4.47
 0 2 11 5.05 3
 0 2 12 5.62 3.1
 0 3 3 185.28 2.48
 0 3 4 345.83 4.12
 0 3 6 703.7 7.92
 0 3 7 106.75 3.89
 0 3 9 131.54 5.06
 0 4 3 157.73 1.83
 0 4 4 263.57 3.08
 0 4 5 459.19 4.99
 0 4 6 52.09 2.35
 0 4 7 112.57 3.58
 0 4 8 102.68 3.85
 0 5 5 123.03 2.02
 0 5 6 328.06 4.02
 1 -8 6 63.45 5.37
 1 -8 7 5.72 3.57
 1 -8 8 25.43 4.69
 1 -7 4 104.09 4.89
 1 -7 5 262.62 8.1
 1 -7 6 118.03 6.5
 1 -7 8 11.86 4.15
 1 -7 9 5.38 4.67
 1 -7 10 20.18 5.9
 1 -6 7 104.56 6.27
 1 -6 8 87.16 6.18
 1 -6 9 6.24 3.86
 1 -5 2 110.51 3.98
 1 -5 7 14.41 3.31
 1 -5 9 74.51 5.82
 1 -5 11 25.26 5.91
 1 -4 3 93.94 3.6
 1 -4 4 5.4 1.83
 1 -4 7 59.41 4.36
 1 -4 8 18.49 3.59
 1 -4 9 4.32 3.82
 1 -4 10 17.74 4.5
 1 -4 11 134.39 8.44
 1 -3 2 254.01 5.02
 1 -3 7 362.72 9
 1 -3 10 19.14 4.3
 1 -3 11 281.1 10.57
 1 -3 12 9.24 4.71
 1 -2 2 733.32 7.33
 1 -2 3 1031.19 9.72
 1 -2 5 430.32 7.87
 1 -2 7 90.8 5.19
 1 -2 8 40.52 3.85
 1 -2 9 34.7 4.36
 1 -2 10 67.25 5.44
 1 -2 11 29.42 5.49
 1 -2 12 17.54 4.85
 1 -1 2 1336.17 9.01
 1 -1 3 523.27 6.69
 1 -1 4 988.25 9.91
 1 -1 5 129.7 4.32
 1 -1 7 54.68 3.94
 1 -1 8 37.19 4.14
 1 -1 9 12.79 3.2
 1 -1 10 1.83 3.18
 1 -1 12 132.34 7.27
 1 0 2 29.5 1.54
 1 0 3 1.49 1.3
 1 0 4 355.38 5.76
 1 0 6 104.02 4.42
 1 0 11 1.45 3.19
 1 0 12 5.57 4.09
 1 1 2 1286.4 6.75
 1 1 3 508.5 5.28
 1 1 4 1043.25 8.75
 1 1 5 142.86 4.03
 1 1 8 34.05 3.27
 1 1 9 11.62 3.19
 1 1 10 3.17 2.77
 1 1 11 26.89 4.24
 1 1 12 147.56 7.34
 1 2 3 961.47 6.11
 1 2 4 188.82 3.61
 1 2 5 434.35 6.03
 1 2 6 711.06 8.78
 1 2 7 81.94 3.67
 1 2 9 35.04 3.78
 1 2 11 31.53 4.22
 1 3 4 588.13 5.06
 1 3 5 97.76 2.76
 1 3 7 353.06 6.25
 1 3 9 66.45 3.83
 1 4 5 221.74 3.05
 1 4 6 241.27 3.95
 1 4 7 58.52 2.62
 2 -6 6 20.66 3.66
 2 -6 7 48.96 5.47
 2 -6 8 28.36 4.92
 2 -6 9 0.71 3.94
 2 -6 10 41.54 6.02
 2 -5 7 43.65 5.25
 2 -5 8 34.79 5.3
 2 -5 9 2.19 3.98
 2 -5 10 8.91 5.17
 2 -4 5 0.8 2.54
 2 -4 6 247.41 7.88
 2 -4 7 34.98 4
 2 -4 8 138.83 7.24
 2 -4 9 90.56 6.9
 2 -4 11 14.47 5.25
 2 -3 7 98.28 5.67
 2 -3 9 -3.51 3
 2 -3 11 17.08 4.71
 2 -2 6 35.79 3.94
 2 -2 7 173.8 6.57
 2 -2 8 222.2 7.99
 2 -2 9 24.92 4.03
 2 -2 10 90.51 6.98
 2 -2 12 45.2 5.64
 2 -1 4 166.08 4.79
 2 -1 5 238.94 6.01
 2 -1 7 69.94 4.57
 2 -1 9 11.38 3.55
 2 -1 10 3.87 3.64
 2 -1 11 73.07 6.73
 2 -1 12 24.06 4.84
 2 0 3 599.27 7.41
 2 0 4 620.13 8.24
 2 0 5 1.93 1.62
 2 0 8 12.1 2.78
 2 0 9 23.24 3.82
 2 0 10 1.22 2.9
 2 0 11 23.11 4.53
 2 1 5 247.15 5.46
 2 1 6 62.2 3.7
 2 1 8 -1.08 2.36
 2 1 9 11.71 2.88
 2 1 10 4.33 2.97
 2 1 11 71.7 5.58
 2 2 5 53.32 2.76
 2 2 6 29.58 2.68
 2 2 8 202.77 5.92
 2 2 9 24.39 3.1
 2 2 10 89.27 5.23
 -1 -7 -5 265.49 7.34
 -1 -7 -3 69.23 3.48
 -1 -6 -6 19.31 3.79
 -1 -6 -4 2.48 2.09
 -1 -6 -3 15.08 2.25
 -1 -6 -2 2.06 1.51
 -1 -5 -8 28.87 4.73
 -1 -5 -7 18.34 3.75
 -1 -5 -6 41.35 4.18
 -1 -5 -4 856.6 11.11
 -1 -5 -3 192.77 5.02
 -1 -5 -1 160.11 3.11
 -1 -4 -8 13.78 3.72
 -1 -4 -7 67.8 5.7
 -1 -4 -4 6.19 2.08
 -1 -4 -2 1009.59 8.82
 -1 -4 -1 913.05 6.8
 -1 -3 -8 32.32 4.63
 -1 -3 -1 41.51 1.93
 -1 -2 -7 91.91 5.7
 -1 -2 -5 454.12 8.66
 -1 -2 -3 1000.15 9.74
 -1 -2 -2 737.09 7.17
 -1 -1 -4 1023.39 10.88
 -1 -1 -3 494.28 6.84
 0 -8 -7 173.33 7.93
 0 -8 -5 65.29 4.82
 0 -8 -3 172.29 5.19
 0 -7 -10 3.08 4.92
 0 -7 -9 132.27 8.58
 0 -7 -6 11.73 4.09
 0 -7 -3 11.89 2.57
 0 -7 -2 118.39 3.96
 0 -7 -1 119.44 3.23
 0 -6 -10 33.13 5.79
 0 -6 -9 2.87 4.97
 0 -6 -8 87.47 6.97
 0 -6 -7 55.72 5.46
 0 -6 -4 87.94 4.67
 0 -6 -3 54.68 3.55
 0 -6 -2 413.25 6.5
 0 -6 0 860.86 6.66
 0 -6 1 229.8 2.84
 0 -6 2 409.19 3.27
 0 -5 -11 26.2 6.39
 0 -5 -8 84.79 6.37
 0 -5 -6 356.18 9.11
 0 -5 -4 98.68 4.52
 0 -5 0 1.17 0.9
 0 -5 1 286.91 3.25
 0 -4 -11 28.33 5.92
 0 -4 -10 97.98 8.21
 0 -4 -8 109.19 6.97
 0 -4 -7 119.31 6.04
 0 -4 -5 434.04 8.78
 0 -4 -1 1334.83 8.94
 0 -4 0 1018.88 6.38
 0 -3 -11 0.25 5.31
 0 -3 -8 41.2 4.33
 0 -3 -5 6.24 2.28
 0 -3 -3 172.57 4.49
 0 -3 -2 46.55 2.64
 0 -3 -1 1362.39 8.19
 0 -3 0 1.83 0.85
 0 -2 -10 51.61 5.75
 0 -2 -9 307.27 10.12
 0 -2 -8 54.17 4.93
 0 -2 -7 261.01 8.05
 0 -2 -4 252.09 5.58
 0 -2 -3 1104.58 10.06
 0 -2 -2 2502.56 12.34
 0 -2 -1 4880.22 13.54
 0 -2 0 4764.46 9.74
 0 -1 -9 268.99 9.35
 0 -1 -8 21.88 3.62
 0 -1 -6 471.95 9.32
 0 -1 -3 1291.53 10.16
 0 -1 -2 686.99 6.11
 0 -1 -1 439.41 3.74
 0 0 -6 95.62 4.7
 0 0 -5 49.47 3.5
 0 0 -3 660.64 7.1
 0 1 -6 496.22 8.8
 0 1 -5 493.25 7.98
 0 1 -2 693.49 5.42
 1 -9 -9 13.66 4.79
 1 -9 -8 101.82 7.33
 1 -9 -7 0.13 4.15
 1 -9 -6 28.14 4.53
 1 -9 -4 15.44 3.22
 1 -8 -10 75.2 8.04
 1 -8 -9 69.55 7.49
 1 -8 -8 0.1 3.93
 1 -8 -7 13.31 4.65
 1 -8 -5 48.82 4.81
 1 -8 -4 38.39 4.12
 1 -8 -2 336.55 6.92
 1 -8 -1 96.95 3.83
 1 -8 0 46.19 2.68
 1 -7 -11 76.4 8.73
 1 -7 -10 13 5.56
 1 -7 -9 15.19 5.14
 1 -7 -6 99.46 6.07
 1 -7 -5 202.58 7.16
 1 -7 -3 3.63 2.54
 1 -7 -2 11.9 2.43
 1 -7 0 102.22 3.49
 1 -7 1 32.61 2.32
 1 -6 -11 70.47 7.57
 1 -6 -9 30.58 5.46
 1 -6 -8 16.59 4.56
 1 -6 -6 36.13 4.39
 1 -6 -5 247.87 7.58
 1 -6 -3 532.41 9.06
 1 -6 -2 174.69 5.09
 1 -6 -1 298.13 5.97
 1 -6 0 1.8 1.63
 1 -5 -12 49.87 7.16
 1 -5 -11 44.5 6.61
 1 -5 -10 142.78 8.84
 1 -5 -8 20.64 5.01
 1 -5 -7 4.23 3.19
 1 -5 -3 61.24 3.8
 1 -4 -12 70.62 8.22
 1 -4 -11 47.8 7.54
 1 -4 -9 93.2 7.05
 1 -4 -8 99.85 6.63
 1 -4 -7 13.14 3.46
 1 -4 -5 375.11 8.49
 1 -4 -1 859.28 8.61
 1 -3 -12 25.56 6.06
 1 -3 -11 4.3 4.82
 1 -3 -8 19.22 3.91
 1 -3 -7 119.11 6.03
 1 -3 -5 58.01 3.9
 1 -3 -3 178.22 4.78
 1 -3 -2 473.45 6.74
 1 -2 -11 1.27 4.44
 1 -2 -10 184.81 9.03
 1 -2 -9 78.15 6.62
 1 -2 -8 60.25 4.97
 1 -2 -4 987.71 11.07
 1 -2 -3 620.36 8.18
 1 -2 -2 1799.59 11.52
 1 -1 -12 3.09 5.21
 1 -1 -11 116.72 8.26
 1 -1 -10 157.42 8.55
 1 -1 -9 124.69 7.03
 1 -1 -8 57.76 5.14
 1 -1 -6 42.55 3.4
 1 -1 -4 137.98 4.47
 1 0 -11 16.28 4.78
 1 0 -10 321.64 10.23
 1 0 -9 83.54 5.5
 1 0 -8 2.35 2.75
 1 0 -4 315.75 6
 1 0 -3 9999 26.26
 1 1 -10 153.55 7.78
 1 1 -9 122.48 6.34
 1 1 -8 63.75 4.5
 1 1 -6 42.11 3.57
 1 1 -5 460.68 7.39
 1 1 -4 139.08 3.99
 1 1 -3 2332.87 11.82
 1 1 -2 464.43 4.33
 1 2 -9 74.98 5.26
 1 2 -8 58.93 4.72
 1 2 -4 989.26 8.74
 1 2 -3 567.18 5.47
 1 2 -2 1765.08 6.89
 1 3 -6 94.27 3.9
 1 3 -5 59.2 2.92
 2 -9 -7 16.28 5.32
 2 -9 -6 18.33 4.91
 2 -9 -4 12.8 3.55
 2 -9 -3 28.5 4.02
 2 -8 -10 18.55 5.85
 2 -8 -9 4.31 4.94
 2 -8 -8 124.47 8.52
 2 -8 -7 -1.37 4.16
 2 -8 -6 14.05 4.09
 2 -8 -5 160.35 7.39
 2 -8 -4 97.79 5.94
 2 -8 -3 16.95 3.27
 2 -7 -8 104.2 7.99
 2 -7 -7 25.27 4.55
 2 -7 -6 103.05 6.55
 2 -7 -5 82.29 5.67
 2 -7 -4 111.81 6.02
 2 -7 -1 58.45 4.04
 2 -7 0 12.74 2.84
 2 -6 -11 37.45 6.68
 2 -6 -10 95.36 8.89
 2 -6 -9 107 8.11
 2 -6 -8 24.36 5.41
 2 -6 -6 114.64 6.53
 2 -6 -5 5.36 3.77
 2 -6 -2 85.41 4.4
 2 -6 -1 83.38 4.33
 2 -5 -12 39.02 8.31
 2 -5 -11 15.3 5.54
 2 -5 -10 103.37 8.96
 2 -5 -8 16.11 4.42
 2 -5 -7 28.74 4.98
 2 -5 -6 559.5 12.01
 2 -5 -5 3.27 2.68
 2 -5 -3 156.07 5.66
 2 -5 -2 138.37 4.98
 2 -4 -12 5.63 5.58
 2 -4 -9 156.35 7.92
 2 -4 -8 8.51 3.69
 2 -4 -7 131.74 7.09
 2 -4 -6 8.15 3.53
 2 -4 -4 850.68 12.17
 2 -3 -10 12.56 4.54
 2 -3 -9 52.25 5.37
 2 -3 -8 123.88 6.79
 2 -3 -5 284.31 7.52
 2 -2 -12 28.93 6.81
 2 -2 -11 54.55 6.98
 2 -2 -10 116.75 7.6
 2 -2 -9 7.05 3.66
 2 -2 -8 3.59 3.9
 2 -2 -7 114.11 5.91
 2 -2 -3 1072.01 11.29
 2 -1 -13 1.59 6.12
 2 -1 -12 5.1 4.88
 2 -1 -8 175.04 7.28
 2 -1 -5 4.18 2.05
 2 -1 -4 91.79 3.99
 2 -1 -3 89.17 3.78
 2 0 -13 47.41 6.51
 2 0 -12 109.57 8.61
 2 0 -11 302.57 10.79
 2 0 -10 -2.96 3.24
 2 0 -9 134.22 6.96
 2 0 -8 88.96 5.56
 2 0 -6 93.69 4.82
 2 0 -5 40 3.4
 2 0 -4 40.68 3.08
 2 0 -3 410.23 6.41
 2 1 -12 7.8 5.18
 2 1 -11 8.32 4.39
 2 1 -10 162.84 7.98
 2 1 -9 53.82 5.07
 2 1 -8 167.8 6.74
 2 1 -6 338.12 7.3
 2 1 -5 4.96 1.82
 2 1 -3 90.03 3.21
 2 2 -11 50.87 6.07
 2 2 -10 110.39 6.75
 2 2 -7 101.25 4.7
 2 2 -6 147.55 4.89
 2 2 -5 728.95 9.06
 2 2 -4 114.62 3.46
 2 2 -3 1010.74 7.87
 2 3 -10 11.95 3.75
 2 3 -9 53.87 4.74
 2 3 -7 58.74 3.88
 2 3 -5 318.68 5.79
 2 3 -4 41.7 2.22
 2 3 -3 187.41 3.17
 2 3 -2 139.91 2.42
 2 4 -7 130.2 4.45
 2 4 -6 3.41 1.78
 2 4 -4 822.47 5.95
 3 -9 -8 45.08 6.88
 3 -9 -7 19.31 5.04
 3 -9 -5 10.55 4.14
 3 -9 -2 11.65 3.42
 3 -9 -1 26.27 3.91
 3 -8 -9 4.93 5.36
 3 -8 -8 4.57 5.52
 3 -8 -7 38.59 5.65
 3 -8 -6 8.81 4.22
 3 -8 -5 19.5 4.41
 3 -8 -4 15.41 4.5
 3 -8 -3 204.19 7.76
 3 -8 -2 56.84 4.93
 3 -8 0 9.36 3.07
 3 -7 -10 6.74 5.87
 3 -7 -8 24.53 6.19
 3 -7 -7 5.09 5.21
 3 -7 -6 34.51 5.29
 3 -7 -5 88.21 6.51
 3 -7 -4 5.99 3.33
 3 -7 -3 105.34 6.16
 3 -7 -2 28.72 3.69
 3 -7 -1 55.13 4.8
 3 -6 -11 18.79 6.35
 3 -6 -10 86.33 8.82
 3 -6 -9 29.71 6.45
 3 -6 -8 33.74 5.71
 3 -6 -7 14.06 4.51
 3 -6 -6 23.79 4.48
 3 -6 -3 217.63 7.49
 3 -5 -11 4.69 5.38
 3 -5 -10 10.57 5.17
 3 -5 -9 316.14 11.4
 3 -5 -8 -0.24 4.66
 3 -5 -7 33.07 4.9
 3 -5 -6 143.51 7.2
 3 -5 -5 30.57 4.12
 3 -5 -4 102.16 5.6
 3 -4 -12 69.56 8.96
 3 -4 -11 134.76 10.09
 3 -4 -10 154.92 9.54
 3 -4 -8 2.42 4.29
 3 -4 -7 203.95 8.51
 3 -4 -5 132.47 5.95
 3 -3 -12 41.19 7.95
 3 -3 -10 4.59 4.8
 3 -3 -9 31.82 5.04
 3 -3 -7 64.15 5.57
 3 -2 -12 54.01 7.96
 3 -2 -11 253.77 11.44
 3 -2 -10 161.45 8.33
 3 -2 -9 234.27 9.42
 3 -2 -8 159.16 7.73
 3 -2 -7 18.27 3.57
 3 -2 -6 59.07 4.75
 3 -1 -13 13.87 5.83
 3 -1 -11 217.43 10.06
 3 -1 -10 23.36 5.8
 3 -1 -9 17 4.13
 3 -1 -8 31.91 4.52
 3 -1 -7 23.47 3.72
 3 -1 -5 784.02 11.62
 3 -1 -4 41.43 3.57
 3 0 -13 5.75 5.82
 3 0 -11 3.92 4.58
 3 0 -9 3.96 3.43
 3 0 -8 8.33 3.19
 3 0 -4 697.63 9.73
 3 1 -13 7.23 5.81
 3 1 -12 11.62 5.67
 3 1 -11 208.19 9.47
 3 1 -10 25.5 4.86
 3 1 -9 19.52 4.19
 3 1 -8 35.83 4.46
 3 1 -6 9.08 2.58
 3 1 -4 36.19 2.69
 3 2 -12 46.48 5.8
 3 2 -11 248.29 9.3
 3 2 -10 167.59 7.48
 3 2 -8 154.61 6.33
 3 2 -6 64.7 4.15
 3 2 -5 601.38 8.81
 3 2 -4 337.54 6.21
 3 3 -11 14.99 4.25
 3 3 -10 4.42 3.19
 3 3 -9 38.77 4.49
 3 3 -7 58.19 3.95
 3 3 -6 65.59 3.63
 3 3 -5 216.39 5.09
 3 3 -3 286.31 4.78
 3 4 -9 211.03 6.52
 3 4 -7 178.35 5.09
 3 4 -6 179.43 4.63
 3 4 -5 133.4 3.55
 3 4 -4 157.09 3.31
 4 -9 -7 89.48 8.14
 4 -9 -4 3.75 4.17
 4 -9 -2 18.57 4.39
 4 -9 -1 22.28 4.43
 4 -8 -9 5.54 5.27
 4 -8 -8 33.53 6.12
 4 -8 -6 28.59 5.63
 4 -8 -5 5.71 4.18
 4 -8 -4 23.85 5.5
 4 -8 -2 83.15 6.62
 4 -8 -1 27.91 4.48
 4 -7 -10 22.07 6.47
 4 -7 -8 29.67 5.97
 4 -7 -7 46.17 6.48
 4 -7 -5 57.04 6.31
 4 -7 -3 25.96 4.3
 4 -6 -9 11.24 5.42
 4 -6 -7 126.22 7.98
 4 -6 -5 139.46 7.65
 4 -6 -4 15.5 3.82
 4 -5 -11 9.32 5.79
 4 -5 -10 141.24 9.8
 4 -5 -9 103.42 8.65
 4 -5 -8 24.41 5.65
 4 -5 -7 32.12 5.26
 4 -5 -6 85.23 6.76
 4 -5 -5 181.28 8.05
 4 -4 -11 41.85 7.37
 4 -4 -10 13.56 5.23
 4 -4 -8 43.48 6.42
 4 -4 -6 74.98 5.98
 4 -4 -4 364.87 9.8
 4 -3 -12 -3.63 6.46
 4 -3 -11 105.78 9.19
 4 -3 -10 24.39 5.82
 4 -3 -9 35.84 5.47
 4 -3 -8 255.45 9.79
 4 -3 -6 153.36 7.22
 4 -3 -5 80.36 5.36
 4 -3 -4 17.02 3.42
 4 -2 -11 15.51 5.42
 4 -2 -9 120.63 8.02
 4 -2 -8 95.53 6.34
 4 -2 -6 105.87 5.81
 4 -2 -5 278.59 8.2
 4 -1 -12 14.64 5.64
 4 -1 -11 38.63 6.6
 4 -1 -10 76.41 7.46
 4 -1 -6 18.88 3.9
 4 0 -12 66.11 7.74
 4 0 -10 26.53 5.15
 4 0 -8 282.23 8.95
 4 0 -7 292.18 8.76
 4 0 -6 17.59 3.26
 4 1 -13 36.15 6.3
 4 1 -11 45.64 6.08
 4 1 -9 62.77 5.8
 4 1 -8 215.58 7.87
 4 1 -7 89.5 5.37
 4 1 -5 385.92 8.47
 4 2 -12 71.82 6.99
 4 2 -10 88.57 6.65
 4 2 -9 125.12 6.71
 4 2 -8 87.76 5.62
 4 2 -7 144.46 6.15
 4 2 -5 268.75 6.69
 4 2 -4 751.8 10.31
 4 3 -10 30.94 4.89
 4 3 -9 37.01 4.78
 4 3 -8 249.92 7.39
 4 3 -6 152.98 5.31
 4 3 -5 80.17 4.05
 4 3 -4 15.06 2.24
 4 4 -7 77.29 4.07
 4 4 -6 74.15 3.64
 4 4 -5 96.56 3.66
 4 4 -4 344.28 5.82
 4 4 -3 73.91 3.07
 4 5 -2 72.3 2.53
 5 -9 -6 18.31 5.66
 5 -9 -5 2.94 5.72
 5 -9 -4 22.89 5.73
 5 -9 -3 22.33 5.13
 5 -9 -2 34.72 6.02
 5 -9 -1 16.59 5.2
 5 -9 0 96.48 7.56
 5 -8 -8 2.24 5.4
 5 -8 -7 77.98 8.03
 5 -8 -5 11.76 5.03
 5 -8 -4 70.73 7.4
 5 -8 -3 56.61 7.04
 5 -8 -2 6.69 5.19
 5 -7 -9 12.25 6.14
 5 -7 -8 14.95 5.87
 5 -7 -7 7.01 6.21
 5 -7 -6 12.95 5.57
 5 -7 -5 106.16 7.87
 5 -7 -4 47.09 6.63
 5 -7 -3 9.15 4.31
 5 -6 -10 27.78 6.8
 5 -6 -8 42.21 7.6
 5 -6 -7 40.87 6.46
 5 -6 -5 20.33 5.7
 5 -6 -4 102.45 7.68
 5 -6 -3 27.62 5.65
 5 -5 -8 89.76 8.75
 5 -5 -7 46.58 6.73
 5 -5 -5 28.97 5.74
 5 -5 -4 53.78 6.71
 5 -4 -11 9.8 6.17
 5 -4 -9 2.64 4.86
 5 -4 -8 74.93 7.54
 5 -4 -7 108.97 7.22
 5 -4 -6 72.79 6.71
 5 -4 -5 33.33 4.82
 5 -3 -10 71.99 8.61
 5 -3 -9 68.98 7.96
 5 -3 -8 43.34 6.7
 5 -3 -7 48.43 5.43
 5 -3 -5 52.49 5.81
 5 -2 -12 37.31 7.32
 5 -2 -10 13.56 5.41
 5 -2 -9 28.14 5.94
 5 -2 -8 17.87 5.23
 5 -2 -5 121.78 7
 5 -1 -12 8.66 6.18
 5 -1 -11 13.86 5.11
 5 -1 -8 523.64 13.06
 5 -1 -7 59.16 5.84
 5 -1 -6 49.49 5.48
 5 -1 -5 37.74 4.31
 5 0 -12 1.05 4.93
 5 0 -11 71.72 7.38
 5 0 -10 37.29 5.59
 5 0 -8 170.18 8.19
 5 0 -7 8.04 4.28
 5 0 -6 0.83 2.99
 5 0 -5 96.55 5.88
 5 1 -12 9.92 4.81
 5 1 -11 13.87 4.84
 5 1 -10 55.27 6.32
 5 1 -9 45.17 6.1
 5 1 -8 547.45 12.44
 5 1 -7 64.4 5.24
 5 2 -11 5.24 4.68
 5 2 -10 12.35 4.17
 5 2 -9 28.22 4.99
 5 2 -7 214.63 7.57
 5 2 -6 14.72 3.68
 5 3 -9 69.08 5.52
 5 3 -8 44.2 4.7
 5 3 -7 50.88 4.43
 5 4 -5 29.09 3.13
 5 4 -4 61.86 3.58
 6 -9 -4 -1.83 5.46
 6 -9 -3 7.21 5.07
 6 -9 -2 33.22 6.22
 6 -9 -1 15.67 6.06
 6 -9 0 4.26 5.59
 6 -8 -6 26.69 7.02
 6 -8 -5 11.03 6.68
 6 -8 -2 12.12 5.72
 6 -7 -7 33.76 6.63
 6 -7 -6 21.93 6.05
 6 -7 -5 9.16 5.95
 6 -7 -4 49.52 7.68
 6 -7 -3 30.02 6.9
 6 -6 -8 134.62 10.52
 6 -6 -7 19.69 6.17
 6 -6 -6 25.49 6.1
 6 -6 -4 195.42 9.47
 6 -5 -7 59.38 7.36
 6 -5 -6 8.43 5.51
 6 -5 -5 19.01 6.13
 6 -5 -4 4.87 4.7
 6 -4 -10 28.89 7.45
 6 -4 -8 3.85 5.5
 6 -4 -7 19.28 6.1
 6 -4 -6 31.07 6.38
 6 -4 -5 34.96 5.94
 6 -3 -10 26.47 6.85
 6 -3 -9 19.24 7.08
 6 -3 -8 18.12 6.69
 6 -3 -5 15.3 5.02
 6 -2 -11 28.96 7.58
 6 -2 -9 18.18 6.66
 6 -2 -7 51.55 6.01
 6 -2 -6 18.78 5.01
 6 -1 -10 14.29 6.27
 6 -1 -8 6.48 4.4
 6 -1 -7 -0.16 3.98
 6 -1 -6 24.76 4.91
 6 -1 -5 51.32 6.07
 6 0 -11 11.03 5.74
 6 0 -10 3.13 5.52
 6 0 -9 -3.42 4.09
 6 0 -8 209.77 9.63
 6 0 -7 13.81 4.76
 6 0 -6 150.59 7.71
 6 1 -10 13.74 4.97
 6 1 -9 72.12 7.08
 6 1 -5 51.95 5.1
 6 2 -10 76.6 6.94
 6 2 -9 14.03 4.95
 6 2 -8 50.66 5.95
 6 2 -7 47.92 5.52
 6 2 -6 19.69 3.74
 6 3 -7 82.44 5.77
 6 3 -4 7.77 3.4
 7 -7 -5 12.64 6.1
 7 -7 -4 16.23 6.33
 7 -7 -3 7.21 6.57
 7 -6 -6 4.19 5.6
 7 -6 -4 24.5 6.4
 7 -5 -7 168.68 10.53
 7 -5 -5 16.31 5.97
 7 -5 -4 112.11 8.57
 7 -4 -7 51.68 7.57
 7 -4 -6 -3.05 6.11
 7 -3 -9 188.31 11.2
 7 -3 -8 18.79 5.86
 7 -3 -7 18.36 5.63
 7 -3 -6 18.19 5.88
 7 -3 -5 20.49 6.53
 7 -2 -8 19.76 5.85
 7 -2 -7 0.73 5.18
 7 -1 -9 37.52 7.42
 7 -1 -8 134.06 9.38
 7 -1 -7 25.36 5.48
 7 -1 -6 7.67 5.75
 7 -1 -5 11.06 4.58
 7 0 -7 9.84 4.57
 7 0 -6 -0.44 4.15
 7 0 -5 7.71 5.14
 7 1 -9 38.96 6.53
 7 1 -6 9.69 4.28
 7 1 -5 15.16 4.82
 7 2 -8 17.07 4.94
 7 2 -7 3.12 3.83
 7 3 -4 5.73 3.79
 8 -5 -4 34.69 7.17
 8 -4 -6 33.21 7.1
 8 -4 -5 28.66 6.67
 8 -3 -7 10.76 6.59
 8 -3 -6 -3.92 5.33
 8 -3 -5 32.69 7.5
 8 -2 -7 6 5.49
 8 -2 -6 159.49 10.19
 8 -2 -5 16.45 6.93
 8 -1 -8 38.76 6.59
 8 -1 -7 31.26 6.28
 8 -1 -6 17.25 5.58
 8 -1 -5 32.17 6.31
 8 0 -8 2.46 5.26
 8 0 -6 19.28 5.49
 8 1 -8 41.94 6.85
 8 1 -7 26.92 5.39
 8 1 -6 11.27 5.28
 8 1 -5 32.93 5.51
 8 2 -5 14.99 4.69
 8 2 -4 48.6 6.5
 9 0 -4 -3.76 6.06
 9 1 -4 0.31 5.69
 -8 -5 2 23.9 4.36
 -8 -5 3 13.76 4.28
 -8 -5 5 36.48 5.38
 -8 -4 2 19.74 4.96
 -8 -4 3 23.1 4.83
 -8 -4 4 140.46 7.91
 -8 -4 5 33.61 5.39
 -8 -4 6 33.75 5.42
 -8 -3 4 16.89 4.6
 -8 -3 5 42.46 5.88
 -8 -3 6 1.02 5.05
 -8 -3 7 7.72 4.69
 -8 -2 5 23.65 5.23
 -8 -2 6 146.36 8.8
 -8 -2 7 11.95 5.19
 -8 -1 5 38.34 5.84
 -8 -1 6 11 5.7
 -8 -1 7 28.24 5.95
 -8 0 6 17.76 4.9
 -8 0 7 35.01 5.95
 -8 0 8 -0.86 4.42
 -8 1 6 9.15 4.59
 -8 1 7 31.83 5.65
 -8 2 7 8.82 4.65
 -7 -6 3 18.17 4.1
 -7 -6 4 31.88 4.43
 -7 -6 5 5.03 3.7
 -7 -6 6 5.05 3.5
 -7 -6 7 95.29 7.15
 -7 -5 1 45.16 4.81
 -7 -5 2 52.09 5.42
 -7 -5 3 14.65 3.91
 -7 -5 4 117.47 6.7
 -7 -5 5 17.42 4.07
 -7 -5 6 6.53 3.7
 -7 -5 7 160.9 8.16
 -7 -5 8 44.56 5.79
 -7 -4 3 11.27 4
 -7 -4 4 52.3 5.32
 -7 -4 6 3.21 3.74
 -7 -4 8 46.95 6.16
 -7 -3 4 3.02 3.65
 -7 -3 5 27.03 5.46
 -7 -3 6 19.22 4.75
 -7 -3 7 20.73 4.61
 -7 -3 8 19.88 5.02
 -7 -3 9 182.71 9.6
 -7 -2 6 29.5 5.16
 -7 -2 7 -2.82 3.85
 -7 -2 8 11.77 4.82
 -7 -2 9 31.35 5.94
 -7 -1 6 14.39 4.3
 -7 -1 7 28.75 5.25
 -7 -1 8 148.96 8.75
 -7 -1 9 39.9 5.81
 -7 0 6 1.54 3.7
 -7 0 7 6.61 4.81
 -7 0 8 10.08 4.48
 -7 0 9 146.74 8.74
 -7 0 10 33.06 5.79
 -7 1 7 24.89 5.38
 -7 1 8 147.56 8.86
 -7 1 9 31.48 5.31
 -7 1 10 61.66 6.49
 -7 2 7 4.53 4.21
 -7 2 8 18.49 5.06
 -7 2 9 23.74 5.1
 -7 3 7 22.73 5.52
 -7 3 8 18.08 5.09
 -7 4 7 62.46 6.81
 -7 4 8 48.73 5.76
 -7 4 9 -0.21 3.98
 -7 5 7 154.08 8.3
 -7 5 8 54.5 6.18
 -7 6 7 96.07 6.94
 -6 -7 4 51.79 4.84
 -6 -7 5 5.2 3.21
 -6 -7 6 21.01 4.29
 -6 -7 7 32.03 5.19
 -6 -7 8 14.17 4.63
 -6 -6 1 51.78 4.29
 -6 -6 2 78.19 4.84
 -6 -6 3 6.16 3.25
 -6 -6 4 199.78 7.39
 -6 -6 5 59.36 5.12
 -6 -6 7 13.84 4.28
 -6 -6 8 136.33 7.69
 -6 -6 9 -2.63 3.84
 -6 -5 1 41.85 4.3
 -6 -5 2 51.42 4.78
 -6 -5 3 13.59 3.43
 -6 -5 4 0.78 2.78
 -6 -5 5 19.89 4.01
 -6 -5 6 11.1 4.49
 -6 -5 7 65.07 6.15
 -6 -5 8 24.76 4.76
 -6 -5 9 29.47 5.39
 -6 -4 3 31.09 4.13
 -6 -4 6 30.73 4.55
 -6 -4 8 3.4 4.39
 -6 -4 9 105.18 6.94
 -6 -3 5 14.38 3.58
 -6 -3 6 21.49 4.43
 -6 -3 8 11.15 4.63
 -6 -3 9 17 4.97
 -6 -3 10 29.95 5.42
 -6 -2 5 27.06 4.63
 -6 -2 6 14.3 3.74
 -6 -2 7 42.82 5.62
 -6 -2 8 47.79 5.27
 -6 -2 10 86.85 7.45
 -6 -2 11 30.34 6.46
 -6 -1 6 20.84 4.64
 -6 -1 7 -2.15 3.11
 -6 -1 8 5.75 3.68
 -6 -1 9 59.09 6.56
 -6 -1 11 63.52 7.37
 -6 0 7 8.06 4.34
 -6 0 8 209.17 9.09
 -6 0 9 -3.47 3.86
 -6 0 10 6.15 4.21
 -6 0 11 7.57 4.37
 -6 1 6 28.7 4.33
 -6 1 7 4.19 4.12
 -6 1 8 0.91 3.66
 -6 1 9 60.03 5.95
 -6 1 10 11.15 4.18
 -6 2 7 51.22 5.01
 -6 2 9 18.74 4.3
 -6 2 10 83.36 6.97
 -6 2 11 23.56 5.26
 -6 3 7 79.98 6.21
 -6 3 8 11.4 3.91
 -6 3 9 15.51 4.52
 -6 3 11 -1.08 3.61
 -6 4 7 16.83 4.21
 -6 4 8 2.7 3.66
 -6 4 9 120.94 7.05
 -6 4 10 20.45 4.25
 -6 5 7 64.6 5.7
 -6 5 8 19.57 4.22
 -6 5 9 31.55 4.95
 -6 6 7 16.92 4.21
 -5 -8 6 53.48 5.12
 -5 -8 7 83.11 6.13
 -5 -8 8 2.14 3.54
 -5 -7 3 13.42 2.93
 -5 -7 4 49.24 4.25
 -5 -7 5 105.4 5.87
 -5 -7 6 19.43 4.33
 -5 -7 7 12.62 4.39
 -5 -7 8 19.49 4.43
 -5 -7 9 12.25 4.42
 -5 -6 2 2.65 2.05
 -5 -6 3 29.84 3.71
 -5 -6 4 102.39 5.44
 -5 -6 5 19.19 3.4
 -5 -6 6 36.84 4.41
 -5 -6 7 31.08 4.99
 -5 -6 8 40.24 5.25
 -5 -6 9 169.39 8.09
 -5 -5 2 101.78 4.97
 -5 -5 3 134.51 5.61
 -5 -5 4 55.72 4.49
 -5 -5 6 42.11 5.05
 -5 -5 7 49.95 4.98
 -5 -5 8 87.92 6.38
 -5 -5 9 60.94 6.59
 -5 -5 10 72.52 7.23
 -5 -4 2 184.53 6.07
 -5 -4 3 52.95 4.4
 -5 -4 4 66.47 4.66
 -5 -4 5 28.16 3.74
 -5 -4 6 68.05 4.73
 -5 -4 7 107.51 6.2
 -5 -4 9 1.85 3.7
 -5 -4 10 63.35 6.69
 -5 -3 4 23.91 3.52
 -5 -3 5 48.81 4.89
 -5 -3 8 37.93 5.3
 -5 -3 9 60.46 6.35
 -5 -3 10 83.32 7.39
 -5 -3 11 24.25 5.32
 -5 -2 5 112.89 6.04
 -5 -2 6 15.7 3.86
 -5 -2 7 220.28 8.12
 -5 -2 8 20.91 3.94
 -5 -2 9 31.76 5.15
 -5 -2 10 19.67 5.13
 -5 -2 11 -2.46 3.93
 -5 -2 12 35.91 5.9
 -5 -1 5 35.41 4.09
 -5 -1 7 56.24 4.65
 -5 -1 8 525.01 11.86
 -5 -1 9 50.26 5.67
 -5 -1 10 54.63 6.31
 -5 -1 11 12.2 4.55
 -5 -1 12 10.89 4.76
 -5 0 6 0.55 3.13
 -5 0 8 160.04 7.57
 -5 0 10 40.08 5.76
 -5 0 11 82.07 7.19
 -5 0 12 -0.93 3.88
 -5 1 6 38.21 3.91
 -5 1 8 540.11 12.09
 -5 1 10 60.21 6.2
 -5 1 11 13.98 4.95
 -5 2 6 13.65 3.19
 -5 2 7 222.42 8.09
 -5 2 10 13 3.84
 -5 2 11 5.1 3.77
 -5 2 12 38 5.89
 -5 3 8 44.13 4.35
 -5 3 9 68.81 5.55
 -5 3 10 65.6 5.56
 -5 3 11 20.05 4.33
 -5 3 12 2.64 3.92
 -5 4 7 114.85 6.28
 -5 4 9 -0.32 2.88
 -5 4 10 79.94 5.76
 -5 5 8 89.79 5.68
 -5 5 9 64.18 5.27
 -5 6 6 36.15 4.32
 -5 6 7 39.2 4.35
 -4 -8 4 19.76 3.02
 -4 -8 5 4.52 2.67
 -4 -8 6 24.86 3.94
 -4 -8 7 29.32 4.37
 -4 -8 8 34.8 4.92
 -4 -8 9 7.59 4.22
 -4 -7 4 80.81 4.65
 -4 -7 6 101.34 5.98
 -4 -7 7 46.95 5.31
 -4 -7 8 28.63 4.75
 -4 -7 9 75.59 6.78
 -4 -7 10 32.43 5.84
 -4 -6 0 47.75 2.53
 -4 -6 1 22.89 2.4
 -4 -6 4 13.14 2.67
 -4 -6 6 155.16 6.64
 -4 -6 7 121.26 6.6
 -4 -6 8 18.79 4.56
 -4 -6 9 7.98 4.09
 -4 -6 10 21.57 4.84
 -4 -5 0 100.04 3.77
 -4 -5 1 56.19 3.35
 -4 -5 4 115.71 5.06
 -4 -5 5 178.94 6.32
 -4 -5 6 89.17 5.57
 -4 -5 7 27.76 4.3
 -4 -5 8 25.97 4.52
 -4 -5 10 144.35 8.39
 -4 -5 11 8.11 4.57
 -4 -4 2 112.93 4.63
 -4 -4 5 98.44 4.88
 -4 -4 6 76.17 4.92
 -4 -4 7 85.35 5.78
 -4 -4 8 49.03 5.22
 -4 -4 9 89.53 6.7
 -4 -4 10 16.04 4.53
 -4 -4 11 34.74 6.08
 -4 -3 6 154.07 6.15
 -4 -3 8 245.2 8.32
 -4 -3 9 34.54 4.73
 -4 -3 12 0.47 4.62
 -4 -2 5 289.47 7.64
 -4 -2 6 101.28 4.91
 -4 -2 7 141.19 5.94
 -4 -2 8 96.58 5.89
 -4 -2 9 115.91 6.24
 -4 -2 10 82.98 6.59
 -4 -2 12 61.1 7.08
 -4 -1 5 383.2 8.36
 -4 -1 6 19.81 2.96
 -4 -1 7 89.94 5.37
 -4 -1 8 205.73 7.52
 -4 -1 9 57.31 5.58
 -4 -1 10 80.66 5.85
 -4 0 7 286.41 8.18
 -4 0 8 274.38 8.41
 -4 0 9 177.51 7.58
 -4 0 10 26.34 4.74
 -4 0 11 37.25 4.97
 -4 0 12 59.78 6.46
 -4 1 7 85.05 5.23
 -4 1 9 65.41 5.09
 -4 1 10 77.81 6.15
 -4 1 11 50.79 5.99
 -4 1 12 12.73 4.6
 -4 2 6 111.61 5
 -4 2 7 138.53 5.68
 -4 2 8 90.49 5.58
 -4 2 9 123.5 6.37
 -4 2 10 82.91 5.75
 -4 2 11 16.27 4.67
 -4 3 7 236.81 7.32
 -4 3 8 246.69 7.48
 -4 3 9 33.19 4.32
 -4 3 10 22.06 4.1
 -4 3 11 109.85 6.55
 -4 3 12 0.22 3.21
 -4 4 6 79.97 4.74
 -4 4 7 91.43 5.12
 -4 4 9 84.72 5.16
 -4 4 10 16.54 3.47
 -4 5 6 78.71 4.55
 -4 5 7 32.59 3.67
 -4 5 8 18.49 3.21
 -4 5 9 86.53 5.06
 -4 6 6 148.06 5.53
 -4 6 7 113.22 4.98
 -3 -9 7 19.98 4.02
 -3 -9 8 47.46 5.36
 -3 -8 4 15.22 2.84
 -3 -8 5 17.38 3.19
 -3 -8 6 3.36 2.76
 -3 -8 8 6.15 3.92
 -3 -7 1 48.49 2.33
 -3 -7 2 28.17 2.45
 -3 -7 4 7.08 2.32
 -3 -7 6 37.92 4.36
 -3 -7 7 8.92 3.38
 -3 -7 8 26.39 4.71
 -3 -7 9 33.06 5.37
 -3 -7 10 6.48 4.39
 -3 -6 -1 16.02 1.19
 -3 -6 0 129.15 2.99
 -3 -6 1 55.73 2.56
 -3 -6 2 374.46 6.46
 -3 -6 5 50.71 4.15
 -3 -6 6 17.63 3.37
 -3 -6 7 10.7 3.4
 -3 -6 9 28.02 5.13
 -3 -6 10 88.2 6.58
 -3 -6 11 8.4 4.93
 -3 -5 -1 397.02 5.08
 -3 -5 0 144.96 3.48
 -3 -5 1 19.57 2.12
 -3 -5 2 69.8 3.25
 -3 -5 3 25.58 2.84
 -3 -5 7 32.13 3.92
 -3 -5 8 1.13 3.16
 -3 -5 10 14.78 4.43
 -3 -5 11 8.98 4.28
 -3 -4 1 120.48 3.76
 -3 -4 2 659.61 8.67
 -3 -4 3 156.8 4.82
 -3 -4 6 205.53 6.7
 -3 -4 8 0.29 2.96
 -3 -4 10 167.34 8.59
 -3 -4 11 134.01 8.07
 -3 -4 12 64.94 6.21
 -3 -3 2 6.25 1.74
 -3 -3 3 297.19 6.27
 -3 -3 6 70.79 4.54
 -3 -3 8 58.91 4.92
 -3 -3 9 29.41 4.08
 -3 -3 10 4.68 3.85
 -3 -3 11 12.83 4.27
 -3 -2 3 85.04 3.57
 -3 -2 4 314.92 6.71
 -3 -2 7 19.24 2.99
 -3 -2 8 160.75 6.46
 -3 -2 10 154.37 7.51
 -3 -1 5 781.81 10.75
 -3 -1 7 19.68 3.03
 -3 -1 8 37.06 4.32
 -3 -1 9 14.34 3.17
 -3 -1 10 24.17 4.28
 -3 -1 11 214.21 9.03
 -3 -1 13 9.09 5.27
 -3 0 7 4.1 2.58
 -3 0 8 5.68 2.46
 -3 0 9 3.6 2.8
 -3 0 10 335.34 9.38
 -3 0 11 2.44 3.96
 -3 0 12 132.05 7.74
 -3 0 13 2.43 4
 -3 1 5 777.39 10.4
 -3 1 7 22.87 3.3
 -3 1 8 24.9 3.48
 -3 1 10 27.57 4.06
 -3 1 11 220.83 8.3
 -3 1 12 15.72 4.52
 -3 1 13 9.49 4.28
 -3 2 5 629.33 9.58
 -3 2 7 14.56 2.61
 -3 2 8 147.13 5.65
 -3 2 9 224.24 7.2
 -3 2 10 171.41 7.02
 -3 2 11 258.83 8.76
 -3 2 12 47.8 5.72
 -3 3 5 210.48 5.54
 -3 3 8 53.3 3.82
 -3 3 9 34.38 4.06
 -3 3 10 1.21 2.97
 -3 3 11 12.81 3.38
 -3 4 8 2.46 2.36
 -3 4 10 166.24 6.37
 -3 5 5 33.14 2.91
 -3 5 8 1.67 1.95
 -3 6 5 47.71 3.04
 -3 6 6 20.07 2.49
 -2 -9 6 19.31 3.57
 -2 -9 7 11.34 3.96
 -2 -9 8 12.55 4.26
 -2 -8 4 94.63 4.37
 -2 -8 5 160.07 5.83
 -2 -8 6 9.98 2.81
 -2 -8 7 4.18 3.04
 -2 -8 9 3.07 4.02
 -2 -7 2 31.68 2.33
 -2 -7 3 78.4 3.66
 -2 -7 5 78.47 4.58
 -2 -7 6 94.1 5.43
 -2 -7 7 20.57 3.73
 -2 -7 10 60.82 6.23
 -2 -6 1 76.37 2.53
 -2 -6 2 94.67 3.33
 -2 -6 3 41.21 3.14
 -2 -6 5 5.38 2.5
 -2 -6 6 125.11 5.88
 -2 -6 7 26.17 3.81
 -2 -6 8 27.26 4.52
 -2 -6 9 102.72 6.65
 -2 -6 10 98.53 6.5
 -2 -6 11 36.86 5.52
 -2 -5 -1 588.14 3.85
 -2 -5 2 137.22 3.72
 -2 -5 6 532.19 10.21
 -2 -5 7 23.61 3.49
 -2 -5 8 14.74 3.44
 -2 -5 9 56.13 5.46
 -2 -5 10 113.57 7.59
 -2 -5 11 11.41 4.34
 -2 -4 -1 722.64 5.35
 -2 -4 0 119.56 2.64
 -2 -4 1 848.31 7.48
 -2 -4 3 101.32 3.71
 -2 -4 4 802.48 10.11
 -2 -4 6 4.37 2.6
 -2 -4 8 6.36 2.81
 -2 -4 9 162.58 7.53
 -2 -4 10 16.78 4.45
 -2 -4 11 43.29 5.61
 -2 -4 12 1.66 4.02
 -2 -3 1 543.17 6.04
 -2 -3 2 136.03 3.59
 -2 -3 4 39.22 2.64
 -2 -3 7 61.26 4.36
 -2 -3 8 117.87 5.96
 -2 -3 9 57.74 5.47
 -2 -3 10 8.9 4.08
 -2 -3 11 92.29 7.01
 -2 -3 12 88.18 7
 -2 -2 2 1822.85 11.81
 -2 -2 3 1105.62 10.21
 -2 -2 7 107.89 5
 -2 -2 9 7.6 2.93
 -2 -2 10 111.05 6.74
 -2 -2 11 58.2 5.39
 -2 -2 13 30.13 5.69
 -2 -1 9 43.24 4.01
 -2 -1 11 12.99 4.48
 -2 -1 12 6.87 4.26
 -2 -1 13 2.21 3.78
 -2 0 4 40.69 2.41
 -2 0 5 35.66 2.44
 -2 0 8 84.89 4.78
 -2 0 9 133.07 6.04
 -2 0 10 -3.75 2.51
 -2 0 11 301.45 9.23
 -2 0 12 110.34 6.54
 -2 0 13 55.22 5.84
 -2 1 4 89.78 3.34
 -2 1 5 4.52 1.66
 -2 1 6 334.62 6.75
 -2 1 9 55.04 4.47
 -2 1 10 168.59 6.9
 -2 1 11 13.41 3.57
 -2 1 12 7.09 3.8
 -2 2 4 118.39 3.56
 -2 2 5 698.19 8.59
 -2 2 8 2.19 1.88
 -2 2 9 7.76 3.05
 -2 2 11 45.55 4.77
 -2 2 12 20.69 4.29
 -2 3 5 328.11 5.95
 -2 3 6 140.22 4.29
 -2 3 9 51.48 3.9
 -2 3 10 10.49 2.92
 -2 4 5 54.73 2.74
 -2 4 6 4.04 1.51
 -2 4 7 125.58 4.21
 -2 4 9 153.51 5.31
 -2 5 5 5.13 1.51
 -2 5 6 513.82 6.87
 -2 5 7 24.03 2.34
 -2 6 4 31.49 1.99
 -2 6 5 5.85 1.28
 -1 -8 5 55.08 4.37
 -1 -8 6 221.13 7.21
 -1 -8 7 15.23 4.08
 -1 -7 2 14.42 1.76
 -1 -7 3 3.21 1.66
 -1 -7 5 206.67 6.4
 -1 -7 6 88.73 4.95
 -1 -7 7 88.47 5.29
 -1 -7 9 11.72 4.35
 -1 -7 10 14.97 5.2
 -1 -6 2 165.45 3.98
 -1 -6 3 543.33 8.09
 -1 -6 5 252.5 6.8
 -1 -6 6 34.8 4.12
 -1 -6 7 217.47 7.51
 -1 -6 8 18.89 3.69
 -1 -6 9 22.84 4.39
 -1 -6 10 40.16 5.41
 -1 -6 11 70.04 7.36
 -1 -5 0 162.26 2.42
 -1 -5 3 61.42 2.94
 -1 -5 4 56.76 3.53
 -1 -5 6 74.16 4.64
 -1 -5 7 2.67 2.43
 -1 -5 8 19.47 3.56
 -1 -5 9 94.76 6.22
 -1 -5 12 56.16 6.93
 -1 -4 0 405.03 3.63
 -1 -4 1 855.98 6.7
 -1 -4 2 621.84 6.89
 -1 -4 7 16.85 2.93
 -1 -4 8 82.67 5.44
 -1 -4 9 88.89 5.96
 -1 -4 11 51.01 5.6
 -1 -3 1 1267.56 7.53
 -1 -3 2 458.21 5.6
 -1 -3 3 179.94 4.14
 -1 -3 5 56.38 3.45
 -1 -3 7 119.92 5.42
 -1 -3 8 19.34 3.25
 -1 -3 9 282.05 8.63
 -1 -3 10 35.03 5.1
 -1 -3 11 3.59 3.69
 -1 -2 1 1147.29 6.78
 -1 -2 2 1724.35 9.74
 -1 -2 3 596.67 6.82
 -1 -2 7 98.61 4.9
 -1 -2 9 80.15 5.01
 -1 -2 12 124.75 7.78
 -1 -2 13 6.62 5.17
 -1 -1 4 131.55 3.77
 -1 -1 5 471.81 7.25
 -1 -1 6 44.7 3.26
 -1 -1 8 62.63 4.67
 -1 -1 9 131.1 6.14
 -1 -1 10 153.37 6.93
 -1 -1 11 118.54 6.61
 -1 -1 12 2.3 3.52
 -1 -1 13 52.07 6.48
 -1 0 3 9621.45 23.76
 -1 0 5 608.34 7.9
 -1 0 6 219.41 5.39
 -1 0 11 14.98 3.96
 -1 0 12 2.58 3.39
 -1 1 3 2354.54 11.41
 -1 1 4 131.07 3.37
 -1 1 5 476.39 6.73
 -1 1 6 42.38 2.66
 -1 1 7 85.26 3.96
 -1 1 8 62.62 3.92
 -1 1 9 118.21 5.18
 -1 1 10 160.82 6.52
 -1 1 11 113.59 6.18
 -1 1 12 -1.97 2.86
 -1 2 3 567.87 5.52
 -1 2 4 990.68 7.98
 -1 2 5 264 4.78
 -1 2 6 89.95 3.39
 -1 2 7 91.71 3.95
 -1 2 11 -0.1 2.54
 -1 2 12 111.29 6.01
 -1 3 3 182.51 3.1
 -1 3 5 55.19 2.42
 -1 3 7 123.63 4.16
 -1 3 9 271.4 6.7
 -1 3 10 35.43 3.68
 -1 4 3 593.27 5.12
 -1 4 4 107.35 2.44
 -1 4 5 399.04 4.94
 -1 4 6 121.12 3.33
 -1 4 7 14.12 2.03
 -1 4 8 84.57 3.58
 -1 5 3 64.17 1.71
 -1 5 4 52.82 1.58
 -1 5 5 6.84 1.01
 0 -6 5 5.71 2.53
 0 -6 6 70.12 4.81
 0 -6 7 48.01 4.55
 0 -6 8 93.13 6.42
 0 -5 2 143.44 3.72
 0 -5 3 75.4 3.39
 0 -5 6 345.33 8.13
 0 -5 7 220.4 7.34
 0 -5 9 41.59 5.02
 0 -4 1 1326.92 8.38
 0 -4 2 459.45 5.95
 0 -4 7 107.75 5.19
 0 -4 8 105.1 5.54
 0 -4 9 96.56 6.36
 0 -3 1 1422.41 7.84
 0 -3 5 5.49 1.72
 0 -3 7 110.86 5.19
 0 -3 8 39.35 3.99
 0 -3 11 3.86 3.8
 0 -2 0 4765.11 8.89
 0 -2 1 4929.53 12.96
 0 -2 2 2577.18 11.76
 0 -2 4 265.7 5.21
 0 -2 7 259.73 7.01
 0 -2 8 58.64 4
 0 -2 9 310.2 8.46
 0 -2 10 46.97 4.72
 0 -2 11 4.64 3.69
 0 -1 1 446.79 3.49
 0 -1 2 680.98 5.62
 0 -1 4 161.31 3.87
 0 -1 6 480.98 8.07
 0 -1 8 23.96 3.1
 0 -1 9 255.4 7.54
 0 -1 10 44.18 5
 0 -1 11 148.85 7.52
 0 0 1 130.44 1.6
 0 0 2 1762.49 7.82
 0 0 4 880.56 8.12
 0 0 5 45.95 2.48
 0 0 8 13.18 2.77
 0 0 9 9.55 2.62
 0 0 11 30.72 4.36
 0 1 2 656.98 4.15
 0 1 3 1277.6 7.54
 0 1 6 481.66 7.37
 0 1 7 779.6 10.25
 0 1 8 20.94 3.02
 0 1 9 264.68 7.01
 0 1 10 43.08 4.44
 0 2 2 2407.63 6.29
 0 2 3 1049.79 6.07
 0 2 4 278.4 4.03
 0 2 5 764.43 7.66
 0 2 9 321.32 7.38
 0 2 10 48.18 4.03
 0 3 3 188.64 2.17
 0 3 4 361.09 3.95
 0 3 5 4.52 1.22
 0 3 6 724.22 7.66
 0 3 7 99.07 3.5
 0 4 1 1391.09 4.46
 0 4 4 266.57 2.43
 0 4 5 464.78 4.46
 0 4 6 51.88 2.15
 0 4 7 107.13 3.22
 0 5 1 308.29 2.4
 1 -3 4 618.27 8.66
 1 -3 6 363.52 7.84
 1 -3 7 369.17 8.64
 1 -2 3 965.85 9
 1 -2 8 40.85 3.91
 1 -1 4 989.95 9.59
 1 -1 5 133.03 4.29
 1 0 4 367.99 5.7
 1 0 6 109.36 4.26
 1 1 5 128.22 3.64
 1 1 6 633.05 8.56
 -9 0 3 12.87 4.93
 -9 1 3 50.34 6.1
 -8 -5 0 14.45 5.13
 -8 -5 1 0.47 3.78
 -8 -5 2 19.61 5.09
 -8 -5 3 10.67 4.46
 -8 -5 4 32.36 5.76
 -8 -4 -2 19.14 5.08
 -8 -4 0 0.56 3.8
 -8 -4 2 23.47 5.22
 -8 -4 3 29.55 5.08
 -8 -4 4 137.81 7.64
 -8 -4 5 27 4.87
 -8 -4 6 31.72 5.8
 -8 -3 0 5.39 4.44
 -8 -3 1 16.22 4.12
 -8 -3 2 147.98 7.67
 -8 -3 3 63.55 6.16
 -8 -3 4 20.79 4.55
 -8 -3 5 38.62 5.16
 -8 -3 6 1.58 3.89
 -8 -3 7 2.81 4.94
 -8 -2 -2 26.73 4.66
 -8 -2 -1 5.02 3.61
 -8 -2 0 7.36 3.95
 -8 -2 2 75.5 6.17
 -8 -2 3 29.19 4.53
 -8 -2 4 57.39 5.73
 -8 -2 6 148.97 7.87
 -8 -2 7 4.93 3.59
 -8 -1 -3 44.21 5.94
 -8 -1 -2 7.82 3.73
 -8 -1 -1 5.82 3.63
 -8 -1 0 5.71 4.33
 -8 -1 1 17.33 4.78
 -8 -1 2 -1.16 3.05
 -8 -1 4 25.97 4.36
 -8 -1 5 34.11 5.03
 -8 -1 6 14.2 3.87
 -8 -1 7 33.85 4.74
 -8 -1 8 47.62 5.61
 -8 0 -3 51.82 5.54
 -8 0 -2 86.12 6.77
 -8 0 -1 32.72 5.28
 -8 0 1 17.29 4.19
 -8 0 2 14.73 3.63
 -8 0 3 308.24 9.08
 -8 0 4 13.11 4.27
 -8 0 5 30.32 4.42
 -8 0 6 14.1 3.86
 -8 0 7 35.51 5.1
 -8 0 8 4.64 3.39
 -8 1 -3 40.98 4.96
 -8 1 -2 8.62 4.46
 -8 1 -1 6.25 3.87
 -8 1 0 2.36 3.89
 -8 1 1 12.73 3.89
 -8 1 2 0.36 3.62
 -8 1 3 191.4 7.55
 -8 1 4 22.62 4.5
 -8 1 5 27.08 4.45
 -8 1 6 13.56 3.56
 -8 1 7 35.27 4.48
 -8 1 8 49.17 5.21
 -8 2 -2 28.97 4.61
 -8 2 -1 6.39 4.08
 -8 2 0 4.67 3.53
 -8 2 2 60.76 5.3
 -8 2 3 31.53 4.33
 -8 2 4 50.77 5.14
 -8 2 5 16.9 3.55
 -8 2 6 153.28 6.56
 -8 3 -2 5.03 3.86
 -8 3 -1 25.85 4.44
 -8 3 0 8 3.76
 -8 3 1 16.43 4.1
 -8 3 2 138.25 6.48
 -8 3 3 64.17 5.14
 -8 3 4 15.63 3.42
 -8 4 -2 23.01 4.29
 -8 4 -1 10.62 3.9
 -8 4 0 0.18 3.04
 -8 4 1 47.22 4.85
 -8 4 2 15.51 3.62
 -8 5 -1 11.5 4.12
 -7 -7 -2 49.76 5.42
 -7 -7 -1 2.7 4.11
 -7 -7 0 27.35 4.98
 -7 -7 1 23.05 4.36
 -7 -7 3 7.95 3.79
 -7 -7 4 19.44 4.44
 -7 -7 5 16.88 4.69
 -7 -6 -3 24.51 4.62
 -7 -6 -2 23.7 3.98
 -7 -6 -1 26.87 4.46
 -7 -6 0 51.97 5.07
 -7 -6 1 15.1 4.55
 -7 -6 2 18.51 4.19
 -7 -6 3 13.27 4.35
 -7 -6 4 26.71 4.78
 -7 -6 5 7.96 4
 -7 -6 6 8.55 4.43
 -7 -5 -4 20.67 4.02
 -7 -5 -3 7.66 3.5
 -7 -5 -2 8.36 4.11
 -7 -5 -1 3.21 3.87
 -7 -5 0 42.58 5.11
 -7 -5 2 59.88 5.69
 -7 -5 3 18.46 3.98
 -7 -5 4 106.83 6.73
 -7 -5 5 18.45 4.99
 -7 -5 7 164.55 8.51
 -7 -5 8 49.78 6.47
 -7 -4 -5 27.03 4.53
 -7 -4 -4 5.98 4.1
 -7 -4 -3 35.61 4.71
 -7 -4 -2 35.12 5.09
 -7 -4 -1 7.57 4.06
 -7 -4 0 12.67 3.64
 -7 -4 1 69.33 5.67
 -7 -4 3 13.19 3.89
 -7 -4 4 50.14 5.41
 -7 -4 5 83.16 6.29
 -7 -4 7 59.77 5.81
 -7 -4 8 54.16 6.04
 -7 -3 -5 7.8 4.23
 -7 -3 -4 27.55 4.31
 -7 -3 -3 68.18 5.99
 -7 -3 -2 40.84 4.56
 -7 -3 -1 108.9 6.33
 -7 -3 0 69 5.01
 -7 -3 1 14.96 3.53
 -7 -3 2 28.78 4.1
 -7 -3 3 65.33 5.44
 -7 -3 4 5.9 3.2
 -7 -3 5 26.99 4.93
 -7 -3 6 16.6 3.83
 -7 -3 7 18.96 4.52
 -7 -3 8 18.3 4.88
 -7 -3 9 195.31 8.45
 -7 -2 -4 28.39 4.2
 -7 -2 -3 7.69 3.48
 -7 -2 -1 2.58 3.47
 -7 -2 0 20.32 3.75
 -7 -2 1 50.66 5.03
 -7 -2 2 63.44 5.17
 -7 -2 3 278.47 8.56
 -7 -2 4 -0.82 3
 -7 -2 5 11.34 3.47
 -7 -2 6 40.76 4.59
 -7 -2 7 4.83 3.36
 -7 -2 9 27.34 4.62
 -7 -1 -2 20.28 4.35
 -7 -1 -1 7.18 3.09
 -7 -1 0 133.85 6.27
 -7 -1 1 15.13 3.66
 -7 -1 3 2.31 2.85
 -7 -1 4 26.87 3.9
 -7 -1 5 16.03 3.74
 -7 -1 6 11.25 4.07
 -7 -1 7 27.61 4.09
 -7 -1 8 140.45 7.22
 -7 -1 10 66.95 6.14
 -7 0 -1 6.85 3.05
 -7 0 0 28.28 4.13
 -7 0 2 3.37 3.12
 -7 0 3 130.08 6.15
 -7 0 4 4.48 3.38
 -7 0 5 6.5 2.93
 -7 0 6 1.64 3.13
 -7 0 7 14.84 4.1
 -7 0 8 4.58 3.53
 -7 0 10 26.53 4.21
 -7 1 -1 9.62 3.01
 -7 1 1 10.2 3.03
 -7 1 2 9.18 3.09
 -7 1 3 2.19 2.55
 -7 1 4 26.17 4.13
 -7 1 5 17.06 3.65
 -7 1 6 11.31 3.66
 -7 1 7 21.14 3.54
 -7 1 8 144.48 6.36
 -7 1 9 43.56 4.77
 -7 2 0 17.34 3.61
 -7 2 1 63.08 4.81
 -7 2 2 62.29 4.83
 -7 2 3 263.17 7.43
 -7 2 4 -1 2.35
 -7 2 5 12.53 3.5
 -7 2 6 40.08 4.25
 -7 2 7 3.84 2.62
 -7 3 1 21.12 3.45
 -7 3 2 35.36 4.15
 -7 3 4 10.38 3.15
 -7 3 5 20.56 3.44
 -7 4 0 9 3.26
 -7 4 2 183.85 6.24
 -7 4 3 16.81 2.97
 -7 4 4 50.7 4.07
 -7 5 0 51.02 4.51
 -7 5 1 37.28 4.16
 -7 5 2 48.29 4.05
 -6 -9 1 14.55 4.07
 -6 -9 3 10.85 3.54
 -6 -9 4 0.4 4.11
 -6 -8 -1 60.03 5.15
 -6 -8 0 48.22 4.99
 -6 -8 1 0.7 3.17
 -6 -8 2 16.39 3.93
 -6 -8 4 52.27 5.44
 -6 -8 5 12.28 3.96
 -6 -8 6 31.75 5.03
 -6 -7 -3 36.99 4.47
 -6 -7 -1 1.17 3.32
 -6 -7 0 8.03 3.24
 -6 -7 1 10.66 4.02
 -6 -7 2 3.7 3.9
 -6 -7 3 23.95 4.39
 -6 -7 4 56.31 5.09
 -6 -7 6 18.03 4.08
 -6 -7 7 36.05 5.83
 -6 -6 -5 14.47 3.78
 -6 -6 -4 5.33 3.46
 -6 -6 -2 7.16 3.56
 -6 -6 -1 4.64 2.84
 -6 -6 0 1.39 3.26
 -6 -6 1 46.18 4.85
 -6 -6 2 76.62 5.44
 -6 -6 3 3.55 3.37
 -6 -6 5 58.09 5.68
 -6 -6 7 15.48 4.18
 -6 -6 8 126.42 6.95
 -6 -5 -7 25.88 3.97
 -6 -5 -6 26.28 4.36
 -6 -5 -5 9.23 3.39
 -6 -5 -4 8.12 3.18
 -6 -5 -3 118.42 6.32
 -6 -5 -2 16.59 3.92
 -6 -5 -1 10.94 3.05
 -6 -5 0 18.39 3.25
 -6 -5 1 38.77 4.53
 -6 -5 2 44.6 4.65
 -6 -5 4 1.39 2.87
 -6 -5 5 18.71 4.23
 -6 -5 6 11.48 4.02
 -6 -5 8 24.42 4.66
 -6 -5 9 34.74 5.87
 -6 -4 -7 16.62 3.56
 -6 -4 -6 27.95 4.31
 -6 -4 -5 38.26 4.45
 -6 -4 -4 76.63 5.17
 -6 -4 -3 75.55 5.43
 -6 -4 -2 8.69 3
 -6 -4 -1 160.41 6.61
 -6 -4 0 6.85 2.75
 -6 -4 1 -0.47 3.01
 -6 -4 2 17.36 3.72
 -6 -4 4 206.07 7.53
 -6 -4 5 32.14 3.9
 -6 -4 7 16.34 4.28
 -6 -4 8 1.77 3.27
 -6 -4 9 113.83 7.27
 -6 -4 10 23.03 4.71
 -6 -3 -3 29.09 4.14
 -6 -3 -2 78.92 5.23
 -6 -3 -1 15.15 3.57
 -6 -3 0 78.2 4.56
 -6 -3 2 165.05 6.41
 -6 -3 3 45.62 3.96
 -6 -3 4 6.12 2.64
 -6 -3 5 15.44 3.11
 -6 -3 6 19.75 3.51
 -6 -3 7 88.87 5.87
 -6 -3 8 16.45 4.02
 -6 -3 9 14.71 4
 -6 -3 10 34.85 4.9
 -6 -2 -2 69.85 4.45
 -6 -2 0 61.19 4.56
 -6 -2 2 80.56 4.73
 -6 -2 3 16.72 3.02
 -6 -2 4 9.55 2.68
 -6 -2 6 22 3.39
 -6 -2 7 47 5.05
 -6 -2 8 39.35 4.4
 -6 -2 9 21.68 4.3
 -6 -2 10 89.45 6.6
 -6 -1 -1 16.43 2.79
 -6 -1 1 127.76 5.51
 -6 -1 2 51.05 4.27
 -6 -1 3 166.23 5.9
 -6 -1 4 7.18 3.03
 -6 -1 5 47.43 4.36
 -6 -1 6 23.64 3.94
 -6 -1 8 4.68 3.3
 -6 -1 9 64.05 5.13
 -6 -1 10 9.22 3.79
 -6 0 0 6.01 2.47
 -6 0 1 42.46 3.92
 -6 0 3 24.74 3.46
 -6 0 4 89.8 4.86
 -6 0 5 34.36 3.68
 -6 0 7 12.52 2.94
 -6 0 9 -2.61 2.98
 -6 0 10 -0.15 3.2
 -6 1 0 46.78 3.63
 -6 1 1 129.85 5.04
 -6 1 2 41.76 3.79
 -6 1 3 170.46 5.69
 -6 1 4 9.03 2.88
 -6 1 5 55.23 4.16
 -6 1 6 25.3 3.56
 -6 1 7 3.76 2.99
 -6 1 8 5.01 3.16
 -6 1 9 66.24 4.81
 -6 2 2 87.07 4.38
 -6 2 3 19.7 2.74
 -6 2 4 9.85 2.33
 -6 2 5 28.8 3.36
 -6 2 7 46.81 3.82
 -6 2 8 45.37 4.02
 -6 3 2 163.49 5.58
 -6 3 3 45.2 3.49
 -6 3 4 9.78 2.61
 -6 3 5 15.97 2.49
 -6 3 6 19.35 2.99
 -6 4 1 -2.01 1.74
 -6 4 2 14.02 2.48
 -6 4 3 43.06 3.26
 -6 4 4 218.98 5.64
 -6 4 5 28.9 3.05
 -6 5 1 40.67 3.49
 -6 5 2 50.36 3.55
 -6 5 3 14.08 2.32
 -5 -10 4 6.65 3.89
 -5 -9 1 12.94 3.06
 -5 -9 2 40.89 4.61
 -5 -9 3 22.3 4.17
 -5 -9 5 2.56 3.3
 -5 -9 6 22.73 4.43
 -5 -8 -2 7.02 2.98
 -5 -8 -1 50.52 4.43
 -5 -8 0 19.6 3.24
 -5 -8 2 4.54 3.35
 -5 -8 3 56.01 5.2
 -5 -8 5 13.18 3.74
 -5 -8 6 55.22 5.39
 -5 -8 7 85.03 6.81
 -5 -7 -4 6.32 2.79
 -5 -7 -3 60.87 4.43
 -5 -7 -2 8.34 2.69
 -5 -7 0 184.36 6.67
 -5 -7 1 159.67 6.29
 -5 -7 2 83.19 5.31
 -5 -7 3 13.19 3.25
 -5 -7 5 100.54 6.08
 -5 -7 6 17.19 4.02
 -5 -7 7 6.41 4.3
 -5 -7 8 12.59 4.11
 -5 -6 -6 76.59 4.96
 -5 -6 -5 55.57 4.5
 -5 -6 -4 31.42 3.81
 -5 -6 -2 60.26 4.45
 -5 -6 -1 109.79 5.33
 -5 -6 0 12.76 2.91
 -5 -6 1 22.16 3.71
 -5 -6 2 -0.14 2.76
 -5 -6 5 22.34 3.77
 -5 -6 7 42.82 4.67
 -5 -6 8 42.9 4.88
 -5 -5 -7 60.77 4.68
 -5 -5 -6 4.37 2.78
 -5 -5 -5 19.29 3.13
 -5 -5 -4 88.57 5.12
 -5 -5 -3 120.75 5.55
 -5 -5 -2 67.36 4.5
 -5 -5 -1 47.43 4.01
 -5 -5 0 17.99 3.22
 -5 -5 1 121.73 5.53
 -5 -5 3 127.62 5.84
 -5 -5 4 53.79 4.4
 -5 -5 5 25.94 3.55
 -5 -5 6 38.44 4.63
 -5 -5 7 45.59 4.41
 -5 -5 9 55.83 5.98
 -5 -4 -4 34.63 3.84
 -5 -4 -3 12.08 2.64
 -5 -4 -2 9.34 2.66
 -5 -4 -1 18 2.98
 -5 -4 0 13.08 2.78
 -5 -4 1 68.92 3.87
 -5 -4 2 186.99 5.92
 -5 -4 3 47.91 3.59
 -5 -4 4 65.32 4.29
 -5 -4 5 27.91 3.57
 -5 -4 6 73.97 5.09
 -5 -4 8 73.55 5.61
 -5 -4 9 3.32 3.34
 -5 -3 -2 134.53 5.18
 -5 -3 0 119.23 4.82
 -5 -3 1 180.05 5.72
 -5 -3 2 27.42 2.98
 -5 -3 3 134.72 5.2
 -5 -3 6 44.49 4.27
 -5 -3 7 49.4 4.63
 -5 -3 9 61.85 5.66
 -5 -2 -1 289.49 6.66
 -5 -2 0 29.39 3.19
 -5 -2 1 38.05 2.96
 -5 -2 2 316.91 6.99
 -5 -2 3 144.85 4.99
 -5 -2 4 114.2 4.99
 -5 -2 5 119.52 5.26
 -5 -2 6 17.93 3.01
 -5 -2 8 23.48 3.89
 -5 -2 9 34.61 4.15
 -5 -1 0 111.54 4.32
 -5 -1 2 102.08 4.11
 -5 -1 3 232.92 6.07
 -5 -1 4 59.95 3.92
 -5 -1 5 35.45 3.53
 -5 -1 6 43.31 3.68
 -5 -1 7 65.73 4.5
 -5 -1 8 514.87 10.15
 -5 -1 9 42.23 4.27
 -5 0 1 740.22 10.09
 -5 0 2 9.27 2.02
 -5 0 3 126.3 4.39
 -5 0 5 94.77 4.24
 -5 0 6 3.45 2.5
 -5 0 7 6.38 2.9
 -5 0 9 141.55 5.98
 -5 1 5 33.81 3.19
 -5 1 6 38.1 3.39
 -5 1 7 61.08 4.01
 -5 1 8 537.4 9.47
 -5 1 9 43.79 4.16
 -5 2 6 17.91 2.35
 -5 2 7 222.54 5.87
 -5 2 8 15.27 2.83
 -5 3 7 47.25 3.02
 -5 4 4 60.73 3.03
 -5 4 5 30.53 2.34
 -4 -9 3 13.69 3.17
 -4 -9 4 7.09 3.55
 -4 -9 5 66.5 5.59
 -4 -8 -2 42.12 3.6
 -4 -8 0 128.52 5.18
 -4 -8 2 86.69 5.04
 -4 -8 3 116.18 5.68
 -4 -8 4 19.32 3.4
 -4 -8 5 5.15 3.03
 -4 -8 6 28.38 4.56
 -4 -7 -4 154.62 5.12
 -4 -7 -3 95.47 4.34
 -4 -7 0 40.03 3.62
 -4 -7 3 19.51 3.12
 -4 -7 4 89.08 5.34
 -4 -7 5 55.81 4.97
 -4 -7 6 100.9 5.77
 -4 -7 7 45.34 5.3
 -4 -6 -6 80.94 4.41
 -4 -6 -5 9.53 2.79
 -4 -6 -4 63.07 3.9
 -4 -6 -3 170.54 5.3
 -4 -6 -2 22.98 2.94
 -4 -6 -1 40.16 3.42
 -4 -6 2 51.34 3.91
 -4 -6 3 58.64 4.12
 -4 -6 4 14.13 3.06
 -4 -6 6 151.35 6.54
 -4 -6 7 119.3 6.5
 -4 -5 -5 26.9 3.27
 -4 -5 -4 64.11 3.93
 -4 -5 -3 87.05 4.19
 -4 -5 -2 195.72 5.58
 -4 -5 -1 398.65 7.67
 -4 -5 1 56.69 3.73
 -4 -5 2 71.1 4.08
 -4 -5 3 126.25 4.8
 -4 -5 4 113.62 4.9
 -4 -5 5 165.11 5.89
 -4 -5 8 26.87 3.99
 -4 -4 -3 14.29 2.59
 -4 -4 -2 50.59 3.46
 -4 -4 2 110.55 4.26
 -4 -4 4 370.74 7.77
 -4 -4 5 106.08 5.07
 -4 -4 6 73.86 4.32
 -4 -4 8 50.38 4.62
 -4 -3 5 90.36 4.46
 -4 -3 6 167.18 5.95
 -4 -3 7 226.83 6.76
 -4 -2 1 351.35 6.59
 -4 -2 5 292.6 6.65
 -4 -2 6 106.52 4.88
 -4 -2 7 145.46 5.64
 -4 -2 8 87.79 5.25
 -4 -1 1 58.71 3.02
 -4 -1 2 63.63 3.14
 -4 -1 3 152.79 4.49
 -4 -1 6 11.85 2.24
 -4 -1 7 89.71 4.4
 -4 -1 8 211.44 6.56
 -4 0 1 6.71 1.67
 -4 0 2 37.26 2.77
 -4 0 3 164.47 4.47
 -4 0 4 11.55 1.93
 -4 0 7 300.04 6.86
 -4 0 8 275.65 6.91
 -4 1 2 60.97 2.72
 -4 1 4 128.07 4.09
 -4 1 5 425.13 6.99
 -4 2 2 107.63 3.53
 -4 2 3 282.9 5.13
 -4 2 4 747.58 8.28
 -4 2 5 269.39 5.3
 -4 3 2 0.56 1.35
 -4 3 4 19.05 1.94
 -4 3 5 83.14 2.97
 -4 3 6 161.1 3.99
 -4 3 7 245.01 5.12
 -4 4 2 115.37 3.22
 -4 4 3 74.45 2.62
 -4 4 4 356.77 5.01
 -4 4 5 95.92 2.79
 -4 5 2 67.99 2.58
 -3 -9 2 10.53 2.88
 -3 -9 3 18.99 3.42
 -3 -8 0 14.19 2.2
 -3 -8 1 37.53 3.36
 -3 -8 2 61.97 3.88
 -3 -8 4 21.49 3.24
 -3 -7 2 32.2 3.25
 -3 -7 4 6.48 2.41
 -3 -7 5 95.46 5.34
 -3 -6 -6 149.79 4.58
 -3 -6 4 156.1 5.24
 -3 -6 5 47.86 4.14
 -3 -6 6 18.24 3.45
 -3 -5 -3 92.35 3.58
 -3 -5 -2 16.08 1.94
 -3 -5 1 16.12 2.15
 -3 -5 4 103.29 4.63
 -3 -5 5 32.26 3.49
 -3 -5 6 145.93 5.63
 -3 -5 7 38.41 4.49
 -3 -4 -2 6.91 1.75
 -3 -4 -1 185.56 4.52
 -3 -4 0 197.39 4.61
 -3 -4 2 657.09 8.62
 -3 -4 5 135.84 4.75
 -3 -4 6 196.43 6.07
 -3 -3 -1 104.44 3.15
 -3 -3 0 139.22 3.88
 -3 -3 2 5.66 1.5
 -3 -3 3 308.39 6.02
 -3 -3 6 67.03 3.84
 -3 -3 7 64.82 4.05
 -3 -2 4 315.71 6.04
 -3 -2 7 19.08 2.57
 -3 -1 2 6.52 1.46
 -3 -1 3 525.79 6.9
 -3 -1 4 37.39 2.44
 -3 -1 7 23.3 2.88
 -3 0 1 2.13 1.36
 -3 0 2 3114.89 14.74
 -3 0 3 54.33 2.52
 -3 0 5 100.91 3.56
 -3 0 6 126.5 4.3
 -3 1 3 531.74 6.13
 -3 1 4 38.78 2.2
 -3 1 5 824.1 8.5
 -3 1 6 10.26 1.72
 -3 2 2 288.44 4.29
 -3 2 3 79.66 2.42
 -3 2 5 620.8 6.94
 -3 2 6 59.62 2.73
 -3 3 2 7.45 1.24
 -3 3 3 311.35 4.28
 -3 3 4 1105.71 7.7
 -3 3 5 219.76 3.78
 -3 3 6 66.14 2.47
 -3 4 2 657.09 5.72
 -3 4 3 147.67 2.7
 -3 4 4 159.03 2.63
 -3 5 2 71.49 1.94
 -3 5 3 21.6 1.02
 -2 -8 0 162.55 4.21
 -2 -8 2 31.9 3.02
 -2 -7 -1 123.05 3.45
 -2 -7 0 13.1 1.81
 -2 -7 3 83.44 3.97
 -2 -7 4 111.42 4.92
 -2 -6 -5 153.37 3.6
 -2 -6 -4 124 3.16
 -2 -6 -3 118.51 3.1
 -2 -6 -2 19.88 1.83
 -2 -6 -1 466.1 6.32
 -2 -6 0 156.62 3.96
 -2 -6 1 79.04 3.2
 -2 -6 2 86.27 3.55
 -2 -6 4 31.84 3.01
 -2 -6 5 7.27 2.52
 -2 -5 -4 78.67 2.78
 -2 -5 -3 49.79 2.34
 -2 -5 -2 94.27 2.89
 -2 -5 -1 574.5 6.56
 -2 -5 0 37.31 2.26
 -2 -5 1 68.54 2.94
 -2 -5 2 147.75 4.12
 -2 -5 3 157.43 4.63
 -2 -5 5 4.68 1.99
 -2 -4 2 154.5 3.94
 -2 -4 3 107.92 3.71
 -2 -4 6 3.91 1.88
 -2 -3 1 543.31 6.19
 -2 -2 0 935.08 7.35
 -2 -2 1 265.89 4.17
 -2 -2 2 1790.29 10.91
 -2 -2 5 699 8.57
 -2 -1 2 230.07 3.78
 -2 -1 4 90.94 3.11
 -2 -1 5 6.5 1.45
 -2 -1 6 337.85 6.35
 -2 0 1 344.38 4.05
 -2 0 2 19.9 1.55
 -2 0 3 418.74 5.06
 -2 0 4 39.98 1.98
 -2 0 5 39.75 2.24
 -2 0 6 94.03 3.53
 -2 1 2 230.86 3.21
 -2 1 5 5.44 1.26
 -2 2 3 1011.03 6.18
 -2 2 4 121.89 2.58
 -2 2 5 728.24 6.63
 -2 3 2 137.62 2.09
 -2 3 3 180.37 2.34
 -2 3 4 45.54 1.46
 -2 4 2 155.39 1.87
 -1 -7 -2 18.73 1.18
 -1 -6 -4 0.89 0.64
 -1 -6 -1 403.13 4.68
 -1 -6 0 3.43 1.23
 -1 -6 1 293.47 4.95
 -1 -6 2 160.81 4.15
 -1 -5 2 96.19 3.13
 -1 -5 3 67.62 3.07
 -1 -4 -2 1053.61 6.45
 -1 -4 -1 904.64 6.16
 -1 -4 0 381.76 4.37
 -1 -4 1 821.72 7.02
 -1 -4 4 99.29 3.53
 -1 -3 -1 44.37 1.58
 -1 -3 0 258.92 3.42
 -1 -3 1 1301.64 7.98
 -1 -2 0 5092.81 12.62
 -1 -2 1 1149.77 6.78
 -1 -2 2 1734.98 9.44
 -1 -2 3 599.4 6.32
 -1 -2 4 988.25 8.99
 -1 -1 0 4303.38 10.16
 -1 -1 1 670.3 4.6
 -1 -1 3 2477.83 11.44
 -1 -1 4 129.49 3.31
 -1 0 1 60.98 1.5
 -1 0 2 18.8 1.18
 -1 0 3 9803.19 20.36
 -1 1 2 446.1 3.23
 -1 1 3 2379.27 8.9
 -1 2 2 1711.25 4.58
 0 -4 -1 1308.79 5.07
 0 -3 -1 1390.94 4.39
 0 -3 0 1.23 0.6
 0 -2 0 4727.89 8.8
 -5 -7 -6 1.44 3.47
 -5 -7 -5 8.08 3.76
 -5 -6 -7 28.42 5.27
 -5 -6 -6 84.55 6.47
 -5 -6 -5 53.2 5.57
 -5 -6 -4 29.19 4.18
 -5 -5 -6 4.67 3.42
 -5 -5 -5 21.38 4.49
 -5 -5 -4 94.71 5.81
 -5 -4 -8 39.77 5.73
 -5 -4 -7 70.35 6.07
 -5 -4 -6 178.21 8.08
 -5 -4 -5 14 3.48
 -5 -4 -3 11.61 2.51
 -5 -3 -8 37.43 5.11
 -5 -3 -7 -3.22 3.08
 -5 -3 -6 52.88 5.25
 -5 -3 -5 10.05 3.14
 -5 -3 -4 19.05 3.32
 -5 -2 -9 20.39 4.41
 -5 -2 -8 192.01 8.46
 -5 -2 -7 63.71 5.63
 -5 -2 -5 5.86 2.76
 -5 -2 -4 48.05 4.31
 -5 -1 -9 51.83 5.85
 -5 -1 -7 98.62 6.35
 -5 -1 -6 0.98 2.83
 -5 -1 -5 58.7 4.25
 -5 0 -9 31 4.26
 -5 0 -8 122.23 6.55
 -5 0 -7 44.53 4.44
 -5 0 -6 7.07 2.64
 -4 -9 -5 5.52 3.28
 -4 -8 -7 22.46 4.44
 -4 -8 -6 0.91 3.31
 -4 -8 -5 75.06 5.9
 -4 -8 -4 9.23 3.29
 -4 -8 -3 1.84 2.32
 -4 -7 -7 22.19 4.27
 -4 -7 -6 24.21 3.97
 -4 -7 -5 6.56 3.86
 -4 -7 -3 92.5 5.01
 -4 -6 -7 150.35 7.59
 -4 -6 -6 70.66 5.14
 -4 -6 -5 15.97 3.86
 -4 -6 -4 69.84 5.05
 -4 -6 -3 170.99 6.28
 -4 -6 -2 25.58 3.02
 -4 -5 -8 1.86 3.39
 -4 -5 -7 30.5 4.4
 -4 -5 -6 84.98 5.9
 -4 -5 -5 22.86 3.48
 -4 -5 -4 71.42 4.63
 -4 -5 -3 89.85 4.89
 -4 -5 -2 193.01 6.26
 -4 -4 -9 54.05 5.93
 -4 -4 -8 208.65 8.22
 -4 -4 -6 31.39 3.88
 -4 -4 -5 13.67 3.05
 -4 -4 -4 9.83 2.97
 -4 -4 -3 13.3 2.97
 -4 -4 -2 42.82 3.3
 -4 -3 -8 5.24 3.36
 -4 -3 -6 27.95 3.57
 -4 -3 -5 54.14 4.3
 -4 -3 -4 201.3 6.56
 -4 -3 -2 263.51 6.46
 -4 -2 -10 16.25 4.26
 -4 -2 -9 106.53 6.62
 -4 -2 -7 32.04 3.88
 -4 -2 -6 32.48 4.08
 -4 -2 -5 -1.22 1.96
 -4 -2 -4 17.6 2.99
 -4 -2 -3 24.01 2.74
 -4 -1 -10 10.31 4.24
 -4 -1 -9 36.74 4.95
 -4 -1 -8 23.1 3.72
 -4 -1 -7 52.28 4.55
 -4 -1 -6 93.75 4.8
 -4 -1 -3 12.39 2.32
 -4 0 -10 3.61 3.16
 -4 0 -9 88.41 5.72
 -4 0 -8 164.51 6.87
 -4 0 -6 23.15 3.37
 -4 1 -10 7.58 3.25
 -4 1 -9 32.26 4.02
 -4 1 -8 26.76 3.81
 -4 1 -7 51.19 4.23
 -4 1 -6 91.56 4.8
 -4 1 -5 5.43 2.45
 -4 1 -4 156.03 4.94
 -4 2 -9 117.77 5.72
 -4 2 -7 29.9 3.43
 -4 2 -6 34.29 3.43
 -3 -9 -7 7.61 3.92
 -3 -9 -6 13.38 3.93
 -3 -9 -5 23.27 3.9
 -3 -9 -4 76.96 4.98
 -3 -9 -3 74.15 4.49
 -3 -8 -8 25.62 4.39
 -3 -8 -7 97.77 6.19
 -3 -8 -6 0.98 2.83
 -3 -8 -5 16.26 3.67
 -3 -8 -4 57.52 4.28
 -3 -8 -3 49.19 4.18
 -3 -7 -8 33.23 4.64
 -3 -7 -7 104.76 6.22
 -3 -7 -6 50.23 4.67
 -3 -7 -5 27.9 3.65
 -3 -7 -4 45.14 4.25
 -3 -7 -3 46.25 3.52
 -3 -6 -9 46.68 5.75
 -3 -6 -8 20.37 4.01
 -3 -6 -7 8.12 3.32
 -3 -6 -6 143.47 6.65
 -3 -6 -5 5.73 2.87
 -3 -6 -4 17.79 2.88
 -3 -6 -3 14.71 2.58
 -3 -5 -10 -0.18 3.62
 -3 -5 -9 21.57 4.16
 -3 -5 -8 32.53 4.46
 -3 -5 -6 39.65 4.47
 -3 -5 -4 188.05 5.86
 -3 -5 -3 87.5 4.16
 -3 -4 -10 0.85 3.65
 -3 -4 -9 3.42 3.25
 -3 -4 -8 12.94 3.53
 -3 -4 -7 48.49 4.12
 -3 -4 -6 67.81 4.67
 -3 -4 -5 13.56 2.86
 -3 -4 -4 110.05 4.8
 -3 -3 -11 21.95 4.75
 -3 -3 -10 3.48 3.44
 -3 -3 -9 15.08 3.96
 -3 -3 -8 33.83 4.05
 -3 -3 -7 189.76 6.91
 -3 -3 -2 311.13 6.17
 -3 -2 -11 44.28 5.34
 -3 -2 -10 6.69 3.83
 -3 -2 -9 71.73 5.07
 -3 -2 -8 19.18 3.49
 -3 -2 -7 39.04 3.6
 -3 -2 -6 -1.13 2.39
 -3 -2 -3 4.23 1.74
 -3 -1 -11 9.1 3.86
 -3 -1 -10 22.96 4.45
 -3 -1 -9 -1.05 2.71
 -3 -1 -8 51.41 4.61
 -3 -1 -7 17.06 2.98
 -3 -1 -6 70.75 4.05
 -3 -1 -5 566.06 9.23
 -3 -1 -3 3.78 1.56
 -3 0 -11 180.39 7.54
 -3 0 -10 1.22 3.35
 -3 0 -9 6.69 2.91
 -3 0 -8 117.36 5.63
 -3 0 -7 5.29 2.68
 -3 0 -6 69.18 3.99
 -3 0 -3 24.16 2.49
 -3 0 -2 268 5.28
 -3 1 -11 14.02 3.63
 -3 1 -10 25.69 4.13
 -3 1 -9 -2.5 2.41
 -3 1 -8 55.2 4.14
 -3 1 -7 12.92 2.45
 -3 1 -6 69.78 3.62
 -3 1 -4 195.55 4.93
 -3 1 -3 2.11 1.66
 -3 2 -10 2.99 2.6
 -3 2 -8 16.51 2.88
 -3 2 -7 39.15 3.32
 -3 3 -8 37.65 3.4
 -3 3 -5 64.62 2.8
 -2 -9 -8 10.06 3.58
 -2 -9 -7 56.54 5.13
 -2 -9 -6 88.59 5.27
 -2 -9 -5 0.92 2.94
 -2 -9 -3 10.16 2.61
 -2 -9 -2 14.12 2.5
 -2 -8 -8 18.83 3.94
 -2 -8 -7 22.18 3.79
 -2 -8 -6 45.3 4.64
 -2 -8 -4 2.93 2.66
 -2 -8 -3 81.34 4.18
 -2 -8 -2 15.64 2.45
 -2 -7 -8 7.63 3.45
 -2 -7 -7 30.65 4.2
 -2 -7 -6 5.08 2.7
 -2 -7 -5 4.14 2.44
 -2 -7 -4 3.66 2.38
 -2 -7 -3 52.84 3.53
 -2 -7 -1 119.8 3.87
 -2 -6 -10 43.69 5.46
 -2 -6 -9 -2.82 3.19
 -2 -6 -8 30.88 4.48
 -2 -6 -7 52.77 4.31
 -2 -6 -6 20.45 3.16
 -2 -6 -4 131.53 4.73
 -2 -6 -2 16.89 2.16
 -2 -6 0 155.01 3.72
 -2 -5 -10 7.67 3.61
 -2 -5 -9 0.24 3.34
 -2 -5 -8 42.6 4.74
 -2 -5 -7 38.35 3.83
 -2 -5 -6 13.93 2.71
 -2 -5 -2 102.49 3.68
 -2 -4 -11 19.35 4.36
 -2 -4 -10 33.65 4.7
 -2 -4 -7 39.96 3.95
 -2 -4 -5 -1.02 1.63
 -2 -4 -3 14.07 2.21
 -2 -4 -2 187 4.48
 -2 -3 -11 20.09 4.26
 -2 -3 -10 16.6 3.81
 -2 -3 -9 -0.83 3.13
 -2 -3 -8 73.6 4.6
 -2 -3 -6 202 5.97
 -2 -3 -3 476.58 7.17
 -2 -3 -1 524.32 6.3
 -2 -3 0 504.63 5.92
 -2 -2 -12 53.98 5.27
 -2 -2 -11 74.98 6.04
 -2 -2 -10 97.05 5.91
 -2 -2 -9 29.27 4.14
 -2 -2 -7 175.39 5.83
 -2 -2 -6 33.66 2.84
 -2 -2 -1 42.16 2
 -2 -2 0 917.78 7.45
 -2 -1 -12 25.61 4.23
 -2 -1 -10 5.46 2.92
 -2 -1 -9 10.64 2.86
 -2 -1 -8 2.64 2.18
 -2 -1 -7 69.46 3.79
 -2 -1 -4 158.54 4.08
 -2 -1 -3 237.4 4.69
 -2 -1 -1 447.84 5.38
 -2 0 -12 51.55 5.27
 -2 0 -10 -0.95 2.64
 -2 0 -9 18.83 3.08
 -2 0 -8 11.28 2.67
 -2 0 -7 143.72 4.84
 -2 0 -5 1.57 1.45
 -2 0 -4 612.12 7.46
 -2 0 -2 433.31 5.4
 -2 0 -1 1876.98 10.36
 -2 1 -11 78.57 5.25
 -2 1 -10 -0.19 2.89
 -2 1 -9 14.51 2.9
 -2 1 -8 -0.04 2.36
 -2 1 -7 68.28 3.53
 -2 1 -5 256.7 5.34
 -2 1 -4 165.73 3.95
 -2 1 -3 229.94 4.23
 -2 1 -2 1057.55 7.91
 -2 2 -10 86.93 4.81
 -2 2 -9 24.07 2.93
 -2 2 -8 203.43 5.5
 -2 2 -6 27.24 2.34
 -2 2 -4 31.63 2.08
 -2 2 -3 436.95 5.29
 -2 3 -9 0.97 1.75
 -2 3 -8 79.66 3.7
 -2 3 -6 191.96 4.35
 -2 3 -5 117.02 3.28
 -2 3 -4 145.76 3.31
 -2 4 -7 30.98 2.22
 -1 -9 -8 7.21 3.71
 -1 -9 -7 17.89 3.71
 -1 -9 -4 50.39 3.65
 -1 -9 -3 65.19 3.55
 -1 -8 -9 4.13 3.33
 -1 -8 -8 22.9 4.05
 -1 -8 -7 7.21 3.01
 -1 -8 -6 68.53 4.63
 -1 -8 -5 47.45 3.89
 -1 -8 -4 55.8 3.76
 -1 -8 -3 27.41 2.72
 -1 -7 -10 18 4.46
 -1 -7 -9 4.73 3.33
 -1 -7 -8 13.04 3.69
 -1 -7 -7 5.49 2.77
 -1 -7 -6 112.33 5.01
 -1 -7 -5 260.48 6.79
 -1 -7 -2 19.72 2.27
 -1 -7 -1 30.39 2.03
 -1 -7 0 103.07 2.6
 -1 -6 -10 50.59 5.45
 -1 -6 -9 7.42 3.26
 -1 -6 -6 23.15 3.14
 -1 -6 -5 31.94 3.29
 -1 -6 -3 14.24 2.12
 -1 -6 -2 3.4 1.51
 -1 -6 -1 398.66 5.53
 -1 -6 0 3.29 0.96
 -1 -5 -11 22.08 4.23
 -1 -5 -10 8.84 3.9
 -1 -5 -9 80.24 5.66
 -1 -5 -8 35.57 3.99
 -1 -5 -7 18.41 2.88
 -1 -5 -6 36.54 3.69
 -1 -5 -5 48.26 3.44
 -1 -5 -2 108.85 3.15
 -1 -4 -11 128.43 7.17
 -1 -4 -10 22.84 3.86
 -1 -4 -9 0.64 2.64
 -1 -4 -8 17.92 3.09
 -1 -4 -7 62.4 3.85
 -1 -4 -6 234.99 6.04
 -1 -4 -4 8.14 2.03
 -1 -4 -1 912.04 7.2
 -1 -4 0 406.64 4.4
 -1 -3 -12 10.56 4.55
 -1 -3 -9 67.28 4.41
 -1 -3 -8 34.81 3.46
 -1 -3 -7 362.91 7.85
 -1 -3 -4 618.86 7.87
 -1 -3 -2 259.68 4.31
 -1 -3 -1 45.17 2.03
 -1 -3 0 272.88 3.38
 -1 -2 -12 14 4.37
 -1 -2 -11 33.93 4.74
 -1 -2 -10 84.87 5.04
 -1 -2 -9 39.89 4.1
 -1 -2 -8 40.52 3.71
 -1 -2 -7 83.3 4.17
 -1 -2 -3 1016.74 8.47
 -1 -2 -2 761.49 6.57
 -1 -2 -1 960.67 6.36
 -1 -2 0 5084.42 12.55
 -1 -1 -12 130.45 6.62
 -1 -1 -11 20.14 3.59
 -1 -1 -10 4.63 2.73
 -1 -1 -9 10.47 2.7
 -1 -1 -8 31.18 3.37
 -1 -1 -7 58.78 3.36
 -1 -1 -5 135.77 3.82
 -1 -1 -3 510.69 5.75
 -1 -1 -2 1327.76 7.83
 -1 -1 0 4235.76 10.65
 -1 0 -12 7.19 3.67
 -1 0 -10 151.68 6.12
 -1 0 -9 43.11 3.4
 -1 0 -8 27.27 2.85
 -1 0 -6 103.06 3.61
 -1 0 -5 754.18 8.17
 -1 0 -4 341.69 4.96
 -1 0 -3 1.43 1.12
 -1 0 -2 31.11 1.63
 -1 0 -1 2903.6 9.18
 -1 1 -12 134.21 6.03
 -1 1 -11 28.87 3.67
 -1 1 -10 3.42 2.38
 -1 1 -9 13.64 2.72
 -1 1 -8 31.58 2.96
 -1 1 -6 622.45 7.81
 -1 1 -5 142.41 3.56
 -1 1 -3 501.63 4.89
 -1 1 -2 1267.18 6.5
 -1 1 -1 1394.91 5.96
 -1 2 -9 34.34 3.02
 -1 2 -8 32.92 2.74
 -1 2 -5 436.38 5.51
 -1 2 -4 184.75 3.23
 -1 2 -3 961.04 6.06
 -1 2 -2 735.16 4.52
 -1 3 -10 17.4 2.56
 -1 3 -7 356.95 5.82
 -1 3 -6 376.58 5.3
 -1 3 -5 93.59 2.51
 -1 3 -4 600.76 5.12
 -1 4 -8 13.91 1.87
 -1 4 -5 234.36 3.25
 0 -9 -9 24.18 4.04
 0 -9 -8 46.13 4.66
 0 -9 -7 49.56 4.6
 0 -9 -6 7.78 2.8
 0 -9 -5 35.95 3.43
 0 -9 -4 -1.31 1.65
 0 -9 -3 51.33 3.06
 0 -8 -9 47.23 5.02
 0 -8 -7 178.57 6.75
 0 -8 -6 20.31 3.2
 0 -8 -5 60.35 3.84
 0 -8 -4 10.74 2.2
 0 -8 -2 113.19 3.32
 0 -8 -1 73.46 2.31
 0 -7 -10 1.45 3.16
 0 -7 -9 129.13 6.16
 0 -7 -8 121.19 6.26
 0 -7 -7 43.16 4.15
 0 -7 -6 9.17 2.76
 0 -7 -5 134.18 4.97
 0 -7 -4 209.88 5.37
 0 -7 -3 13.32 2.14
 0 -7 -1 126.48 2.91
 0 -6 -11 132.66 7.44
 0 -6 -9 2.65 3.06
 0 -6 -7 49.17 4.19
 0 -6 -6 65.85 4
 0 -6 -5 5.06 2.27
 0 -6 -3 55.12 2.95
 0 -6 -2 419.42 5.8
 0 -6 -1 232.18 3.68
 0 -6 0 838.94 5.43
 0 -5 -11 31.65 4.56
 0 -5 -10 1.54 3.75
 0 -5 -9 37.59 4.13
 0 -5 -7 229.1 6.53
 0 -5 -4 93.8 3.52
 0 -5 -3 82.6 3.17
 0 -5 -2 148.57 3.44
 0 -4 -12 52.13 5.81
 0 -4 -11 21.46 4.55
 0 -4 -10 101.24 6.22
 0 -4 -8 108.89 5.36
 0 -4 -7 113.98 4.69
 0 -4 -6 58.08 3.56
 0 -4 -2 464.48 5.45
 0 -4 -1 1337.5 7.61
 0 -4 0 984.96 5.05
 0 -3 -11 1.96 3.38
 0 -3 -10 210.95 7.49
 0 -3 -9 127.46 5.9
 0 -3 -8 44.49 4.09
 0 -3 -7 105.43 4.37
 0 -3 -5 4.12 1.61
 0 -3 -1 1456.44 7.39
 0 -3 0 2.09 0.59
 0 -2 -12 6.9 3.54
 0 -2 -11 2.93 3.06
 0 -2 -10 50.58 4.72
 0 -2 -8 61.87 4.15
 0 -2 -3 1084.11 8.32
 0 -2 -2 2518.67 10.7
 0 -2 -1 5060.43 12.05
 0 -2 0 4761.92 8.03
 0 -1 -13 2.79 3.38
 0 -1 -11 147.77 6.34
 0 -1 -10 40.97 4.39
 0 -1 -9 251.2 6.88
 0 -1 -8 23.43 2.92
 0 -1 -6 470.19 7.33
 0 -1 -5 471.28 6.6
 0 -1 -4 163.77 3.76
 0 -1 -1 462.22 3.37
 0 0 -13 115.72 6.35
 0 0 -12 3.58 3.46
 0 0 -10 291.18 7.67
 0 0 -9 6.23 2.34
 0 0 -8 11.23 2.35
 0 0 -6 90.09 3.35
 0 0 -5 45.69 2.45
 0 0 -4 910.98 7.72
 0 0 -3 662.7 5.63
 0 1 -13 -0.08 2.91
 0 1 -12 33.4 4.18
 0 1 -11 147.56 5.99
 0 1 -9 266.47 6.65
 0 1 -8 20.97 2.44
 0 1 -6 505.41 6.9
 0 1 -5 499.34 6.15
 0 1 -4 151.93 3.1
 0 2 -11 2.36 2.38
 0 2 -10 51.76 3.51
 0 2 -9 317.22 6.83
 0 2 -7 238.71 5
 0 2 -6 135.5 3.56
 0 2 -4 272.41 3.6
 0 2 -3 1037.06 5.52
 0 2 -2 2325.57 5.44
 0 3 -10 192.44 5.33
 0 3 -9 124.31 4.18
 0 3 -5 4.48 0.93
 0 3 -4 350.43 3.48
 0 4 -4 257.22 1.93
 1 -9 -9 17.26 3.87
 1 -9 -8 96.36 5.41
 1 -9 -7 2.12 2.5
 1 -9 -6 28.53 3.6
 1 -9 -5 50.54 3.57
 1 -9 -4 16.3 2.45
 1 -8 -10 64.27 5.78
 1 -8 -9 54.02 5.29
 1 -8 -8 2.85 2.89
 1 -8 -7 10.1 3.24
 1 -8 -6 246.73 7.01
 1 -8 -4 41.28 3.01
 1 -8 -2 340.91 5.28
 1 -7 -9 16.56 4.13
 1 -7 -7 86.94 5.18
 1 -7 -6 89.85 4.45
 1 -7 -3 3.76 1.78
 1 -7 -2 14.28 1.58
 1 -7 -1 55.61 1.97
 1 -6 -11 69.65 6.33
 1 -6 -10 42.28 5.2
 1 -6 -9 25.13 3.99
 1 -6 -8 12.28 3.14
 1 -6 -7 200.59 6.41
 1 -6 -3 542.88 7.45
 1 -6 -2 179.36 3.85
 1 -6 -1 302.1 4.13
 1 -6 0 2.25 0.64
 1 -5 -11 45.77 4.89
 1 -5 -9 110.24 6.11
 1 -5 -8 21.9 3.28
 1 -5 -7 2.73 2.18
 1 -5 -6 83.93 4.39
 1 -5 -4 58.52 3.16
 1 -5 -2 99.21 2.98
 1 -5 0 156.28 2.35
 1 -4 -10 34.92 4.56
 1 -4 -9 85.99 4.96
 1 -4 -8 87.8 4.74
 1 -4 -7 13.52 2.86
 1 -4 -6 115.58 4.65
 1 -3 -12 25.62 4.32
 1 -3 -11 5.52 3.41
 1 -3 -10 29.43 4.3
 1 -3 -9 265.66 7.59
 1 -3 -8 19.59 3
 1 -3 -7 117.23 4.83
 1 -2 -13 6.15 3.88
 1 -2 -12 116.07 6.64
 1 -2 -11 1.78 3.15
 1 -2 -10 196.75 7.25
 1 -2 -9 83.24 5
 1 -2 -7 99.79 4.54
 1 -1 -13 51.37 5.47
 1 -1 -12 1.38 3.04
 1 -1 -11 116.86 5.76
 1 -1 -10 159.43 6.26
 1 -1 -9 130.13 5.52
 1 -1 -8 70.98 4.32
 1 0 -13 23.19 4.11
 1 0 -12 4.1 2.9
 1 0 -11 11.29 3.5
 1 0 -9 88.94 4.73
 1 0 -8 1.1 1.84
 1 1 -13 47.03 4.44
 1 1 -12 0.3 2.85
 1 1 -11 107.42 5.38
 1 1 -10 156.96 5.72
 1 1 -7 98.19 3.95
 1 2 -11 2.21 2.32
 1 2 -7 90.22 3.46
 1 3 -10 36.03 3.15
 1 3 -7 108.11 3.46
 1 4 -7 12.36 1.54
 1 5 -5 6.66 0.72
 2 -9 -9 22.89 3.84
 2 -9 -8 8.67 3.19
 2 -9 -7 7.4 2.96
 2 -8 -10 14.97 4.08
 2 -8 -9 3.51 3.16
 2 -8 -8 130.62 6.44
 2 -8 -7 0.76 2.86
 2 -8 -6 11.64 2.75
 2 -8 -5 161.63 5.37
 2 -8 -4 95.91 4.08
 2 -8 -2 31.4 2.03
 2 -7 -10 72.7 5.93
 2 -7 -9 51.07 5.38
 2 -7 -8 107.47 6
 2 -7 -7 24.77 3.51
 2 -7 -6 96.21 4.67
 2 -7 -5 79.79 4.13
 2 -7 -4 109.9 4.32
 2 -7 -3 71.41 3.35
 2 -7 -2 28.32 2.19
 2 -7 -1 55.71 2.16
 2 -7 0 14.37 1.05
 2 -6 -11 37.65 4.92
 2 -6 -10 105.83 6.71
 2 -6 -9 106.46 6.36
 2 -6 -7 25.73 3.49
 2 -6 -6 120.74 5.33
 2 -6 -5 7.2 2.2
 2 -5 -12 32.45 4.9
 2 -5 -11 17.27 4.14
 2 -5 -10 109.03 6.74
 2 -5 -9 52.27 4.58
 2 -5 -8 14.37 3.3
 2 -5 -7 30.48 3.41
 2 -4 -12 5.94 4.32
 2 -4 -11 33.63 4.94
 2 -4 -10 14.31 3.66
 2 -4 -9 160.93 6.57
 2 -4 -8 8.78 2.64
 2 -3 -12 84.63 5.83
 2 -3 -11 83.14 5.88
 2 -3 -10 11.12 3.93
 2 -3 -9 53.25 4.68
 2 -2 -12 27.67 4.31
 2 -2 -10 113.97 5.65
 2 -2 -9 6.74 2.77
 2 -1 -13 6.22 3.57
 2 -1 -12 12.49 4.19
 2 -1 -11 8.05 3.22
 2 -1 -10 163.14 6.33
 2 -1 -9 46.08 3.74
 2 0 -13 51.44 5.17
 2 0 -12 108.37 6.09
 2 0 -11 307.29 8.62
 2 0 -10 -0.51 2.77
 2 1 -13 -0.77 2.68
 2 1 -12 3.42 2.88
 2 1 -11 14.19 3.59
 2 1 -10 159.58 6.02
 2 2 -11 45.86 4.16
 2 2 -10 119.02 5.18
 2 2 -9 6.15 2.29
 2 3 -11 87.97 4.62
 2 3 -10 8.08 2.58
 3 -9 -7 14.67 3.11
 3 -9 -6 22.56 3.29
 3 -8 -9 3.24 3.16
 3 -8 -8 9.93 3.36
 3 -8 -7 38.41 4.38
 3 -8 -6 3.27 2.98
 3 -8 -4 19.78 2.71
 3 -8 -3 204.38 5.22
 3 -7 -10 3.98 3.59
 3 -7 -9 29.12 4.25
 3 -7 -7 9.59 2.99
 3 -7 -6 36.03 3.9
 3 -6 -11 14.33 4.05
 3 -6 -10 92.78 6.59
 3 -6 -9 26.81 4.19
 3 -6 -8 34.83 4.21
 3 -5 -11 4.97 3.57
 3 -5 -10 9.17 3.64
 3 -5 -9 307.09 8.99
 3 -4 -12 68.13 6.4
 3 -4 -11 140.86 7.5
 3 -4 -10 163.84 7.11
 3 -3 -11 10.56 3.59
 3 -3 -10 1.53 3.62
 3 -2 -12 51.11 5.73
 3 -1 -13 7.23 3.91
 3 -1 -12 15.93 4.55
 3 -1 -11 212.66 8.2
 3 0 -13 0.85 3.07
 3 0 -12 124.67 6.8
 3 0 -11 2.98 2.95
 3 1 -13 4.87 3.22
 3 1 -12 9.58 3.14
 3 1 -11 212.85 7.63
 3 2 -12 50 4.75
 3 2 -11 237.38 7.51
 3 3 -11 17.49 2.84
 4 -9 -8 1.11 2.81
 4 -9 -7 81.24 5.3
 4 -8 -9 8 3.58
 4 -8 -8 29.57 4.2
 4 -8 -7 28.09 3.83
 4 -8 -6 26.11 3.72
 4 -7 -10 27.6 4.73
 4 -7 -9 74.39 6.05
 4 -7 -8 27.58 4.23
 4 -6 -10 12.83 3.94
 4 -6 -9 9.11 3.68
 4 -5 -11 7.41 4.08
 4 -5 -10 154.16 7.94
 4 -4 -11 37.66 5.02
 4 -3 -12 1.79 3.93
 4 -2 -12 67.31 6.19
 4 -1 -12 12.11 4.11
 4 0 -12 58.94 5.77
 4 1 -13 29.97 4.66
 4 1 -12 12.66 4.13
 4 2 -12 70.11 5.43
 5 -8 -8 1.92 3.57
 -9 0 1 18.09 4.5
 -9 0 2 95.19 6.23
 -9 0 3 9.16 3.84
 -9 0 4 5.94 3.62
 -9 1 1 19.96 4.51
 -9 1 2 0.42 3.22
 -9 1 3 50.12 5.36
 -9 1 4 3.71 3.78
 -8 -5 0 22.27 4.61
 -8 -5 1 -3.16 3.76
 -8 -5 2 17.93 4.44
 -8 -5 4 26.08 4.92
 -8 -4 -1 9.56 4.07
 -8 -4 0 1.54 4.57
 -8 -4 1 55.06 6.28
 -8 -4 2 20.71 4.39
 -8 -4 3 30.76 5.37
 -8 -4 4 132.35 7.72
 -8 -3 -2 7.97 4.73
 -8 -3 -1 29.01 4.62
 -8 -3 0 12.73 4.19
 -8 -3 2 133 7.52
 -8 -3 3 55.62 6.07
 -8 -3 4 17.98 4.69
 -8 -3 5 40.15 5.43
 -8 -2 -3 54.16 5.7
 -8 -2 -2 30.39 4.55
 -8 -2 -1 2.59 4.37
 -8 -2 0 3.04 4.09
 -8 -2 1 64.09 6
 -8 -2 2 66.67 6.18
 -8 -2 3 29.15 5.03
 -8 -1 -2 6.32 3.5
 -8 -1 -1 7.47 4.17
 -8 -1 0 0.43 3.55
 -8 -1 1 18.2 4.17
 -8 -1 2 0.88 3.24
 -8 -1 4 24.85 4.11
 -8 -1 5 36.28 5.1
 -8 0 -2 83.05 6.16
 -8 0 -1 23.92 4.41
 -8 0 0 14.1 4.09
 -8 0 1 15.8 4.2
 -8 0 2 17.45 4.37
 -8 0 3 311.46 9
 -8 0 4 11.46 3.43
 -8 1 -3 49.17 5.5
 -8 1 -2 9.77 3.44
 -8 1 -1 9.2 3.37
 -8 1 0 -0.93 3.06
 -8 1 1 12.96 3.74
 -8 1 2 3.18 3.12
 -8 1 3 212.14 7.62
 -8 1 4 19.98 4.17
 -8 2 -3 58.27 5.35
 -8 2 -2 31.9 4.12
 -8 2 -1 2.97 2.96
 -8 2 0 9.29 3.22
 -8 2 1 67.98 5.04
 -8 2 2 61.56 4.87
 -8 2 3 31.99 3.86
 -8 2 4 47.36 4.63
 -8 3 -1 29.1 4.18
 -7 -7 -1 2.78 3.92
 -7 -7 0 32.82 4.71
 -7 -7 1 19.58 4.35
 -7 -7 2 15.89 4.78
 -7 -7 3 10.38 4.01
 -7 -6 -3 20.04 4.28
 -7 -6 -2 25.22 4.42
 -7 -6 -1 22.36 4.98
 -7 -6 1 11.42 4.34
 -7 -6 2 11.93 3.96
 -7 -6 3 16.04 3.98
 -7 -6 4 30.47 4.63
 -7 -5 -4 25.43 4.59
 -7 -5 -3 6.73 4.23
 -7 -5 -2 4.4 4.34
 -7 -5 -1 3.09 3.43
 -7 -5 0 48.27 5.47
 -7 -5 1 49.97 5.63
 -7 -5 2 53.1 5.58
 -7 -5 3 18.45 4.66
 -7 -5 4 113.69 6.77
 -7 -4 -4 1.16 3.71
 -7 -4 -3 34.77 4.92
 -7 -4 -1 7.92 3.59
 -7 -4 0 9.28 4.25
 -7 -4 1 65.76 5.47
 -7 -4 2 203.68 7.9
 -7 -4 3 14.3 4.18
 -7 -4 5 81.8 6.43
 -7 -3 -5 8.02 3.79
 -7 -3 -4 25.5 4.25
 -7 -3 -3 66.73 5.56
 -7 -3 -2 38.29 4.62
 -7 -3 -1 94.42 5.56
 -7 -3 0 71.49 5.78
 -7 -3 1 14.82 3.55
 -7 -3 3 63.65 4.91
 -7 -3 4 8.04 3.87
 -7 -3 5 23.83 4.72
 -7 -2 -5 10.14 3.81
 -7 -2 -4 21.21 4.09
 -7 -2 -3 6.47 3.41
 -7 -2 -2 25.81 4.06
 -7 -2 -1 5.25 3.14
 -7 -2 0 22.37 3.88
 -7 -2 1 62.26 5.2
 -7 -2 2 60.43 5.23
 -7 -2 3 270.79 8.22
 -7 -2 4 -0.94 2.74
 -7 -2 5 13.19 3.5
 -7 -1 -6 1.51 4.21
 -7 -1 -5 0.89 3.25
 -7 -1 -4 57.29 5.62
 -7 -1 -3 8.22 3.56
 -7 -1 -2 18.32 3.53
 -7 -1 -1 9.23 3.08
 -7 -1 0 121.83 6.12
 -7 -1 1 10.88 3.05
 -7 -1 2 14.88 3.42
 -7 -1 3 4.32 2.93
 -7 -1 4 27.72 3.81
 -7 -1 5 14.2 3.74
 -7 0 -6 85.91 6.44
 -7 0 -4 24.98 4.62
 -7 0 -3 12.94 4.09
 -7 0 -2 0.31 2.75
 -7 0 -1 5.25 3.36
 -7 0 0 23.41 3.89
 -7 0 1 48.87 4.12
 -7 0 2 2.8 2.63
 -7 0 4 3.18 2.76
 -7 1 -6 7.32 3.56
 -7 1 -5 1.67 3.36
 -7 1 -4 57.96 5.12
 -7 1 -3 6.7 3.28
 -7 1 -2 22.28 3.48
 -7 1 -1 7.99 3.25
 -7 1 0 121.54 5.58
 -7 1 1 13.49 3.15
 -7 1 2 11.84 2.96
 -7 1 3 6.67 2.81
 -7 2 -6 10.89 3.66
 -7 2 -5 6.37 3.07
 -7 2 -3 6.19 2.9
 -7 2 -2 22.19 3.36
 -7 2 -1 6.14 2.98
 -7 2 1 72.92 4.67
 -7 2 2 63.39 4.33
 -7 2 3 274.98 7.28
 -7 2 4 -0.33 2.75
 -7 3 -5 8.13 3.06
 -7 3 -4 28.44 3.9
 -7 3 -3 66.54 4.83
 -7 3 -2 37.65 4.11
 -7 3 -1 100.21 4.93
 -7 3 0 72.23 4.39
 -7 3 1 16.89 3.14
 -7 3 2 33.53 3.53
 -7 3 3 68.78 4.18
 -6 -9 -1 2.74 3.08
 -6 -9 0 0.17 3.13
 -6 -9 1 10.22 3.46
 -6 -9 2 28.88 4.61
 -6 -8 -3 4.27 3.6
 -6 -8 -2 0.68 3.84
 -6 -8 -1 53.6 5.5
 -6 -8 0 46.98 5.81
 -6 -8 1 3.35 3.19
 -6 -8 2 7.66 3.51
 -6 -8 3 102.85 6.47
 -6 -7 -4 0.67 3.23
 -6 -7 -2 17.07 4.47
 -6 -7 -1 1.96 3.71
 -6 -7 0 6.52 3.43
 -6 -7 1 6.68 3.95
 -6 -7 2 3.21 3.93
 -6 -7 3 28.93 4.39
 -6 -6 -4 10.26 4.35
 -6 -6 -3 47.89 5.41
 -6 -6 -2 6.81 3.22
 -6 -6 -1 2.15 3.13
 -6 -6 0 0.55 3.44
 -6 -6 2 74.17 5.39
 -6 -6 3 0.01 3.1
 -6 -6 4 194.13 7.4
 -6 -5 -6 28.75 4.52
 -6 -5 -5 10.58 3.53
 -6 -5 -4 2.08 3.81
 -6 -5 -3 110.7 6.5
 -6 -5 -2 19.49 3.65
 -6 -5 -1 17.48 3.71
 -6 -5 0 16.03 3.35
 -6 -5 1 43.61 4.71
 -6 -5 2 42.93 4.68
 -6 -5 3 13.32 3.89
 -6 -5 4 1.17 3.11
 -6 -4 -7 15.61 4.57
 -6 -4 -6 28.22 4.83
 -6 -4 -5 32.65 5.05
 -6 -4 -4 81.68 5.21
 -6 -4 -3 80.14 5.01
 -6 -4 -2 11.1 3.29
 -6 -4 -1 154.3 6.31
 -6 -4 0 2.66 2.56
 -6 -4 1 -2.46 2.55
 -6 -4 2 17.35 3.24
 -6 -4 3 40.49 4.41
 -6 -4 4 205.42 7.37
 -6 -4 5 31.64 4.46
 -6 -3 -7 34.71 5.12
 -6 -3 -6 13.56 4.42
 -6 -3 -5 10.26 3.86
 -6 -3 -4 9.4 3.15
 -6 -3 -3 23.54 3.54
 -6 -3 -2 71.41 4.81
 -6 -3 -1 17.79 3.31
 -6 -3 0 72.22 4.89
 -6 -3 1 22.52 3.25
 -6 -3 2 163.38 6.21
 -6 -3 3 41.23 4.3
 -6 -3 4 8.05 2.75
 -6 -3 5 18.06 3.84
 -6 -2 -7 25.58 4.31
 -6 -2 -6 10.17 3.48
 -6 -2 -5 47.86 4.81
 -6 -2 -4 60.94 5.1
 -6 -2 -2 73.4 4.93
 -6 -2 -1 13.14 2.82
 -6 -2 0 58.69 4.56
 -6 -2 1 54.02 4.48
 -6 -2 2 84.31 4.99
 -6 -2 3 17.97 3.38
 -6 -2 4 9.95 2.83
 -6 -2 5 34.22 3.71
 -6 -1 -7 13.57 3.78
 -6 -1 -6 16.21 3.72
 -6 -1 -5 45.15 4.48
 -6 -1 -4 6.31 3.17
 -6 -1 -3 3.1 2.8
 -6 -1 -2 50.43 4.28
 -6 -1 -1 15.32 3.27
 -6 -1 0 46.79 3.75
 -6 -1 1 125.36 5.42
 -6 -1 2 44.76 3.56
 -6 -1 4 7.64 2.6
 -6 -1 5 50.35 4.5
 -6 0 -8 54.11 5.67
 -6 0 -7 46.03 5.43
 -6 0 -6 63.81 5.53
 -6 0 -5 13.12 3.85
 -6 0 -4 92.91 4.95
 -6 0 -3 5.53 2.88
 -6 0 -2 0.09 2.58
 -6 0 -1 3.04 2.49
 -6 0 0 5.42 2.76
 -6 0 1 40.83 3.38
 -6 0 2 16.58 2.73
 -6 0 3 20.93 3.27
 -6 0 4 95.02 4.71
 -6 0 5 33.86 3.96
 -6 1 -8 29.1 4.46
 -6 1 -7 13.34 4.33
 -6 1 -6 17.28 3.79
 -6 1 -5 50.23 4.83
 -6 1 -4 8.15 3.03
 -6 1 -3 3.89 2.44
 -6 1 -1 14.5 3.02
 -6 1 0 47.37 3.7
 -6 1 1 116.2 4.77
 -6 1 3 165.47 5.42
 -6 1 4 9.57 2.37
 -6 2 -7 29.89 4.43
 -6 2 -6 10.5 3.9
 -6 2 -5 44.75 4.7
 -6 2 -4 66.22 4.75
 -6 2 -3 164.06 5.71
 -6 2 -2 74.37 4.36
 -6 2 -1 12.88 2.64
 -6 2 0 56.33 3.53
 -6 2 1 58.63 3.84
 -6 2 2 83.4 4.22
 -6 2 3 15.73 2.57
 -6 2 4 4.5 2.11
 -6 3 -7 30.49 4.16
 -6 3 -6 12.45 3.25
 -6 3 -5 15.06 3.18
 -6 3 -4 7.05 2.63
 -6 3 -3 33.64 3.6
 -6 3 -2 73.29 4.04
 -6 3 -1 23.4 2.87
 -6 3 0 81.68 3.99
 -6 3 1 31.55 3.05
 -6 3 2 167.83 5
 -6 3 3 43.87 3.19
 -6 4 -7 14.3 3.3
 -6 4 -6 38.18 4.72
 -6 4 -4 82.47 4.48
 -6 4 -3 71.83 4.14
 -6 4 -2 14.42 2.43
 -6 4 -1 152.65 4.82
 -5 -9 -2 -0.77 2.71
 -5 -9 -1 45.21 4.57
 -5 -9 0 91.32 5.46
 -5 -9 1 12.22 3.67
 -5 -8 -5 6.91 3.4
 -5 -8 -4 8.34 3.08
 -5 -8 -3 1.81 3.42
 -5 -8 -1 52.71 4.62
 -5 -8 0 20.44 3.69
 -5 -8 1 17.59 3.33
 -5 -8 2 5.19 3.2
 -5 -7 -6 -4.12 2.85
 -5 -7 -5 7.54 3.52
 -5 -7 -4 7.82 3.25
 -5 -7 -3 71.31 5.21
 -5 -7 -2 9.49 3.23
 -5 -7 -1 41.04 4.57
 -5 -7 0 178.44 6.81
 -5 -7 3 17.93 3.77
 -5 -6 -7 29.86 4.69
 -5 -6 -6 86.84 5.51
 -5 -6 -5 57.68 4.92
 -5 -6 -4 32.44 3.81
 -5 -6 -3 1 3.09
 -5 -6 -2 52.44 4.62
 -5 -6 0 10.58 2.82
 -5 -6 3 38.03 3.84
 -5 -5 -8 46.66 5.06
 -5 -5 -7 62.84 5.43
 -5 -5 -6 3.9 3.21
 -5 -5 -5 15.2 3.7
 -5 -5 -4 94.92 5.42
 -5 -5 -3 116.45 5.45
 -5 -5 -1 48.1 4.05
 -5 -5 1 126.4 5.52
 -5 -5 2 102.34 5.17
 -5 -5 4 58.09 4.67
 -5 -4 -8 49.5 4.87
 -5 -4 -7 79.46 5.73
 -5 -4 -6 182.68 7.18
 -5 -4 -5 16.41 3.4
 -5 -4 -4 41.87 4.01
 -5 -4 -3 16.45 3.09
 -5 -4 -2 4.06 2.29
 -5 -4 -1 14.29 2.74
 -5 -4 0 17.15 2.74
 -5 -4 2 191.96 6.2
 -5 -4 3 48.34 3.88
 -5 -4 4 72.79 4.59
 -5 -3 -8 44.34 5.43
 -5 -3 -7 1.29 3.13
 -5 -3 -6 65.69 5.32
 -5 -3 -4 22.05 3.63
 -5 -3 -3 71.25 4.13
 -5 -3 -2 143.1 5.48
 -5 -3 -1 234.28 6.25
 -5 -3 0 122.48 4.72
 -5 -3 1 183.21 5.81
 -5 -3 2 30.99 3.04
 -5 -3 3 130.59 5.26
 -5 -3 5 43.49 3.56
 -5 -2 -9 24.7 5
 -5 -2 -8 194.54 7.83
 -5 -2 -7 57.92 5.31
 -5 -2 -6 157.56 6.64
 -5 -2 -5 2.77 2.78
 -5 -2 -4 42.71 3.99
 -5 -2 -3 26.19 2.84
 -5 -2 -2 73.65 4.14
 -5 -2 -1 288.42 6.8
 -5 -2 0 29.68 3.09
 -5 -2 1 33.18 3.22
 -5 -2 3 141.68 5.01
 -5 -2 4 101.98 4.43
 -5 -1 -9 49.51 5.4
 -5 -1 -8 68.37 5.74
 -5 -1 -7 96.64 5.31
 -5 -1 -6 0.64 2.58
 -5 -1 -4 8.36 2.43
 -5 -1 -3 32.69 3.54
 -5 -1 -2 227.42 6.21
 -5 -1 -1 79.48 3.79
 -5 -1 0 111.42 4.39
 -5 -1 1 284.16 6.47
 -5 -1 2 96.49 4.37
 -5 -1 4 55.58 3.42
 -5 -1 5 38.42 3.34
 -5 0 -9 31.96 4.88
 -5 0 -8 129.4 6.59
 -5 0 -7 43.95 4.51
 -5 0 -6 2.58 2.74
 -5 0 -4 72.79 4.12
 -5 0 -2 508.1 8.74
 -5 0 -1 63.03 3.64
 -5 0 0 60.71 3.43
 -5 0 4 74.12 3.61
 -5 1 -9 50.57 5.44
 -5 1 -7 103.02 5.44
 -5 1 -6 -0.77 2.29
 -5 1 -5 65.63 3.97
 -5 1 -4 9.88 2.42
 -5 1 -3 31.87 3.02
 -5 1 -2 215.93 5.57
 -5 1 -1 86.91 3.83
 -5 2 -9 21.8 3.97
 -5 2 -8 183.75 7.01
 -5 2 -7 59.46 4.88
 -5 2 -6 155.92 6.06
 -5 2 -5 1.52 2.68
 -5 2 -4 48.8 3.83
 -5 2 -3 28.58 3.18
 -5 2 -2 67.63 3.35
 -5 3 -9 24.38 3.98
 -5 3 -8 50.82 4.45
 -5 3 -7 0.82 3.07
 -5 3 -6 54.02 4.21
 -5 3 -5 13.05 2.67
 -5 3 -4 19.69 2.66
 -5 3 -2 141.39 4.48
 -5 3 1 170.19 4.44
 -5 3 2 26.35 2.45
 -5 3 3 126.48 3.88
 -5 4 -8 43.7 4.52
 -5 4 -7 83.36 5.02
 -5 4 -6 173.6 6.03
 -5 4 -5 20.16 2.84
 -5 4 -4 35.01 3.33
 -5 4 -3 15.03 2.4
 -5 4 -2 5.21 1.92
 -5 4 0 17.93 2.05
 -5 4 1 63.15 2.76
 -5 4 2 196.03 4.22
 -5 5 -8 36.03 4.36
 -5 5 -7 64.49 4.56
 -5 5 -6 1.15 2.31
 -5 5 -5 18.77 2.96
 -5 5 -4 92.78 4.09
 -5 5 -3 107.34 3.93
 -5 5 -1 47.21 2.51
 -4 -9 -2 56.16 4.3
 -4 -9 -1 16.41 2.86
 -4 -9 0 35.8 3.84
 -4 -9 1 24.64 3.18
 -4 -8 -6 4.45 3.15
 -4 -8 -5 80.44 4.83
 -4 -8 -3 2.08 2.84
 -4 -8 -2 40.42 4.02
 -4 -8 -1 11.32 2.85
 -4 -8 0 130.65 5.47
 -4 -8 1 30.75 3.68
 -4 -7 -8 0.74 3.44
 -4 -7 -7 26.69 3.95
 -4 -7 -6 28.44 4.02
 -4 -7 -5 6.57 2.95
 -4 -7 -4 146.18 5.87
 -4 -7 -3 84.1 4.53
 -4 -7 0 38.46 3.81
 -4 -7 1 133.8 5.11
 -4 -7 2 120.76 5.27
 -4 -7 3 24.64 3.32
 -4 -6 -8 49.24 5.05
 -4 -6 -7 165.04 6.62
 -4 -6 -6 78.83 5.07
 -4 -6 -5 15.51 3.12
 -4 -6 -4 71.13 4.63
 -4 -6 -3 175.5 5.83
 -4 -6 -2 28.62 3.09
 -4 -6 -1 35.94 3.53
 -4 -6 0 49.63 3.7
 -4 -6 1 27.22 2.92
 -4 -6 2 50.35 3.55
 -4 -6 3 57.11 4
 -4 -5 -9 12.76 3.88
 -4 -5 -8 -2.53 3.39
 -4 -5 -7 28.87 4.17
 -4 -5 -4 67.48 4.15
 -4 -5 -2 199.02 5.94
 -4 -5 -1 404.76 8.04
 -4 -5 0 104.52 4.5
 -4 -5 1 58.17 3.82
 -4 -5 2 71.33 3.97
 -4 -5 3 124.31 4.94
 -4 -5 4 112.52 4.87
 -4 -4 -9 55.97 4.97
 -4 -4 -8 206.77 7.45
 -4 -4 -7 3.07 2.76
 -4 -4 -6 29.04 3.9
 -4 -4 -5 9.37 2.49
 -4 -4 -4 10.49 2.37
 -4 -4 -3 13.3 2.74
 -4 -4 -2 43.82 3.48
 -4 -4 -1 262.94 6.06
 -4 -4 3 83.38 3.89
 -4 -4 4 377.85 7.86
 -4 -3 -10 3.08 4.08
 -4 -3 -9 40.35 4.72
 -4 -3 -8 10.02 3.34
 -4 -3 -7 23.18 3.4
 -4 -3 -6 31.29 3.87
 -4 -3 -5 54.59 3.98
 -4 -3 -4 209.39 5.94
 -4 -3 -3 303.23 6.6
 -4 -3 -2 283.27 6.31
 -4 -2 -10 19.95 4.61
 -4 -2 -9 107.77 5.74
 -4 -2 -8 100.77 5.28
 -4 -2 -7 34.27 4.06
 -4 -2 -5 -0.42 1.74
 -4 -2 -4 16.69 2.42
 -4 -2 -3 24.15 2.69
 -4 -1 -5 9.38 2.17
 -4 -1 -3 15.5 2.15
 -4 -1 0 297.18 5.74
 -4 -1 1 52 2.86
 -4 -1 2 65.2 3.2
 -4 -1 3 167.34 4.72
 -4 0 -1 6.29 1.83
 -4 0 0 1.49 1.29
 -4 0 1 8.34 1.75
 -4 0 2 35.58 2.57
 -4 0 3 167.39 4.39
 -4 0 4 10.67 1.99
 -4 1 -1 426.66 6.48
 -4 1 0 292.29 5.23
 -4 1 1 61.9 2.75
 -4 1 3 171.16 4.26
 -4 2 -2 23.62 2.36
 -4 2 -1 233.11 4.81
 -4 2 1 361.61 5.48
 -4 2 2 105.26 3.33
 -4 3 -2 262.58 5.13
 -4 3 -1 321.94 5.19
 -4 3 0 133.48 3.37
 -4 3 1 92.29 2.88
 -4 3 2 0.12 1.09
 -4 4 -4 7.57 1.87
 -4 4 -2 44.22 2.47
 -4 4 -1 280.81 4.65
 -4 4 0 160.59 3.41
 -4 4 1 61.69 2.2
 -4 4 2 115.33 2.74
 -4 5 -4 57.77 3.02
 -4 5 -1 374.34 4.95
 -4 5 1 49.2 1.58
 -4 6 -5 10.87 2.17
 -3 -9 0 21.54 2.86
 -3 -8 -5 20.46 3.09
 -3 -8 -4 54.25 3.78
 -3 -8 -1 126.34 4.62
 -3 -8 0 10.67 2.43
 -3 -8 1 43.16 3.3
 -3 -7 -9 20.15 3.49
 -3 -7 -8 37.27 4.23
 -3 -7 -7 108.58 5.13
 -3 -7 -5 22.79 3.09
 -3 -7 -4 47.82 3.4
 -3 -7 -3 44.23 3.29
 -3 -7 -2 77.75 3.78
 -3 -7 -1 96.59 4.13
 -3 -7 2 32.67 2.99
 -3 -6 -10 42.17 4.94
 -3 -6 -9 44.53 4.86
 -3 -6 -8 18.86 3.35
 -3 -6 -7 6.15 2.91
 -3 -6 -6 145.76 5.63
 -3 -6 -5 7.03 2.69
 -3 -6 -3 16.62 2.38
 -3 -5 -10 1.75 2.89
 -3 -5 -9 24.3 3.66
 -3 -5 -8 47.33 4.5
 -3 -5 -7 93.3 5.06
 -3 -5 -6 41.61 3.71
 -3 -5 -5 189.32 5.56
 -3 -5 -4 199.59 5.36
 -3 -5 -3 89.12 3.8
 -3 -5 0 147.12 4.51
 -3 -5 1 18.19 2.54
 -3 -4 -10 2.86 3.44
 -3 -4 -9 4.2 2.72
 -3 -4 -8 10.2 2.86
 -3 -4 -7 46.35 3.5
 -3 -4 -6 72.37 4.19
 -3 -4 -5 13.64 2.31
 -3 -4 -4 108.57 3.97
 -3 -4 -1 177.13 4.47
 -3 -4 1 111.8 3.67
 -3 -4 2 648.54 8.44
 -3 -4 3 143.39 4.51
 -3 -3 -5 74.27 3.54
 -3 -3 -2 328.56 5.93
 -3 -3 -1 108.18 3.38
 -3 -3 0 139.78 3.88
 -3 -3 1 246.91 5.01
 -3 -3 2 8.21 1.61
 -3 -2 -3 4.93 1.7
 -3 -2 -2 533.51 6.99
 -3 -1 3 536.01 6.97
 -3 0 -2 255.87 4.66
 -3 0 -1 126.48 3.15
 -3 0 0 593.29 6.29
 -3 0 1 1.8 1.42
 -3 0 2 3150.49 14.9
 -3 0 3 45.67 2.43
 -3 1 -1 61.61 2.24
 -3 1 0 152.29 3.23
 -3 1 1 73.75 2.35
 -3 1 2 5.51 1.2
 -3 1 3 536.9 6.19
 -3 2 0 555.32 5.57
 -3 2 1 735.27 6.23
 -3 2 2 291.29 4.17
 -3 3 -1 113.51 2.68
 -3 3 0 127.53 2.67
 -3 3 1 252 3.45
 -3 3 2 6.09 0.96
 -3 4 -2 6.28 1.16
 -3 4 -1 179.12 3.12
 -3 4 0 190.41 2.82
 -3 5 -2 18.48 1.52
 -3 5 -1 396.53 4.04
 -3 5 0 151.22 1.97
 -3 6 -3 14.31 1.52
 -3 6 -2 179.03 2.98
 -2 -8 -4 1.65 1.62
 -2 -8 -1 93.56 3.38
 -2 -7 -8 4.94 2.38
 -2 -7 -7 27.25 3.28
 -2 -7 -6 6.37 2.46
 -2 -7 -5 3.38 2.03
 -2 -7 -2 113.43 3.65
 -2 -7 -1 116.19 3.67
 -2 -7 0 12.85 1.91
 -2 -7 1 54.25 2.89
 -2 -6 -10 44.33 4.23
 -2 -6 -9 -1.24 2.56
 -2 -6 -7 56.43 3.73
 -2 -6 -6 15.05 2.5
 -2 -6 -5 153 4.54
 -2 -6 -3 117.26 3.79
 -2 -6 -2 17.73 2.05
 -2 -6 -1 458.25 6.54
 -2 -6 0 160.66 4.08
 -2 -6 1 73.13 2.98
 -2 -6 2 94.35 3.55
 -2 -5 -11 88.22 5.38
 -2 -5 -7 43.95 3.39
 -2 -5 -6 12.75 2.27
 -2 -5 -5 63.32 3.12
 -2 -5 -2 102.33 3.32
 -2 -5 0 36.61 2.32
 -2 -5 1 71.97 2.83
 -2 -5 2 137.24 3.72
 -2 -4 -4 130.37 3.75
 -2 -4 -3 11.94 1.65
 -2 -4 -2 189.89 4.2
 -2 -4 2 155.07 3.8
 -2 -3 -1 541.97 6.07
 -2 -3 2 139.98 3.53
 -2 -2 -2 223.33 3.93
 -2 -2 -1 39.9 1.87
 -2 -2 0 927.7 7.32
 -2 -2 1 261.52 4.19
 -2 -2 2 1854.27 11.01
 -2 -2 3 1038.98 8.89
 -2 -1 -1 440.23 4.84
 -2 -1 1 265.8 3.97
 -2 -1 2 254 3.99
 -2 0 -1 1846.45 9.07
 -2 0 0 671 5.37
 -2 0 1 343.18 3.99
 -2 0 2 23.49 1.81
 -2 1 0 579.22 4.72
 -2 1 1 262.92 3.27
 -2 1 2 247.05 3.48
 -2 2 0 870.04 5.21
 -2 2 1 239.16 2.77
 -2 2 2 1777.69 7.81
 -2 3 0 489.84 3.52
 -2 3 1 553.82 3.37
 -2 4 0 115.39 1.43
 -2 5 -1 570.03 3.58
 -1 -7 -7 3.8 2.11
 -1 -7 -6 115.5 3.88
 -1 -7 -4 106.19 3.17
 -1 -7 -2 18.29 1.59
 -1 -7 -1 29.75 1.78
 -1 -6 -10 43.72 3.94
 -1 -6 -8 89.05 4.19
 -1 -6 -7 96.52 3.85
 -1 -6 -5 30.27 2.41
 -1 -6 -4 2.55 1.21
 -1 -6 -3 14.57 1.48
 -1 -6 -2 2.65 1.05
 -1 -6 -1 382.06 4.82
 -1 -6 0 2.29 1.1
 -1 -5 -4 856.18 8.08
 -1 -4 -1 903.07 6.53
 -1 -4 0 387.71 4.35
 -1 -4 1 825.89 6.57
 -1 -3 0 264.31 3.37
 -1 -3 1 1284.66 7.61
 -1 -2 -1 948.63 5.72
 -1 -2 0 4952.86 12.44
 -1 -2 1 1168.74 6.73
 -1 -1 0 4190.84 10.21
 -1 0 0 323.24 2.67
 -1 0 1 61.27 1.62
 -1 1 0 4272.83 7.7
 -1 1 1 635.92 3.33
 0 -6 -5 3.28 1.06
 0 -6 -4 85 2.31
 0 -5 -2 144.76 2.23
 0 -5 -1 292.04 2.76
 0 -4 -2 477.98 3.82
 0 -4 -1 1331.56 5.43
 0 -3 -1 1395.11 5
 0 -3 0 1.65 0.5
 0 -2 0 4706.57 7.57
 0 2 0 5213.42 7.81
 1 -6 -5 243.38 3.33
 -2 -8 0 160.35 3.97
 -2 -8 1 6.47 1.4
 -2 -8 2 29.35 2.11
 -2 -7 0 15.73 1.8
 -2 -7 1 57.59 2.39
 -2 -7 2 27.92 1.81
 -2 -6 1 77.98 2.35
 -2 -6 3 42.21 1.86
 -2 -6 5 7.83 1.43
 -2 -5 2 140.49 2.41
 -2 -5 4 71.93 2.19
 -2 -4 1 826.6 4.52
 -2 -4 3 101.72 1.92
 -1 -10 -2 3.51 2.4
 -1 -10 -1 2.31 2.18
 -1 -10 0 21.48 3.16
 -1 -10 1 97.81 4.47
 -1 -9 -1 7.04 2.5
 -1 -9 0 63.23 3.8
 -1 -9 1 93.52 4.02
 -1 -9 2 32.69 2.96
 -1 -8 -1 16.4 2.29
 -1 -8 5 51.26 3.26
 -1 -8 6 217.95 5.77
 -1 -7 -3 69.04 3.46
 -1 -7 0 103.02 3.52
 -1 -7 1 51.04 2.76
 -1 -7 2 13.55 2.09
 -1 -7 3 3.86 1.46
 -1 -7 4 26.24 2.46
 -1 -7 7 89.52 4.74
 -1 -6 -2 3.97 1.62
 -1 -6 0 3.27 1.59
 -1 -6 2 161.76 3.73
 -1 -5 -2 108.76 3.32
 -1 -5 -1 163.14 3.58
 -1 -5 3 63.88 2.47
 -1 -4 -1 924.76 7.22
 -1 -4 0 374.83 4.18
 -1 -4 1 860.83 6.15
 -1 -4 2 613.62 5.44
 -1 -3 -1 43.73 1.74
 -1 -3 1 1249.81 5.82
 -1 -2 0 4993.07 9.46
 0 -11 -3 15.69 3.64
 0 -11 -1 10.44 3.66
 0 -11 0 -1.68 2.83
 0 -11 1 10.15 2.92
 0 -11 2 -0.35 2.96
 0 -10 -4 2.32 3.43
 0 -10 -3 7.62 3.03
 0 -10 -2 67.1 4.7
 0 -10 -1 79.85 5.05
 0 -10 0 75.93 4.64
 0 -10 1 84.03 4.72
 0 -10 2 72.42 4.61
 0 -10 4 -0.3 2.82
 0 -10 5 2.92 3.19
 0 -9 -4 -0.85 2.82
 0 -9 -1 43.37 3.73
 0 -9 0 0.69 2.45
 0 -9 2 52.96 3.96
 0 -9 3 53.65 3.95
 0 -9 4 3.15 2.53
 0 -9 6 8.14 3.19
 0 -8 -4 13.23 2.72
 0 -8 -1 71.19 4.04
 0 -8 0 80.21 4.09
 0 -8 2 110.66 4.42
 0 -8 4 11.73 2.4
 0 -8 5 57.7 4.13
 0 -8 6 23.41 3.43
 0 -8 8 55.88 4.62
 0 -8 9 42.44 4.86
 0 -7 -4 201.04 5.84
 0 -6 -2 414.44 7.22
 0 -6 -1 240.49 5.26
 0 -6 0 879.79 9.37
 0 -6 2 418.84 6.79
 0 -6 3 50.89 3.16
 0 -5 -3 77.99 3.41
 0 -5 -1 295.86 5.11
 0 -5 1 294.11 5.05
 0 -5 2 144.88 3.77
 0 -4 -4 268.76 5.39
 0 -4 -1 1332.28 9.2
 0 -4 0 1029.85 7.91
 0 -4 1 1367.32 9.19
 0 -3 -3 183.4 3.79
 0 -3 -1 1422.16 8.29
 0 -2 -2 2480.61 10.39
 0 -2 -1 4998.17 12.61
 0 -2 0 4842.12 11.33
 0 -1 0 -0.04 0.45
 1 -12 -3 1.81 3.74
 1 -12 -2 28.74 4.28
 1 -12 -1 55.8 5.52
 1 -12 0 3.42 3.46
 1 -12 1 7.74 3.43
 1 -11 -5 28.02 5.09
 1 -11 -4 26.09 4.7
 1 -11 -3 42.86 5.21
 1 -11 -2 18.39 4.03
 1 -11 -1 15.41 3.5
 1 -11 0 22.89 3.84
 1 -11 1 77.24 5.38
 1 -11 2 9.48 3.65
 1 -11 3 34.87 4.62
 1 -11 4 46.59 5
 1 -10 -5 7.69 3.49
 1 -10 -4 36.37 4.43
 1 -10 -3 22.92 4.38
 1 -10 -2 46.45 4.54
 1 -10 -1 101.78 5.63
 1 -10 1 5.56 3.47
 1 -10 2 3.43 3.41
 1 -10 3 92.28 5.67
 1 -10 4 17.39 3.88
 1 -10 5 7.49 3.17
 1 -10 6 50.94 4.99
 1 -10 7 24.12 4.03
 1 -9 -5 53.85 4.79
 1 -9 -4 18.06 4.04
 1 -9 -3 55.77 4.92
 1 -9 0 60.02 4.28
 1 -9 1 8.96 2.91
 1 -9 2 39.69 4.01
 1 -9 3 54.55 4.3
 1 -9 4 46.09 4.39
 1 -9 5 119.18 5.77
 1 -9 6 8.21 3.31
 1 -9 8 11.43 3.77
 1 -8 -6 233.36 7.85
 1 -8 -4 40.54 4.06
 1 -8 -3 47.6 4.14
 1 -8 -2 337.92 7.69
 1 -8 -1 101.47 4.56
 1 -8 2 45.36 3.69
 1 -8 3 25.44 3.4
 1 -8 4 54.31 4.19
 1 -8 5 53.71 4.3
 1 -8 6 63.15 4.97
 1 -8 7 7.66 3.55
 1 -8 8 24.66 4.25
 1 -8 9 1.98 3.72
 1 -7 -6 95.93 5.31
 1 -7 -5 200.56 6.18
 1 -7 -3 5.92 2.55
 1 -7 -2 13.82 2.35
 1 -7 2 15.85 2.46
 1 -7 3 69.83 4.01
 1 -7 5 261.48 7.22
 1 -6 -6 31.65 3.82
 1 -6 -4 305.47 6.84
 1 -5 -5 7.09 1.96
 1 -5 -3 64.09 3.38
 1 -5 1 160.29 4.3
 1 -4 -1 854.23 8.33
 1 -3 -3 172.62 3.76
 1 -3 -2 461.09 5.61
 1 -3 -1 1303.53 8.93
 1 -2 -4 975.82 8.54
 1 -2 -3 574.67 6.1
 1 -2 -2 1821.66 9.41
 1 -2 -1 1139.62 7.05
 1 -2 0 5103.04 14.38
 1 -1 -3 2428.51 10.6
 1 -1 -2 463.5 4.19
 1 -1 -1 645.54 4.39
 1 0 -2 17.9 0.94
 2 -11 -5 4.17 4.15
 2 -11 -4 13.87 4.17
 2 -11 -3 80.64 6.15
 2 -11 -2 41.43 5.09
 2 -11 -1 18.61 4.36
 2 -11 0 30.88 4.34
 2 -11 1 22.07 4.68
 2 -11 2 39.02 5.24
 2 -11 3 3.33 3.52
 2 -11 4 9.45 3.81
 2 -10 -6 19.07 4.6
 2 -10 -5 23.22 4.25
 2 -10 -4 71.15 5.91
 2 -10 -3 28.28 4.93
 2 -10 -2 34.4 4.5
 2 -10 -1 11.27 3.39
 2 -10 0 70.11 5.48
 2 -10 1 74.97 5.88
 2 -10 2 50.48 5.18
 2 -10 3 81.35 5.83
 2 -10 4 80.75 5.87
 2 -10 5 0.74 3.31
 2 -10 6 9.42 4.25
 2 -9 -5 142.48 6.46
 2 -9 -4 17.39 3.88
 2 -9 -3 30.59 4.49
 2 -9 -2 15.15 3.36
 2 -9 -1 145.38 6.12
 2 -9 0 90.43 5.67
 2 -9 1 3.88 3.34
 2 -9 2 15.4 3.82
 2 -9 3 8.81 3.36
 2 -9 4 24.21 4.44
 2 -9 5 1.26 3.64
 2 -9 6 94.26 6.28
 2 -9 7 55.75 5.74
 2 -9 8 21.51 5.09
 2 -8 -6 12.99 3.9
 2 -8 -1 9.5 2.78
 2 -8 0 165.94 6.05
 2 -8 1 97.04 5.15
 2 -8 2 16.53 2.93
 2 -8 3 79.06 5
 2 -8 4 5.09 3.06
 2 -8 7 15.87 3.94
 2 -8 9 12.86 4.53
 2 -7 -6 103.12 5.58
 2 -7 -4 106.44 5.34
 2 -7 -3 78.12 4.49
 2 -7 -2 29.58 3.5
 2 -7 0 12.46 2.73
 2 -7 1 123.44 4.92
 2 -7 2 113.78 5.22
 2 -7 3 55.59 4.15
 2 -7 4 2.17 2.65
 2 -7 5 2.62 2.79
 2 -6 -6 125.11 5.35
 2 -6 -4 35.29 3.37
 2 -6 -3 42.78 3.1
 2 -6 -2 95.11 4.09
 2 -6 2 19.8 2.77
 2 -6 3 117.84 4.99
 2 -5 -6 539.94 9.43
 2 -5 -5 4.23 2.38
 2 -5 0 36.37 2.9
 2 -4 -6 7.69 2.15
 2 -3 -5 281.7 5.65
 2 -3 -3 180.93 4.1
 2 -3 -1 539.41 6.43
 2 -3 0 507.23 6.53
 2 -2 -2 1780.68 10.45
 2 -2 0 918.1 7.81
 2 -1 -4 89.35 2.7
 2 -1 -3 87.36 2.51
 2 -1 -2 257.97 3.73
 2 0 -3 418.41 4.17
 2 0 -2 21.13 1.16
 2 0 -1 333.42 3.15
 3 -11 -4 28.88 5.69
 3 -11 -3 2.45 4.69
 3 -11 -2 39.72 5.03
 3 -11 -1 28.08 5.1
 3 -11 0 3.07 3.89
 3 -11 1 6.17 4
 3 -11 2 9.21 4.66
 3 -10 -6 3.05 3.82
 3 -10 -5 12.02 4.74
 3 -10 -4 4.7 4.26
 3 -10 -3 73.14 5.95
 3 -10 -2 65.05 5.67
 3 -10 -1 19.85 4.31
 3 -10 0 28.02 4.93
 3 -10 1 58.65 5.95
 3 -10 2 39.82 5.28
 3 -10 3 47.49 5.59
 3 -10 4 -3.02 3.5
 3 -10 5 67.98 6.28
 3 -9 -7 14.08 4.77
 3 -9 -6 22 4.16
 3 -9 -4 216.46 8.14
 3 -9 -3 20.04 3.84
 3 -9 -1 28.06 4.25
 3 -9 0 24.2 4.09
 3 -9 1 14.33 4.31
 3 -9 2 2.13 3.17
 3 -9 3 73.16 5.87
 3 -9 4 80.73 5.71
 3 -9 5 22.95 4.46
 3 -9 6 14.18 4.29
 3 -8 -6 5.25 4.16
 3 -8 -5 18.47 4.34
 3 -8 -4 20.3 4.26
 3 -8 -3 211.62 7.35
 3 -8 -1 40.81 4.76
 3 -8 1 118.58 5.94
 3 -8 2 49.29 4.44
 3 -8 4 55.87 5.5
 3 -8 5 20.35 4.33
 3 -8 6 -0.34 3.39
 3 -8 8 21.66 4.82
 3 -7 -7 6.5 3.11
 3 -7 -6 39.07 4.6
 3 -7 -5 89.86 5.37
 3 -7 -4 9.01 3.04
 3 -7 -3 106.89 4.92
 3 -7 -2 26.22 3.51
 3 -7 1 99.23 5.12
 3 -7 2 78.12 5.11
 3 -7 3 43.48 4.15
 3 -7 4 40.03 4.52
 3 -7 5 25.41 3.98
 3 -6 -7 10.61 3.01
 3 -6 -6 22.64 3.82
 3 -6 -5 48.77 4.32
 3 -6 -4 161.44 5.81
 3 -6 -3 214.87 6.08
 3 -6 -2 384.97 8.23
 3 -6 -1 58.07 3.87
 3 -6 0 134.16 5.12
 3 -6 1 14.65 2.65
 3 -6 2 186.81 6.03
 3 -6 3 13.46 2.82
 3 -5 -7 34.14 3.69
 3 -5 -6 146.16 5.45
 3 -5 -4 98.45 4.4
 3 -5 -3 26.16 2.96
 3 -5 1 403.1 8.04
 3 -5 2 17.68 2.83
 3 -4 -7 184.63 5.92
 3 -4 -5 141.4 4.99
 3 -4 -1 106.45 3.86
 3 -3 -4 1107.16 10.79
 3 -3 -3 286.01 5.43
 3 -3 -2 8.96 1.87
 3 -2 -5 619.39 8.02
 3 -2 -4 320.07 5.48
 3 -2 -3 79.88 2.92
 3 -2 -2 294.88 4.98
 3 -2 -1 750.91 7.64
 3 -2 0 519.27 6.58
 3 -1 -5 835.73 8.35
 3 -1 -4 33.99 2.08
 3 -1 -3 544.55 5.82
 3 -1 -2 6.58 1.39
 3 0 -4 676.53 6.06
 3 0 -3 50.37 1.75
 3 0 -2 3118.32 11.01
 3 0 -1 1.76 0.97
 3 1 -1 71.44 1.56
 4 -10 -5 10.74 4.76
 4 -10 -4 8 4.34
 4 -10 -3 4.05 3.99
 4 -10 -2 3.16 4.53
 4 -10 -1 23.66 4.35
 4 -10 0 18.51 5.16
 4 -10 1 4.74 4.76
 4 -10 2 9.27 4.07
 4 -10 3 14.99 4.54
 4 -9 -7 83.31 6.1
 4 -9 -6 67.34 6.41
 4 -9 -5 64.43 5.49
 4 -9 -4 3.42 4.47
 4 -9 -3 14.03 3.92
 4 -9 -2 21.62 4.17
 4 -9 -1 20.99 4.13
 4 -9 0 37.13 5.16
 4 -9 1 20.79 4.2
 4 -9 2 53.37 5.42
 4 -9 3 78.94 6.53
 4 -9 4 58.13 6.28
 4 -9 5 8.12 4.5
 4 -8 -8 30.67 5.51
 4 -8 -7 27.69 4.41
 4 -8 -5 6.82 3.5
 4 -8 -4 18.78 3.85
 4 -8 -2 79.04 5.66
 4 -8 0 127.67 6.5
 4 -8 1 13.79 4.1
 4 -8 2 34.45 4.44
 4 -8 3 1.4 4.23
 4 -8 4 4.87 4.15
 4 -8 6 3.67 4.24
 4 -7 -8 25.12 4.63
 4 -7 -7 51.91 5.34
 4 -7 -6 92.54 5.44
 4 -7 -5 56.95 5.06
 4 -7 -4 77.24 5.22
 4 -7 -3 22.66 3.43
 4 -7 -2 115.2 5.84
 4 -7 -1 143.25 6.34
 4 -7 1 37.79 3.98
 4 -7 2 149.33 6.79
 4 -7 3 92.95 6.03
 4 -7 5 2.04 3.58
 4 -7 6 26.26 4.7
 4 -7 7 28.15 5.39
 4 -6 -6 154.82 6.65
 4 -6 -5 144.75 6.04
 4 -6 -4 15.93 2.89
 4 -6 -3 57.27 4.06
 4 -6 -2 46.88 3.71
 4 -6 -1 20.27 3.24
 4 -6 0 42.77 3.52
 4 -6 2 27.73 4
 4 -6 4 72.65 5.61
 4 -5 -7 32.08 3.78
 4 -5 -6 86.81 4.82
 4 -5 -5 173.89 6.1
 4 -5 -4 102.97 4.51
 4 -4 -7 86.2 4.54
 4 -4 -6 79.28 4.55
 4 -4 -5 98.13 4.64
 4 -4 -4 358.76 7.14
 4 -4 -3 83.82 4.06
 4 -4 0 162.03 5.18
 4 -4 1 254.74 6.33
 4 -3 -7 231.17 6.21
 4 -3 -2 0.82 1.6
 4 -2 -4 715.94 8.32
 4 -2 -3 314.4 5.71
 4 -2 -2 106.68 3.53
 4 -2 0 185.35 4.54
 4 -1 -3 162.37 3.75
 4 -1 -2 61.07 2.58
 4 -1 -1 54.3 2.56
 4 0 -2 35.36 1.82
 4 0 -1 7.37 1.27
 4 1 -3 168.09 2.47
 4 1 -2 59.02 1.58
 4 2 -1 355.99 2.66
 5 -10 -1 23.94 5.11
 5 -9 -6 17.04 4.95
 5 -9 -5 4.93 4.03
 5 -9 -4 24.75 4.83
 5 -9 -3 19.26 4.8
 5 -9 -1 10.96 4.11
 5 -9 0 99.94 7.16
 5 -9 3 5.06 4.13
 5 -8 -7 84.01 6.65
 5 -8 -4 72.18 6.18
 5 -8 -1 23.63 5.04
 5 -8 0 23.48 4.38
 5 -8 1 50.98 5.84
 5 -8 2 4.35 4.05
 5 -8 5 8.63 4.7
 5 -7 -7 7.91 3.55
 5 -7 -6 19.02 4.23
 5 -7 -3 12.01 4.11
 5 -7 -2 78.69 5.79
 5 -7 -1 154.01 6.91
 5 -7 2 7.01 3.58
 5 -7 4 11.22 4.67
 5 -7 6 -1.3 4.6
 5 -6 -8 53.6 5.2
 5 -6 -7 30.28 4.14
 5 -6 -6 29.86 4.32
 5 -6 -5 18.48 3.79
 5 -6 -4 102.9 5.3
 5 -6 -2 3.4 2.69
 5 -6 -1 20.48 3.3
 5 -6 1 106.57 5.92
 5 -6 2 59.56 5.32
 5 -6 3 6.4 3.3
 5 -6 4 27.33 4.34
 5 -6 5 56.78 6.02
 5 -5 -8 85.44 5.72
 5 -5 -7 49.51 4.77
 5 -5 -6 40.63 4.63
 5 -5 -5 27.02 3.93
 5 -5 -4 50.76 4.15
 5 -5 -2 96.97 5.04
 5 -5 0 17.99 3.01
 5 -5 2 68.69 5.27
 5 -5 3 114.62 6.11
 5 -5 4 93.62 6.21
 5 -4 -7 112.29 5.24
 5 -4 -6 78.5 4.69
 5 -4 -3 54.97 3.8
 5 -4 0 17 3.27
 5 -4 1 11.84 2.84
 5 -4 2 5.49 2.46
 5 -3 -6 47.39 3.7
 5 -3 -3 126.85 4.54
 5 -3 -2 27.52 3.09
 5 -3 0 115.99 4.77
 5 -3 1 246.74 6.48
 5 -2 -6 14.32 2.34
 5 -2 1 311.12 7.33
 5 -1 -4 53.44 2.67
 5 0 -4 70.88 2.48
 5 0 -3 128.46 3
 5 0 -2 7.78 1.34
 5 0 0 60.23 2.78
 5 2 -1 29.38 1.21
 5 2 0 23.59 1.68
 6 -8 -6 27.69 5.1
 6 -8 -5 14.3 4.56
 6 -8 -4 53.14 5.78
 6 -8 -3 93.93 6.71
 6 -8 -2 11.23 4.64
 6 -8 -1 2.17 3.8
 6 -8 0 33.66 5.62
 6 -8 1 59.31 6.4
 6 -8 2 0.59 3.87
 6 -7 -7 35.29 5.04
 6 -7 -6 19.51 4.49
 6 -7 -5 7.2 3.72
 6 -7 -4 50.89 4.96
 6 -7 -3 26.93 4.65
 6 -7 -2 4.95 3.41
 6 -7 -1 10.14 3.81
 6 -7 0 8.2 3.68
 6 -7 1 0.4 3.45
 6 -7 2 18.82 4.26
 6 -7 4 -1.33 4
 6 -6 -8 130.76 6.66
 6 -6 -7 17.26 4.23
 6 -6 -6 22.84 4.44
 6 -6 -5 55.95 4.88
 6 -6 -3 1.92 3.72
 6 -6 -1 49.18 4.58
 6 -6 0 -0.74 2.98
 6 -6 1 2.29 3.37
 6 -6 3 52.74 6.14
 6 -6 4 8.19 4.06
 6 -6 5 15.68 5.36
 6 -5 -8 24.96 3.86
 6 -5 -7 57.66 5.12
 6 -5 -6 9.56 3.67
 6 -5 -5 21.05 3.69
 6 -5 -4 1.44 2.67
 6 -5 -3 13.98 3.16
 6 -5 -2 49.54 4.85
 6 -5 -1 38.69 4.53
 6 -5 0 18.32 3.57
 6 -5 1 16.43 3.74
 6 -5 2 15.23 4.05
 6 -5 3 107.55 6.74
 6 -5 4 7.87 4.34
 6 -5 5 7 4.19
 6 -5 6 17.57 5.79
 6 -4 -7 16.39 3.17
 6 -4 -6 36.94 4.17
 6 -4 -5 23.34 3.54
 6 -4 -3 39.25 4.03
 6 -4 -2 15.03 2.89
 6 -4 -1 -0.64 2.24
 6 -4 0 3.44 2.52
 6 -4 1 154.22 6.5
 6 -4 3 69.41 5.57
 6 -4 4 83.49 7.03
 6 -3 -7 79.07 4.47
 6 -3 -6 20.55 3.09
 6 -3 -5 17.91 2.74
 6 -3 -4 7.63 2.5
 6 -3 -2 157.93 5.32
 6 -3 -1 23.04 3.07
 6 -3 0 75.74 4.58
 6 -3 1 15.83 3.04
 6 -2 -6 16.93 2.63
 6 -2 -5 28.13 3.05
 6 -2 -4 6.77 1.89
 6 -2 -2 81.1 3.94
 6 -2 -1 48.47 3.31
 6 -2 0 61.66 3.81
 6 -2 1 7.88 2.56
 6 -2 2 76.91 4.95
 6 -1 0 43.23 3.33
 6 -1 1 15.33 2.74
 6 0 -3 20.33 1.84
 6 0 -2 19.22 1.99
 6 1 0 46.47 2.57
 7 -7 -5 16.63 4.77
 7 -7 -4 17.96 4.17
 7 -7 -3 11.51 4.52
 7 -7 -2 12.47 4.55
 7 -7 -1 23.29 5.18
 7 -7 0 30.89 5.13
 7 -7 1 3.98 4.44
 7 -6 -6 0.73 3.57
 7 -6 -5 7.71 4.09
 7 -6 -4 28.15 4.74
 7 -6 -3 12.26 3.69
 7 -6 -2 9.43 3.82
 7 -6 -1 17.76 4.1
 7 -6 0 53.41 5.85
 7 -6 1 29.23 4.52
 7 -6 2 20.83 4.8
 7 -6 3 19.68 4.79
 7 -5 -7 157.28 6.61
 7 -5 -6 7.22 3.28
 7 -5 -5 14.37 4.03
 7 -5 -3 14.9 3.93
 7 -5 -2 57.78 5.3
 7 -5 -1 50.25 5.02
 7 -5 1 4.03 3.32
 7 -5 2 7.45 3.7
 7 -5 3 11.94 4.32
 7 -5 4 23.38 4.75
 7 -4 -7 54.94 4.6
 7 -4 -6 -1.26 3.09
 7 -4 -5 67.88 4.81
 7 -4 -4 46.02 4.17
 7 -4 -3 13.49 3.08
 7 -4 -2 195.97 6.96
 7 -4 -1 58.29 4.68
 7 -4 0 11.6 3.79
 7 -4 1 5.06 3.46
 7 -4 2 44.32 4.87
 7 -4 3 30.9 4.95
 7 -4 4 7.12 4.46
 7 -4 5 24.59 4.62
 7 -3 -6 16.6 2.89
 7 -3 -4 7.64 2.7
 7 -3 -3 70.88 4.44
 7 -3 -1 16.05 3.04
 7 -3 0 65.81 4.7
 7 -3 2 38.68 4.75
 7 -3 3 65.23 5.37
 7 -3 4 19.99 3.93
 7 -3 5 7.75 4.39
 7 -2 -4 3.64 2.07
 7 -2 -2 66.27 4.03
 7 -2 -1 51.36 3.85
 7 -2 0 19.25 2.85
 7 -2 1 2.09 2.73
 7 -2 2 27.08 4.09
 7 -2 3 4.33 3.11
 7 -1 1 10 2.76
 7 -1 2 22.92 3.49
 7 -1 3 6.72 3.26
 7 0 2 4.14 2.62
 8 -5 -3 4.44 3.63
 8 -5 -2 22.08 3.87
 8 -5 -1 0.62 3.93
 8 -5 0 24.3 4.48
 8 -5 1 12.01 4.6
 8 -4 -2 12.74 3.37
 8 -4 -1 48.27 4.93
 8 -4 0 1.85 2.98
 8 -4 1 13.48 3.94
 8 -4 2 16.12 4.07
 8 -3 2 7.52 3.25
 8 -3 3 22.04 4.54
 -8 -6 3 68.86 4.98
 -8 -5 2 24.16 3.81
 -8 -5 3 8.32 3.13
 -8 -5 5 33.89 4.38
 -8 -4 4 136.38 6.72
 -8 -4 5 28.09 4.59
 -8 -4 6 40.05 5.24
 -8 -3 6 2.65 3.68
 -8 -3 7 9.65 4.27
 -8 -2 6 144.75 7.12
 -8 -2 7 4.47 3.65
 -8 -1 7 35.95 5.22
 -8 0 8 -0.91 3.16
 -8 1 8 47.4 5.81
 -7 -7 3 11.01 3.02
 -7 -7 4 21.27 3.92
 -7 -7 5 12.55 3.72
 -7 -6 2 17.28 3.05
 -7 -6 3 12.72 3.36
 -7 -6 5 4.33 2.96
 -7 -6 6 4.06 3.49
 -7 -6 7 100.81 6.43
 -7 -5 0 45.93 3.74
 -7 -5 1 44.25 3.85
 -7 -5 2 51.1 4.21
 -7 -5 3 20.92 3.49
 -7 -5 4 108.66 5.76
 -7 -5 5 20.48 4.05
 -7 -5 6 2.94 3.48
 -7 -5 7 157.63 6.7
 -7 -5 8 38.63 5.16
 -7 -4 3 11.91 3.37
 -7 -4 4 53.42 4.92
 -7 -4 5 79.03 5.37
 -7 -4 6 4.5 3.26
 -7 -4 7 56.04 4.91
 -7 -4 8 48.78 5.24
 -7 -3 5 23.04 3.94
 -7 -3 6 11.2 3.48
 -7 -3 7 20.04 4.04
 -7 -3 8 16.79 4.18
 -7 -3 9 184.14 7.55
 -7 -2 6 35.66 4.72
 -7 -2 7 3.69 3.16
 -7 -2 8 15.47 4.26
 -7 -2 9 30.65 4.2
 -7 -1 7 29.79 4.01
 -7 -1 8 148.27 6.76
 -7 -1 10 58.99 5.17
 -7 0 8 6.12 3.55
 -7 0 9 143.96 6.58
 -7 0 10 31.24 4.93
 -7 1 9 35.96 4.84
 -7 1 10 55.35 5.49
 -7 2 9 28.38 4.35
 -7 2 10 20.3 3.78
 -7 3 9 192.88 7.21
 -7 4 9 4.6 3.4
 -6 -8 4 55.06 4.59
 -6 -8 5 11.74 3.62
 -6 -8 6 29.71 4.42
 -6 -7 2 7.2 2.45
 -6 -7 4 55.18 4.48
 -6 -7 5 9.62 3.52
 -6 -7 6 21.19 3.84
 -6 -6 0 -2.28 1.91
 -6 -6 1 55.07 3.59
 -6 -6 3 3.75 2.4
 -6 -6 4 202.06 6.54
 -6 -6 5 56.64 4.25
 -6 -6 6 23.04 3.78
 -6 -6 7 13.89 3.79
 -6 -5 0 20.02 2.52
 -6 -5 1 31.69 3.23
 -6 -5 2 44.77 3.54
 -6 -5 3 15.83 3.14
 -6 -5 4 0.85 2.91
 -6 -5 5 19.67 3.64
 -6 -5 6 10.78 3.06
 -6 -5 8 21.2 3.86
 -6 -5 9 27.74 4.53
 -6 -4 4 218.19 6.58
 -6 -4 5 24.26 3.76
 -6 -4 6 30.84 3.87
 -6 -4 7 13.15 3.3
 -6 -4 8 1.41 3
 -6 -4 9 108.14 6.37
 -6 -4 10 27.59 4.77
 -6 -3 5 13.37 2.97
 -6 -3 7 87.3 5.47
 -6 -3 8 14.45 3.31
 -6 -3 9 11.78 3.75
 -6 -3 10 25.64 4.14
 -6 -2 6 23.22 3.22
 -6 -2 7 52.72 4.49
 -6 -2 8 44.61 4.75
 -6 -2 9 17.46 3.69
 -6 -2 10 89.14 5.81
 -6 -2 11 24.75 4.18
 -6 -1 7 3.88 2.88
 -6 -1 8 3.56 2.74
 -6 -1 9 60.98 5.26
 -6 -1 10 14.39 3.38
 -6 0 8 195.17 7.03
 -6 0 9 0.16 3.23
 -6 0 10 6.84 3.22
 -6 0 11 9.84 3.41
 -6 1 8 4.27 2.88
 -6 1 9 68.41 4.86
 -6 1 10 8.8 3.1
 -6 1 11 65.29 5.11
 -6 2 9 21.04 3.39
 -6 2 10 92.41 5.41
 -6 2 11 19.47 3.66
 -6 3 9 13.11 3.51
 -6 3 10 40.52 4.28
 -6 4 9 111.77 5.33
 -5 -9 4 26.44 3.28
 -5 -9 5 4.45 3.08
 -5 -9 6 21.05 3.99
 -5 -8 2 4.97 2.45
 -5 -8 3 51.57 3.95
 -5 -8 4 71.15 4.43
 -5 -8 5 15.06 3.38
 -5 -8 6 63.54 4.73
 -5 -7 1 151.96 4.6
 -5 -7 2 77.71 3.92
 -5 -7 3 15.23 2.58
 -5 -7 4 50.99 4.25
 -5 -7 5 96.15 5.39
 -5 -7 7 10.4 3.29
 -5 -7 8 16.99 3.67
 -5 -7 9 13.72 3.88
 -5 -6 0 11.51 1.99
 -5 -6 1 26.05 2.72
 -5 -6 2 4.61 1.82
 -5 -6 3 29.41 3.15
 -5 -6 4 102.12 4.56
 -5 -6 6 44.16 4.57
 -5 -6 9 169.61 7.2
 -5 -6 10 21.48 4.61
 -5 -5 3 139.03 4.9
 -5 -5 5 28.51 3.56
 -5 -5 6 40.45 4.22
 -5 -5 8 86.32 5.53
 -5 -5 9 56.74 5.52
 -5 -5 10 71.17 6.08
 -5 -4 3 45.74 3.01
 -5 -4 4 74.82 4.09
 -5 -4 6 66.97 4.24
 -5 -4 8 72.2 4.68
 -5 -4 9 0.94 3.29
 -5 -4 10 67.63 5.63
 -5 -4 11 9.41 3.76
 -5 -3 5 53.42 3.89
 -5 -3 6 48.9 3.96
 -5 -3 8 38.56 4.09
 -5 -3 9 69.94 5.26
 -5 -3 11 14.88 3.69
 -5 -2 6 21.19 2.74
 -5 -2 7 231.84 6.92
 -5 -2 9 27.29 3.69
 -5 -2 10 13 3.28
 -5 -2 11 2.53 3.23
 -5 -2 12 37.5 4.97
 -5 -1 7 60.31 3.81
 -5 -1 9 44.94 4.2
 -5 -1 10 51.05 4.35
 -5 -1 11 8.73 3.28
 -5 -1 12 12.38 3.92
 -5 0 8 161.62 5.9
 -5 0 9 150.68 5.94
 -5 0 10 36.46 4.26
 -5 0 11 75.86 5.11
 -5 0 12 1.92 2.96
 -5 1 9 48.15 3.93
 -5 1 10 53 4.39
 -5 1 11 8.87 3.04
 -5 1 12 4.73 2.83
 -5 2 8 18.24 2.95
 -5 2 9 30.85 3.46
 -5 2 10 13.09 2.77
 -5 2 11 2.7 2.94
 -5 3 9 76.77 4.54
 -5 3 10 66.53 4.24
 -5 4 9 -0.63 1.98
 -4 -10 5 26.94 4
 -4 -10 6 17.75 3.68
 -4 -9 3 12.23 2.62
 -4 -9 4 7.71 2.55
 -4 -9 5 68.64 4.76
 -4 -9 6 65.16 5
 -4 -9 7 80.43 5.78
 -4 -8 1 25.4 2.48
 -4 -8 2 81.7 3.78
 -4 -8 3 107.39 4.45
 -4 -8 5 2.42 2.78
 -4 -8 7 22.03 3.71
 -4 -8 8 31.95 4.2
 -4 -8 9 5.91 4.28
 -4 -7 1 137.46 4.17
 -4 -7 2 117.13 4.19
 -4 -7 3 25.93 3.04
 -4 -7 4 74.32 4.06
 -4 -7 5 51.72 4.24
 -4 -7 6 95.16 5.18
 -4 -7 7 46.83 4.47
 -4 -7 8 22 3.83
 -4 -7 9 68.44 5.67
 -4 -7 10 21.05 4.21
 -4 -6 -1 36.83 2.02
 -4 -6 0 53 2.56
 -4 -6 2 43.51 2.9
 -4 -6 3 59.13 3.49
 -4 -6 4 12.53 2.78
 -4 -6 5 135.39 5.05
 -4 -6 6 155.33 5.99
 -4 -6 7 117.29 5.82
 -4 -6 8 15.53 3.52
 -4 -6 9 6.86 3.17
 -4 -6 10 12.68 4.19
 -4 -5 -2 200.09 3.72
 -4 -5 -1 390.23 5.48
 -4 -5 3 116.16 4.04
 -4 -5 4 110.07 4.24
 -4 -5 5 177.31 5.53
 -4 -5 8 19.84 3.28
 -4 -5 9 97.75 5.7
 -4 -5 11 5.33 3.53
 -4 -4 4 371.4 7.09
 -4 -4 7 89.41 4.69
 -4 -4 8 48.06 4.39
 -4 -4 9 85.35 5.3
 -4 -3 4 22.29 2.61
 -4 -3 7 235.26 6.37
 -4 -3 8 244.98 6.75
 -4 -3 9 35.57 3.8
 -4 -3 10 21.47 3.78
 -4 -3 11 100.46 6.08
 -4 -3 12 0.54 3.74
 -4 -2 5 279.8 6.08
 -4 -2 6 106.83 4.18
 -4 -2 7 143.06 5.07
 -4 -2 8 83.15 4.11
 -4 -2 9 122.26 5.51
 -4 -2 11 16.68 3.4
 -4 -2 12 62.31 5.29
 -4 -1 7 92.22 4.21
 -4 -1 8 212.34 6.07
 -4 -1 9 59.47 3.98
 -4 -1 10 76.34 4.37
 -4 -1 11 45.46 4.41
 -4 -1 12 12.97 3.53
 -4 -1 13 36.98 4.51
 -4 0 8 272.29 6.57
 -4 0 9 174.82 5.67
 -4 0 10 36.8 3.9
 -4 0 11 29.49 3.53
 -4 0 12 60.7 4.69
 -4 1 8 209.89 5.78
 -4 1 10 81.83 4.31
 -4 1 11 44.81 3.96
 -4 1 12 18.26 3.11
 -4 2 8 89.66 4.14
 -4 2 9 118.01 4.6
 -4 2 10 92.99 4.32
 -4 2 11 13.62 2.9
 -4 3 8 255.11 5.92
 -4 3 9 33.45 3.1
 -4 3 10 24.65 3
 -4 4 8 47.02 3.18
 -4 4 9 83.79 3.8
 -4 5 8 19.3 2.54
 -3 -10 4 8.35 2.97
 -3 -10 5 9.53 3.03
 -3 -10 6 5.23 3.14
 -3 -10 7 2.42 3.16
 -3 -9 2 13.87 2.53
 -3 -9 3 19.66 2.81
 -3 -9 4 211.24 6.37
 -3 -9 5 13.77 3.21
 -3 -9 6 23.41 3.6
 -3 -9 7 16.28 3.81
 -3 -9 8 47.89 5.4
 -3 -8 2 59.51 3.22
 -3 -8 4 15.39 2.54
 -3 -8 6 6.96 2.75
 -3 -8 8 4.22 3.64
 -3 -8 9 6.31 3.44
 -3 -7 0 91.58 2.77
 -3 -7 3 106.76 4.05
 -3 -7 4 6.62 2.05
 -3 -7 5 100.87 4.81
 -3 -7 6 38.75 3.84
 -3 -7 7 9.74 3.22
 -3 -7 8 27.29 3.84
 -3 -7 9 36 5
 -3 -7 10 7.39 4.47
 -3 -6 -1 17.94 1.47
 -3 -6 1 61.42 2.72
 -3 -6 3 218.93 5.27
 -3 -6 4 157.83 4.77
 -3 -6 5 45.82 3.2
 -3 -6 6 21.62 3.24
 -3 -6 7 12.52 2.88
 -3 -6 8 40.2 4.13
 -3 -6 9 24.67 4.04
 -3 -6 10 78.48 5.8
 -3 -5 -2 18.44 1.16
 -3 -5 -1 406.93 4.71
 -3 -5 0 146.46 3.23
 -3 -5 1 17.66 1.89
 -3 -5 2 70.67 3.02
 -3 -5 5 34.73 3.02
 -3 -5 6 137.79 4.85
 -3 -5 7 32.64 3.64
 -3 -5 8 0.61 2.56
 -3 -5 9 288.65 8.09
 -3 -5 10 9.22 3.13
 -3 -5 11 0.36 3.05
 -3 -4 0 198.56 3.68
 -3 -4 1 112.91 3.05
 -3 -4 2 640.09 7.4
 -3 -4 3 147.75 4.07
 -3 -4 6 197.05 5.53
 -3 -4 7 198.4 6.07
 -3 -4 8 1.09 2.54
 -3 -4 9 227.14 7.16
 -3 -4 10 164.33 6.58
 -3 -4 12 65.52 5.78
 -3 -3 3 288.77 5.18
 -3 -3 6 62.66 3.1
 -3 -3 7 58.82 3.75
 -3 -3 8 59.7 4.14
 -3 -3 9 37.06 3.46
 -3 -3 10 2.54 2.88
 -3 -3 11 8.66 3.45
 -3 -3 12 39.94 4.8
 -3 -2 7 18.43 2.31
 -3 -2 8 157.57 5.35
 -3 -2 9 228.7 6.47
 -3 -2 10 171.31 5.91
 -3 -2 11 245.45 7.36
 -3 -2 12 47.97 4.79
 -3 -2 13 29.65 4.02
 -3 -1 5 811.83 8.86
 -3 -1 7 20.54 2.38
 -3 -1 8 34.92 2.84
 -3 -1 9 17.75 2.59
 -3 -1 10 21.02 3.1
 -3 -1 11 211.36 6.65
 -3 -1 12 16.48 3.34
 -3 -1 13 8.97 3.16
 -3 0 8 7.48 1.82
 -3 0 9 -0.9 2.23
 -3 0 10 349.63 7.46
 -3 0 11 2.01 2.61
 -3 0 12 124.63 5.32
 -3 1 8 36.71 2.82
 -3 1 9 13.67 2.42
 -3 1 10 27.62 3.03
 -3 2 8 148.04 4.22
 -3 2 9 229.28 5.36
 -3 2 10 175.15 5.08
 -3 3 9 34.29 2.57
 -3 4 7 161.73 3.96
 -3 5 7 25.84 2.04
 -2 -11 5 3.3 2.9
 -2 -10 5 19.98 3.63
 -2 -10 6 19.27 3.99
 -2 -10 7 16.51 3.59
 -2 -9 2 16.15 2.34
 -2 -9 4 15.49 3.3
 -2 -9 5 137.86 5.86
 -2 -9 6 20.86 3.8
 -2 -9 7 12.18 3.96
 -2 -9 8 9.49 3.58
 -2 -8 0 163.24 3.56
 -2 -8 2 30.59 2.65
 -2 -8 3 15.73 2.72
 -2 -8 4 96.03 4.42
 -2 -8 5 165.77 5.93
 -2 -8 6 14.66 3.19
 -2 -8 7 2.47 3.49
 -2 -8 8 132.81 6.76
 -2 -8 9 2.35 4.12
 -2 -7 0 14.48 1.64
 -2 -7 1 55.82 2.61
 -2 -7 5 74.01 4.23
 -2 -7 6 89.73 4.39
 -2 -7 7 25.62 3.51
 -2 -7 8 98.36 5.22
 -2 -7 9 55.17 5.55
 -2 -7 10 58.28 5.63
 -2 -6 -1 464.05 4.49
 -2 -6 1 73.14 2.61
 -2 -6 5 4.18 1.91
 -2 -6 6 118.14 4.75
 -2 -6 7 25.37 3.1
 -2 -6 8 25.87 3.5
 -2 -6 10 102.25 6.4
 -2 -6 11 40.11 4.83
 -2 -5 -2 100.6 1.53
 -2 -5 0 37.55 1.79
 -2 -5 1 69.41 2.57
 -2 -5 5 5.35 1.73
 -2 -5 6 513.36 8.56
 -2 -5 8 12.01 2.69
 -2 -5 9 51.12 4
 -2 -5 10 110.54 6.18
 -2 -5 11 14.34 3.74
 -2 -5 12 37.79 4.85
 -2 -4 -2 180.83 2.09
 -2 -4 -1 714.8 4.94
 -2 -4 0 112.8 2.37
 -2 -4 3 99.2 3.09
 -2 -4 7 128.19 4.72
 -2 -4 8 9.95 2.37
 -2 -4 9 156.16 5.85
 -2 -4 10 18.53 3.76
 -2 -4 11 42.3 4.9
 -2 -4 12 4.11 3.3
 -2 -3 2 136.59 3.19
 -2 -3 7 56.4 3.28
 -2 -3 8 121.88 4.83
 -2 -3 10 8.49 2.62
 -2 -3 11 92.34 5.58
 -2 -3 12 88.73 5.59
 -2 -3 13 23.48 3.99
 -2 -2 3 1079.23 8.37
 -2 -2 5 676.66 7.63
 -2 -2 7 108.19 4.02
 -2 -2 8 3.83 1.86
 -2 -2 9 7.77 2.25
 -2 -2 12 25.49 3.65
 -2 -1 4 91.99 2.73
 -2 -1 5 5 1.39
 -2 -1 6 343.87 5.72
 -2 -1 8 172.72 4.95
 -2 -1 9 46.93 3.31
 -2 -1 10 157.51 5.42
 -2 -1 11 11.44 2.67
 -2 -1 12 7.98 3.15
 -2 0 5 37.19 2.16
 -2 0 9 140.9 4.56
 -2 0 10 0 2.06
 -2 0 11 296.77 6.86
 -2 0 12 101.77 4.92
 -2 1 6 334.41 5.18
 -2 1 7 84.47 3.03
 -2 1 9 53.36 3.18
 -2 1 10 164.01 4.7
 -2 1 11 9.51 2.21
 -2 2 6 151.17 3.45
 -2 2 7 102.23 3.05
 -2 2 8 0.46 1.29
 -2 2 10 111.71 3.75
 -2 3 6 143.8 3.19
 -2 3 8 105.47 3.07
 -2 4 6 3.71 1.1
 -2 4 7 124.42 2.83
 -2 5 6 546.08 5.23
 -1 -10 4 36.26 4.08
 -1 -10 5 8.59 3.59
 -1 -10 6 12.11 3.66
 -1 -10 7 2.41 3.61
 -1 -9 2 37.39 3.02
 -1 -9 3 54.66 3.77
 -1 -9 4 13.82 2.93
 -1 -9 6 27.3 3.8
 -1 -9 7 -0.05 2.88
 -1 -8 3 43.16 3.34
 -1 -8 4 41.43 3.39
 -1 -8 5 47.95 3.69
 -1 -8 6 233.45 7.28
 -1 -8 7 15.22 3.83
 -1 -8 8 1.97 3.07
 -1 -8 9 51.37 5.36
 -1 -7 0 105.77 2.89
 -1 -7 1 53.07 2.66
 -1 -7 3 5.18 1.79
 -1 -7 5 204.68 5.9
 -1 -7 6 92.44 4.73
 -1 -7 8 104.09 5.37
 -1 -7 9 16.39 3.69
 -1 -7 10 10.58 4.4
 -1 -6 0 2.63 1.13
 -1 -6 1 304.8 4.88
 -1 -6 2 175.54 4.1
 -1 -6 4 287.36 5.96
 -1 -6 7 208.41 6.38
 -1 -6 8 13.07 3.09
 -1 -6 9 24.39 3.76
 -1 -6 10 45.31 5.3
 -1 -6 11 66.33 5.86
 -1 -5 1 200.92 3.61
 -1 -5 5 6.43 1.77
 -1 -5 7 2.84 2.16
 -1 -5 8 19.18 2.86
 -1 -5 9 96.72 5.39
 -1 -5 10 139.78 6.25
 -1 -5 11 51.49 5.34
 -1 -5 12 53.74 5.22
 -1 -4 -1 914.23 4.65
 -1 -4 1 827.8 6.45
 -1 -4 3 569.96 6.61
 -1 -4 4 105.8 3.42
 -1 -4 6 113.65 3.91
 -1 -4 7 13.39 2.23
 -1 -4 8 90.24 4.33
 -1 -4 9 89.63 4.58
 -1 -4 12 59.29 5.24
 -1 -3 -1 42.94 1.05
 -1 -3 0 274.5 3.03
 -1 -3 1 1319.58 7.31
 -1 -3 3 176.78 3.55
 -1 -3 9 255.19 6.67
 -1 -3 10 37.34 4.03
 -1 -3 11 7.04 3.06
 -1 -3 12 30.91 4
 -1 -3 13 5.59 3.72
 -1 -2 0 4999.52 10.39
 -1 -2 2 1724.75 8.39
 -1 -2 3 615.24 5.82
 -1 -2 4 1023.25 8.29
 -1 -2 5 264.56 4.85
 -1 -2 6 95.33 3.52
 -1 -2 8 55.85 3.42
 -1 -2 9 78.4 3.78
 -1 -2 10 189.93 6.1
 -1 -2 11 -2.05 2.38
 -1 -2 12 114.45 5.7
 -1 -2 13 4.98 3.25
 -1 -1 2 454.64 4.07
 -1 -1 3 2384.49 10.16
 -1 -1 4 134.15 3.01
 -1 -1 5 454.54 5.69
 -1 -1 6 42.88 2.28
 -1 -1 8 56.56 2.86
 -1 -1 9 121.95 4.33
 -1 -1 10 154.85 5.31
 -1 -1 12 -2.45 2.48
 -1 0 4 306.79 3.99
 -1 0 5 569.82 5.81
 -1 0 6 222.65 4.19
 -1 0 7 1.25 1.29
 -1 0 9 89.28 3.69
 -1 0 10 338 6.84
 -1 0 11 18.1 2.88
 -1 1 4 136.31 2.56
 -1 1 5 453.87 4.83
 -1 1 6 40.34 2.05
 -1 1 7 91.92 2.93
 -1 1 8 61.98 2.71
 -1 1 10 159.93 4.53
 -1 2 6 93.71 2.41
 -1 2 7 92.42 2.64
 -1 2 9 73.16 2.82
 -1 3 5 55.74 1.59
 -1 3 6 96.72 2.17
 -1 3 7 112.66 2.53
 -1 3 8 16.8 1.43
 -1 4 5 417.58 3.35
 -1 4 6 127.2 2
 0 -9 4 0.9 2.56
 0 -9 5 37.95 4.2
 0 -9 6 11.43 3.44
 0 -9 8 48.69 5.06
 0 -8 2 107.36 3.92
 0 -8 3 182.04 5.37
 0 -8 4 13.74 2.69
 0 -8 5 62.83 4.14
 0 -8 6 19.1 3.16
 0 -8 7 173.18 6.91
 0 -8 8 55.07 4.73
 0 -8 9 50.81 5.67
 0 -7 1 125.88 3.64
 0 -7 3 11.04 2.3
 0 -7 5 138.62 5.1
 0 -7 6 12.87 2.82
 0 -7 7 39.5 4.12
 0 -7 9 134.65 6.76
 0 -7 10 0.71 4.03
 0 -6 0 872.02 7.23
 0 -6 4 90.98 3.71
 0 -6 5 3.72 1.93
 0 -6 6 65.29 4.2
 0 -6 7 49.42 3.54
 0 -6 9 6.5 3.34
 0 -6 10 39.08 4.73
 0 -5 3 81.63 3.17
 0 -5 5 125.21 4.34
 0 -5 6 351.51 7.33
 0 -5 7 228.47 6.24
 0 -5 8 81.06 4.37
 0 -5 9 35.21 4.04
 0 -5 10 -0.03 2.76
 0 -5 11 31.16 4.27
 0 -4 0 1003.98 6.33
 0 -4 1 1348.56 8.46
 0 -4 4 264.04 5.04
 0 -4 6 55.37 3.44
 0 -4 7 118.2 4.8
 0 -4 8 106.39 4.93
 0 -4 11 20.61 4.03
 0 -4 12 54.28 5.23
 0 -3 0 1.33 0.68
 0 -3 1 1440.73 7.71
 0 -3 2 52.73 2.18
 0 -3 3 181.51 3.56
 0 -3 5 5.05 1.39
 0 -3 9 123.39 5.05
 0 -3 10 204.38 6.54
 0 -3 11 2.59 2.78
 0 -3 12 0.84 3.1
 0 -2 0 4720.61 9.43
 0 -2 1 4986.89 11.78
 0 -2 4 271.96 4.35
 0 -2 5 743.49 7.68
 0 -2 6 136.26 3.97
 0 -2 8 54.53 3.52
 0 -2 9 302.95 6.82
 0 -2 10 54.58 3.97
 0 -2 12 4.46 2.68
 0 -1 1 438.25 2.93
 0 -1 2 665.62 4.45
 0 -1 3 1304.36 7.29
 0 -1 4 162.33 3.16
 0 -1 5 476.29 5.57
 0 -1 8 18.61 2.32
 0 -1 10 45.55 3.47
 0 -1 11 152.92 5.48
 0 -1 12 33.55 3.75
 0 0 2 1846.99 6.08
 0 0 4 904.57 6.13
 0 0 5 50.36 1.95
 0 0 7 77.46 2.87
 0 0 9 9 1.95
 0 0 10 314.12 6.43
 0 0 11 35.45 3.32
 0 1 0 0.35 0.34
 0 1 2 644.26 2.66
 0 1 3 1262.01 5.13
 0 1 4 153.06 2.34
 0 1 5 495.91 4.69
 0 1 6 496.99 5.3
 0 1 8 20.6 2.03
 0 1 10 39.1 2.83
 0 2 1 5179.12 6.97
 0 2 3 1024.76 3.36
 0 2 5 724.54 4.7
 0 2 6 141.41 2.64
 0 2 9 302.46 4.84
 0 3 5 5.62 0.57
 0 3 6 710.43 3.98
 0 3 7 107.18 1.98
 1 -7 4 103.39 4.05
 1 -7 5 263.01 6.67
 1 -7 7 3.51 2.94
 1 -6 3 12.92 2.17
 1 -6 4 1.42 1.81
 1 -6 5 31.03 3.17
 1 -6 6 19.9 3.04
 1 -6 7 99.45 4.76
 1 -5 2 109.32 3.39
 1 -5 6 43.96 3.22
 1 -5 7 21.09 2.91
 1 -5 8 34.98 4.06
 1 -4 3 95.59 3.17
 1 -4 6 233.32 5.7
 1 -4 7 63.25 3.95
 1 -4 8 14.87 2.71
 1 -4 10 18.84 3.59
 1 -3 9 71.1 4.59
 1 -3 10 17.18 3.03
 1 -2 4 190.43 3.91
 1 -2 5 428.41 6.15
 1 -2 8 38.83 3.16
 1 -2 9 41.71 3.51
 1 -1 2 1312.6 7.04
 1 -1 3 496.33 5
 1 -1 4 968.8 7.59
 1 -1 5 137.74 3.44
 1 -1 6 646.83 7.53
 1 -1 8 37.04 2.84
 1 -1 9 9.31 2.08
 1 0 3 0.91 0.79
 1 0 5 772.63 6.85
 1 0 7 925.57 8.92
 1 1 5 132.14 2.6
 1 1 6 612.25 5.84
 -8 -6 1 51.11 5.1
 -8 -5 -1 8.53 3.69
 -8 -5 0 20.14 3.65
 -8 -5 1 2.42 3.75
 -8 -5 2 15.17 4.17
 -8 -5 3 8.97 4.2
 -8 -5 4 29.41 4.46
 -8 -5 5 34.29 4.67
 -8 -4 -2 17.9 3.81
 -8 -4 -1 7.48 3.34
 -8 -4 0 -0.28 3.06
 -8 -4 1 46.66 4.87
 -8 -4 2 18.94 3.81
 -8 -4 3 30.95 4.69
 -8 -4 4 143.36 7.26
 -8 -4 5 27.58 4.92
 -8 -3 -3 22.66 4.22
 -8 -3 -2 4.94 3.61
 -8 -3 -1 29.27 4.4
 -8 -3 0 6.67 3.7
 -8 -3 1 13.3 3.65
 -8 -3 2 135.03 7.06
 -8 -3 3 64.68 5.61
 -8 -3 4 11.39 4.25
 -8 -3 5 31.99 4.7
 -8 -3 6 1.07 3.34
 -8 -3 7 9.56 4.03
 -8 -2 -3 55.26 5.68
 -8 -2 -2 33.64 5.01
 -8 -2 -1 5.09 4.3
 -8 -2 0 7.08 3.47
 -8 -2 1 60.49 5.18
 -8 -2 2 69.65 5.98
 -8 -2 3 28.63 4.17
 -8 -2 4 60.15 5.88
 -8 -2 5 18.88 4.34
 -8 -2 6 154.11 7.44
 -8 -2 7 6.2 3.55
 -8 -1 -3 48.91 5.08
 -8 -1 -1 10.68 3.6
 -8 -1 1 11.01 4.27
 -8 -1 2 2.08 3.15
 -8 -1 3 198.41 8.02
 -8 -1 4 20.88 4.6
 -8 -1 5 34.48 4.83
 -8 -1 6 11.41 3.72
 -8 -1 7 30.04 4.81
 -8 0 -3 47.08 5.07
 -8 0 -2 74.69 6.06
 -8 0 -1 27.54 4.22
 -8 0 0 13.41 4.42
 -8 0 1 17.4 4.49
 -8 0 2 20.94 3.95
 -8 0 3 297.71 8.9
 -8 0 5 27.49 4.73
 -8 0 6 13.15 4.05
 -8 0 7 29.87 4.53
 -8 0 8 6.33 3.77
 -8 1 -3 36.57 5.81
 -8 1 -2 6.49 3.6
 -8 1 -1 3.58 4
 -8 1 0 -0.08 3.03
 -8 1 1 11.71 3.96
 -8 1 2 -1.41 3.04
 -8 1 3 204.57 7.8
 -8 1 4 17.25 3.85
 -8 1 5 35.33 5.1
 -8 1 6 17.12 3.92
 -8 1 7 27.8 4.44
 -8 1 8 37.76 5.36
 -8 2 -2 34.24 5.3
 -8 2 -1 6.79 3.8
 -8 2 1 61.37 5.72
 -8 2 3 25.06 4.41
 -8 2 5 14.64 4.02
 -8 2 6 144.14 6.97
 -8 2 7 13.18 3.67
 -8 3 -2 4.59 3.8
 -8 3 -1 27.86 4.87
 -8 3 0 9.34 3.92
 -8 3 1 12.77 3.9
 -8 3 2 134.11 7.05
 -8 3 3 57.88 5.51
 -8 3 4 17.97 3.78
 -8 3 5 41.1 4.81
 -8 3 6 5.53 3.25
 -8 3 7 9.58 3.38
 -8 4 -2 26.62 4.44
 -8 4 -1 14.95 3.75
 -8 4 0 -2.72 2.94
 -8 4 1 50.53 5.5
 -8 4 4 146.85 6.91
 -8 4 6 29.32 4.46
 -8 5 0 23.01 4.56
 -8 5 1 0.81 2.91
 -8 5 2 21.22 3.7
 -8 5 3 11.77 3.85
 -7 -7 2 10.72 3.44
 -7 -7 3 10.92 3.45
 -7 -7 4 13.07 3.28
 -7 -7 5 11.96 3.21
 -7 -7 6 10.1 3.49
 -7 -6 -1 22.73 3.55
 -7 -6 0 44.82 4.33
 -7 -6 1 15.08 3.17
 -7 -6 2 14.02 3.43
 -7 -6 3 12.6 3.81
 -7 -6 4 30.25 3.94
 -7 -6 6 0.46 3.05
 -7 -5 -4 18.64 3.42
 -7 -5 -3 6.44 3.43
 -7 -5 -2 9.37 3.53
 -7 -5 -1 2.09 2.63
 -7 -5 0 42.71 4.26
 -7 -5 1 40.41 4.58
 -7 -5 2 54.99 5.08
 -7 -5 4 107.73 5.97
 -7 -5 5 19.48 3.73
 -7 -5 6 6.69 3.29
 -7 -5 7 166.72 7.42
 -7 -4 -5 30.48 4.32
 -7 -4 -4 4.01 3.32
 -7 -4 -3 32.97 3.91
 -7 -4 -2 42.16 4.69
 -7 -4 -1 4.45 3.08
 -7 -4 0 12.24 3.27
 -7 -4 1 62.58 4.99
 -7 -4 3 19.74 3.63
 -7 -4 4 51.41 4.83
 -7 -4 5 75.05 5.06
 -7 -4 6 0.8 3.02
 -7 -4 7 53.7 5.44
 -7 -4 8 62.62 5.99
 -7 -3 -3 68.23 5.42
 -7 -3 -2 25.79 4.1
 -7 -3 -1 103.51 6.05
 -7 -3 0 66.7 5.29
 -7 -3 1 19.51 3.3
 -7 -3 2 23.39 3.52
 -7 -3 4 6.26 3.07
 -7 -3 5 21.76 4.21
 -7 -3 6 17.32 3.77
 -7 -3 7 19.33 4.35
 -7 -3 8 12.86 3.87
 -7 -2 -3 6.76 3.29
 -7 -2 -2 31.03 3.76
 -7 -2 -1 2.83 3.21
 -7 -2 0 22.04 3.51
 -7 -2 1 58.92 5.12
 -7 -2 2 64.64 5.19
 -7 -2 4 -1.21 2.62
 -7 -2 5 14.22 3.38
 -7 -2 6 43.67 5.18
 -7 -2 7 1.49 3.06
 -7 -2 8 14.53 4.05
 -7 -2 9 26.54 4.42
 -7 -1 -2 17.86 3.46
 -7 -1 -1 10.01 3.2
 -7 -1 0 121.69 5.62
 -7 -1 1 12.25 3.28
 -7 -1 2 15.88 3.2
 -7 -1 3 5.53 2.82
 -7 -1 4 26.73 3.64
 -7 -1 5 16.28 3.59
 -7 -1 6 8.45 3.95
 -7 -1 7 23.88 4.31
 -7 -1 8 136.39 6.71
 -7 -1 9 43.85 4.95
 -7 -1 10 65.18 6.15
 -7 0 0 25.54 3.66
 -7 0 1 52.3 4.96
 -7 0 2 2.72 2.65
 -7 0 3 114.3 5.85
 -7 0 4 7.04 2.89
 -7 0 5 3.27 2.88
 -7 0 6 0.98 2.85
 -7 0 7 12.37 3.68
 -7 0 8 5.16 3.27
 -7 0 9 144.4 7.06
 -7 0 10 31.83 4.59
 -7 1 -1 10.1 3.15
 -7 1 0 116.72 5.74
 -7 1 1 10.06 2.89
 -7 1 2 12.29 3.39
 -7 1 3 3.72 2.57
 -7 1 4 25.22 3.59
 -7 1 5 12.07 3.3
 -7 1 6 12.23 3.98
 -7 1 7 25.96 3.92
 -7 1 9 31.35 4.3
 -7 1 10 57.67 5.62
 -7 2 -1 5.68 3.03
 -7 2 0 20.74 3.8
 -7 2 1 63.48 5.04
 -7 2 2 60.31 4.85
 -7 2 3 267.43 8.12
 -7 2 4 2.74 2.84
 -7 2 5 10.67 3.11
 -7 2 6 46.4 5.04
 -7 2 7 5.25 3.02
 -7 2 8 12.96 3.77
 -7 2 9 27.94 4.1
 -7 2 10 23.09 3.88
 -7 3 -1 105.7 6.07
 -7 3 0 75.61 5.19
 -7 3 1 17.38 3.39
 -7 3 2 40.97 4.39
 -7 3 3 75.8 5.03
 -7 3 4 7.12 2.88
 -7 3 5 23.16 3.95
 -7 3 6 16.41 3.59
 -7 3 7 21.38 3.44
 -7 3 8 15.23 3.78
 -7 3 9 193.35 7.21
 -7 4 -1 6.99 3.35
 -7 4 1 68.09 4.77
 -7 4 2 194.13 7.09
 -7 4 3 17.48 3.4
 -7 4 4 50.32 4.66
 -7 4 5 78.61 4.94
 -7 4 6 1.37 2.63
 -7 4 7 61 4.66
 -7 4 8 58.11 4.68
 -7 5 -1 3.94 3.71
 -7 5 0 48.02 4.62
 -7 5 1 44.53 4.77
 -7 5 2 53.25 4.75
 -7 5 3 22.26 3.74
 -7 5 4 96.86 5.35
 -7 5 5 16.18 3.39
 -7 5 6 2.21 3.13
 -7 6 -1 39.83 4.63
 -7 6 0 53.57 4.84
 -7 6 1 17.2 3.25
 -7 6 2 11.71 2.92
 -7 6 3 17.54 3.59
 -7 7 -2 39.7 4.63
 -6 -8 6 31.72 3.79
 -6 -7 1 10.96 2.71
 -6 -7 2 4.99 2.45
 -6 -7 3 23.63 3.41
 -6 -7 4 56.55 4.42
 -6 -7 5 4.33 3.17
 -6 -7 6 18.54 3.43
 -6 -7 7 42.2 4.81
 -6 -7 8 15.91 3.8
 -6 -6 -2 3.28 2.21
 -6 -6 -1 -0.1 2.04
 -6 -6 0 2.52 2.73
 -6 -6 1 50.03 4.19
 -6 -6 2 79.31 4.78
 -6 -6 3 2.15 2.49
 -6 -6 4 195.23 6.58
 -6 -6 6 23.27 3.57
 -6 -6 7 13.56 3.82
 -6 -5 -5 3.33 2.71
 -6 -5 -4 3.52 2.37
 -6 -5 -3 103.58 5.04
 -6 -5 -2 19.59 3.06
 -6 -5 -1 12.36 2.69
 -6 -5 0 18.4 2.9
 -6 -5 1 37.2 3.66
 -6 -5 2 48.01 4.02
 -6 -5 3 17.48 3.42
 -6 -5 4 3.87 2.64
 -6 -5 5 16.99 3.19
 -6 -5 6 13.19 3.41
 -6 -5 7 67.5 5.46
 -6 -5 8 23.95 4.53
 -6 -5 9 30.27 4.96
 -6 -4 -4 83.43 5.03
 -6 -4 -2 9.44 2.57
 -6 -4 -1 147.92 5.77
 -6 -4 0 5.01 2.31
 -6 -4 1 1 2.37
 -6 -4 2 14.25 2.7
 -6 -4 3 39.52 4.12
 -6 -4 4 222.82 7.1
 -6 -4 5 33.06 3.72
 -6 -4 7 12.98 3.29
 -6 -4 8 3.88 3.21
 -6 -4 10 24.12 4.63
 -6 -3 -2 79.84 4.69
 -6 -3 -1 18.44 2.85
 -6 -3 0 74.01 4.53
 -6 -3 1 24.76 3.38
 -6 -3 2 163.97 5.99
 -6 -3 3 39.99 4.03
 -6 -3 4 10.39 2.76
 -6 -3 5 16.55 3.15
 -6 -3 7 83.15 5.01
 -6 -3 8 13.19 4.05
 -6 -3 9 16.48 3.7
 -6 -2 -1 11.61 2.6
 -6 -2 0 55.35 3.83
 -6 -2 2 82.66 4.71
 -6 -2 3 18.68 3.04
 -6 -2 4 10.24 2.6
 -6 -2 5 26.31 3.4
 -6 -2 6 23.84 3.91
 -6 -2 7 46.7 4.86
 -6 -2 9 18.58 3.75
 -6 -2 10 85.88 5.75
 -6 -1 -1 15 3.09
 -6 -1 1 130.51 5.36
 -6 -1 2 46.8 3.99
 -6 -1 3 169.14 5.77
 -6 -1 4 8.33 2.77
 -6 -1 5 50.37 3.9
 -6 -1 6 26.29 3.78
 -6 -1 7 -2.09 2.37
 -6 -1 8 5.43 2.9
 -6 -1 9 63.73 4.79
 -6 -1 10 8.66 3.45
 -6 -1 11 62.73 6.02
 -6 0 0 2.68 1.99
 -6 0 1 44.03 3.33
 -6 0 2 14.33 2.53
 -6 0 3 21.56 3
 -6 0 4 90.64 4.84
 -6 0 5 39.05 4.05
 -6 0 7 10 3.33
 -6 0 8 187.09 6.65
 -6 0 9 2.06 2.94
 -6 0 10 4.22 3.45
 -6 0 11 10.08 3.81
 -6 1 0 49.36 4.23
 -6 1 3 175.33 5.95
 -6 1 4 11.25 2.61
 -6 1 5 48.15 4.14
 -6 1 6 28.12 3.49
 -6 1 7 -0.41 2.37
 -6 1 8 5.87 2.83
 -6 1 9 68.08 5.27
 -6 1 10 8.77 3.91
 -6 1 11 65.87 5.6
 -6 2 1 55.56 4.06
 -6 2 2 83.47 4.6
 -6 2 3 12.77 2.93
 -6 2 4 7.61 2.41
 -6 2 5 35.88 3.3
 -6 2 6 19.91 3.25
 -6 2 7 51.55 4.5
 -6 2 9 21.75 3.48
 -6 2 10 90.19 5.67
 -6 3 0 75.03 4.63
 -6 3 1 33.39 3.38
 -6 3 2 172.34 5.93
 -6 3 3 37.23 3.68
 -6 3 4 7.72 2.3
 -6 3 5 14.05 2.95
 -6 3 6 21.91 3.14
 -6 3 8 10.21 3.16
 -6 3 9 9.27 3.3
 -6 3 10 35.45 4.39
 -6 4 0 6.62 2.74
 -6 4 1 0.32 2.12
 -6 4 2 16.43 3.22
 -6 4 3 42.35 3.69
 -6 4 4 222.07 6.5
 -6 4 5 25.52 3.17
 -6 4 6 37.38 3.62
 -6 4 8 1.47 2.33
 -6 4 9 104.11 5.22
 -6 5 0 20.08 3.04
 -6 5 1 35.6 3.79
 -6 5 2 52.05 4.03
 -6 5 3 18.8 2.79
 -6 5 4 1.47 2.21
 -6 5 6 10.72 2.52
 -6 5 7 66.86 4.22
 -6 6 0 2.38 2.77
 -6 6 1 48.85 3.95
 -6 6 2 75.19 4.39
 -6 6 3 3.25 2.12
 -6 6 4 193.26 5.77
 -6 7 -1 5.63 2.51
 -6 7 0 9.13 2.53
 -5 -8 4 68.22 4.1
 -5 -8 5 16.52 2.98
 -5 -7 0 168.85 5.05
 -5 -7 1 151.38 4.94
 -5 -7 2 75.15 3.94
 -5 -7 3 12.93 2.74
 -5 -7 4 42.16 3.82
 -5 -7 5 101.62 4.85
 -5 -7 6 16.66 3.51
 -5 -7 7 8.09 2.87
 -5 -6 -3 3.19 2.24
 -5 -6 -2 59.36 3.59
 -5 -6 -1 97.34 4.2
 -5 -6 0 11.79 2.2
 -5 -6 1 28.01 3.14
 -5 -6 2 1.09 1.83
 -5 -6 3 37.9 3.59
 -5 -6 4 102.53 4.59
 -5 -6 5 15.79 2.81
 -5 -6 6 38.77 4.03
 -5 -6 7 36.77 3.88
 -5 -6 8 48.81 4.87
 -5 -5 -4 86.49 4.28
 -5 -5 -3 112.68 4.47
 -5 -5 -2 64.44 3.61
 -5 -5 -1 50.18 3.55
 -5 -5 0 12.89 2.19
 -5 -5 1 116.07 4.49
 -5 -5 2 97.08 4.49
 -5 -5 6 45.39 4.3
 -5 -5 7 48.47 4.47
 -5 -5 8 84.17 5.19
 -5 -5 9 62.51 5.16
 -5 -4 -3 13.38 2.5
 -5 -4 -2 4.73 1.88
 -5 -4 -1 13.94 2.46
 -5 -4 0 13.69 2.51
 -5 -4 1 65.82 3.68
 -5 -4 2 197.33 5.71
 -5 -4 3 54.8 3.69
 -5 -4 4 70.06 4.15
 -5 -4 5 30.12 3.62
 -5 -4 6 75.24 4.7
 -5 -4 8 72.16 5.31
 -5 -4 9 0.64 2.78
 -5 -3 0 124.66 4.66
 -5 -3 1 181.7 5.44
 -5 -3 2 23.12 2.78
 -5 -3 3 130.09 4.68
 -5 -3 4 22.99 2.74
 -5 -3 5 48.97 3.89
 -5 -3 6 43.79 3.54
 -5 -3 7 42.96 3.65
 -5 -3 8 41.92 4.09
 -5 -3 9 74.85 5.5
 -5 -3 10 68.18 5.27
 -5 -2 0 26.83 2.75
 -5 -2 1 32.76 3.05
 -5 -2 2 320.3 6.95
 -5 -2 3 141.51 4.77
 -5 -2 4 115.69 4.7
 -5 -2 5 115.36 5.01
 -5 -2 6 17.07 2.7
 -5 -2 7 219.53 6.84
 -5 -2 8 25.65 3.48
 -5 -2 9 28.97 3.95
 -5 -2 10 16.63 3.75
 -5 -1 0 113.18 4.23
 -5 -1 1 277.95 6.21
 -5 -1 2 98.52 4.04
 -5 -1 3 242.74 6.09
 -5 -1 4 57.39 3.67
 -5 -1 5 33.24 3.08
 -5 -1 6 42.29 3.28
 -5 -1 7 63.17 4.2
 -5 -1 9 47.55 4.83
 -5 -1 10 60.48 5.21
 -5 0 1 761.83 10.06
 -5 0 2 10.35 2.16
 -5 0 3 156.58 5.04
 -5 0 4 69.34 3.72
 -5 0 5 102.57 4.27
 -5 0 6 3.23 2.6
 -5 0 7 6.52 2.6
 -5 0 9 141.81 5.88
 -5 0 10 37.39 3.95
 -5 1 2 99.52 4.15
 -5 1 3 239.79 5.99
 -5 1 4 58.67 3.34
 -5 1 5 37.77 2.97
 -5 1 7 54.29 4.06
 -5 1 9 46.02 3.78
 -5 2 1 34.48 3.09
 -5 2 3 153.17 4.89
 -5 2 4 108.43 4.49
 -5 2 5 112.76 4.59
 -5 2 7 217.48 6.35
 -5 2 8 22.64 2.98
 -5 2 9 25.05 3.22
 -5 2 10 12.04 3.55
 -5 3 1 186.52 5.45
 -5 3 2 26.82 3.08
 -5 3 3 124.14 4.29
 -5 3 4 20.16 2.47
 -5 3 5 49.46 3.57
 -5 3 6 51.18 3.28
 -5 3 7 41.66 3.3
 -5 3 8 43.07 3.78
 -5 3 9 75.38 4.4
 -5 4 1 67.45 3.37
 -5 4 2 193.27 5.42
 -5 4 3 53.26 3.31
 -5 4 5 33.5 3.19
 -5 4 6 76.04 3.94
 -5 4 7 117.46 4.65
 -5 4 8 69.38 4.15
 -5 4 9 0.74 2.08
 -5 5 1 119.68 4.38
 -5 5 3 136.86 4.6
 -5 5 4 55.21 3.25
 -5 5 5 25.86 2.85
 -5 5 7 54.56 3.52
 -5 6 2 0.72 1.83
 -5 6 3 35.23 2.9
 -5 6 4 110.76 3.98
 -5 7 0 171.16 5.12
 -5 7 1 148.38 4.68
 -4 -8 3 110.31 4.07
 -4 -8 4 18.53 2.59
 -4 -7 2 113.6 3.94
 -4 -7 4 73 3.71
 -4 -7 5 60.41 3.93
 -4 -7 6 97.9 4.88
 -4 -6 3 62.77 3.53
 -4 -6 4 13.44 2.27
 -4 -6 5 144.4 5.16
 -4 -6 6 152.84 5.48
 -4 -5 3 121.58 4.39
 -4 -5 4 106.69 4.21
 -4 -5 5 164.75 5.24
 -4 -5 6 97.38 4.77
 -4 -5 7 32.75 3.79
 -4 -5 8 29.68 3.75
 -4 -4 0 153.48 4.31
 -4 -4 6 71.4 4.1
 -4 -3 0 126.05 3.87
 -4 -3 5 86.69 3.81
 -4 -3 6 163.79 5.35
 -4 -3 7 229.69 6.31
 -4 -3 8 245.6 6.98
 -4 -3 9 42.78 4.45
 -4 -2 0 192.81 4.64
 -4 -2 1 367.29 6.28
 -4 -2 2 101.46 3.81
 -4 -2 5 293.07 6.51
 -4 -2 6 107.04 4.37
 -4 -2 7 144.99 5.3
 -4 -2 9 124.07 5.67
 -4 -1 3 143.31 4.2
 -4 -1 5 394.54 7.24
 -4 -1 6 15.11 2.42
 -4 -1 7 92.86 4.29
 -4 -1 8 218.65 6.56
 -4 -1 9 60.14 4.52
 -4 0 3 164.96 4.41
 -4 0 6 20.7 2.4
 -4 0 7 298.85 6.81
 -4 0 8 275.22 6.99
 -4 1 1 57.16 2.71
 -4 1 2 66.22 3.1
 -4 1 3 170.28 4.5
 -4 1 6 16.48 2.51
 -4 1 7 91.47 4.34
 -4 1 8 212.68 6.07
 -4 1 9 61.99 4.39
 -4 2 2 106.6 3.7
 -4 2 7 144.37 4.76
 -4 2 8 89.57 4.28
 -4 2 9 125.19 5.11
 -4 3 2 1.18 1.36
 -4 3 3 302.37 5.75
 -4 3 4 16.66 2
 -4 3 6 152.56 4.63
 -4 3 7 238.82 5.63
 -4 3 8 249.35 6.04
 -4 4 2 111.94 3.67
 -4 4 3 74.86 3.18
 -4 4 4 361.02 6.22
 -4 4 7 86.46 3.68
 -4 4 8 46.77 3.2
 -4 5 2 68.09 3.01
 -4 5 3 115.81 3.59
 -4 5 4 109.25 3.52
 -4 5 7 30.01 2.49
 -4 6 2 51.43 2.65
 -4 6 3 58.04 2.68
 -4 6 4 14.61 1.8
 -3 -7 2 26.72 2.15
 -3 -7 4 7.13 1.72
 -3 -6 -4 16.97 1.61
 -3 -6 -3 15.67 1.56
 -3 -6 -2 180.81 3.58
 -3 -6 -1 16.29 1.58
 -3 -6 2 373.3 5.81
 -3 -5 -3 96.98 3.13
 -3 -5 -2 17.23 1.77
 -3 -5 -1 393.64 5.42
 -3 -5 2 68.54 2.84
 -3 -5 3 19.16 1.96
 -3 -5 5 35.85 2.84
 -3 -5 6 148.15 4.99
 -3 -4 -1 180.33 3.85
 -3 -4 0 202.36 4.24
 -3 -4 1 118.98 3.39
 -3 -4 2 673.8 7.83
 -3 -4 3 159.17 4.18
 -3 -4 6 198.21 5.58
 -3 -4 7 190.45 5.71
 -3 -3 0 136.49 3.4
 -3 -3 2 7.09 1.34
 -3 -3 4 1121.81 10.78
 -3 -3 6 68.99 3.53
 -3 -3 7 62.84 3.61
 -3 -2 6 55.59 2.99
 -3 -2 7 17.67 2.65
 -3 -2 8 160.26 5.54
 -3 -1 1 69.2 2.54
 -3 -1 2 3.61 1.49
 -3 -1 5 795.59 9.13
 -3 -1 7 21.12 2.41
 -3 -1 8 38.35 3.52
 -3 0 1 1.23 1.25
 -3 0 2 3222.75 15.31
 -3 0 3 51.93 2.48
 -3 0 4 723.79 8.06
 -3 0 5 98.9 3.45
 -3 0 7 4.06 1.75
 -3 0 8 9.25 2.09
 -3 1 2 3.76 1.14
 -3 1 4 34.64 2.06
 -3 1 5 818.5 8.87
 -3 1 8 37.09 3.29
 -3 2 2 276.1 4.59
 -3 2 3 83.94 2.85
 -3 2 8 150.49 4.72
 -3 3 2 5.16 1.35
 -3 3 3 280.8 4.57
 -3 3 4 1125.15 9.22
 -3 3 5 217.46 4.47
 -3 3 6 68.81 3.06
 -3 4 2 669.23 6.84
 -3 4 3 150.57 3.37
 -3 4 4 162.85 3.57
 -3 4 5 134.11 3.39
 -3 4 6 180.55 4.1
 -3 5 1 15.64 1.74
 -3 5 2 75.12 2.49
 -3 5 3 21.65 1.68
 -3 5 4 87.67 2.61
 -3 5 5 30.67 1.84
 -3 6 1 61.04 2.33
 -3 6 2 401.17 4.9
 -3 6 3 219 3.49
 -3 6 4 155.2 2.86
 -2 -6 -3 116.87 2.11
 -2 -6 1 74.48 2.25
 -2 -6 2 90.42 2.71
 -2 -6 3 42.22 2.47
 -2 -5 2 145.16 3.3
 -2 -5 3 154.85 3.73
 -2 -5 4 77.88 3.15
 -2 -4 -1 723.45 5.81
 -2 -4 3 99.51 2.96
 -2 -4 4 838.44 8.64
 -2 -3 0 526.6 5.13
 -2 -3 1 561.55 5.5
 -2 -3 2 139.45 3.17
 -2 -3 4 37.54 2.24
 -2 -2 0 906.65 6.48
 -2 -2 1 254.95 3.73
 -2 -2 2 1827.68 10.2
 -2 -2 3 1061.84 8.46
 -2 -1 1 280.85 3.87
 -2 -1 2 234.63 3.66
 -2 -1 3 91.77 2.83
 -2 0 1 330.18 3.9
 -2 0 2 20.01 1.39
 -2 0 3 431.23 5.24
 -2 0 4 36.63 1.87
 -2 0 5 38.1 2.32
 -2 0 6 92.96 3.44
 -2 1 3 85.25 2.36
 -2 1 5 5.32 1.45
 -2 1 6 324.07 5.46
 -2 2 2 1787.68 8.94
 -2 2 3 1055.4 7.36
 -2 2 5 726.16 7.21
 -2 2 6 152.33 3.84
 -2 3 2 139.65 2.63
 -2 3 3 185.45 3.11
 -2 3 4 39.88 1.77
 -2 3 5 321.84 4.63
 -2 4 2 152.39 2.56
 -2 4 3 108.42 2.27
 -2 4 4 830.03 6.14
 -2 4 5 59.28 2.11
 -2 5 1 69.3 1.87
 -2 5 2 155.05 2.39
 -2 5 3 161.54 2.38
 -2 6 2 95.5 1.42
 -1 -5 -3 185.7 1.87
 -1 -5 -1 160.81 1.42
 -1 -5 0 158.06 2.05
 -1 -4 -2 1029.06 4.7
 -1 -4 -1 887.95 4.15
 -1 -4 1 833.85 5.5
 -1 -4 2 595.11 5.41
 -1 -3 -1 42.92 1.17
 -1 -3 0 264.1 2.7
 -1 -3 1 1329.54 6.71
 -1 -3 2 449.53 4.58
 -1 -3 3 179.73 3.4
 -1 -2 0 4927.95 10.65
 -1 -2 1 1111.7 5.8
 -1 -2 2 1776.47 8.43
 -1 -1 1 665.87 4.27
 -1 -1 2 457.26 4.13
 -1 -1 3 2391.23 10.65
 -1 -1 4 137.07 3.09
 -1 0 1 64.22 1.49
 -1 0 2 19.09 1.23
 -1 0 3 9703.84 20.17
 -1 0 4 302.89 4.27
 -1 1 2 441.18 3.6
 -1 1 3 2374.39 9.46
 -1 2 1 1090.63 4.52
 -1 2 3 581.88 4.46
 -1 2 4 1021.08 6.83
 -1 3 1 1311.48 4.8
 -1 3 2 456.89 2.96
 -1 3 3 190.16 2.35
 -1 4 1 838.13 3.54
 0 3 0 1.5 0.4
 -9 0 1 20.15 4.8
 -9 0 2 83.67 5.97
 -9 0 3 9.59 3.81
 -9 1 1 24.9 4.07
 -9 1 2 4.85 3.53
 -8 -5 0 20.75 4.78
 -8 -5 1 -1.4 4.4
 -8 -4 -1 12.82 4.07
 -8 -4 0 -4.65 4.18
 -8 -4 1 50.38 6.05
 -8 -4 2 19.2 4.27
 -8 -4 3 23.04 4.44
 -8 -4 4 142.93 8.13
 -8 -3 -2 6.71 3.8
 -8 -3 -1 30.65 4.6
 -8 -3 0 11.62 3.73
 -8 -3 1 14.01 4.09
 -8 -3 2 139.47 7.1
 -8 -3 3 61.15 5.75
 -8 -3 4 13.73 4.29
 -8 -2 -3 54.08 6.11
 -8 -2 -2 20.68 4.82
 -8 -2 -1 1.8 3.29
 -8 -2 0 2.66 3.32
 -8 -2 1 65.33 6.01
 -8 -2 2 77.16 5.82
 -8 -2 3 25.12 4.13
 -8 -2 4 53.58 5.83
 -8 -1 -3 47.95 5.47
 -8 -1 -2 5.01 3.45
 -8 -1 -1 0.01 3.89
 -8 -1 0 1.9 3.99
 -8 -1 1 17.32 3.82
 -8 -1 2 2.36 3.1
 -8 -1 3 193.54 7.6
 -8 -1 4 25.74 4.33
 -8 0 -3 47.77 5.47
 -8 0 -1 25.81 4.5
 -8 0 0 13.94 3.5
 -8 0 1 13.64 4.16
 -8 0 2 24.2 4.13
 -8 1 -3 42.16 4.83
 -8 1 -2 6.09 3.63
 -8 1 -1 4.78 3.42
 -8 1 0 2.48 2.95
 -8 1 1 13.32 3.43
 -8 1 2 3.2 3.14
 -8 1 3 194.41 6.84
 -8 2 -3 50.51 5.03
 -8 2 -2 29.36 3.88
 -8 2 -1 2.98 2.86
 -8 2 0 7.68 3.02
 -8 2 1 55.19 4.65
 -8 2 2 66.23 4.74
 -8 2 3 27.66 3.94
 -7 -7 -1 2.79 4.38
 -7 -7 0 27.15 4.72
 -7 -7 1 15.21 4.58
 -7 -7 2 8.77 3.56
 -7 -6 -3 19.26 4.47
 -7 -6 -1 23.12 4.27
 -7 -6 0 49.83 5.55
 -7 -6 1 17.49 3.99
 -7 -6 3 14.36 4.2
 -7 -5 -4 23.66 5.02
 -7 -5 -3 6.01 3.47
 -7 -5 -2 3.48 3.35
 -7 -5 -1 4.12 3.44
 -7 -5 0 51.15 5.18
 -7 -5 1 36.04 4.92
 -7 -5 2 46.47 5.23
 -7 -5 3 16.7 4
 -7 -5 4 109.26 7.27
 -7 -4 -5 23.74 4.94
 -7 -4 -4 -1.02 4.16
 -7 -4 -3 32.33 4.54
 -7 -4 -2 31.07 4.83
 -7 -4 -1 3.96 3.22
 -7 -4 0 13.1 4.04
 -7 -4 2 187.09 7.33
 -7 -4 3 13.92 4.02
 -7 -4 4 46.86 4.55
 -7 -3 -5 5.72 3.67
 -7 -3 -4 24.28 4.3
 -7 -3 -3 68.8 5.23
 -7 -3 -2 30.32 4.32
 -7 -3 -1 97.45 5.84
 -7 -3 0 65.05 5.35
 -7 -3 1 21.73 4
 -7 -3 3 70.07 5.32
 -7 -3 4 5.38 3.07
 -7 -2 -5 5.68 3.57
 -7 -2 -4 26.13 4.72
 -7 -2 -3 5.1 3.33
 -7 -2 -2 30.59 4.38
 -7 -2 -1 3.94 3.28
 -7 -2 1 65.64 5.22
 -7 -2 2 65.34 4.92
 -7 -2 3 274.62 8.19
 -7 -2 4 4.43 3.58
 -7 -1 -6 8.43 3.85
 -7 -1 -5 0.75 3.31
 -7 -1 -4 60.93 5.28
 -7 -1 -3 9.61 3.35
 -7 -1 -2 22.47 4.07
 -7 -1 -1 11.61 3.1
 -7 -1 0 122.02 5.93
 -7 -1 1 11.41 2.96
 -7 -1 2 9.98 3.62
 -7 -1 3 3.62 3.29
 -7 -1 4 30.07 3.85
 -7 0 -6 78.55 6.17
 -7 0 -5 1.3 3.15
 -7 0 -4 22.35 4.55
 -7 0 -3 10.7 3.96
 -7 0 -2 3.68 2.93
 -7 0 -1 0.23 3.03
 -7 0 0 22.28 3.67
 -7 0 1 49.05 4.33
 -7 0 2 -0.65 2.34
 -7 0 3 113.77 5.61
 -7 0 4 6.57 2.82
 -7 1 -6 2.4 3.47
 -7 1 -5 1.92 3.02
 -7 1 -4 57.68 5.18
 -7 1 -3 9.71 3.39
 -7 1 -2 18.73 3.71
 -7 1 -1 6.76 2.71
 -7 1 0 114.4 5.35
 -7 1 1 16.01 3.18
 -7 1 2 9.87 3.17
 -7 1 3 4.99 2.57
 -7 2 -6 10.99 3.58
 -7 2 -5 5.61 3.45
 -7 2 -4 26.68 4.04
 -7 2 -3 6.89 3.23
 -7 2 -2 22.29 3.27
 -7 2 -1 2.99 2.58
 -7 2 0 23.21 3.39
 -7 2 1 60.67 4.3
 -7 2 2 64.48 4.25
 -7 2 3 266.08 6.78
 -7 3 -6 19.21 3.77
 -7 3 -5 8.8 3.24
 -7 3 -4 26.98 3.63
 -7 3 -3 66.92 4.6
 -7 3 -2 32.3 3.76
 -7 3 0 68.35 4.21
 -7 3 1 18.36 2.78
 -7 3 2 36.01 3.44
 -6 -9 -1 0.18 3.38
 -6 -9 0 -3.52 3.12
 -6 -9 1 10.5 3.51
 -6 -8 -3 2.8 3.53
 -6 -8 1 3.87 3.11
 -6 -8 2 13.48 3.73
 -6 -7 -4 -0.38 3.08
 -6 -7 -3 28.52 4.04
 -6 -7 -2 16.37 4.02
 -6 -7 -1 0.51 3.34
 -6 -7 0 7.92 3.52
 -6 -7 1 7.87 3.98
 -6 -7 2 7.83 3.53
 -6 -7 3 25.51 3.98
 -6 -6 -5 10.84 3.73
 -6 -6 -3 47.53 5.29
 -6 -6 -2 3.24 3.06
 -6 -6 -1 -1.56 2.9
 -6 -6 0 -0.42 2.79
 -6 -6 2 84.22 5.43
 -6 -6 3 5.8 3.15
 -6 -5 -6 24.1 5.01
 -6 -5 -5 5.12 3.74
 -6 -5 -4 5.19 3.4
 -6 -5 -3 107.9 5.87
 -6 -5 -2 14.45 3.97
 -6 -5 -1 11.02 3.25
 -6 -5 0 16.57 3.88
 -6 -5 3 14.58 3.09
 -6 -5 4 -0.9 2.78
 -6 -4 -7 16.3 4.04
 -6 -4 -6 30.74 4.39
 -6 -4 -5 31.86 4.17
 -6 -4 -4 79.74 5.84
 -6 -4 -3 77.28 5.61
 -6 -4 -2 10.82 3.45
 -6 -4 -1 158.01 6.23
 -6 -4 0 4.18 2.72
 -6 -4 1 -1 2.27
 -6 -4 2 13.56 2.93
 -6 -4 3 34.55 3.65
 -6 -3 -7 30.74 4.52
 -6 -3 -6 9.64 4.13
 -6 -3 -5 15.28 3.64
 -6 -3 -4 11.74 3.32
 -6 -3 -3 22.85 3.41
 -6 -3 -2 72.96 4.81
 -6 -3 -1 14.06 3.03
 -6 -3 0 72.64 4.67
 -6 -3 1 30.45 3.68
 -6 -3 2 165.18 6.12
 -6 -3 3 43.92 4.23
 -6 -3 4 6.9 2.55
 -6 -2 -7 27.3 4.26
 -6 -2 -6 9.44 3.54
 -6 -2 -5 48.79 4.42
 -6 -2 -4 64.43 4.97
 -6 -2 -3 162.77 6.17
 -6 -2 -2 75.09 4.63
 -6 -2 -1 9.95 3.07
 -6 -2 0 58.8 4.05
 -6 -2 2 74.9 4.45
 -6 -2 3 13.23 2.65
 -6 -2 4 8.21 2.9
 -6 -1 -8 34.24 5.41
 -6 -1 -7 9.34 3.77
 -6 -1 -6 13.7 4.12
 -6 -1 -5 51.28 4.9
 -6 -1 -4 5.43 2.73
 -6 -1 -3 3.41 2.57
 -6 -1 -2 53.53 4.42
 -6 -1 -1 16.11 2.89
 -6 -1 0 42.86 3.39
 -6 -1 1 113.72 4.72
 -6 -1 2 42.67 3.65
 -6 -1 3 159.02 5.53
 -6 -1 4 8.34 2.36
 -6 0 -8 53.04 5.89
 -6 0 -7 49.17 5.09
 -6 0 -6 66.35 5.39
 -6 0 -5 5.7 3.01
 -6 0 -4 92.76 4.86
 -6 0 -2 0.96 2.43
 -6 0 -1 0.13 2.02
 -6 0 0 5.66 2.44
 -6 0 1 47.5 3.64
 -6 0 2 16.11 2.72
 -6 0 3 17.6 2.87
 -6 0 4 94.82 4.52
 -6 1 -8 30.85 4.51
 -6 1 -7 8.76 4.15
 -6 1 -6 14.76 3.46
 -6 1 -5 44.1 4.4
 -6 1 -4 8.17 3.14
 -6 1 -3 5.09 2.41
 -6 1 -2 53.93 3.99
 -6 1 -1 15.46 2.56
 -6 1 0 48.38 3.57
 -6 1 1 116.47 4.63
 -6 1 2 45.07 3.49
 -6 1 3 169.23 5.37
 -6 1 4 12.55 2.79
 -6 2 -8 33.66 4.39
 -6 2 -7 26.77 4.2
 -6 2 -6 7.4 3.01
 -6 2 -5 42.57 4.16
 -6 2 -4 59.5 4.04
 -6 2 -3 162.95 5.48
 -6 2 -2 80.94 4.36
 -6 2 -1 11.19 2.65
 -6 2 0 56.91 3.47
 -6 2 1 54.58 3.53
 -6 2 2 83.86 4.06
 -6 2 3 13.4 2.49
 -6 3 -7 34.91 4.51
 -6 3 -6 15.16 3.22
 -6 3 -5 12.23 3
 -6 3 -4 7.88 2.97
 -6 3 -3 28.33 3.41
 -6 3 -1 17.79 2.38
 -6 3 0 71.93 3.6
 -6 3 1 32.96 2.89
 -6 3 3 45.24 3.49
 -6 4 -7 16.41 3.66
 -6 4 -6 42.49 4.24
 -6 4 -5 34.99 3.77
 -6 4 -4 81.68 4.39
 -6 4 -3 72.91 4.04
 -6 4 -2 12.5 2.37
 -6 4 -1 151.4 4.54
 -6 4 0 2.71 1.78
 -6 4 1 -0.23 1.48
 -5 -9 -3 3.28 2.96
 -5 -9 -2 3.04 3.09
 -5 -9 -1 38.41 4.32
 -5 -9 0 92.23 5.25
 -5 -9 1 12.38 3.12
 -5 -8 -5 10.58 3.75
 -5 -8 -4 7.45 3.21
 -5 -8 -3 2.74 3.27
 -5 -8 -2 1.96 3.2
 -5 -8 -1 47.99 4.52
 -5 -7 -6 1.42 3.86
 -5 -7 -4 8 3.56
 -5 -7 -3 67.55 4.93
 -5 -7 -2 7.7 3
 -5 -7 -1 39.51 4.04
 -5 -7 0 182.32 6.47
 -5 -7 1 160.87 6.21
 -5 -7 2 74.17 4.92
 -5 -7 3 13.3 3.72
 -5 -6 -6 82.87 5.77
 -5 -6 -5 48.68 4.67
 -5 -6 -4 23.91 3.77
 -5 -6 -3 0.36 2.68
 -5 -6 -2 58.76 4.64
 -5 -6 -1 106.11 5.17
 -5 -6 0 5.95 2.68
 -5 -6 1 20.82 3.47
 -5 -6 2 3.1 2.49
 -5 -6 3 34.79 3.88
 -5 -5 -8 46.99 5.08
 -5 -5 -7 57.76 5.11
 -5 -5 -6 5.13 3.53
 -5 -5 -5 19.68 4.1
 -5 -5 -4 90 5.33
 -5 -5 -1 47.23 4.01
 -5 -5 0 14.01 2.58
 -5 -5 3 132.97 5.37
 -5 -5 4 59.94 4.37
 -5 -4 -8 37.63 5.09
 -5 -4 -7 76.13 5.56
 -5 -4 -4 36.81 4.24
 -5 -4 -3 11.75 2.56
 -5 -4 -2 5.6 2.79
 -5 -4 0 13.02 2.81
 -5 -4 1 65.78 3.71
 -5 -4 2 186.62 5.77
 -5 -4 3 48.48 3.48
 -5 -4 4 68.76 4.03
 -5 -3 -8 49.61 5.96
 -5 -3 -7 0.31 2.99
 -5 -3 -6 58.12 5.03
 -5 -3 -5 9.04 3.22
 -5 -3 -4 19.75 2.99
 -5 -3 -3 75.73 4.19
 -5 -3 -2 132.11 5.16
 -5 -3 -1 245.78 6.35
 -5 -3 0 119.36 4.47
 -5 -3 1 176.81 5.45
 -5 -3 2 28.83 3.04
 -5 -3 3 130.43 5.06
 -5 -3 4 24.72 2.98
 -5 -2 -9 28.33 5.32
 -5 -2 -8 193.13 7.85
 -5 -2 -7 54.51 5.25
 -5 -2 -5 1.32 2.58
 -5 -2 -4 44.07 3.89
 -5 -2 -3 28.8 3.18
 -5 -2 -2 67.72 3.79
 -5 -2 0 27.73 2.97
 -5 -2 1 32.86 2.63
 -5 -2 2 309.68 6.82
 -5 -2 3 151.46 5.14
 -5 -2 4 112.17 4.55
 -5 -1 -9 44.81 5.68
 -5 -1 -8 67.43 5.87
 -5 -1 -6 -1.19 3.25
 -5 -1 -5 65.28 4.68
 -5 -1 -4 11.37 2.83
 -5 -1 -3 29.36 3.06
 -5 -1 -1 81.4 3.9
 -5 -1 0 105.92 4.15
 -5 -1 2 91.46 3.67
 -5 -1 3 246 5.97
 -5 -1 4 60.79 3.7
 -5 0 -9 33.33 4.58
 -5 0 -8 128.3 6.42
 -5 0 -7 49.86 4.96
 -5 0 -6 4.59 2.65
 -5 0 -5 63.98 3.97
 -5 0 -4 73.33 4.07
 -5 0 -3 216.07 5.86
 -5 0 -2 497.89 8.35
 -5 0 4 76.56 3.56
 -5 1 -9 43.07 5.3
 -5 1 -8 69.66 5.41
 -5 1 -7 104.56 5.59
 -5 1 -6 0.47 2.42
 -5 1 -5 64.46 4.12
 -5 1 -4 7.6 2.25
 -5 1 -3 31.78 3.02
 -5 1 -2 222.06 5.49
 -5 2 -9 17.76 3.83
 -5 2 -8 200.75 7.08
 -5 2 -7 57.4 5
 -5 2 -6 147.82 5.78
 -5 2 -5 2.18 2.21
 -5 2 -4 37.27 3.33
 -5 2 -3 28.77 3.04
 -5 2 -2 65.21 3.25
 -5 3 -9 18.07 4.41
 -5 3 -8 41.3 4.78
 -5 3 -7 -0.83 2.58
 -5 3 -6 58.55 4.48
 -5 3 -5 14.22 2.81
 -5 3 -4 23.51 2.72
 -5 3 -3 73.39 3.53
 -5 3 2 23.88 2.24
 -5 4 -8 38.87 4.51
 -5 4 -7 83.77 5.1
 -5 4 -6 172.96 5.95
 -5 4 -5 21.92 3.14
 -5 4 -4 34.15 3.04
 -5 4 0 18 2.03
 -5 4 1 65.77 2.68
 -5 5 -6 1.74 2.41
 -5 5 -5 17.22 2.77
 -5 5 -4 88.31 3.81
 -4 -9 -2 58.18 4.26
 -4 -9 -1 19.88 3.33
 -4 -9 0 37.7 3.62
 -4 -8 -7 17.67 3.53
 -4 -8 -6 4.72 2.93
 -4 -8 -5 78.62 4.92
 -4 -8 -4 12.76 3.01
 -4 -8 -3 1.37 2.56
 -4 -8 -2 39.05 3.83
 -4 -8 -1 10.83 2.97
 -4 -8 1 33.02 3.36
 -4 -7 -8 6.79 3.81
 -4 -7 -6 26.64 3.84
 -4 -7 -5 5.43 3.15
 -4 -7 -4 149.29 5.8
 -4 -7 -3 84.57 4.48
 -4 -7 -2 152.39 5.31
 -4 -7 -1 40.83 3.61
 -4 -7 0 34.51 3.46
 -4 -7 1 139.37 5.17
 -4 -7 2 112.52 4.8
 -4 -6 -8 43.7 4.78
 -4 -6 -7 160.96 6.58
 -4 -6 -6 76.19 4.89
 -4 -6 -5 16.97 3.31
 -4 -6 -4 70.86 4.19
 -4 -6 -3 164.68 5.59
 -4 -6 -2 23.09 3.05
 -4 -6 -1 35 3.21
 -4 -6 0 45.91 3.48
 -4 -6 1 19.24 2.74
 -4 -6 3 59.26 4.05
 -4 -5 -9 11.49 3.78
 -4 -5 -8 -0.12 3.7
 -4 -5 -7 33.26 4.56
 -4 -5 -5 19.23 3.28
 -4 -5 -4 62.31 3.83
 -4 -5 -3 89.88 4.24
 -4 -5 -2 196.69 5.7
 -4 -5 0 99.53 4.04
 -4 -5 1 51.49 3.47
 -4 -5 2 77.07 4.03
 -4 -4 -9 61.02 5.51
 -4 -4 -8 209.93 7.69
 -4 -4 -7 5.07 3
 -4 -4 -6 33.77 3.92
 -4 -4 -5 13.78 2.6
 -4 -4 -4 7.08 2.46
 -4 -4 -3 12.63 2.61
 -4 -4 -2 38.79 3.12
 -4 -4 -1 268.11 5.86
 -4 -4 0 146.48 4.48
 -4 -4 2 115.06 4.25
 -4 -4 3 82.78 3.89
 -4 -3 -10 11.87 3.84
 -4 -3 -9 41.22 5.13
 -4 -3 -8 10.56 3.4
 -4 -3 -7 26.02 4.16
 -4 -3 -6 29.75 3.35
 -4 -3 -5 46.21 3.72
 -4 -3 -2 272.46 5.98
 -4 -3 4 19.49 2.54
 -4 -2 -10 22.4 4.44
 -4 -2 -8 101.76 5.54
 -4 -2 -5 1.03 1.87
 -4 -2 -4 18.31 2.41
 -4 -2 -3 20.57 2.49
 -4 -1 -10 14.85 3.67
 -4 -1 -9 37.11 4.77
 -4 -1 -8 27.4 4.03
 -4 -1 -7 48.78 3.99
 -4 -1 -5 6.04 1.95
 -4 -1 -4 153.4 4.67
 -4 -1 -3 15.19 2.14
 -4 -1 1 53.5 2.85
 -4 -1 2 65.57 2.95
 -4 -1 3 162.83 4.34
 -4 0 -10 2.15 3.73
 -4 0 -9 91.74 5.8
 -4 0 -8 162.34 6.66
 -4 0 -6 26 2.78
 -4 0 -4 7.96 1.91
 -4 0 -1 3.61 1.68
 -4 0 1 8.93 1.82
 -4 0 2 38.79 2.49
 -4 1 -10 13.58 4.12
 -4 1 -6 91.45 4.5
 -4 1 0 281.64 5.04
 -4 1 1 57.99 2.62
 -4 1 2 66.31 2.74
 -4 1 3 165.15 3.98
 -4 2 -6 37.39 3.13
 -4 2 -5 -0.02 1.61
 -4 2 -4 21.85 2.63
 -4 2 -2 22.05 2.21
 -4 2 -1 218.98 4.37
 -4 2 0 201.43 4.07
 -4 2 1 368.4 5.31
 -4 2 2 109.85 3.14
 -4 2 3 315.78 5.19
 -4 3 -6 32.8 3.32
 -4 3 -5 54.75 3.29
 -4 3 -4 204.99 4.92
 -4 3 -2 264.29 4.85
 -4 3 -1 338.56 5.23
 -4 3 0 127.12 3.21
 -4 3 1 86.84 2.67
 -4 4 -6 30.79 3.21
 -4 4 -4 6.36 1.97
 -4 4 -2 42.43 2.27
 -4 4 -1 278.42 4.58
 -4 4 0 158.39 3.17
 -4 4 1 64.2 2.14
 -4 5 -9 12.79 3.23
 -4 5 -8 0.68 2.77
 -4 5 -7 29.17 3.36
 -4 5 -6 74.54 3.83
 -4 5 -5 23.98 2.65
 -4 5 -3 80.69 2.97
 -4 5 -2 182.58 3.73
 -4 5 -1 390.65 4.71
 -4 5 0 92.48 2.14
 -3 -9 0 21.74 2.57
 -3 -8 -5 16.61 2.95
 -3 -8 -4 52.57 3.75
 -3 -8 -3 46.16 3.41
 -3 -8 -2 49.22 3.33
 -3 -8 -1 126.01 4.48
 -3 -8 0 11.05 2.23
 -3 -8 1 38.92 3.14
 -3 -7 -9 18.94 3.81
 -3 -7 -8 34.8 4.23
 -3 -7 -7 109.87 5.22
 -3 -7 -6 51.18 3.99
 -3 -7 -4 45.1 3.55
 -3 -7 -3 45.24 3.4
 -3 -7 -2 80.27 3.8
 -3 -7 -1 100.76 3.96
 -3 -7 0 88.97 3.85
 -3 -7 1 50.73 3.15
 -3 -7 2 33.12 3.12
 -3 -6 -9 39.27 4.42
 -3 -6 -7 8.71 3.37
 -3 -6 -6 148.89 5.52
 -3 -6 -5 4.75 2.58
 -3 -6 -4 21.53 2.88
 -3 -6 -3 13.05 2.35
 -3 -6 -2 183.95 4.9
 -3 -5 -10 2.01 3.23
 -3 -5 -9 23.85 4.39
 -3 -5 -8 34.98 4.06
 -3 -5 -7 85.19 4.67
 -3 -5 -6 37.92 3.61
 -3 -5 -5 191.23 5.67
 -3 -5 -4 194.54 5.33
 -3 -5 -3 87.48 3.74
 -3 -5 1 17.36 1.96
 -3 -4 -10 -0.22 3.66
 -3 -4 -9 5.4 2.83
 -3 -4 -8 9.81 2.82
 -3 -4 -7 43.75 3.4
 -3 -4 -6 73.83 4.25
 -3 -4 -5 13.73 2.25
 -3 -4 -1 174.63 4.23
 -3 -4 1 116.7 3.6
 -3 -4 2 637.67 8.16
 -3 -4 3 145.85 4.27
 -3 -3 -11 24.06 4.14
 -3 -3 -10 5.9 3.35
 -3 -3 -9 14.93 3.38
 -3 -3 -8 38.66 3.91
 -3 -3 -7 183.39 5.91
 -3 -3 -5 71.97 3.59
 -3 -3 -1 105.29 3.2
 -3 -3 0 137.56 3.67
 -3 -3 1 241.66 4.71
 -3 -3 2 7 1.45
 -3 -3 3 288.86 5.39
 -3 -2 -5 266.09 5.91
 -3 -2 -3 5.31 1.48
 -3 -1 2 4.74 1.17
 -3 -1 3 512.1 6.45
 -3 0 -3 25.59 1.99
 -3 0 -1 121.12 2.94
 -3 0 1 1.72 1.18
 -3 0 2 3044.9 13.97
 -3 0 3 47.96 2.14
 -3 1 -1 59.25 2.21
 -3 1 0 142.41 2.97
 -3 1 2 6.49 1.26
 -3 1 3 519.27 6.21
 -3 2 -2 536.64 5.9
 -3 2 -1 197.86 3.44
 -3 2 0 524.9 5.11
 -3 2 2 294.64 4.01
 -3 3 -2 323.85 4.68
 -3 3 -1 110.5 2.55
 -3 3 0 135.78 2.7
 -3 3 1 253.27 3.3
 -3 4 -2 5.69 1.11
 -3 4 -1 176.33 2.89
 -3 4 0 196.75 2.74
 -3 4 1 118.9 1.97
 -3 5 -2 17.57 1.42
 -3 5 -1 408.14 3.66
 -3 6 -4 16.17 1.79
 -3 6 -3 12.46 1.53
 -2 -8 -5 42.27 3.16
 -2 -8 -4 5.03 1.78
 -2 -8 -1 99.03 3.33
 -2 -8 0 158.75 3.94
 -2 -7 -9 10.78 3.33
 -2 -7 -8 5.04 2.68
 -2 -7 -5 6.98 2.27
 -2 -7 -4 1.02 1.72
 -2 -7 -2 110.3 3.51
 -2 -7 0 11.43 1.83
 -2 -7 1 57.24 2.78
 -2 -6 -10 51.63 4.75
 -2 -6 -9 1.54 2.87
 -2 -6 -8 31.2 3.62
 -2 -6 -7 53.14 3.94
 -2 -6 -6 16.51 2.43
 -2 -6 -2 16.26 1.99
 -2 -6 -1 453.98 6.22
 -2 -6 0 157.65 3.82
 -2 -6 1 74.49 2.88
 -2 -5 -11 85.13 5.53
 -2 -5 -10 6.17 3.22
 -2 -5 -9 3.26 2.51
 -2 -5 -8 35.55 3.57
 -2 -5 -6 12.58 2.12
 -2 -5 -5 67.81 3.22
 -2 -5 -3 51.01 2.74
 -2 -5 1 65.73 2.62
 -2 -4 -3 16.08 1.97
 -2 -4 -2 190.18 3.98
 -2 -4 -1 705.83 6.95
 -2 -4 2 157.83 3.57
 -2 -3 -1 525.73 5.64
 -2 -3 1 539.37 5.83
 -2 -3 2 134.41 3.19
 -2 -2 -2 225.26 4.01
 -2 -2 -1 39.36 1.73
 -2 -2 0 907.97 6.93
 -2 -2 1 259.81 3.94
 -2 -2 2 1890.19 10.5
 -2 -1 -2 1078.81 7.84
 -2 -1 0 579.91 5.23
 -2 -1 1 265.03 3.67
 -2 0 -1 1887.06 8.92
 -2 0 1 336.32 3.79
 -2 0 2 20.62 1.5
 -2 1 2 247.77 3.27
 -2 2 -1 36.2 1.43
 -2 2 0 837.36 4.84
 -2 2 1 254.96 2.81
 -2 3 -1 523.04 3.93
 -2 3 0 487.18 3.23
 -2 3 1 558.06 3.27
 -2 4 -1 741.02 4.28
 -2 6 -2 16.25 0.92
 -1 -7 -8 14.49 2.67
 -1 -7 -7 6.53 2.21
 -1 -7 -6 114.53 3.93
 -1 -7 -4 104.59 3.14
 -1 -7 -3 65.48 2.43
 -1 -7 -2 16.31 1.53
 -1 -7 -1 32.63 1.77
 -1 -6 -11 20.38 3.24
 -1 -6 -10 50.4 4.18
 -1 -6 -9 9.66 2.82
 -1 -6 -8 88.63 4.15
 -1 -6 -7 96.05 3.94
 -1 -6 -6 21.1 2.19
 -1 -6 -4 2.42 1.31
 -1 -6 -2 3.2 1.05
 -1 -6 -1 395.43 4.72
 -1 -6 0 1.84 0.93
 -1 -5 -4 863.35 8.05
 -1 -5 -2 104.45 2.58
 -1 -4 -3 95.53 2.52
 -1 -4 -1 908.05 6.32
 -1 -4 0 390.54 4.17
 -1 -4 1 847.47 6.24
 -1 -3 -2 256.77 3.49
 -1 -3 -1 41.05 1.66
 -1 -3 0 276.75 3.33
 -1 -3 1 1270.85 7.13
 -1 -2 -1 961.68 5.68
 -1 -2 0 5090.46 12.09
 -1 -2 1 1136.15 6.16
 -1 -1 0 4178.99 9.73
 -1 -1 1 649.19 4.28
 -1 0 0 326.96 2.52
 -1 0 1 62.54 1.47
 -1 1 0 4216.91 7.35
 -1 1 1 630.55 3.19
 0 -7 -7 43.41 2.89
 0 -7 -4 210.91 3.41
 0 -7 -3 11.4 1.04
 0 -6 -5 3.81 1.28
 0 -6 -4 84.36 2.39
 0 -6 -1 241.89 2.47
 0 -5 -2 147.9 2.28
 0 -5 -1 298.46 2.78
 0 -4 -2 469.09 3.77
 0 -4 -1 1330.04 5.27
 0 -4 0 1005.73 4.51
 0 -3 -1 1435.05 5.04
 0 -3 0 1.69 0.47
 0 -2 0 4801.09 7.04
 1 -6 -4 310.33 3.27
 1 -5 -3 66.61 1.38
 1 -2 -1 1175.93 3.42
 2 -4 -2 153.88 1.32
 -8 -6 2 31.37 4.34
 -8 -5 -1 11.02 3.67
 -8 -5 0 14.15 3.95
 -8 -5 1 -0.29 3.06
 -8 -5 2 22.04 4.06
 -8 -5 3 11.87 4.14
 -8 -4 -2 22.2 4.9
 -8 -4 -1 11.23 4.36
 -8 -4 0 0.15 3.31
 -8 -4 1 49.66 5.01
 -8 -4 2 15.79 3.83
 -8 -4 3 28.29 4.93
 -8 -4 4 125.44 6.88
 -8 -4 5 31 4.51
 -8 -4 6 33.62 4.94
 -8 -3 -3 20.35 4.38
 -8 -3 -2 7.37 3.7
 -8 -3 -1 26.21 4.28
 -8 -3 0 7.69 4.42
 -8 -3 1 14.07 4.48
 -8 -3 2 131.45 6.75
 -8 -3 3 59.21 5.95
 -8 -3 4 17.3 3.99
 -8 -3 6 1.81 3.53
 -8 -3 7 3.5 3.84
 -8 -2 -3 59.87 5.91
 -8 -2 -2 31.39 4.69
 -8 -2 -1 5.37 3.46
 -8 -2 0 7.41 3.97
 -8 -2 1 65.63 5.71
 -8 -2 2 68.46 5.78
 -8 -2 3 33.54 4.49
 -8 -2 4 57.76 5.63
 -8 -2 5 20.4 4.15
 -8 -2 6 144.39 6.93
 -8 -2 7 7.44 4.07
 -8 -1 -3 49.86 5.87
 -8 -1 -2 6.01 4.5
 -8 -1 -1 9.03 3.79
 -8 -1 0 2.13 4.04
 -8 -1 1 15.36 4.47
 -8 -1 2 1.58 3.18
 -8 -1 4 20.6 3.92
 -8 -1 5 30.77 4.47
 -8 -1 6 11.52 4.6
 -8 -1 7 26.32 4.42
 -8 0 -2 75.46 6.02
 -8 0 -1 23.06 4.12
 -8 0 0 19.26 4
 -8 0 1 11.93 3.7
 -8 0 3 320.68 9.54
 -8 0 4 14.53 4.06
 -8 0 5 28.04 4.35
 -8 0 6 18.7 4.6
 -8 0 7 35.51 5.14
 -8 1 -3 45.36 5.25
 -8 1 -2 4.26 3.88
 -8 1 -1 3.37 3.42
 -8 1 0 1.38 3.28
 -8 1 1 9.57 3.61
 -8 1 2 2.57 3.29
 -8 1 3 199.03 7.6
 -8 1 4 25 4.21
 -8 1 5 30.13 4.59
 -8 1 6 7.35 3.96
 -8 1 7 30.53 4.57
 -8 1 8 41.17 4.97
 -8 2 -3 59.1 6.3
 -8 2 -2 32.16 4.92
 -8 2 -1 1.97 3.97
 -8 2 0 3.59 4.27
 -8 2 1 62.78 5.35
 -8 2 3 30.92 4.41
 -8 2 4 57.96 5.54
 -8 2 5 16.71 3.67
 -8 2 6 163.48 7.37
 -8 2 7 12.49 4.17
 -8 2 8 32.11 5.09
 -8 3 -2 9.02 4.5
 -8 3 -1 31.21 4.43
 -8 3 0 7.01 3.52
 -8 3 1 15.86 4.07
 -8 3 2 135.56 6.87
 -8 3 4 20.44 3.98
 -8 3 5 37.83 4.62
 -8 3 6 1.56 3.03
 -8 3 7 6.9 3.26
 -8 4 -2 18.19 4.6
 -8 4 0 4.37 3.3
 -8 4 1 49.28 5.43
 -8 4 2 17.57 4.37
 -8 4 3 30.01 4.09
 -8 4 4 135.23 6.5
 -8 4 5 26.26 4.1
 -8 4 7 69.99 5.52
 -8 5 -1 14.41 4.46
 -8 5 0 17.52 3.85
 -8 5 1 1.69 3.53
 -8 5 2 19.6 4.08
 -8 5 3 7.91 3.24
 -8 5 4 44.34 4.78
 -7 -7 1 17.98 3.25
 -7 -7 2 15.4 3.52
 -7 -7 3 8.9 3.69
 -7 -7 4 17.59 3.49
 -7 -7 5 17.16 4.07
 -7 -7 6 11.31 3.53
 -7 -6 -2 20.34 3.63
 -7 -6 -1 23.34 3.63
 -7 -6 0 53.19 4.81
 -7 -6 1 14.68 3.28
 -7 -6 2 11.55 3.35
 -7 -6 3 15.53 3.37
 -7 -6 4 24.57 4.33
 -7 -6 5 6.62 3.73
 -7 -6 6 3.65 3.43
 -7 -6 7 104.41 6.38
 -7 -5 -5 11.24 3.75
 -7 -5 -4 17.91 3.9
 -7 -5 -3 9 3.45
 -7 -5 -2 5.24 3.67
 -7 -5 -1 0.34 2.77
 -7 -5 0 50.09 4.75
 -7 -5 2 48.69 4.89
 -7 -5 3 19.15 3.54
 -7 -5 4 103.63 5.71
 -7 -5 5 13.95 3.52
 -7 -5 6 2.51 3.26
 -7 -5 7 161.84 7.55
 -7 -5 8 37.73 4.91
 -7 -4 -5 27.26 4.37
 -7 -4 -4 8.99 3.62
 -7 -4 -3 31 4.6
 -7 -4 -2 43.13 5
 -7 -4 -1 2.01 3.2
 -7 -4 0 10.31 3.88
 -7 -4 1 68.23 4.96
 -7 -4 2 193.56 6.97
 -7 -4 3 16.14 3.39
 -7 -4 4 55.46 5.05
 -7 -4 5 82.36 5.88
 -7 -4 6 1.93 3.45
 -7 -4 8 51.41 5.88
 -7 -3 -5 3.68 4.04
 -7 -3 -4 28.85 4.46
 -7 -3 -2 25.12 4.34
 -7 -3 -1 93.71 5.81
 -7 -3 0 65.96 5.3
 -7 -3 1 16.91 3.58
 -7 -3 3 73.04 5.34
 -7 -3 4 3.72 2.86
 -7 -3 5 19.85 4.07
 -7 -3 6 13.77 3.61
 -7 -3 7 22.25 4.66
 -7 -3 8 17.54 4.04
 -7 -3 9 203.13 8.46
 -7 -2 -6 10.36 3.9
 -7 -2 -5 12.88 4.01
 -7 -2 -4 24.29 4.54
 -7 -2 -2 30.1 4.33
 -7 -2 -1 2.64 2.85
 -7 -2 0 18.62 3.97
 -7 -2 1 52.13 4.63
 -7 -2 2 68.78 5.27
 -7 -2 3 272.86 8.17
 -7 -2 4 3.89 3.03
 -7 -2 5 12.25 3.27
 -7 -2 8 15.93 3.98
 -7 -2 9 33.28 5.13
 -7 -1 -6 5.78 3.93
 -7 -1 -5 1.14 3.51
 -7 -1 -4 56.96 5.32
 -7 -1 -3 9.53 4.14
 -7 -1 -2 18.53 3.72
 -7 -1 -1 5.81 3.68
 -7 -1 0 113.78 5.61
 -7 -1 1 14.54 3.29
 -7 -1 2 11.76 2.94
 -7 -1 3 2.97 3.35
 -7 -1 5 15.54 3.36
 -7 -1 6 11.45 3.36
 -7 -1 7 29.62 4.17
 -7 -1 8 143.11 6.98
 -7 -1 9 33.97 5.13
 -7 0 -5 -0.94 3.38
 -7 0 -4 21.61 3.99
 -7 0 -3 16.58 4.22
 -7 0 -2 -0.92 2.71
 -7 0 -1 1.27 2.99
 -7 0 0 29.7 3.8
 -7 0 2 1.44 3.01
 -7 0 3 116.96 5.42
 -7 0 4 5.29 2.73
 -7 0 5 2.2 2.69
 -7 0 7 9.28 3.47
 -7 0 8 6.09 3.59
 -7 0 9 149.69 7.46
 -7 1 -3 10.53 3.71
 -7 1 -2 15.67 3.93
 -7 1 -1 11.37 3.81
 -7 1 0 121.05 5.67
 -7 1 1 13.14 3.03
 -7 1 2 15.99 3.57
 -7 1 3 3.48 2.83
 -7 1 4 26.78 3.76
 -7 1 5 16.31 4.02
 -7 1 6 12.26 3.41
 -7 1 7 26.61 3.88
 -7 1 8 149.99 7.08
 -7 2 -4 27.87 4.35
 -7 2 -3 3.37 3.33
 -7 2 -2 25.27 3.83
 -7 2 -1 3.7 2.98
 -7 2 0 22.29 4.18
 -7 2 1 64.54 5.12
 -7 2 2 61.84 4.75
 -7 2 3 267 7.65
 -7 2 4 3.04 2.89
 -7 2 5 13.63 3.41
 -7 2 6 44.91 4.85
 -7 2 7 4.86 3.33
 -7 2 8 12.74 3.52
 -7 3 -4 22.83 4.29
 -7 3 -3 60.88 5.28
 -7 3 -2 32.49 4.15
 -7 3 -1 108.71 5.73
 -7 3 0 70.86 5.15
 -7 3 1 19.18 3.35
 -7 3 2 39.27 4.45
 -7 3 3 73.26 4.99
 -7 3 4 4.55 2.85
 -7 3 5 28.46 3.82
 -7 3 6 13.97 3.73
 -7 3 7 24.79 3.65
 -7 3 8 12.54 3.63
 -7 4 -4 7.68 3.67
 -7 4 -2 40.72 4.37
 -7 4 -1 3.3 2.91
 -7 4 0 11.42 3.38
 -7 4 1 54.62 4.52
 -7 4 2 191.72 6.65
 -7 4 4 48.9 4.37
 -7 4 6 1.41 3.27
 -7 4 7 61.92 4.99
 -7 5 -4 26.26 4.4
 -7 5 -3 9.61 3.38
 -7 5 -2 0.78 3.57
 -7 5 -1 4.37 3.2
 -7 5 0 43.19 4.72
 -7 5 2 46.83 4.49
 -7 5 3 23.5 3.64
 -7 5 4 101.86 5.25
 -7 5 5 18.74 3.39
 -7 6 -3 29.84 4.51
 -7 6 -2 28.02 3.89
 -7 6 0 52.25 4.74
 -7 6 1 19.2 3.42
 -7 6 2 13.52 3.45
 -6 -7 0 8.12 2.65
 -6 -7 1 7.51 2.56
 -6 -7 2 4.07 2.94
 -6 -7 3 28.24 3.85
 -6 -7 5 4.02 2.81
 -6 -7 6 14.71 3.41
 -6 -6 -3 52.21 4.29
 -6 -6 -2 4.39 2.48
 -6 -6 -1 1.3 2.64
 -6 -6 0 2.12 2.34
 -6 -6 1 52.37 4.03
 -6 -6 2 79.44 4.64
 -6 -6 3 3.46 2.73
 -6 -6 4 200.3 6.91
 -6 -6 5 53.37 4.85
 -6 -6 6 24.24 3.83
 -6 -6 7 15.87 3.46
 -6 -5 -6 23.87 3.5
 -6 -5 -5 4.11 2.82
 -6 -5 -4 4.8 3.2
 -6 -5 -2 17.16 3.45
 -6 -5 -1 16.21 2.85
 -6 -5 0 16.4 2.86
 -6 -5 1 41.36 3.82
 -6 -5 2 51.67 4.36
 -6 -5 3 16.63 2.91
 -6 -5 4 3.92 3.14
 -6 -5 5 20.15 3.42
 -6 -5 6 12.49 3.95
 -6 -5 7 62.33 5.1
 -6 -4 -7 18.7 3.8
 -6 -4 -6 33.64 4.52
 -6 -4 -5 38.04 4.57
 -6 -4 -4 83.71 4.97
 -6 -4 -3 82.86 5.13
 -6 -4 -2 11.09 2.87
 -6 -4 -1 157.39 5.98
 -6 -4 0 2.95 2.79
 -6 -4 1 -2.17 1.96
 -6 -4 2 10.9 2.88
 -6 -4 4 211.88 6.88
 -6 -4 5 26.42 3.63
 -6 -4 7 18.36 4.19
 -6 -4 8 1.23 3.12
 -6 -3 -6 6.71 3.31
 -6 -3 -5 13.86 3.3
 -6 -3 -4 9.08 3.59
 -6 -3 -3 25.9 3.55
 -6 -3 -2 83.67 5.04
 -6 -3 -1 13.37 2.79
 -6 -3 2 157.39 5.87
 -6 -3 3 44.25 4.13
 -6 -3 4 6.6 2.53
 -6 -3 5 13.61 2.85
 -6 -3 6 20.22 3.39
 -6 -3 7 75.84 4.93
 -6 -3 8 8.46 3.64
 -6 -2 -4 63.59 4.85
 -6 -2 -2 80.51 4.63
 -6 -2 -1 9.19 2.94
 -6 -2 1 47.76 3.88
 -6 -2 2 78.48 4.55
 -6 -2 3 16.86 3.1
 -6 -2 4 7.76 2.45
 -6 -2 5 35.87 4.13
 -6 -2 6 18.18 3.32
 -6 -2 7 52.14 4.63
 -6 -2 9 21.94 4.02
 -6 -1 -3 5.32 2.65
 -6 -1 -2 58.5 3.88
 -6 -1 -1 14.09 3.19
 -6 -1 0 42.79 3.79
 -6 -1 1 126.98 5.41
 -6 -1 2 50.62 4.1
 -6 -1 3 169.54 5.81
 -6 -1 4 10.2 2.54
 -6 -1 5 50.31 4.41
 -6 -1 6 23.12 3.22
 -6 -1 7 1.45 3.14
 -6 -1 8 1.4 3.33
 -6 0 -2 1.43 2.32
 -6 0 -1 0.9 2.23
 -6 0 0 2.68 2.65
 -6 0 2 16.29 2.73
 -6 0 4 86.64 4.67
 -6 0 5 35.84 3.78
 -6 0 6 152.08 5.65
 -6 0 7 12.61 3.53
 -6 0 8 201.82 7.09
 -6 0 9 0.07 3.17
 -6 1 -2 53.91 4.44
 -6 1 0 50.57 3.83
 -6 1 1 127.55 5.17
 -6 1 2 43.81 3.81
 -6 1 3 177.93 6.01
 -6 1 4 12.6 3.11
 -6 1 5 46.18 4.1
 -6 1 6 24.65 3.47
 -6 1 7 1.58 3.17
 -6 1 8 5.66 3.01
 -6 1 9 60.93 5.27
 -6 2 -1 10.03 2.59
 -6 2 0 59.61 4.3
 -6 2 1 56.6 4.05
 -6 2 2 87 4.49
 -6 2 3 16.85 2.82
 -6 2 4 9.33 2.95
 -6 2 5 35.54 3.55
 -6 2 6 18.18 2.99
 -6 2 7 49.44 4.41
 -6 2 8 52.38 4.59
 -6 2 9 18.16 3.6
 -6 3 -2 81.28 5.17
 -6 3 -1 21 3.18
 -6 3 0 75.72 4.49
 -6 3 1 27.15 3.23
 -6 3 3 40.35 3.4
 -6 3 4 6.88 2.71
 -6 3 6 21.79 3.5
 -6 3 7 87.99 4.93
 -6 3 8 15.02 3.15
 -6 4 -2 10.28 3.36
 -6 4 -1 161.82 5.95
 -6 4 1 -0.19 2.02
 -6 4 2 13.83 2.55
 -6 4 3 40.92 3.83
 -6 4 4 223.28 6.29
 -6 4 6 37.93 3.64
 -6 4 7 20.24 3.43
 -6 4 8 2.7 2.86
 -6 5 -1 16.3 2.87
 -6 5 0 20.93 3.16
 -6 5 1 43.36 3.85
 -6 5 2 45.88 3.81
 -6 5 3 17.38 2.9
 -6 5 6 10.84 2.91
 -6 5 7 65.98 4.31
 -6 6 -3 57.91 4.92
 -6 6 -2 6.87 3.07
 -6 6 -1 0.89 2.42
 -6 6 0 -0.92 2.33
 -6 6 1 46.74 3.9
 -6 6 2 75.64 4.16
 -6 7 -4 0.69 3.02
 -6 7 -3 44.18 4.42
 -6 7 -2 19.13 3.46
 -5 -8 4 73.87 4.1
 -5 -7 -1 34.19 3.2
 -5 -7 0 177.36 5.19
 -5 -7 1 154.88 5.05
 -5 -7 2 79.97 4.13
 -5 -7 3 15.78 2.81
 -5 -7 4 47.04 4.07
 -5 -7 5 101.09 5.22
 -5 -6 -4 32.55 3.49
 -5 -6 -3 3.82 2.11
 -5 -6 -2 57.76 3.66
 -5 -6 -1 102.74 4.28
 -5 -6 0 9.31 2.27
 -5 -6 1 27.59 3.15
 -5 -6 2 1.26 2.3
 -5 -6 3 27.84 3.37
 -5 -6 4 102.4 4.84
 -5 -6 5 16.73 3.09
 -5 -6 6 37.99 4.07
 -5 -5 -7 64.36 4.72
 -5 -5 -5 17.21 2.81
 -5 -5 -4 94.03 4.65
 -5 -5 -3 119.13 4.92
 -5 -5 -2 66.91 3.89
 -5 -5 -1 47.58 3.51
 -5 -5 0 13.7 2.46
 -5 -5 1 120.43 4.54
 -5 -5 2 92.4 4.38
 -5 -5 3 133.26 5.08
 -5 -5 4 51.1 3.7
 -5 -5 5 24.68 3.1
 -5 -5 6 40.19 4.35
 -5 -5 7 51.67 4.71
 -5 -4 -3 12.1 2.43
 -5 -4 -2 5.35 1.99
 -5 -4 -1 16.04 2.85
 -5 -4 0 15.44 2.62
 -5 -4 1 66.09 3.69
 -5 -4 5 33.78 3.65
 -5 -4 6 69.17 4.34
 -5 -4 7 116.66 5.66
 -5 -3 -3 78.04 3.94
 -5 -3 1 172.82 5.26
 -5 -3 2 26.14 3.18
 -5 -3 3 128.48 4.76
 -5 -3 5 49.45 3.84
 -5 -3 6 47.61 3.93
 -5 -3 7 51.61 3.93
 -5 -3 8 46.63 4.11
 -5 -2 -1 294.62 6.51
 -5 -2 0 24.03 2.63
 -5 -2 1 35.44 2.67
 -5 -2 3 145.76 4.9
 -5 -2 5 114.19 4.97
 -5 -2 6 19.84 3.12
 -5 -2 7 211.51 6.58
 -5 -2 8 21.82 3.41
 -5 -1 -1 77.25 3.91
 -5 -1 0 110.92 4.38
 -5 -1 1 275.08 6.23
 -5 -1 2 95.81 4.08
 -5 -1 4 58.29 3.58
 -5 -1 5 36.89 3.47
 -5 -1 6 49 4.04
 -5 0 0 63.35 3.3
 -5 0 1 782.7 10.17
 -5 0 2 12.51 2.04
 -5 0 3 132.36 4.43
 -5 0 4 69.21 3.54
 -5 0 5 93.76 4.06
 -5 0 6 0.74 2.5
 -5 0 7 10.27 2.63
 -5 1 -1 81.89 3.88
 -5 1 0 117.05 4.42
 -5 1 1 282.3 6.25
 -5 1 3 238.18 5.73
 -5 1 4 60.94 3.61
 -5 1 5 34.86 3.33
 -5 1 6 41.35 3.39
 -5 1 7 54.78 4.15
 -5 2 0 24.76 2.9
 -5 2 1 36.82 2.72
 -5 2 3 151.19 4.89
 -5 2 4 110.41 4.41
 -5 2 5 118.99 4.55
 -5 2 6 14.61 2.43
 -5 2 8 26.57 3.34
 -5 3 0 128.32 4.58
 -5 3 1 183.57 5.21
 -5 3 3 134.56 4.6
 -5 3 4 20.25 2.64
 -5 3 5 45.46 3.26
 -5 3 6 49.3 3.66
 -5 3 7 49.87 3.89
 -5 4 -1 16.56 2.57
 -5 4 0 18.54 2.38
 -5 4 1 70.25 3.68
 -5 4 3 57.96 3.39
 -5 4 4 72.55 3.67
 -5 4 5 32.89 3.02
 -5 4 6 77.23 3.96
 -5 5 -1 46.33 3.39
 -5 5 1 120.54 4.23
 -5 5 2 85.35 3.77
 -5 5 4 55.44 3.19
 -5 5 5 27.2 2.8
 -5 5 6 45.92 3.25
 -5 5 7 55.42 3.59
 -5 6 -1 104.46 4.4
 -5 6 0 12.55 2.55
 -5 6 1 28.15 2.96
 -5 6 2 2.38 1.85
 -5 6 3 31.31 2.66
 -5 6 4 100.16 3.76
 -5 7 -2 8.38 2.37
 -5 7 -1 38.17 3.3
 -4 -7 2 117.13 4.09
 -4 -7 3 22.89 2.81
 -4 -7 4 89.91 4.09
 -4 -6 -5 9.45 2.1
 -4 -6 -4 67.36 3.4
 -4 -6 3 59.02 3.32
 -4 -6 4 16.33 2.52
 -4 -6 5 138.92 5
 -4 -5 -5 23.84 2.83
 -4 -5 -4 66.35 3.55
 -4 -5 -3 87.01 3.7
 -4 -5 3 127.57 4.4
 -4 -5 5 180.08 5.61
 -4 -5 6 94.13 4.71
 -4 -4 5 103.5 4.45
 -4 -4 6 78.11 4.37
 -4 -4 7 85.9 4.46
 -4 -3 1 77.37 3.27
 -4 -3 5 89.24 4.22
 -4 -3 7 239.82 6.45
 -4 -2 0 186.23 4.6
 -4 -2 1 387.29 6.57
 -4 -2 2 105.25 3.62
 -4 -2 5 276.52 6.2
 -4 -2 6 100.82 4.16
 -4 -2 7 143.84 5.27
 -4 -1 0 300.69 5.57
 -4 -1 1 56.41 2.65
 -4 -1 2 60.27 3.04
 -4 -1 5 400.36 7.22
 -4 -1 6 13.99 2.23
 -4 -1 7 86.87 4.48
 -4 0 2 37.3 2.44
 -4 0 3 164.11 4.42
 -4 0 6 19.01 2.47
 -4 0 7 300.78 6.97
 -4 0 8 263.11 6.59
 -4 1 0 308.06 5.74
 -4 1 1 55.57 2.63
 -4 1 2 59.85 2.74
 -4 1 6 14.36 2.12
 -4 1 7 85.6 3.96
 -4 2 0 202.3 4.8
 -4 2 1 385.86 6.2
 -4 2 2 110.75 3.62
 -4 2 3 319.5 6.04
 -4 2 6 116 4.15
 -4 3 0 137.01 4.08
 -4 3 2 0.83 1.29
 -4 3 3 317.42 5.93
 -4 3 4 14 1.89
 -4 3 6 152.98 4.51
 -4 3 7 255.37 6
 -4 4 1 58.42 2.79
 -4 4 2 120.56 3.65
 -4 4 3 78.51 3.14
 -4 4 4 351.78 5.85
 -4 5 1 50.22 2.71
 -4 5 2 73.52 2.97
 -4 5 3 121.25 3.47
 -4 5 4 110.34 3.36
 -4 6 1 22.16 2.1
 -4 6 2 48.35 2.45
 -4 6 3 59.65 2.53
 -4 6 4 12.69 1.61
 -4 7 -1 43.88 2.85
 -3 -7 -1 95.59 2.63
 -3 -7 0 86.2 2.64
 -3 -7 1 47.84 2.36
 -3 -7 2 25.63 2.28
 -3 -6 -4 18.44 1.91
 -3 -6 -3 11.01 1.47
 -3 -6 -2 177.12 3.71
 -3 -6 -1 15.34 1.72
 -3 -6 0 128.63 3.29
 -3 -6 1 59.21 2.65
 -3 -5 -3 93.72 3.11
 -3 -5 -2 17.21 1.88
 -3 -5 0 144.73 3.52
 -3 -5 1 17.17 1.92
 -3 -5 3 20.32 2.07
 -3 -4 -2 6.15 1.44
 -3 -4 -1 179.43 3.86
 -3 -4 0 198.83 4.17
 -3 -4 1 106.18 3.07
 -3 -4 3 157.02 4.1
 -3 -3 -1 107.8 3.02
 -3 -3 1 249.03 4.49
 -3 -3 2 6.4 1.47
 -3 -3 4 1132.62 10.6
 -3 -2 3 79.46 2.99
 -3 -2 4 320.17 5.6
 -3 -2 6 58.55 3.25
 -3 -1 0 155.3 3.36
 -3 -1 1 68 2.42
 -3 -1 2 5.51 1.36
 -3 -1 5 768.58 8.92
 -3 0 1 2.65 1.03
 -3 0 2 3096.27 14.62
 -3 0 3 50.48 2.43
 -3 0 4 690.32 7.69
 -3 0 5 106.4 3.56
 -3 1 1 71.05 2.5
 -3 1 2 6.45 1.15
 -3 1 3 550.5 6.47
 -3 1 4 34.86 2.12
 -3 2 4 327.84 5.2
 -3 2 5 614.18 7.42
 -3 3 1 250.42 4.16
 -3 3 2 5.81 1.13
 -3 3 3 290.35 4.57
 -3 3 4 1083.14 8.89
 -3 3 6 70.95 3.1
 -3 4 1 123.54 3.06
 -3 4 2 646.24 6.38
 -3 4 3 149.88 3.25
 -3 4 5 136.25 3.51
 -3 5 1 15.19 1.58
 -3 5 2 69.71 2.33
 -3 5 3 20.72 1.58
 -3 5 4 90.24 2.57
 -3 6 0 134.82 3.14
 -3 6 1 60.02 2.15
 -3 6 2 399.63 4.48
 -3 6 3 211.73 3.15
 -3 7 0 85.97 2.52
 -2 -6 -5 150.13 3.29
 -2 -6 -4 125.97 2.7
 -2 -6 -3 123.35 2.54
 -2 -6 -2 19.36 1.23
 -2 -6 -1 457.45 4.32
 -2 -6 0 161.7 2.83
 -2 -6 1 80.48 2.35
 -2 -5 -3 48.45 1.93
 -2 -5 -2 96.09 2.37
 -2 -5 1 69.76 2.26
 -2 -5 3 150.42 3.61
 -2 -4 0 120.36 2.64
 -2 -4 4 831 8.49
 -2 -3 1 525.26 5.23
 -2 -3 2 139.15 3.08
 -2 -3 4 42.51 2.19
 -2 -2 0 940.63 6.66
 -2 -2 1 264.24 3.83
 -2 -2 2 1825.69 9.97
 -2 -2 3 1063.37 8.33
 -2 -1 0 577.13 5.13
 -2 -1 1 278.8 3.85
 -2 -1 2 233.85 3.62
 -2 -1 3 85.89 2.62
 -2 0 1 337.24 3.93
 -2 0 2 23.02 1.51
 -2 0 3 425.55 5.06
 -2 0 4 37.46 1.96
 -2 0 5 39.99 2.33
 -2 1 1 257.39 3.49
 -2 1 2 259.33 3.65
 -2 1 4 88.76 2.6
 -2 1 5 4.91 1.26
 -2 2 1 241.03 3.31
 -2 2 2 1775.53 8.71
 -2 2 4 115.58 2.81
 -2 2 5 711.69 7.08
 -2 3 1 538.78 4.6
 -2 3 2 135.29 2.49
 -2 3 3 183.39 3
 -2 3 4 41.01 1.86
 -2 4 1 865.63 5.68
 -2 4 2 163 2.53
 -2 4 3 110.62 2.26
 -2 5 1 65.36 1.66
 -2 6 0 167.63 2.73
 -2 6 1 76.41 1.46
 -1 -5 -3 194.35 2.37
 -1 -5 -2 108.4 1.5
 -1 -5 -1 158.99 1.63
 -1 -4 -2 1056.83 5.19
 -1 -4 -1 894.92 4.43
 -1 -4 0 379.19 3.17
 -1 -4 1 870.65 5.6
 -1 -3 -1 41.87 1.19
 -1 -3 0 258.23 2.63
 -1 -3 1 1264.59 6.4
 -1 -3 2 454.15 4.64
 -1 -2 0 4911.61 10.53
 -1 -2 1 1166 5.84
 -1 -1 0 4282.69 9.34
 -1 -1 1 672.34 4.19
 -1 -1 2 472.78 4.17
 -1 0 1 60.1 1.38
 -1 0 2 18.14 1.16
 -1 0 3 9872.51 20.69
 -1 1 1 608.22 3.52
 -1 1 2 436.77 3.5
 -1 2 1 1129.5 4.47
 -1 2 2 1768.52 6.37
 -1 3 1 1320.21 4.51
 0 3 0 1.16 0.35

_iucr_refine_fcf_details
;
data_fk_03482_intdb_v128
_computing_structure_refinement   'olex2.refine 1.5-alpha (Bourhis et al., 2015)'
_shelx_refln_list_code            4
loop_
  _space_group_symop_id
  _space_group_symop_operation_xyz
  1  x,y,z
  2  -x,y+1/2,-z

_space_group_crystal_system       monoclinic
_space_group_IT_number            4
_space_group_name_H-M_alt         'P 1 21 1'
_space_group_name_Hall            ' P 2yb'
_symmetry_space_group_name_H-M    'P 1 21 1'
_symmetry_space_group_name_Hall   ' P 2yb'
_symmetry_Int_Tables_number       4
_cell_length_a                    5.119(3)
_cell_length_b                    6.894(4)
_cell_length_c                    7.595(5)
_cell_angle_alpha                 90
_cell_angle_beta                  100.64(5)
_cell_angle_gamma                 90
_cell_volume                      263.4(3)
loop_
  _refln_index_h
  _refln_index_k
  _refln_index_l
  _refln_F_squared_calc
  _refln_F_squared_meas
  _refln_F_squared_sigma
  _refln_F_squared_weight
  _refln_observed_status
-9 0 1 9.773 6.058 1.041 43.559 o
-9 0 2 26.354 28.393 1.826 10.401 o
-9 0 3 3.441 3.282 0.752 96.610 o
-9 0 4 1.032 0.733 1.538 26.904 o
-9 1 1 7.747 7.276 0.958 51.691 o
-9 1 2 1.211 0.803 0.754 108.306 o
-9 1 3 16.020 15.921 1.277 23.413 o
-9 1 4 0.996 0.746 0.998 63.144 o
-8 -5 -1 4.518 3.131 0.596 132.957 o
-8 -5 0 6.939 6.287 0.443 138.205 o
-8 -4 -2 6.923 6.455 0.515 119.839 o
-8 -4 -1 4.156 3.359 0.439 205.534 o
-8 -4 0 0.308 0.115 0.370 454.080 o
-8 -3 -3 7.941 6.889 0.722 76.009 o
-8 -3 -2 2.261 2.029 0.441 256.447 o
-8 -3 -1 9.484 8.772 0.527 89.015 o
-8 -3 0 2.694 2.317 0.440 245.362 o
-8 -2 -3 15.775 17.399 0.761 37.093 o
-8 -2 -2 9.176 8.997 0.578 83.683 o
-8 -2 -1 1.540 1.086 0.414 316.088 o
-8 -2 0 2.385 2.093 0.460 237.053 o
-8 -1 -3 12.812 14.414 0.716 48.365 o
-8 -1 -2 1.694 1.988 0.493 223.968 o
-8 -1 -1 2.455 1.851 0.413 280.798 o
-8 -1 0 0.737 0.811 0.505 237.154 o
-8 0 1 3.554 4.696 0.520 163.479 o
-8 0 2 5.895 6.422 0.497 134.728 o
-8 0 3 89.933 98.773 1.146 2.096 o
-8 0 4 4.675 4.077 0.609 124.192 o
-8 0 5 8.935 9.618 0.651 74.562 o
-8 0 6 6.009 5.114 0.514 135.682 o
-8 0 7 12.289 10.872 0.705 55.295 o
-8 0 8 0.506 0.711 0.514 232.758 o
-8 1 1 4.726 4.276 0.450 181.424 o
-8 1 2 0.064 0.175 0.367 470.148 o
-8 1 3 55.452 63.688 0.919 5.035 o
-8 1 4 7.036 6.487 0.528 115.669 o
-8 1 5 10.516 9.626 0.621 70.776 o
-8 1 6 4.840 3.872 0.483 168.036 o
-8 1 7 9.686 9.775 0.582 78.379 o
-8 1 8 12.723 14.098 0.690 50.385 o
-8 2 1 17.822 19.501 0.732 32.853 o
-8 2 2 19.029 20.285 0.788 29.328 o
-8 2 3 9.935 9.418 0.494 88.153 o
-8 2 4 14.145 15.886 0.651 46.264 o
-8 2 5 6.909 5.518 0.532 120.116 o
-8 2 6 44.530 48.632 1.006 7.469 o
-8 2 7 3.072 3.392 0.584 148.580 o
-8 2 8 13.632 10.180 1.614 19.257 o
-8 3 1 4.894 4.164 0.532 146.690 o
-8 3 2 38.549 43.251 1.042 9.209 o
-8 3 3 16.998 19.518 0.948 28.587 o
-8 3 4 5.092 5.368 0.518 142.818 o
-8 3 5 11.933 12.127 0.747 51.837 o
-8 3 6 0.436 0.597 0.531 220.284 o
-8 3 7 2.078 2.286 0.573 167.791 o
-8 4 1 15.356 16.073 0.747 39.556 o
-8 4 2 5.245 4.977 0.689 97.953 o
-8 4 3 9.731 9.213 0.754 61.886 o
-8 4 4 36.403 44.422 1.079 9.487 o
-8 4 5 10.178 8.377 0.818 56.396 o
-8 4 6 11.650 10.067 0.851 48.496 o
-8 4 7 21.948 22.079 1.386 16.574 o
-8 5 1 0.266 0.807 0.583 183.985 o
-8 5 2 6.112 6.038 0.641 100.070 o
-8 5 3 3.990 3.538 0.715 102.037 o
-8 5 4 11.711 11.755 1.582 20.322 o
-8 5 5 10.778 8.733 1.213 32.356 o
-8 6 2 10.511 10.808 1.753 17.679 o
-8 6 3 19.724 22.856 2.203 9.697 o
-7 -7 -2 13.635 15.776 1.718 16.558 o
-7 -7 -1 0.973 1.056 0.602 167.224 o
-7 -7 0 8.572 9.425 0.703 70.694 o
-7 -6 -3 7.364 6.274 0.534 112.464 o
-7 -6 -2 7.479 6.793 0.529 110.414 o
-7 -6 -1 8.899 7.912 0.493 101.057 o
-7 -6 0 14.512 15.885 0.633 46.095 o
-7 -5 -5 3.811 3.564 1.189 42.027 o
-7 -5 -4 7.339 6.960 0.461 125.615 o
-7 -5 -3 2.517 2.431 0.391 293.939 o
-7 -5 -2 1.612 1.544 0.354 394.747 o
-7 -5 -1 0.953 0.805 0.344 466.362 o
-7 -5 0 13.618 14.698 0.518 55.823 o
-7 -4 -5 8.612 8.726 0.533 94.103 o
-7 -4 -4 1.932 1.242 0.404 315.162 o
-7 -4 -3 11.599 10.445 0.492 75.485 o
-7 -4 -2 12.620 12.416 0.554 61.634 o
-7 -4 -1 2.299 1.690 0.338 385.058 o
-7 -4 0 3.319 3.496 0.369 273.352 o
-7 -3 -5 2.913 2.084 0.465 223.628 o
-7 -3 -4 7.409 8.129 0.495 112.011 o
-7 -3 -3 19.157 21.010 0.662 31.271 o
-7 -3 -2 11.323 10.754 0.482 77.009 o
-7 -3 -1 29.493 31.791 0.686 16.230 o
-7 -3 0 21.689 21.300 0.569 29.086 o
-7 -2 -6 3.471 3.466 1.017 56.448 o
-7 -2 -5 2.454 3.081 0.566 163.514 o
-7 -2 -4 7.273 7.542 0.544 106.146 o
-7 -2 -3 1.953 1.997 0.401 306.986 o
-7 -2 -2 8.863 9.010 0.546 89.662 o
-7 -2 -1 1.356 0.962 0.341 447.141 o
-7 -2 0 8.181 6.584 0.451 120.796 o
-7 -1 -6 1.984 1.863 0.579 167.656 o
-7 -1 -5 0.521 0.405 0.486 260.914 o
-7 -1 -4 17.481 18.170 0.832 31.761 o
-7 -1 -3 3.399 2.736 0.455 215.559 o
-7 -1 -2 6.617 6.611 0.435 142.567 o
-7 -1 -1 2.887 3.023 0.356 308.759 o
-7 -1 0 36.360 39.151 0.709 11.390 o
-7 0 1 15.455 15.503 0.572 46.607 o
-7 0 2 0.092 0.485 0.322 592.836 o
-7 0 3 39.399 38.603 0.666 10.591 o
-7 0 4 2.190 1.480 0.348 378.608 o
-7 0 5 1.686 1.370 0.392 336.142 o
-7 0 6 0.138 0.332 0.406 379.994 o
-7 0 7 3.643 3.330 0.469 197.444 o
-7 0 8 2.164 2.146 0.438 260.510 o
-7 0 9 40.392 46.361 0.997 8.537 o
-7 0 10 11.850 9.713 0.631 64.199 o
-7 1 1 4.211 4.038 0.355 249.399 o
-7 1 2 4.114 3.647 0.390 233.500 o
-7 1 3 1.073 0.935 0.303 564.019 o
-7 1 4 8.146 8.187 0.518 101.694 o
-7 1 5 5.648 4.753 0.455 161.816 o
-7 1 6 4.669 3.770 0.481 172.162 o
-7 1 7 8.511 7.802 0.533 98.011 o
-7 1 8 41.339 46.708 1.081 8.113 o
-7 1 9 13.282 11.736 0.628 55.794 o
-7 1 10 18.576 18.499 0.821 30.330 o
-7 2 1 17.364 20.968 0.548 36.802 o
-7 2 2 19.190 20.219 0.524 34.633 o
-7 2 3 82.783 84.960 0.909 2.602 o
-7 2 4 0.688 0.306 0.344 495.041 o
-7 2 5 3.275 3.831 0.487 189.445 o
-7 2 6 12.210 13.707 0.720 50.602 o
-7 2 7 0.941 1.188 0.397 357.115 o
-7 2 8 5.538 4.818 0.610 114.811 o
-7 2 9 9.078 8.579 0.732 67.254 o
-7 2 10 7.871 7.418 0.689 79.503 o
-7 3 1 6.690 5.854 0.393 158.993 o
-7 3 2 9.479 11.265 0.495 85.030 o
-7 3 3 19.413 22.667 0.725 28.577 o
-7 3 4 2.255 2.265 0.396 299.289 o
-7 3 5 7.438 7.728 0.581 97.668 o
-7 3 6 5.726 4.726 0.645 105.573 o
-7 3 7 6.599 6.979 0.568 108.601 o
-7 3 8 4.564 4.688 0.651 111.243 o
-7 3 9 58.174 61.480 1.265 4.608 o
-7 4 1 17.309 18.854 0.781 32.853 o
-7 4 2 55.940 60.342 1.026 5.074 o
-7 4 3 5.515 5.261 0.544 130.916 o
-7 4 4 14.678 16.476 0.649 44.336 o
-7 4 5 22.293 24.775 0.878 22.090 o
-7 4 6 0.454 0.274 0.473 277.441 o
-7 4 7 17.809 19.449 0.786 31.575 o
-7 4 8 14.988 17.032 0.869 35.094 o
-7 4 9 0.571 0.649 0.610 166.722 o
-7 5 1 13.167 12.765 0.636 54.062 o
-7 5 2 15.520 15.616 0.743 39.849 o
-7 5 3 4.976 6.714 0.585 118.284 o
-7 5 4 32.045 32.201 0.805 14.160 o
-7 5 5 5.256 5.794 0.540 132.022 o
-7 5 6 1.048 1.103 0.612 161.091 o
-7 5 7 45.379 47.573 1.792 5.909 o
-7 5 8 14.648 17.279 1.959 13.107 o
-7 6 1 6.047 5.591 0.653 99.460 o
-7 6 2 3.590 3.972 0.707 104.873 o
-7 6 3 5.339 5.696 0.729 88.262 o
-7 6 4 9.017 8.034 2.516 9.532 o
-7 6 5 1.781 0.368 1.116 50.312 o
-7 6 7 27.510 30.459 2.200 8.059 o
-6 -9 -1 1.572 0.482 0.722 117.103 o
-6 -9 0 0.358 -0.121 0.652 149.514 o
-6 -8 -3 0.630 1.118 0.799 97.916 o
-6 -8 -2 1.014 0.201 0.864 84.153 o
-6 -8 -1 15.915 18.313 1.028 28.438 o
-6 -8 0 9.743 14.044 1.289 28.323 o
-6 -7 -5 11.018 8.303 1.592 21.063 o
-6 -7 -4 0.097 0.070 0.498 257.449 o
-6 -7 -3 11.489 9.695 0.708 59.361 o
-6 -7 -2 6.420 4.668 0.537 127.256 o
-6 -7 -1 1.195 0.423 0.418 329.017 o
-6 -7 0 3.106 2.516 0.390 275.945 o
-6 -6 -6 5.585 4.043 0.896 65.554 o
-6 -6 -5 4.473 4.190 0.513 158.395 o
-6 -6 -4 2.808 2.739 0.467 218.365 o
-6 -6 -3 14.114 16.444 0.616 47.103 o
-6 -6 -2 2.061 1.728 0.329 411.316 o
-6 -6 -1 0.797 0.240 0.281 702.082 o
-6 -6 0 0.235 0.065 0.262 890.680 o
-6 -5 -7 7.595 8.205 1.259 33.381 o
-6 -5 -6 8.616 7.974 0.466 107.501 o
-6 -5 -5 1.826 1.886 0.355 376.307 o
-6 -5 -4 2.160 1.614 0.331 405.085 o
-6 -5 -3 32.919 34.981 0.619 13.912 o
-6 -5 -2 6.241 5.383 0.351 185.575 o
-6 -5 -1 4.550 4.502 0.317 257.214 o
-6 -5 0 6.504 5.695 0.305 193.421 o
-6 -4 -7 4.757 5.100 0.503 153.293 o
-6 -4 -6 11.386 9.885 0.531 74.529 o
-6 -4 -5 9.494 10.539 0.532 82.918 o
-6 -4 -4 23.605 25.743 0.562 24.185 o
-6 -4 -3 22.514 24.311 0.606 25.668 o
-6 -4 -2 3.251 3.311 0.344 301.408 o
-6 -4 -1 46.462 48.731 0.628 7.647 o
-6 -4 0 1.838 1.230 0.259 608.556 o
-6 -3 -7 9.722 9.921 0.661 69.569 o
-6 -3 -6 3.665 3.140 0.443 214.406 o
-6 -3 -5 4.776 3.732 0.437 191.541 o
-6 -3 -4 3.155 2.880 0.383 275.453 o
-6 -3 -3 8.569 8.430 0.455 107.797 o
-6 -3 -2 23.812 24.440 0.562 24.662 o
-6 -3 -1 6.664 5.103 0.305 196.577 o
-6 -3 0 22.535 23.786 0.519 27.011 o
-6 -2 -7 10.451 9.402 0.631 70.526 o
-6 -2 -6 2.764 2.613 0.470 218.395 o
-6 -2 -5 14.001 15.739 0.754 42.312 o
-6 -2 -4 18.374 20.191 0.630 33.813 o
-6 -2 -3 52.025 51.368 0.972 6.123 o
-6 -2 -2 22.895 23.563 0.512 26.790 o
-6 -2 -1 3.692 3.398 0.307 318.251 o
-6 -2 0 18.850 18.255 0.431 39.120 o
-6 -1 -8 9.057 10.716 1.132 36.583 o
-6 -1 -7 3.239 2.930 0.548 164.684 o
-6 -1 -6 4.500 4.840 0.568 134.956 o
-6 -1 -5 14.461 14.463 0.776 41.774 o
-6 -1 -4 2.209 2.551 0.381 312.478 o
-6 -1 -3 1.323 1.167 0.318 495.086 o
-6 -1 -2 17.129 16.802 0.487 43.487 o
-6 -1 -1 5.172 4.897 0.296 243.669 o
-6 -1 0 14.022 13.795 0.415 61.106 o
-6 0 1 14.654 13.852 0.422 58.149 o
-6 0 2 5.875 5.347 0.292 218.510 o
-6 0 3 8.298 6.655 0.321 146.781 o
-6 0 4 26.829 28.907 0.573 19.711 o
-6 0 5 11.702 10.832 0.466 76.101 o
-6 0 6 49.761 48.533 0.896 6.756 o
-6 0 7 4.239 3.768 0.430 205.135 o
-6 0 8 62.799 62.455 0.896 4.419 o
-6 0 9 0.000 -0.155 0.364 485.167 o
-6 0 10 1.290 1.328 0.462 264.688 o
-6 0 11 2.357 2.871 0.531 183.959 o
-6 1 1 40.495 38.046 0.766 10.106 o
-6 1 2 15.873 13.972 0.541 48.819 o
-6 1 3 58.144 54.087 0.689 5.424 o
-6 1 4 3.227 3.893 0.317 317.925 o
-6 1 5 15.429 16.235 0.534 47.137 o
-6 1 6 8.603 8.703 0.439 108.798 o
-6 1 7 0.485 0.669 0.371 432.044 o
-6 1 8 1.303 1.316 0.386 359.273 o
-6 1 9 19.345 20.933 0.699 30.320 o
-6 1 10 3.180 3.508 0.493 189.584 o
-6 1 11 17.121 20.643 0.947 27.857 o
-6 2 1 17.355 17.518 0.457 42.859 o
-6 2 2 25.006 26.641 0.507 22.806 o
-6 2 3 5.755 5.164 0.309 216.576 o
-6 2 4 3.077 2.443 0.301 378.313 o
-6 2 5 10.619 10.649 0.427 86.855 o
-6 2 6 7.920 6.473 0.460 122.222 o
-6 2 7 14.808 15.594 0.547 49.300 o
-6 2 8 14.848 15.806 0.719 41.896 o
-6 2 9 7.287 6.024 0.470 128.879 o
-6 2 10 25.731 27.508 0.778 19.419 o
-6 2 11 8.597 7.476 0.723 72.096 o
-6 3 1 9.004 9.516 0.395 108.126 o
-6 3 2 53.856 52.758 0.754 5.997 o
-6 3 3 14.133 13.179 0.541 55.487 o
-6 3 4 3.833 2.560 0.345 293.480 o
-6 3 5 5.570 4.914 0.393 186.415 o
-6 3 6 6.429 6.190 0.410 155.136 o
-6 3 7 26.170 25.818 0.670 20.714 o
-6 3 8 4.703 3.886 0.509 158.988 o
-6 3 9 4.301 3.706 0.546 150.080 o
-6 3 10 9.920 11.969 0.741 58.181 o
-6 3 11 1.233 0.098 0.873 82.192 o
-6 4 1 0.051 -0.307 0.243 1074.590 o
-6 4 2 5.547 4.726 0.350 208.155 o
-6 4 3 11.096 13.586 0.531 67.116 o
-6 4 4 66.286 69.426 0.886 3.884 o
-6 4 5 8.547 8.509 0.529 95.916 o
-6 4 6 11.390 12.254 0.649 59.877 o
-6 4 7 4.872 5.883 0.628 111.278 o
-6 4 8 0.229 0.807 0.419 349.531 o
-6 4 9 33.617 35.863 1.197 10.986 o
-6 4 10 6.855 7.322 1.008 49.286 o
-6 5 1 12.182 12.664 0.568 61.939 o
-6 5 2 13.997 15.953 0.560 50.561 o
-6 5 3 5.612 5.266 0.414 173.937 o
-6 5 4 0.456 0.395 0.388 403.521 o
-6 5 5 6.060 5.428 0.566 119.561 o
-6 5 6 4.049 3.668 0.413 220.256 o
-6 5 7 19.656 21.095 0.696 29.835 o
-6 5 8 7.599 6.711 0.938 54.159 o
-6 5 9 10.397 10.003 1.569 21.468 o
-6 5 10 0.365 -0.615 1.294 38.230 o
-6 6 1 15.637 15.640 0.687 41.657 o
-6 6 2 23.545 24.073 0.759 22.832 o
-6 6 3 1.383 1.588 0.491 233.446 o
-6 6 4 58.376 61.061 1.434 4.462 o
-6 6 5 17.975 19.543 2.628 7.690 o
-6 6 7 5.176 5.364 1.335 32.639 o
-6 7 1 3.004 2.888 1.100 49.618 o
-6 7 2 2.236 1.909 0.935 69.108 o
-6 7 3 10.341 7.834 1.347 28.151 o
-5 -9 -3 2.498 1.620 0.664 129.174 o
-5 -9 -2 0.034 0.428 0.573 193.842 o
-5 -9 -1 11.987 13.283 1.078 34.071 o
-5 -9 0 29.235 29.854 0.970 15.087 o
-5 -8 -5 2.733 2.767 0.623 138.722 o
-5 -8 -4 3.464 2.555 0.618 135.813 o
-5 -8 -3 1.219 0.725 0.749 109.770 o
-5 -8 -2 1.515 1.488 0.533 201.114 o
-5 -8 -1 16.678 16.023 0.756 36.892 o
-5 -8 0 7.098 6.629 0.675 87.099 o
-5 -7 -6 0.597 -0.213 0.428 335.274 o
-5 -7 -5 2.090 1.863 0.467 239.493 o
-5 -7 -4 2.429 2.530 0.450 239.898 o
-5 -7 -3 21.554 20.594 0.709 27.488 o
-5 -7 -2 2.035 2.773 0.338 371.782 o
-5 -7 -1 12.177 11.912 0.496 68.632 o
-5 -7 0 51.967 55.697 0.695 6.103 o
-5 -6 -7 10.608 9.847 0.736 59.725 o
-5 -6 -6 24.659 26.184 0.675 21.808 o
-5 -6 -5 15.212 16.981 0.557 45.872 o
-5 -6 -4 9.970 9.351 0.405 99.041 o
-5 -6 -3 0.705 0.857 0.281 676.428 o
-5 -6 -2 18.334 18.763 0.431 39.694 o
-5 -6 -1 31.655 32.460 0.470 15.784 o
-5 -6 0 4.142 3.256 0.256 349.525 o
-5 -5 -8 12.994 13.541 0.666 51.712 o
-5 -5 -7 19.505 20.188 0.604 32.537 o
-5 -5 -6 0.638 1.086 0.350 462.925 o
-5 -5 -5 6.487 6.012 0.396 160.084 o
-5 -5 -4 28.135 29.256 0.503 19.012 o
-5 -5 -3 33.529 36.507 0.514 13.627 o
-5 -5 -2 20.950 21.658 0.489 31.104 o
-5 -5 -1 15.793 15.061 0.387 53.129 o
-5 -5 0 7.165 4.724 0.275 199.731 o
-5 -4 -8 12.750 13.628 0.593 56.563 o
-5 -4 -7 21.564 24.378 0.781 24.281 o
-5 -4 -6 51.370 55.567 1.034 5.864 o
-5 -4 -5 5.979 5.052 0.448 157.473 o
-5 -4 -4 9.408 11.452 0.432 91.992 o
-5 -4 -3 5.230 4.331 0.247 279.787 o
-5 -4 -2 2.471 1.906 0.237 559.903 o
-5 -4 -1 4.636 4.642 0.287 271.470 o
-5 -4 0 5.464 4.802 0.268 250.910 o
-5 -3 -9 7.621 5.292 1.206 37.081 o
-5 -3 -8 12.339 13.449 0.625 56.250 o
-5 -3 -7 0.100 -0.296 0.397 404.269 o
-5 -3 -6 18.055 18.496 0.694 34.213 o
-5 -3 -5 3.200 3.475 0.341 303.404 o
-5 -3 -4 6.797 6.038 0.353 168.254 o
-5 -3 -3 23.659 23.797 0.477 26.090 o
-5 -3 -2 42.742 43.661 0.592 9.080 o
-5 -3 -1 84.544 77.729 0.793 2.698 o
-5 -3 0 42.877 37.853 0.504 9.966 o
-5 -2 -9 5.923 7.984 0.697 85.934 o
-5 -2 -8 56.184 61.057 1.132 4.925 o
-5 -2 -7 17.464 18.929 0.634 36.414 o
-5 -2 -6 45.944 49.284 0.994 7.183 o
-5 -2 -5 0.884 0.614 0.291 633.480 o
-5 -2 -4 13.222 14.724 0.420 62.292 o
-5 -2 -3 8.811 8.594 0.381 116.706 o
-5 -2 -2 23.123 23.393 0.446 27.331 o
-5 -2 -1 98.132 95.748 1.230 1.910 o
-5 -2 0 8.901 8.384 0.284 132.522 o
-5 -1 -9 12.492 15.076 0.803 43.934 o
-5 -1 -8 18.742 21.624 0.935 25.904 o
-5 -1 -7 30.789 31.299 1.007 13.806 o
-5 -1 -6 0.208 -0.052 0.320 609.363 o
-5 -1 -5 18.880 19.809 0.555 34.915 o
-5 -1 -4 2.668 2.846 0.309 379.078 o
-5 -1 -3 11.105 10.466 0.401 86.711 o
-5 -1 -2 73.075 71.092 0.795 3.426 o
-5 -1 -1 28.580 25.698 0.570 19.615 o
-5 -1 0 38.425 35.036 0.476 11.973 o
-5 0 1 240.629 240.861 1.613 0.334 o
-5 0 2 3.376 3.235 0.229 431.138 o
-5 0 3 52.616 44.171 1.187 6.257 o
-5 0 4 26.282 23.181 0.398 24.124 o
-5 0 5 33.754 31.001 0.520 14.851 o
-5 0 6 0.543 0.904 0.294 639.557 o
-5 0 7 2.858 2.240 0.364 314.925 o
-5 0 8 53.294 51.709 0.868 6.039 o
-5 0 9 46.836 46.145 0.928 7.408 o
-5 0 10 10.757 11.876 0.599 66.933 o
-5 0 11 25.634 24.903 0.943 18.784 o
-5 0 12 0.403 0.467 0.510 238.630 o
-5 1 1 94.832 88.382 1.042 2.121 o
-5 1 2 34.867 30.820 0.686 13.714 o
-5 1 3 80.954 75.644 0.948 2.864 o
-5 1 4 19.441 18.881 0.534 35.175 o
-5 1 5 11.014 11.530 0.497 75.287 o
-5 1 6 13.047 12.569 0.479 64.355 o
-5 1 7 19.079 18.571 0.525 36.326 o
-5 1 8 166.774 170.652 1.413 0.672 o
-5 1 9 13.482 14.589 0.677 48.397 o
-5 1 10 16.671 17.853 0.735 35.969 o
-5 1 11 4.242 3.478 0.531 157.956 o
-5 1 12 2.613 1.888 0.548 177.120 o
-5 2 1 11.572 10.139 0.359 88.429 o
-5 2 2 101.898 92.176 1.237 1.862 o
-5 2 3 50.812 47.962 0.846 6.696 o
-5 2 4 33.699 35.008 0.738 13.101 o
-5 2 5 36.090 36.574 0.695 11.992 o
-5 2 6 5.562 4.778 0.341 211.301 o
-5 2 7 65.192 69.274 0.831 3.991 o
-5 2 8 6.837 6.947 0.396 147.985 o
-5 2 9 10.455 8.796 0.616 73.351 o
-5 2 10 4.594 4.178 0.472 174.274 o
-5 2 11 0.902 1.050 0.471 265.069 o
-5 2 12 12.663 11.107 1.236 28.874 o
-5 3 1 59.932 56.872 0.820 4.992 o
-5 3 2 9.986 7.921 0.394 106.484 o
-5 3 3 43.887 40.927 0.666 9.017 o
-5 3 4 8.866 7.389 0.387 121.716 o
-5 3 5 16.406 14.871 0.455 49.100 o
-5 3 6 15.227 15.788 0.568 46.992 o
-5 3 7 13.493 14.954 0.476 57.917 o
-5 3 8 12.920 13.368 0.612 55.305 o
-5 3 9 23.008 23.262 0.671 24.884 o
-5 3 10 21.306 22.203 0.779 25.705 o
-5 3 11 6.584 6.844 0.837 66.435 o
-5 3 12 2.411 0.837 1.243 40.329 o
-5 4 1 19.734 20.898 0.435 34.630 o
-5 4 2 59.773 61.517 0.794 4.793 o
-5 4 3 15.319 16.970 0.546 46.009 o
-5 4 4 21.755 20.769 0.463 30.916 o
-5 4 5 10.615 9.840 0.356 97.282 o
-5 4 6 22.971 23.569 0.610 25.518 o
-5 4 7 33.844 37.201 0.818 12.294 o
-5 4 8 22.954 22.958 0.875 22.337 o
-5 4 9 0.002 -0.040 0.373 460.961 o
-5 4 10 20.641 25.317 1.333 17.064 o
-5 4 11 3.572 3.741 1.278 36.842 o
-5 5 1 38.523 39.290 0.620 10.867 o
-5 5 2 30.621 28.554 0.758 16.085 o
-5 5 3 41.386 42.200 0.771 9.287 o
-5 5 4 16.314 17.556 0.536 43.097 o
-5 5 5 9.927 8.486 0.495 91.192 o
-5 5 6 12.298 14.969 0.644 52.880 o
-5 5 7 16.800 16.907 0.622 40.059 o
-5 5 8 28.331 29.251 1.255 13.584 o
-5 5 9 18.337 20.348 1.671 14.935 o
-5 5 10 19.401 22.656 1.826 12.697 o
-5 6 1 10.076 8.534 0.484 91.438 o
-5 6 2 0.925 1.079 0.330 494.475 o
-5 6 3 10.171 10.555 0.564 75.864 o
-5 6 4 33.324 33.306 0.625 14.096 o
-5 6 5 6.785 5.854 0.625 99.673 o
-5 6 6 12.390 11.461 1.370 25.019 o
-5 6 7 11.515 12.428 1.379 25.005 o
-5 6 9 52.486 53.806 2.410 4.077 o
-5 7 1 49.644 49.179 2.923 3.712 o
-5 7 2 23.431 24.283 1.144 18.117 o
-5 7 3 4.597 4.022 1.864 17.729 o
-5 7 4 13.624 12.669 1.576 19.481 o
-5 8 1 7.078 6.896 0.992 50.477 o
-4 -10 -3 4.437 4.537 0.993 56.631 o
-4 -10 -2 4.419 2.773 0.957 61.995 o
-4 -10 -1 2.646 1.177 0.891 75.672 o
-4 -10 0 5.301 5.869 1.636 22.325 o
-4 -9 -5 1.834 2.072 0.693 121.610 o
-4 -9 -4 16.665 18.752 1.378 20.171 o
-4 -9 -3 24.884 25.026 1.389 14.665 o
-4 -9 -2 19.439 18.093 0.763 30.781 o
-4 -9 -1 5.993 5.825 0.552 121.947 o
-4 -9 0 12.118 11.400 0.663 57.838 o
-4 -8 -7 6.962 6.279 0.876 61.925 o
-4 -8 -6 1.671 1.103 0.525 206.792 o
-4 -8 -5 22.898 24.896 0.861 21.761 o
-4 -8 -4 3.364 3.030 0.548 162.749 o
-4 -8 -3 0.270 0.660 0.415 355.853 o
-4 -8 -2 12.378 12.548 0.624 57.687 o
-4 -8 -1 4.133 3.481 0.504 171.075 o
-4 -8 0 39.366 40.922 1.032 9.320 o
-4 -7 -8 0.773 1.280 0.587 175.863 o
-4 -7 -7 8.308 8.300 0.650 80.691 o
-4 -7 -6 8.907 8.623 0.516 94.917 o
-4 -7 -5 1.712 1.620 0.380 348.154 o
-4 -7 -4 45.400 46.611 0.771 7.879 o
-4 -7 -3 28.638 28.232 0.498 19.049 o
-4 -7 -2 48.683 47.540 0.832 7.098 o
-4 -7 -1 12.107 12.640 0.541 64.098 o
-4 -7 0 11.739 12.180 0.489 70.580 o
-4 -6 -9 9.179 7.143 1.690 19.784 o
-4 -6 -8 13.930 13.860 0.751 44.620 o
-4 -6 -7 47.215 50.282 0.822 7.127 o
-4 -6 -6 23.592 24.906 0.569 24.572 o
-4 -6 -5 4.571 4.101 0.296 277.883 o
-4 -6 -4 21.283 21.687 0.434 31.331 o
-4 -6 -3 51.876 54.234 0.586 6.304 o
-4 -6 -2 8.749 7.892 0.273 139.841 o
-4 -6 -1 12.449 12.059 0.353 76.780 o
-4 -6 0 14.789 15.165 0.361 57.547 o
-4 -5 -9 3.479 4.196 0.559 150.853 o
-4 -5 -8 0.237 -0.272 0.403 387.513 o
-4 -5 -7 10.639 9.874 0.521 79.500 o
-4 -5 -6 25.026 25.656 0.775 20.701 o
-4 -5 -5 8.598 7.261 0.350 132.430 o
-4 -5 -4 20.850 20.750 0.429 32.877 o
-4 -5 -3 28.404 28.349 0.510 19.110 o
-4 -5 -2 58.936 61.919 0.562 4.973 o
-4 -5 -1 121.778 125.489 0.935 1.245 o
-4 -5 0 32.469 31.767 0.551 15.211 o
-4 -4 -10 11.861 11.670 1.188 30.940 o
-4 -4 -9 17.186 18.219 0.769 33.837 o
-4 -4 -8 58.888 65.309 0.942 4.610 o
-4 -4 -7 0.793 0.777 0.395 372.281 o
-4 -4 -6 9.914 9.426 0.414 98.081 o
-4 -4 -5 4.206 3.979 0.304 287.814 o
-4 -4 -4 2.664 2.534 0.252 480.606 o
-4 -4 -3 5.275 4.383 0.256 272.054 o
-4 -4 -2 13.675 14.491 0.422 60.775 o
-4 -4 -1 90.076 82.314 0.870 2.391 o
-4 -4 0 54.099 49.195 0.624 6.319 o
-4 -3 -10 3.018 2.027 0.610 144.462 o
-4 -3 -9 11.720 12.969 0.697 54.390 o
-4 -3 -8 2.211 2.821 0.445 245.952 o
-4 -3 -7 7.566 7.756 0.630 88.706 o
-4 -3 -6 9.476 9.944 0.474 91.869 o
-4 -3 -5 18.888 16.341 0.456 40.623 o
-4 -3 -4 70.429 64.837 0.766 3.801 o
-4 -3 -3 102.252 97.279 0.879 1.834 o
-4 -3 -2 90.206 86.790 1.006 2.290 o
-4 -3 -1 109.743 114.030 1.316 1.482 o
-4 -3 0 44.994 41.398 0.562 8.847 o
-4 -2 -10 5.589 6.625 0.647 100.191 o
-4 -2 -9 31.301 34.562 0.987 13.034 o
-4 -2 -8 31.212 32.097 0.733 14.955 o
-4 -2 -7 10.051 10.885 0.543 77.773 o
-4 -2 -6 10.972 9.801 0.511 78.883 o
-4 -2 -5 0.365 0.294 0.232 1058.380 o
-4 -2 -4 6.825 5.656 0.276 196.623 o
-4 -2 -3 8.238 7.460 0.316 142.576 o
-4 -2 -2 8.759 7.416 0.720 71.982 o
-4 -2 -1 75.171 67.556 8.170 0.755 o
-4 -2 0 63.151 59.619 0.710 4.609 o
-4 -1 -10 2.782 3.566 0.633 131.891 o
-4 -1 -9 10.078 11.625 0.816 52.636 o
-4 -1 -8 7.835 7.836 0.548 100.177 o
-4 -1 -7 17.874 16.249 0.541 40.839 o
-4 -1 -6 32.726 29.145 0.640 15.394 o
-4 -1 -5 3.421 2.434 0.315 344.378 o
-4 -1 -4 56.071 48.888 0.701 6.002 o
-4 -1 -3 4.701 4.375 0.247 301.529 o
-4 -1 -2 518.207 526.593 5.514 0.071 o
-4 -1 -1 144.421 134.889 1.479 0.936 o
-4 -1 0 103.096 94.564 0.799 1.853 o
-4 0 1 2.047 2.451 0.210 644.616 o
-4 0 2 13.444 11.723 0.317 74.071 o
-4 0 3 51.252 51.566 0.520 6.651 o
-4 0 4 4.371 3.425 0.338 265.975 o
-4 0 5 558.867 510.330 2.920 0.067 o
-4 0 6 6.485 6.362 0.374 164.300 o
-4 0 7 88.379 93.684 0.983 2.243 o
-4 0 8 83.093 86.222 0.807 2.584 o
-4 0 9 55.568 56.209 0.935 5.416 o
-4 0 10 12.761 10.057 0.885 44.253 o
-4 0 11 10.789 10.570 0.717 59.551 o
-4 0 12 18.258 19.314 0.930 27.724 o
-4 1 1 18.889 18.562 0.343 40.365 o
-4 1 2 21.022 19.602 0.289 35.436 o
-4 1 3 55.166 53.319 0.449 5.986 o
-4 1 4 41.775 40.382 0.864 9.217 o
-4 1 5 142.061 128.267 2.690 0.914 o
-4 1 6 5.537 4.537 0.341 215.334 o
-4 1 7 27.298 27.994 0.585 19.615 o
-4 1 8 65.343 67.609 1.080 3.924 o
-4 1 9 17.748 19.548 0.676 34.318 o
-4 1 10 25.309 26.177 0.801 20.005 o
-4 1 11 14.922 14.642 0.756 41.462 o
-4 1 12 5.166 4.604 0.636 111.600 o
-4 1 13 10.086 10.281 1.188 33.299 o
-4 2 1 128.157 114.804 1.101 1.224 o
-4 2 2 34.016 34.332 0.447 14.106 o
-4 2 3 92.192 95.557 0.941 2.108 o
-4 2 4 250.755 233.448 2.300 0.318 o
-4 2 5 89.596 85.639 1.187 2.296 o
-4 2 6 36.870 36.193 0.716 11.712 o
-4 2 7 43.315 45.281 0.824 8.367 o
-4 2 8 27.274 28.414 0.644 19.052 o
-4 2 9 36.222 38.520 0.744 11.443 o
-4 2 10 27.407 29.416 0.848 17.087 o
-4 2 11 4.969 4.609 0.558 135.012 o
-4 2 12 21.434 22.462 0.993 22.109 o
-4 3 1 32.613 28.174 0.521 16.277 o
-4 3 2 0.619 0.281 0.156 1855.060 o
-4 3 3 104.001 99.068 0.987 1.765 o
-4 3 4 5.731 5.249 0.281 229.119 o
-4 3 5 28.102 25.917 0.692 18.995 o
-4 3 6 53.216 49.451 0.609 6.443 o
-4 3 7 74.540 77.792 0.967 3.113 o
-4 3 8 77.091 79.336 0.907 2.967 o
-4 3 9 12.136 10.792 0.533 68.567 o
-4 3 10 8.557 8.314 0.612 84.441 o
-4 3 11 31.482 33.293 1.565 10.137 o
-4 3 12 0.286 -0.316 0.715 124.556 o
-4 4 1 19.803 19.619 0.363 36.872 o
-4 4 2 40.203 36.835 0.407 11.127 o
-4 4 3 26.635 23.892 0.393 23.405 o
-4 4 4 120.750 111.962 0.840 1.358 o
-4 4 5 33.647 30.377 0.618 14.688 o
-4 4 6 23.048 24.499 0.702 23.800 o
-4 4 7 26.308 26.454 0.613 20.824 o
-4 4 8 14.098 14.607 0.589 50.952 o
-4 4 9 26.891 26.628 0.691 19.644 o
-4 4 10 5.332 4.733 0.651 106.507 o
-4 4 11 13.495 16.413 1.744 16.137 o
-4 4 12 47.292 47.915 2.352 4.710 o
-4 5 1 17.717 15.647 0.330 47.592 o
-4 5 2 25.440 22.387 0.361 25.813 o
-4 5 3 40.853 38.489 0.660 10.179 o
-4 5 4 36.035 34.754 0.638 12.546 o
-4 5 5 54.625 51.450 1.576 5.075 o
-4 5 6 27.085 26.134 1.092 16.140 o
-4 5 7 10.311 10.171 0.497 83.080 o
-4 5 8 7.171 6.293 0.538 113.186 o
-4 5 9 29.139 27.693 1.168 14.210 o
-4 5 10 41.765 47.386 2.197 5.475 o
-4 6 1 6.534 7.677 0.418 141.136 o
-4 6 2 14.787 15.541 0.419 54.638 o
-4 6 3 19.347 18.484 0.425 37.929 o
-4 6 4 5.203 4.199 0.285 260.811 o
-4 6 5 44.280 47.574 1.599 6.433 o
-4 6 6 45.678 46.247 1.035 7.425 o
-4 6 7 35.837 35.327 1.266 10.144 o
-4 7 1 41.005 42.427 1.254 8.189 o
-4 7 2 36.590 35.602 1.090 10.591 o
-4 7 3 8.322 7.146 0.578 94.237 o
-4 7 4 27.035 26.828 1.257 14.580 o
-4 7 5 16.937 16.496 1.804 14.372 o
-4 7 6 30.343 31.730 1.928 8.770 o
-4 8 1 9.854 8.533 0.959 46.635 o
-4 8 2 23.269 26.028 0.856 21.058 o
-4 8 3 35.618 36.376 1.289 9.970 o
-4 8 4 7.726 5.735 1.113 41.999 o
-4 8 5 1.388 0.428 0.853 85.462 o
-3 -11 -2 3.474 3.554 0.941 64.871 o
-3 -11 -1 2.243 2.637 0.873 77.802 o
-3 -11 0 0.693 0.973 1.233 41.723 o
-3 -10 -5 20.040 21.141 1.390 17.640 o
-3 -10 -4 0.449 -0.242 0.829 92.633 o
-3 -10 -3 16.308 15.537 1.244 24.063 o
-3 -10 -2 11.978 11.290 1.322 26.677 o
-3 -10 -1 17.344 17.565 1.237 22.746 o
-3 -10 0 11.169 9.074 1.045 39.261 o
-3 -9 -7 3.358 2.413 1.243 39.354 o
-3 -9 -6 5.397 4.361 0.919 62.994 o
-3 -9 -5 8.400 7.209 0.789 65.814 o
-3 -9 -4 22.981 24.930 1.190 17.650 o
-3 -9 -3 23.990 23.394 1.131 18.201 o
-3 -9 -2 0.772 0.757 0.498 242.813 o
-3 -9 -1 3.534 3.132 1.254 38.375 o
-3 -9 0 6.870 7.055 0.501 120.721 o
-3 -8 -8 10.118 7.605 1.029 42.642 o
-3 -8 -7 29.053 30.828 1.483 11.554 o
-3 -8 -6 0.926 -0.003 0.574 187.403 o
-3 -8 -5 6.623 6.144 0.504 126.764 o
-3 -8 -4 17.600 17.645 0.618 37.807 o
-3 -8 -3 15.259 15.211 0.618 45.690 o
-3 -8 -2 16.664 15.758 0.619 41.687 o
-3 -8 -1 37.048 37.901 1.058 10.248 o
-3 -8 0 4.986 3.839 0.355 230.783 o
-3 -7 -9 7.686 6.219 0.816 66.594 o
-3 -7 -8 11.049 11.121 0.655 62.621 o
-3 -7 -7 31.541 33.917 0.766 14.184 o
-3 -7 -6 16.470 16.466 0.622 41.219 o
-3 -7 -5 8.988 7.704 0.408 115.016 o
-3 -7 -4 13.081 14.449 0.439 62.468 o
-3 -7 -3 13.223 13.979 0.427 63.502 o
-3 -7 -2 25.114 24.883 0.418 24.319 o
-3 -7 -1 31.643 30.796 0.458 16.326 o
-3 -7 0 29.277 28.320 0.393 19.057 o
-3 -6 -10 11.436 11.704 1.164 32.227 o
-3 -6 -9 13.575 13.447 0.649 51.141 o
-3 -6 -8 6.467 6.255 0.495 130.047 o
-3 -6 -7 2.322 2.127 0.387 309.398 o
-3 -6 -6 46.306 46.442 0.626 7.909 o
-3 -6 -5 3.186 2.038 0.298 387.643 o
-3 -6 -4 6.402 5.778 0.275 205.615 o
-3 -6 -3 4.689 4.347 0.197 338.607 o
-3 -6 -2 59.549 58.883 0.473 5.105 o
-3 -6 -1 6.281 5.170 0.165 259.471 o
-3 -6 0 45.295 41.855 0.352 8.953 o
-3 -5 -10 0.216 -0.041 0.430 341.255 o
-3 -5 -9 6.628 7.342 0.562 108.250 o
-3 -5 -8 12.377 13.169 0.818 45.432 o
-3 -5 -7 28.607 29.049 0.711 17.452 o
-3 -5 -6 10.592 12.233 0.514 74.149 o
-3 -5 -5 61.044 61.202 0.758 4.706 o
-3 -5 -4 65.515 61.674 0.832 4.259 o
-3 -5 -3 29.829 29.492 0.396 18.199 o
-3 -5 -2 6.020 5.479 0.176 259.687 o
-3 -5 -1 129.449 128.893 0.550 1.144 o
-3 -5 0 48.581 46.239 0.404 7.687 o
-3 -4 -10 0.111 -0.133 0.496 258.813 o
-3 -4 -9 1.198 1.031 0.386 368.797 o
-3 -4 -8 2.957 3.336 0.405 255.779 o
-3 -4 -7 15.300 14.457 0.445 53.695 o
-3 -4 -6 23.206 22.086 0.544 26.935 o
-3 -4 -5 4.688 4.554 0.299 263.235 o
-3 -4 -4 38.571 34.612 0.641 11.599 o
-3 -4 -3 128.661 127.869 1.058 1.142 o
-3 -4 -2 2.453 1.970 0.128 853.294 o
-3 -4 -1 56.399 56.620 0.431 5.618 o
-3 -4 0 64.785 62.907 0.484 4.402 o
-3 -3 -11 7.095 7.238 0.609 96.392 o
-3 -3 -10 0.983 0.821 0.472 264.888 o
-3 -3 -9 4.252 4.762 0.518 155.897 o
-3 -3 -8 11.087 10.989 0.567 70.119 o
-3 -3 -7 58.056 58.154 0.917 5.053 o
-3 -3 -6 30.556 26.964 0.669 17.145 o
-3 -3 -5 24.088 23.422 0.485 25.719 o
-3 -3 -4 36.919 32.029 0.405 13.386 o
-3 -3 -3 19.345 17.201 0.578 35.930 o
-3 -3 -2 107.707 101.964 0.761 1.675 o
-3 -3 -1 39.207 34.186 0.393 11.997 o
-3 -3 0 40.990 43.543 0.397 9.835 o
-3 -2 -11 14.365 14.724 0.993 33.353 o
-3 -2 -10 0.721 0.949 0.484 255.761 o
-3 -2 -9 22.246 22.729 0.721 25.294 o
-3 -2 -8 5.600 5.262 0.430 167.991 o
-3 -2 -7 14.032 12.930 0.637 51.163 o
-3 -2 -6 0.142 -0.207 0.199 1547.850 o
-3 -2 -5 82.000 81.134 1.132 2.659 o
-3 -2 -4 49.979 44.935 1.061 6.775 o
-3 -2 -3 0.924 1.439 0.187 1092.230 o
-3 -2 -2 175.852 174.587 1.166 0.623 o
-3 -2 -1 64.040 63.172 1.194 4.115 o
-3 -2 0 157.919 170.363 6.095 0.517 o
-3 -1 -11 3.274 3.213 0.767 94.172 o
-3 -1 -10 8.626 7.454 0.902 54.276 o
-3 -1 -9 0.053 0.003 0.413 375.028 o
-3 -1 -8 17.334 16.892 0.714 36.266 o
-3 -1 -7 5.334 4.585 0.327 226.793 o
-3 -1 -6 25.704 22.119 0.494 24.540 o
-3 -1 -5 184.769 176.286 1.476 0.576 o
-3 -1 -4 68.851 60.511 0.877 4.025 o
-3 -1 -3 1.465 1.102 0.219 819.762 o
-3 -1 -2 101.253 102.305 1.254 1.760 o
-3 -1 -1 18.959 20.434 0.591 33.498 o
-3 -1 0 52.771 49.925 0.451 6.586 o
-3 0 1 0.509 0.603 0.124 2445.910 o
-3 0 2 905.391 994.237 3.990 0.023 o
-3 0 3 17.037 15.740 0.229 51.800 o
-3 0 4 223.298 221.319 1.526 0.389 o
-3 0 5 33.676 32.716 0.481 14.578 o
-3 0 6 46.525 35.683 1.690 6.731 o
-3 0 7 2.126 1.143 0.307 466.879 o
-3 0 8 3.993 2.431 0.293 341.046 o
-3 0 9 0.102 0.394 0.328 576.978 o
-3 0 10 109.551 108.188 1.300 1.537 o
-3 0 11 1.032 0.616 0.474 263.111 o
-3 0 12 39.855 39.739 1.051 9.291 o
-3 0 13 0.346 1.043 0.580 184.228 o
-3 1 1 20.941 22.789 0.309 32.455 o
-3 1 2 1.811 1.783 0.152 963.328 o
-3 1 3 165.522 169.393 1.378 0.683 o
-3 1 4 13.780 11.634 0.251 75.625 o
-3 1 5 269.486 254.712 2.184 0.275 o
-3 1 6 4.676 3.292 0.367 238.672 o
-3 1 7 7.033 7.181 0.515 115.576 o
-3 1 8 9.868 10.216 0.514 83.701 o
-3 1 9 6.595 5.076 0.453 147.329 o
-3 1 10 8.212 8.878 0.518 98.638 o
-3 1 11 65.184 68.013 1.340 3.776 o
-3 1 12 4.428 3.966 0.588 132.930 o
-3 1 13 2.494 2.165 0.609 148.271 o
-3 2 1 226.110 233.258 1.407 0.371 o
-3 2 2 81.749 91.054 0.502 2.584 o
-3 2 3 27.661 25.796 0.381 21.538 o
-3 2 4 107.413 106.482 0.684 1.640 o
-3 2 5 200.256 194.879 1.027 0.491 o
-3 2 6 21.218 17.762 0.660 30.684 o
-3 2 7 8.297 6.184 0.651 85.906 o
-3 2 8 47.361 47.679 0.563 7.645 o
-3 2 9 71.753 72.032 1.059 3.386 o
-3 2 10 52.996 54.020 0.876 5.917 o
-3 2 11 75.880 78.405 1.677 2.784 o
-3 2 12 15.369 15.346 0.980 32.123 o
-3 2 13 7.977 5.804 1.030 47.126 o
-3 3 1 80.384 80.010 0.498 2.875 o
-3 3 2 2.603 2.057 0.124 817.911 o
-3 3 3 88.768 93.181 1.321 2.179 o
-3 3 4 351.232 351.515 2.139 0.158 o
-3 3 5 67.237 68.275 0.591 3.962 o
-3 3 6 23.182 21.341 0.387 29.271 o
-3 3 7 18.066 18.700 0.702 33.846 o
-3 3 8 16.544 17.770 0.632 39.375 o
-3 3 9 11.463 11.283 0.426 79.561 o
-3 3 10 1.322 0.762 0.400 347.353 o
-3 3 11 4.313 4.828 0.497 162.906 o
-3 3 12 12.825 14.476 1.489 21.150 o
-3 4 1 37.989 37.995 0.399 11.727 o
-3 4 2 204.691 208.877 1.381 0.453 o
-3 4 3 49.375 47.627 0.422 7.386 o
-3 4 4 55.453 50.559 0.452 6.137 o
-3 4 5 45.932 42.968 0.399 8.620 o
-3 4 6 61.851 57.137 0.888 4.748 o
-3 4 7 61.472 55.762 2.850 3.120 o
-3 4 8 0.868 0.796 0.304 582.876 o
-3 4 9 68.275 69.510 1.147 3.632 o
-3 4 10 50.236 52.974 1.162 6.022 o
-3 4 11 41.788 43.450 1.535 7.237 o
-3 4 12 20.442 21.908 1.877 12.087 o
-3 5 1 4.999 4.660 0.248 282.099 o
-3 5 2 22.133 22.504 0.365 30.191 o
-3 5 3 8.631 6.825 0.207 161.930 o
-3 5 4 28.368 27.683 0.446 19.758 o
-3 5 5 10.406 10.085 0.389 94.428 o
-3 5 6 42.377 42.846 0.991 8.501 o
-3 5 7 9.123 8.601 0.481 98.400 o
-3 5 8 0.004 0.307 0.360 486.578 o
-3 5 9 92.586 92.948 1.755 1.988 o
-3 5 10 3.080 2.051 0.897 72.963 o
-3 6 1 18.659 19.032 0.400 39.298 o
-3 6 2 123.547 126.635 0.749 1.223 o
-3 6 3 68.162 68.698 0.751 3.830 o
-3 6 4 53.004 49.694 0.654 6.420 o
-3 6 5 14.467 14.975 0.595 49.090 o
-3 6 6 6.975 6.363 0.583 105.032 o
-3 6 7 4.261 3.815 0.632 121.202 o
-3 6 8 12.011 10.079 1.604 20.077 o
-3 7 1 15.326 16.470 0.553 46.395 o
-3 7 2 8.615 9.360 0.471 100.966 o
-3 7 3 36.949 33.976 0.879 11.525 o
-3 7 4 2.657 2.818 0.530 180.908 o
-3 7 5 28.820 29.980 1.248 13.309 o
-3 7 6 12.093 12.672 0.752 50.358 o
-3 7 7 2.954 3.839 1.462 28.771 o
-3 8 1 13.382 12.992 0.724 48.276 o
-3 8 2 19.887 20.508 1.641 14.742 o
-3 8 3 62.838 66.286 1.395 3.957 o
-3 8 4 6.429 4.979 0.720 86.614 o
-3 8 5 5.797 4.610 0.923 61.475 o
-3 8 6 1.995 2.016 1.046 56.064 o
-3 9 1 10.195 9.585 0.938 46.379 o
-3 9 2 4.436 4.550 0.849 73.967 o
-3 9 3 6.391 4.791 1.151 41.611 o
-3 9 4 63.668 66.389 2.292 3.245 o
-2 -11 -4 3.596 2.136 0.854 78.423 o
-2 -11 -3 1.699 1.366 0.757 105.107 o
-2 -11 -2 15.107 13.615 1.178 27.436 o
-2 -11 -1 6.904 6.256 0.911 58.558 o
-2 -11 0 12.811 11.825 1.809 16.043 o
-2 -10 -6 3.150 1.975 1.046 54.848 o
-2 -10 -5 1.145 0.528 0.754 108.969 o
-2 -10 -4 26.188 25.297 1.279 15.084 o
-2 -10 -3 26.550 26.566 1.318 14.322 o
-2 -10 -2 17.123 14.752 1.295 22.670 o
-2 -10 -1 22.759 27.284 3.104 5.363 o
-2 -10 0 20.166 22.489 1.149 20.656 o
-2 -9 -8 4.628 4.996 1.815 18.573 o
-2 -9 -7 19.458 17.815 1.213 21.667 o
-2 -9 -6 26.709 28.857 1.280 14.112 o
-2 -9 -5 1.100 0.340 0.725 117.998 o
-2 -9 -4 8.518 7.197 0.914 53.819 o
-2 -9 -3 3.500 2.640 0.428 233.304 o
-2 -9 -2 5.342 4.777 0.518 143.441 o
-2 -9 -1 1.114 1.444 0.644 145.066 o
-2 -9 0 24.412 26.548 1.989 9.966 o
-2 -8 -9 6.721 4.077 1.436 28.149 o
-2 -8 -8 6.241 6.373 0.947 56.355 o
-2 -8 -7 7.151 6.127 0.736 78.702 o
-2 -8 -6 13.681 14.431 1.041 32.724 o
-2 -8 -5 13.233 13.266 0.690 50.118 o
-2 -8 -4 0.983 1.053 0.294 594.257 o
-2 -8 -3 24.547 25.574 0.702 21.899 o
-2 -8 -2 6.279 4.916 0.500 138.025 o
-2 -8 -1 33.848 30.912 0.570 14.642 o
-2 -8 0 50.579 51.286 0.588 6.729 o
-2 -7 -10 14.980 14.939 1.779 15.442 o
-2 -7 -9 4.128 3.951 0.627 123.163 o
-2 -7 -8 1.711 1.568 0.392 332.739 o
-2 -7 -7 9.137 8.714 0.498 95.541 o
-2 -7 -6 1.752 1.425 0.313 469.938 o
-2 -7 -5 2.185 1.638 0.262 542.079 o
-2 -7 -4 1.030 0.655 0.272 686.738 o
-2 -7 -3 17.972 17.331 0.510 40.258 o
-2 -7 -2 39.258 35.725 0.469 11.549 o
-2 -7 -1 39.617 38.122 0.527 10.895 o
-2 -7 0 4.835 4.391 0.173 344.957 o
-2 -6 -10 14.470 14.670 0.590 49.722 o
-2 -6 -9 0.049 0.094 0.353 509.756 o
-2 -6 -8 9.127 9.657 0.509 90.765 o
-2 -6 -7 16.744 16.854 0.506 43.832 o
-2 -6 -6 5.249 5.472 0.331 215.493 o
-2 -6 -5 50.716 48.458 0.518 6.999 o
-2 -6 -4 41.808 39.988 0.446 10.052 o
-2 -6 -3 40.211 37.914 0.333 11.043 o
-2 -6 -2 5.475 5.819 0.196 266.405 o
-2 -6 -1 138.735 145.379 0.743 0.962 o
-2 -6 0 53.526 50.401 0.286 6.512 o
-2 -5 -11 27.888 27.562 0.829 17.507 o
-2 -5 -10 2.926 2.722 0.529 178.908 o
-2 -5 -9 0.589 0.490 0.389 394.170 o
-2 -5 -8 14.323 12.627 0.540 55.839 o
-2 -5 -7 13.372 12.876 0.494 61.458 o
-2 -5 -6 4.311 3.979 0.268 312.310 o
-2 -5 -5 23.423 20.822 0.502 27.984 o
-2 -5 -4 27.250 24.223 0.454 22.203 o
-2 -5 -3 18.516 15.526 0.256 46.887 o
-2 -5 -2 29.686 31.467 0.269 18.025 o
-2 -5 -1 182.072 184.917 0.609 0.579 o
-2 -5 0 11.748 11.441 0.247 90.601 o
-2 -4 -11 6.841 5.817 0.607 103.092 o
-2 -4 -10 11.579 12.249 0.835 47.188 o
-2 -4 -9 27.375 27.336 0.883 17.457 o
-2 -4 -8 43.415 43.353 1.035 8.132 o
-2 -4 -7 10.870 11.709 0.528 72.862 o
-2 -4 -6 75.376 75.856 0.839 3.155 o
-2 -4 -5 0.030 -0.157 0.286 781.333 o
-2 -4 -4 48.189 41.917 0.776 7.783 o
-2 -4 -3 4.917 4.341 0.281 270.698 o
-2 -4 -2 55.710 57.819 0.558 5.568 o
-2 -4 -1 230.788 229.763 0.969 0.367 o
-2 -4 0 34.574 37.661 0.413 13.156 o
-2 -3 -12 18.475 21.654 1.731 14.022 o
-2 -3 -11 6.721 6.626 0.595 103.598 o
-2 -3 -10 6.720 5.548 0.728 82.872 o
-2 -3 -9 0.300 -0.556 0.505 247.837 o
-2 -3 -8 22.811 23.334 0.754 23.942 o
-2 -3 -7 33.278 30.617 0.808 13.944 o
-2 -3 -6 71.612 64.664 0.904 3.678 o
-2 -3 -5 39.559 39.387 1.313 8.627 o
-2 -3 -4 49.003 44.835 0.574 7.590 o
-2 -3 -3 126.710 150.761 1.275 1.032 o
-2 -3 -2 63.514 62.997 1.008 4.275 o
-2 -3 -1 171.159 168.131 0.688 0.667 o
-2 -3 0 141.200 163.031 0.548 0.873 o
-2 -2 -12 16.754 15.807 0.937 31.409 o
-2 -2 -11 26.245 24.997 0.972 18.062 o
-2 -2 -10 27.453 29.719 0.904 16.541 o
-2 -2 -9 8.378 8.872 0.663 77.385 o
-2 -2 -8 67.606 69.811 1.041 3.715 o
-2 -2 -7 57.729 54.817 0.879 5.296 o
-2 -2 -6 10.073 10.725 0.515 80.902 o
-2 -2 -5 18.041 15.754 0.888 31.149 o
-2 -2 -4 10.102 11.246 0.286 102.595 o
-2 -2 -3 123.871 129.239 11.339 0.354 o
-2 -2 -2 68.321 71.656 0.572 3.770 o
-2 -2 -1 12.964 12.853 0.201 79.037 o
-2 -2 0 258.975 291.612 0.829 0.269 o
-2 -1 -12 8.101 8.256 0.885 55.976 o
-2 -1 -11 21.439 23.329 1.573 14.463 o
-2 -1 -10 0.738 1.178 0.489 248.863 o
-2 -1 -9 5.397 4.489 0.409 186.780 o
-2 -1 -8 0.237 0.567 0.343 514.430 o
-2 -1 -7 26.204 20.993 0.496 24.589 o
-2 -1 -6 18.377 20.203 0.556 35.448 o
-2 -1 -5 86.261 83.661 2.546 2.045 o
-2 -1 -4 45.608 52.033 0.829 7.246 o
-2 -1 -3 66.533 73.798 0.595 3.814 o
-2 -1 -2 297.978 341.386 1.418 0.201 o
-2 -1 -1 139.398 142.544 0.713 0.970 o
-2 -1 0 180.726 183.717 0.894 0.585 o
-2 0 1 77.142 107.358 0.595 2.442 o
-2 0 2 6.300 6.755 0.159 231.964 o
-2 0 3 124.790 133.614 0.563 1.170 o
-2 0 4 10.261 12.319 0.242 99.864 o
-2 0 5 12.297 11.922 0.232 85.456 o
-2 0 6 26.280 29.902 0.487 20.322 o
-2 0 7 15.957 10.161 0.973 34.989 o
-2 0 8 26.834 26.785 0.790 18.782 o
-2 0 9 47.329 43.271 0.910 7.609 o
-2 0 10 0.088 -0.155 0.336 564.121 o
-2 0 11 91.033 96.125 1.154 2.101 o
-2 0 12 32.326 34.055 0.843 13.433 o
-2 0 13 16.490 15.927 0.819 35.270 o
-2 1 1 70.907 82.010 0.465 3.310 o
-2 1 2 73.289 77.397 0.808 3.233 o
-2 1 3 28.763 27.614 0.296 20.152 o
-2 1 4 26.121 27.955 0.403 21.841 o
-2 1 5 2.443 1.558 0.120 936.263 o
-2 1 6 108.002 106.253 0.680 1.631 o
-2 1 7 26.690 26.638 0.577 20.714 o
-2 1 8 51.089 53.867 0.811 6.251 o
-2 1 9 15.274 16.982 0.602 44.080 o
-2 1 10 51.732 51.943 0.777 6.331 o
-2 1 11 3.744 3.575 0.494 180.887 o
-2 1 12 2.005 1.799 0.665 130.880 o
-2 1 13 0.971 -0.086 0.615 163.917 o
-2 2 1 71.660 78.140 0.783 3.308 o
-2 2 2 509.169 566.909 2.411 0.071 o
-2 2 3 309.444 326.845 2.424 0.195 o
-2 2 4 41.154 37.450 0.344 10.790 o
-2 2 5 218.689 225.864 1.383 0.395 o
-2 2 6 52.042 47.569 0.568 6.810 o
-2 2 7 39.528 31.613 0.557 12.017 o
-2 2 8 1.018 0.635 0.215 986.427 o
-2 2 9 2.699 2.455 0.336 350.353 o
-2 2 10 34.137 35.794 0.752 12.706 o
-2 2 11 13.878 14.871 0.883 38.050 o
-2 2 12 8.470 6.715 0.791 66.168 o
-2 2 13 11.464 12.797 1.282 27.693 o
-2 3 1 153.347 174.948 1.290 0.737 o
-2 3 2 40.535 43.512 0.335 10.043 o
-2 3 3 57.087 58.135 0.423 5.446 o
-2 3 4 12.955 12.679 0.386 70.213 o
-2 3 5 106.222 102.338 0.910 1.690 o
-2 3 6 53.616 45.292 0.566 6.740 o
-2 3 7 18.840 18.670 0.529 36.615 o
-2 3 8 37.246 33.404 0.725 12.056 o
-2 3 9 15.571 16.435 0.547 46.008 o
-2 3 10 3.008 2.996 0.374 286.880 o
-2 3 11 28.803 28.947 1.069 14.801 o
-2 3 12 27.600 26.065 1.617 11.755 o
-2 3 13 7.602 6.924 1.462 26.232 o
-2 4 1 254.076 274.018 1.630 0.285 o
-2 4 2 54.840 49.710 0.573 6.211 o
-2 4 3 27.984 34.134 0.338 18.076 o
-2 4 4 253.635 264.131 1.350 0.294 o
-2 4 5 18.344 17.951 0.320 42.855 o
-2 4 6 0.574 1.230 0.192 1202.590 o
-2 4 7 42.379 40.205 0.568 9.669 o
-2 4 8 1.641 0.892 0.456 268.035 o
-2 4 9 50.653 49.157 0.957 6.494 o
-2 4 10 5.389 3.900 0.584 126.471 o
-2 4 11 12.821 15.342 1.655 17.888 o
-2 4 12 1.658 1.281 1.065 54.807 o
-2 5 1 19.801 21.474 0.260 36.324 o
-2 5 2 47.664 47.498 0.669 7.488 o
-2 5 3 48.560 50.722 0.475 7.213 o
-2 5 4 26.370 24.621 0.459 22.832 o
-2 5 5 1.224 1.508 0.218 828.649 o
-2 5 6 168.319 168.920 2.281 0.647 o
-2 5 7 9.171 7.866 0.486 100.152 o
-2 5 8 4.617 4.937 0.577 130.798 o
-2 5 9 17.012 16.765 0.901 31.471 o
-2 5 10 32.310 32.954 1.703 9.328 o
-2 6 1 24.271 24.659 0.303 26.264 o
-2 6 2 30.585 30.201 0.380 17.487 o
-2 6 3 13.915 11.904 0.286 72.449 o
-2 6 4 10.613 10.247 0.458 85.124 o
-2 6 5 2.090 1.909 0.361 354.689 o
-2 6 6 35.610 32.618 1.956 7.737 o
-2 6 7 9.113 9.078 0.873 53.706 o
-2 6 8 8.108 8.564 0.886 55.544 o
-2 7 1 18.300 18.036 0.641 35.535 o
-2 7 2 9.024 8.975 0.377 113.232 o
-2 7 3 25.493 24.738 0.549 22.904 o
-2 7 4 32.532 33.448 0.868 13.354 o
-2 7 5 23.406 26.536 0.971 19.423 o
-2 7 6 30.840 32.821 1.363 11.440 o
-2 7 7 10.162 11.816 1.734 17.964 o
-2 8 1 2.632 2.962 0.492 202.507 o
-2 8 2 9.541 9.580 0.535 85.133 o
-2 8 3 5.233 5.613 0.564 126.238 o
-2 8 4 28.722 28.430 1.107 14.679 o
-2 8 5 49.850 52.434 1.110 6.177 o
-2 8 6 5.183 4.292 0.893 66.607 o
-2 8 7 0.367 -0.184 1.037 59.422 o
-2 9 1 49.707 50.027 1.244 6.172 o
-2 9 2 5.453 4.663 0.547 133.390 o
-2 9 3 9.409 11.530 0.894 48.903 o
-2 9 4 5.339 4.626 0.957 58.663 o
-2 10 1 4.053 4.331 1.145 44.518 o
-2 10 2 12.286 13.560 1.309 26.033 o
-1 -12 -1 2.299 2.454 1.087 51.592 o
-1 -12 0 0.142 1.084 1.097 52.909 o
-1 -11 -5 3.968 2.784 1.240 39.041 o
-1 -11 -4 16.340 16.005 1.262 23.482 o
-1 -11 -3 12.896 11.235 1.028 36.248 o
-1 -11 -2 3.121 3.104 0.803 87.461 o
-1 -11 -1 26.700 25.499 1.187 15.640 o
-1 -11 0 8.237 7.257 1.217 35.106 o
-1 -10 -7 10.886 7.647 1.278 30.262 o
-1 -10 -6 17.510 16.905 1.166 24.351 o
-1 -10 -5 2.558 2.380 0.791 92.680 o
-1 -10 -4 6.375 5.525 0.898 61.923 o
-1 -10 -3 28.746 29.841 1.295 13.037 o
-1 -10 -2 1.791 1.102 0.622 151.434 o
-1 -10 -1 0.773 1.266 0.491 245.508 o
-1 -10 0 7.070 6.876 0.697 83.197 o
-1 -9 -8 4.643 2.953 0.838 77.206 o
-1 -9 -7 6.931 5.070 0.907 60.220 o
-1 -9 -6 0.824 2.287 0.795 96.990 o
-1 -9 -5 32.818 37.135 1.358 10.307 o
-1 -9 -4 15.489 15.403 0.750 39.852 o
-1 -9 -3 18.918 19.054 1.036 24.948 o
-1 -9 -2 12.693 12.340 0.841 44.422 o
-1 -9 -1 2.920 2.619 0.476 211.122 o
-1 -9 0 17.832 19.537 0.739 32.624 o
-1 -8 -9 1.057 1.184 0.653 142.501 o
-1 -8 -8 9.867 8.039 0.704 68.343 o
-1 -8 -7 2.312 2.209 0.484 219.219 o
-1 -8 -6 19.769 20.277 0.680 30.571 o
-1 -8 -5 16.343 16.123 0.633 41.502 o
-1 -8 -4 17.422 17.154 0.669 37.177 o
-1 -8 -3 8.970 8.593 0.478 100.057 o
-1 -8 -2 15.983 15.428 0.623 43.470 o
-1 -8 -1 6.521 5.847 0.390 162.758 o
-1 -8 0 13.650 13.872 0.515 57.312 o
-1 -7 -10 5.719 5.977 1.128 43.152 o
-1 -7 -9 2.474 1.553 0.703 116.908 o
-1 -7 -8 4.018 4.664 0.460 185.301 o
-1 -7 -7 1.063 1.262 0.297 568.222 o
-1 -7 -6 37.224 36.325 0.565 11.978 o
-1 -7 -5 79.946 83.246 1.017 2.727 o
-1 -7 -4 36.104 33.921 0.410 13.313 o
-1 -7 -3 20.317 21.274 0.346 34.492 o
-1 -7 -2 5.366 5.642 0.192 276.315 o
-1 -7 -1 10.264 9.969 0.254 110.368 o
-1 -7 0 33.510 33.038 0.383 14.868 o
-1 -6 -11 7.709 6.815 0.733 75.536 o
-1 -6 -10 15.163 15.559 0.631 44.981 o
-1 -6 -9 3.094 2.426 0.443 233.247 o
-1 -6 -8 28.274 28.975 0.563 18.658 o
-1 -6 -7 31.178 31.849 0.530 16.001 o
-1 -6 -6 6.632 6.711 0.380 157.067 o
-1 -6 -5 9.075 9.151 0.340 117.169 o
-1 -6 -4 0.519 0.488 0.109 2915.750 o
-1 -6 -3 4.237 4.461 0.172 381.942 o
-1 -6 -2 1.078 0.960 0.121 1727.580 o
-1 -6 -1 123.804 124.387 0.742 1.234 o
-1 -6 0 0.682 0.799 0.104 2502.760 o
-1 -5 -11 7.974 7.734 0.683 79.099 o
-1 -5 -10 3.553 3.495 0.629 128.138 o
-1 -5 -9 22.173 24.218 0.817 23.267 o
-1 -5 -8 10.611 10.214 0.506 80.257 o
-1 -5 -7 5.297 5.958 0.350 199.927 o
-1 -5 -6 13.265 13.005 0.431 65.261 o
-1 -5 -5 14.110 14.354 0.495 55.812 o
-1 -5 -4 263.983 275.172 1.343 0.272 o
-1 -5 -3 57.997 60.086 0.369 5.247 o
-1 -5 -2 34.059 34.031 0.276 14.555 o
-1 -5 -1 48.773 50.897 0.239 7.296 o
-1 -5 0 51.482 50.167 0.267 6.870 o
-1 -4 -12 13.547 11.067 1.255 27.576 o
-1 -4 -11 38.818 42.586 1.077 9.127 o
-1 -4 -10 7.070 6.664 0.594 101.255 o
-1 -4 -9 1.258 0.830 0.447 285.668 o
-1 -4 -8 5.153 4.957 0.356 211.828 o
-1 -4 -7 20.793 20.064 0.629 30.218 o
-1 -4 -6 78.948 76.221 1.297 2.840 o
-1 -4 -5 76.246 74.971 1.008 3.086 o
-1 -4 -4 1.577 2.076 0.163 938.954 o
-1 -4 -3 27.570 30.386 0.435 19.379 o
-1 -4 -2 305.702 328.928 1.079 0.200 o
-1 -4 -1 281.973 286.455 1.151 0.243 o
-1 -4 0 115.114 124.234 0.675 1.357 o
-1 -3 -12 3.311 3.036 0.724 104.013 o
-1 -3 -11 84.799 88.240 1.591 2.314 o
-1 -3 -10 6.681 6.155 0.549 115.368 o
-1 -3 -9 20.613 21.606 0.638 29.243 o
-1 -3 -8 10.366 10.881 0.629 67.937 o
-1 -3 -7 115.049 115.029 1.343 1.388 o
-1 -3 -6 118.637 118.305 2.402 1.214 o
-1 -3 -5 30.050 28.642 0.726 16.592 o
-1 -3 -4 189.751 194.850 1.176 0.525 o
-1 -3 -3 20.825 19.286 0.577 31.688 o
-1 -3 -2 69.379 81.229 0.418 3.428 o
-1 -3 -1 13.116 13.501 0.111 78.626 o
-1 -3 0 82.519 84.156 0.530 2.688 o
-1 -2 -12 4.122 4.439 0.636 119.035 o
-1 -2 -11 9.819 9.743 0.689 66.803 o
-1 -2 -10 23.054 24.746 0.738 23.239 o
-1 -2 -9 11.445 11.837 0.550 68.027 o
-1 -2 -8 13.102 12.613 0.480 63.959 o
-1 -2 -7 29.631 27.740 0.639 17.679 o
-1 -2 -6 223.783 210.940 2.720 0.388 o
-1 -2 -5 131.587 136.116 1.499 1.046 o
-1 -2 -4 58.063 61.160 0.914 4.902 o
-1 -2 -3 276.771 316.496 2.327 0.229 o
-1 -2 -2 204.983 239.942 1.550 0.410 o
-1 -2 -1 288.346 305.399 1.252 0.226 o
-1 -2 0 1452.810 1589.890 3.359 0.009 o
-1 -1 -12 43.925 42.021 1.019 8.198 o
-1 -1 -11 8.649 7.537 0.663 79.109 o
-1 -1 -10 2.139 1.644 0.422 282.466 o
-1 -1 -9 3.794 3.445 0.401 236.233 o
-1 -1 -8 11.492 11.185 0.551 69.228 o
-1 -1 -7 20.014 18.229 0.690 31.489 o
-1 -1 -6 197.879 200.810 2.391 0.472 o
-1 -1 -5 44.898 42.208 0.497 8.855 o
-1 -1 -4 291.322 315.916 2.226 0.216 o
-1 -1 -3 146.120 159.995 0.952 0.840 o
-1 -1 -2 375.396 416.842 1.145 0.130 o
-1 -1 -1 437.712 443.303 1.467 0.102 o
-1 -1 0 1332.730 1358.480 3.705 0.011 o
-1 0 1 10.518 19.184 0.215 74.020 o
-1 0 2 5.352 5.869 0.130 297.393 o
-1 0 3 2787.230 3103.130 9.730 0.002 o
-1 0 4 103.289 96.258 0.721 1.835 o
-1 0 5 185.386 186.053 1.888 0.548 o
-1 0 6 73.791 69.973 0.721 3.437 o
-1 0 7 0.960 0.528 0.350 459.925 o
-1 0 8 0.175 0.442 0.314 617.624 o
-1 0 9 28.996 28.044 0.662 17.848 o
-1 0 10 102.097 105.300 1.588 1.669 o
-1 0 11 4.697 4.809 0.479 165.209 o
-1 0 12 0.848 1.088 0.460 277.082 o
-1 0 13 10.081 7.797 0.795 59.359 o
-1 1 1 180.146 198.052 1.121 0.556 o
-1 1 2 151.291 142.721 0.834 0.868 o
-1 1 3 662.405 751.158 2.200 0.041 o
-1 1 4 42.877 42.996 0.442 9.335 o
-1 1 5 149.950 146.607 1.144 0.857 o
-1 1 6 14.635 12.989 0.316 64.615 o
-1 1 7 37.568 29.189 0.977 11.752 o
-1 1 8 19.369 19.551 0.546 34.464 o
-1 1 9 41.199 37.243 0.889 9.711 o
-1 1 10 49.091 50.077 0.843 6.805 o
-1 1 11 36.636 34.502 1.095 10.718 o
-1 1 12 0.430 -0.085 0.492 258.730 o
-1 1 13 15.653 14.111 1.072 29.698 o
-1 2 1 344.197 350.280 1.895 0.163 o
-1 2 2 497.803 553.436 2.304 0.074 o
-1 2 3 169.522 182.399 0.836 0.638 o
-1 2 4 295.616 319.044 2.102 0.211 o
-1 2 5 76.842 85.035 0.540 2.916 o
-1 2 6 31.100 29.435 0.445 17.146 o
-1 2 7 29.081 29.440 0.463 18.456 o
-1 2 8 17.440 18.259 0.890 30.267 o
-1 2 9 23.889 23.837 0.639 24.041 o
-1 2 10 58.157 59.661 1.598 4.384 o
-1 2 11 0.223 0.351 0.543 213.789 o
-1 2 12 34.025 36.934 1.215 10.634 o
-1 2 13 1.425 2.349 1.563 25.819 o
-1 3 1 373.214 414.237 2.197 0.131 o
-1 3 2 130.305 144.130 0.870 1.044 o
-1 3 3 55.021 58.343 0.331 5.722 o
-1 3 4 253.069 259.010 1.492 0.299 o
-1 3 5 18.325 17.782 0.290 43.664 o
-1 3 6 30.553 30.331 0.527 16.852 o
-1 3 7 39.419 36.718 0.693 10.816 o
-1 3 8 6.445 5.748 0.368 172.215 o
-1 3 9 81.903 84.856 1.307 2.546 o
-1 3 10 11.178 11.144 0.649 62.617 o
-1 3 11 1.656 2.274 0.765 101.705 o
-1 3 12 8.915 9.518 1.477 24.525 o
-1 3 13 0.112 -2.127 0.996 64.633 o
-1 4 1 242.061 272.279 2.620 0.299 o
-1 4 2 182.016 190.273 0.811 0.567 o
-1 4 3 163.397 187.312 0.771 0.657 o
-1 4 4 34.554 34.494 0.471 13.743 o
-1 4 5 127.555 130.420 0.706 1.153 o
-1 4 6 44.179 39.695 0.545 9.290 o
-1 4 7 4.157 4.166 0.369 239.498 o
-1 4 8 29.203 26.624 0.777 17.374 o
-1 4 9 27.406 28.363 0.931 16.736 o
-1 4 10 11.809 13.199 1.452 22.788 o
-1 4 11 15.898 16.071 1.560 18.122 o
-1 4 12 20.935 22.009 1.842 12.258 o
-1 5 1 67.066 64.924 0.557 4.111 o
-1 5 2 32.715 30.734 0.279 16.238 o
-1 5 3 21.889 20.070 0.280 33.465 o
-1 5 4 19.866 16.723 0.364 39.858 o
-1 5 5 1.714 2.180 0.167 875.049 o
-1 5 6 23.563 22.532 0.543 26.241 o
-1 5 7 1.105 0.293 0.424 325.238 o
-1 5 8 6.121 5.663 0.701 89.697 o
-1 5 9 29.693 29.013 1.519 11.409 o
-1 5 10 46.764 48.058 1.982 5.384 o
-1 6 1 94.815 94.758 1.176 2.014 o
-1 6 2 50.968 58.401 1.065 5.704 o
-1 6 3 157.242 161.432 4.376 0.626 o
-1 6 4 92.966 92.402 1.351 2.066 o
-1 6 5 75.390 77.442 1.539 2.881 o
-1 6 6 10.160 12.342 0.969 42.295 o
-1 6 7 63.580 68.181 2.803 2.838 o
-1 6 8 5.087 4.394 1.576 24.231 o
-1 7 1 18.724 16.556 0.554 38.337 o
-1 7 2 5.894 4.441 0.376 191.868 o
-1 7 3 1.153 2.107 0.502 224.551 o
-1 7 4 8.076 7.867 0.514 104.195 o
-1 7 5 63.740 68.697 4.967 1.622 o
-1 7 6 29.788 34.835 1.380 11.358 o
-1 7 7 27.635 33.306 2.188 7.906 o
-1 8 1 31.631 31.087 0.665 15.345 o
-1 8 2 100.675 107.032 1.002 1.749 o
-1 8 3 13.658 13.789 0.530 56.649 o
-1 8 4 13.099 13.992 0.432 63.760 o
-1 8 5 15.803 19.391 1.124 25.660 o
-1 8 6 68.950 72.803 2.863 2.540 o
-1 8 7 5.302 6.861 1.775 19.050 o
-1 9 1 29.260 30.292 0.596 17.338 o
-1 9 2 10.865 11.565 0.473 78.179 o
-1 9 3 16.070 15.782 0.639 42.274 o
-1 9 4 5.785 5.999 1.024 50.681 o
-1 9 5 15.808 21.962 1.956 12.399 o
-1 10 1 29.967 39.076 1.807 8.724 o
-1 10 2 15.025 17.710 1.284 23.319 o
0 -11 -5 0.826 1.972 1.081 53.650 o
0 -11 -4 0.767 0.942 1.049 57.346 o
0 -11 -3 5.067 5.335 0.791 79.596 o
0 -11 -2 0.894 0.062 0.630 156.738 o
0 -11 -1 4.543 3.256 0.724 98.201 o
0 -10 -7 2.589 2.314 1.195 42.925 o
0 -10 -6 19.772 21.080 1.852 12.567 o
0 -10 -5 0.178 0.919 0.714 123.787 o
0 -10 -4 0.555 0.452 0.575 187.899 o
0 -10 -3 1.426 2.592 0.656 135.405 o
0 -10 -2 20.684 22.131 0.853 25.177 o
0 -10 -1 24.671 25.212 0.854 20.299 o
0 -10 0 22.463 24.258 0.974 20.882 o
0 -9 -9 8.623 8.476 1.073 41.547 o
0 -9 -8 15.731 15.697 0.945 32.536 o
0 -9 -7 15.394 16.904 0.964 31.629 o
0 -9 -6 2.793 2.834 0.517 186.788 o
0 -9 -5 10.723 11.564 0.703 59.213 o
0 -9 -4 0.343 0.113 0.326 577.534 o
0 -9 -3 17.951 17.419 0.978 27.980 o
0 -9 -2 17.768 17.480 0.888 30.394 o
0 -9 -1 12.920 13.734 0.813 43.969 o
0 -8 -9 14.918 14.581 0.837 38.346 o
0 -8 -8 18.061 18.059 0.709 34.177 o
0 -8 -7 49.224 54.551 0.905 6.371 o
0 -8 -6 7.174 6.638 0.443 133.403 o
0 -8 -5 18.785 19.441 0.555 35.413 o
0 -8 -4 5.337 4.130 0.294 251.743 o
0 -8 -3 52.894 56.346 0.848 5.806 o
0 -8 -2 35.629 35.575 0.564 12.766 o
0 -8 -1 22.567 23.325 0.565 26.703 o
0 -8 0 23.696 25.430 1.297 15.996 o
0 -7 -10 0.109 0.109 0.555 206.976 o
0 -7 -9 39.353 42.817 0.851 9.554 o
0 -7 -8 36.197 36.649 0.770 11.700 o
0 -7 -7 13.055 12.980 0.452 65.050 o
0 -7 -6 2.873 3.209 0.339 323.975 o
0 -7 -5 41.396 42.933 0.707 9.318 o
0 -7 -4 65.246 65.650 0.531 4.235 o
0 -7 -3 3.444 3.670 0.206 437.465 o
0 -7 -2 35.518 36.865 0.576 12.512 o
0 -7 -1 42.595 38.992 0.641 9.649 o
0 -6 -11 39.409 42.765 1.239 8.519 o
0 -6 -10 10.280 11.242 0.724 59.559 o
0 -6 -9 1.311 1.267 0.468 258.924 o
0 -6 -8 28.729 29.520 0.685 17.393 o
0 -6 -7 15.754 16.960 0.469 47.495 o
0 -6 -6 19.995 21.070 0.497 32.993 o
0 -6 -5 1.606 1.385 0.181 937.312 o
0 -6 -4 27.157 27.518 0.338 21.434 o
0 -6 -3 15.951 16.976 0.342 50.725 o
0 -6 -2 132.535 129.631 0.747 1.100 o
0 -6 -1 74.809 74.775 0.636 3.262 o
0 -6 0 258.941 273.643 1.680 0.279 o
0 -5 -12 3.293 3.275 1.405 31.027 o
0 -5 -11 9.846 9.839 0.649 70.408 o
0 -5 -10 0.480 0.307 0.485 263.808 o
0 -5 -9 11.958 11.751 0.580 63.746 o
0 -5 -8 27.695 25.833 0.721 19.091 o
0 -5 -7 73.889 71.627 0.952 3.315 o
0 -5 -6 107.075 109.782 1.143 1.581 o
0 -5 -5 39.275 39.096 1.000 9.667 o
0 -5 -4 31.544 31.119 0.573 15.815 o
0 -5 -3 21.234 24.943 0.354 29.814 o
0 -5 -2 44.918 46.346 0.306 8.537 o
0 -5 -1 96.523 92.475 0.593 2.065 o
0 -4 -12 15.903 17.019 0.776 36.723 o
0 -4 -11 7.984 7.690 0.677 79.962 o
0 -4 -10 30.380 31.804 1.015 13.825 o
0 -4 -9 28.552 29.718 0.950 15.602 o
0 -4 -8 32.558 34.177 0.731 13.813 o
0 -4 -7 35.829 36.312 0.664 12.236 o
0 -4 -6 16.607 17.700 0.657 38.566 o
0 -4 -5 133.489 141.868 3.767 0.843 o
0 -4 -4 92.457 83.328 0.499 2.337 o
0 -4 -3 50.356 51.425 0.789 6.562 o
0 -4 -2 132.152 147.271 0.818 1.012 o
0 -4 -1 360.403 417.672 1.629 0.136 o
0 -4 0 301.403 319.354 1.621 0.207 o
0 -3 -12 1.102 0.677 0.577 181.558 o
0 -3 -11 0.254 0.666 0.460 293.112 o
0 -3 -10 63.492 66.585 1.225 4.010 o
0 -3 -9 39.314 40.761 0.815 9.934 o
0 -3 -8 13.296 13.442 0.481 61.357 o
0 -3 -7 37.252 34.537 0.777 11.676 o
0 -3 -6 228.998 223.774 2.752 0.363 o
0 -3 -5 1.335 1.669 0.145 1180.490 o
0 -3 -4 100.683 107.502 5.764 0.930 o
0 -3 -3 51.127 57.415 0.576 6.189 o
0 -3 -2 17.201 15.729 0.214 51.524 o
0 -3 -1 415.376 447.094 1.440 0.109 o
0 -2 -13 4.157 3.598 1.179 42.363 o
0 -2 -12 2.011 1.652 0.520 202.502 o
0 -2 -11 1.256 1.901 0.502 224.377 o
0 -2 -10 15.784 16.185 0.675 41.178 o
0 -2 -9 95.645 97.354 0.996 1.983 o
0 -2 -8 18.430 19.180 0.578 35.793 o
0 -2 -7 81.414 80.738 1.015 2.719 o
0 -2 -6 44.562 43.222 0.520 8.786 o
0 -2 -5 229.830 232.324 4.176 0.334 o
0 -2 -4 83.286 83.870 1.053 2.574 o
0 -2 -3 310.682 335.674 3.757 0.186 o
0 -2 -2 673.803 796.755 3.351 0.039 o
0 -2 -1 1380.830 1576.760 3.701 0.010 o
0 -2 0 1290.330 1510.260 2.155 0.011 o
0 -1 -13 0.678 0.602 0.879 81.691 o
0 -1 -12 10.869 10.324 0.821 51.952 o
0 -1 -11 45.597 47.422 0.860 7.625 o
0 -1 -10 13.821 13.998 0.607 51.794 o
0 -1 -9 82.649 81.828 0.989 2.652 o
0 -1 -8 6.987 6.547 0.288 179.338 o
0 -1 -7 267.989 245.788 14.481 0.149 o
0 -1 -6 162.170 149.453 1.148 0.764 o
0 -1 -5 164.750 151.265 1.034 0.745 o
0 -1 -4 47.304 51.822 0.541 7.286 o
0 -1 -3 340.834 414.890 2.579 0.146 o
0 -1 -2 216.705 216.300 1.480 0.411 o
0 -1 -1 145.064 142.341 0.912 0.917 o
0 0 1 38.403 41.093 0.229 11.232 o
0 0 2 481.461 575.091 2.404 0.075 o
0 0 3 189.533 209.504 0.857 0.504 o
0 0 4 282.521 282.984 1.794 0.243 o
0 0 5 13.492 15.026 0.361 63.271 o
0 0 6 34.388 28.884 0.459 15.288 o
0 0 7 28.942 24.338 0.612 19.564 o
0 0 8 2.934 3.593 0.416 244.496 o
0 0 9 2.713 2.542 0.329 357.185 o
0 0 10 97.902 95.663 1.159 1.926 o
0 0 11 9.489 10.643 0.659 69.212 o
0 0 12 2.680 1.846 0.555 173.233 o
0 0 13 38.055 37.628 1.310 9.157 o
0 1 1 144.778 142.145 0.974 0.919 o
0 1 2 216.730 209.710 1.736 0.417 o
0 1 3 340.793 407.146 1.822 0.149 o
0 1 4 47.203 49.222 0.363 7.693 o
0 1 5 164.738 158.134 0.831 0.728 o
0 1 6 162.348 157.240 1.005 0.742 o
0 1 7 268.037 254.215 3.450 0.269 o
0 1 8 6.979 6.801 0.316 168.887 o
0 1 9 82.557 84.662 1.175 2.559 o
0 1 10 13.772 12.819 0.571 55.704 o
0 1 11 45.666 45.949 1.007 7.505 o
0 1 12 10.816 10.828 1.041 38.721 o
0 1 13 0.678 -0.201 0.621 162.635 o
0 2 0 1290.070 1614.700 6.274 0.010 o
0 2 1 1381.270 1605.420 8.201 0.009 o
0 2 2 673.965 752.279 5.450 0.040 o
0 2 3 310.567 328.598 1.382 0.195 o
0 2 4 83.498 85.889 0.572 2.609 o
0 2 5 229.977 234.613 1.281 0.362 o
0 2 6 44.471 44.051 0.486 8.749 o
0 2 7 81.165 75.770 0.887 2.866 o
0 2 8 18.435 23.891 0.846 26.755 o
0 2 9 95.696 98.613 1.219 1.936 o
0 2 10 15.869 15.949 0.593 44.209 o
0 2 11 1.284 1.178 0.525 211.429 o
0 2 12 1.985 1.863 0.816 89.864 o
0 3 1 415.341 450.605 6.270 0.102 o
0 3 2 17.271 15.427 0.614 40.873 o
0 3 3 51.170 58.174 0.398 6.233 o
0 3 4 100.716 110.947 0.818 1.722 o
0 3 5 1.330 1.514 0.099 1547.480 o
0 3 6 229.279 226.657 1.010 0.373 o
0 3 7 37.212 33.361 0.413 12.943 o
0 3 8 13.277 13.919 0.516 58.582 o
0 3 9 39.267 40.405 0.896 9.786 o
0 3 10 63.461 60.999 1.366 4.123 o
0 3 11 0.257 0.748 1.030 59.950 o
0 3 12 1.104 1.198 1.164 46.523 o
0 4 0 301.743 346.213 3.239 0.191 o
0 4 1 360.619 425.897 11.332 0.106 o
0 4 2 132.032 146.237 2.084 0.962 o
0 4 3 50.444 50.788 0.380 6.939 o
0 4 4 92.442 83.277 0.386 2.347 o
0 4 5 133.857 145.523 0.725 1.007 o
0 4 6 16.523 16.441 0.319 50.351 o
0 4 7 35.749 35.080 0.608 12.686 o
0 4 8 32.536 32.233 0.935 13.273 o
0 4 9 28.622 31.708 1.690 10.330 o
0 4 10 30.440 30.554 1.756 9.699 o
0 4 11 7.964 9.622 1.341 29.337 o
0 4 12 15.901 15.524 1.801 14.822 o
0 5 1 96.468 97.787 0.572 1.997 o
0 5 2 45.009 48.519 0.556 8.045 o
0 5 3 21.315 23.795 0.311 30.985 o
0 5 4 31.567 30.527 0.736 15.166 o
0 5 5 39.352 39.034 0.390 11.068 o
0 5 6 107.105 105.400 1.254 1.611 o
0 5 7 74.074 76.135 2.172 2.678 o
0 5 8 27.667 26.751 0.982 16.622 o
0 5 9 11.947 11.813 1.230 29.367 o
0 5 10 0.486 1.100 0.989 64.620 o
0 5 11 9.885 11.931 1.573 21.216 o
0 5 12 3.308 4.286 1.332 34.085 o
0 6 0 259.721 276.162 1.674 0.276 o
0 6 1 74.697 73.570 0.949 3.220 o
0 6 2 132.567 135.189 1.159 1.056 o
0 6 3 15.983 16.199 0.242 54.495 o
0 6 4 27.233 27.841 0.640 19.330 o
0 6 5 1.590 1.552 0.457 261.432 o
0 6 6 20.002 20.875 3.182 5.431 o
0 6 7 15.791 16.715 1.066 28.391 o
0 6 8 28.669 29.970 1.248 13.365 o
0 6 9 1.319 1.398 1.040 57.693 o
0 6 10 10.331 5.720 1.170 36.096 o
0 7 1 42.532 40.285 0.452 9.790 o
0 7 2 35.448 37.140 0.625 12.344 o
0 7 3 3.421 3.584 0.185 469.680 o
0 7 4 65.332 67.840 1.258 3.820 o
0 7 5 41.444 44.508 1.341 7.690 o
0 7 6 2.912 3.929 1.309 35.481 o
0 7 7 13.151 13.817 1.110 31.322 o
0 8 0 23.784 25.118 0.607 23.856 o
0 8 1 22.660 22.734 0.450 28.339 o
0 8 2 35.742 37.331 0.896 11.305 o
0 8 3 52.917 53.263 0.945 5.908 o
0 8 4 5.327 5.037 0.568 126.733 o
0 8 5 18.668 19.081 1.065 24.586 o
0 8 6 7.168 8.099 1.000 48.728 o
0 8 7 49.281 47.551 2.352 4.578 o
0 9 1 12.930 15.526 0.514 56.976 o
0 9 2 17.713 19.160 0.690 34.344 o
0 9 3 17.907 19.838 0.859 29.460 o
0 9 4 0.350 0.066 1.184 45.586 o
0 10 0 22.390 26.354 1.063 19.075 o
0 10 1 24.776 27.543 1.038 17.532 o
0 10 2 20.730 21.191 1.395 17.229 o
0 10 3 1.409 1.059 0.831 89.214 o
1 -12 -3 3.275 0.574 1.186 43.709 o
1 -12 -2 11.222 9.112 1.357 26.864 o
1 -12 -1 17.985 17.691 1.750 14.534 o
1 -11 -6 0.776 0.526 0.996 63.808 o
1 -11 -5 6.983 7.100 1.617 22.113 o
1 -11 -4 6.032 6.862 1.314 32.564 o
1 -11 -3 11.890 13.589 1.652 18.578 o
1 -11 -2 4.475 5.830 1.278 35.629 o
1 -11 -1 7.070 4.886 1.110 43.455 o
1 -10 -7 1.032 0.588 0.768 105.312 o
1 -10 -6 3.687 3.600 0.787 87.920 o
1 -10 -5 1.279 2.564 0.652 137.724 o
1 -10 -4 11.723 11.415 0.775 51.524 o
1 -10 -3 9.197 7.527 0.827 59.298 o
1 -10 -2 14.984 14.327 0.924 35.224 o
1 -10 -1 29.931 31.509 1.110 13.488 o
1 -9 -9 5.680 5.453 0.802 75.841 o
1 -9 -8 30.275 30.729 1.158 13.201 o
1 -9 -7 0.339 0.062 0.435 331.092 o
1 -9 -6 9.621 8.500 0.553 85.679 o
1 -9 -5 15.875 17.410 0.695 39.064 o
1 -9 -4 5.719 4.990 0.385 186.065 o
1 -9 -3 16.126 16.670 0.771 36.806 o
1 -9 -2 10.928 11.378 0.567 69.978 o
1 -9 -1 29.177 30.254 0.759 16.420 o
1 -8 -10 18.557 21.682 1.733 13.977 o
1 -8 -9 16.289 19.724 1.326 21.043 o
1 -8 -8 0.084 0.625 0.473 280.801 o
1 -8 -7 5.273 4.211 0.434 180.296 o
1 -8 -6 68.999 73.479 0.978 3.537 o
1 -8 -5 15.903 16.229 0.566 44.743 o
1 -8 -4 13.017 13.141 0.515 61.114 o
1 -8 -3 13.638 14.301 0.669 48.765 o
1 -8 -2 100.661 107.478 1.168 1.728 o
1 -8 -1 31.601 31.346 0.930 13.891 o
1 -7 -11 21.821 22.652 1.653 13.652 o
1 -7 -10 6.003 4.597 0.620 109.949 o
1 -7 -9 3.783 4.636 0.497 171.324 o
1 -7 -8 30.863 32.672 0.916 14.001 o
1 -7 -7 27.549 27.759 0.613 19.316 o
1 -7 -6 29.852 28.673 0.555 17.706 o
1 -7 -5 63.790 64.756 0.711 4.328 o
1 -7 -4 8.180 7.771 0.291 146.155 o
1 -7 -3 1.168 1.247 0.174 1131.000 o
1 -7 -2 5.858 4.264 0.238 261.953 o
1 -7 -1 18.671 17.231 0.348 42.409 o
1 -6 -11 22.237 22.147 0.859 23.567 o
1 -6 -10 12.372 13.453 0.694 52.003 o
1 -6 -9 9.109 8.171 0.562 88.561 o
1 -6 -8 5.095 4.866 0.414 186.630 o
1 -6 -7 63.557 65.347 0.893 4.239 o
1 -6 -6 10.210 11.121 0.488 81.831 o
1 -6 -5 75.450 77.998 0.762 3.115 o
1 -6 -4 92.941 96.400 0.804 2.091 o
1 -6 -3 156.978 172.103 1.160 0.727 o
1 -6 -2 50.987 53.636 0.702 6.386 o
1 -6 -1 94.935 93.716 0.543 2.097 o
1 -5 -12 16.622 17.198 0.814 34.224 o
1 -5 -11 15.677 14.297 0.784 39.254 o
1 -5 -10 46.721 44.665 1.157 7.161 o
1 -5 -9 29.660 32.214 0.818 15.254 o
1 -5 -8 6.145 6.423 0.418 155.047 o
1 -5 -7 1.111 0.912 0.285 619.188 o
1 -5 -6 23.645 24.587 0.678 23.458 o
1 -5 -5 1.695 2.054 0.345 394.243 o
1 -5 -4 19.954 18.107 0.484 35.941 o
1 -5 -3 21.869 20.361 0.231 33.683 o
1 -5 -2 32.750 30.216 0.381 16.099 o
1 -5 -1 67.149 64.883 0.785 4.028 o
1 -4 -12 21.007 20.412 0.903 24.849 o
1 -4 -11 15.947 15.968 0.947 32.040 o
1 -4 -10 11.930 10.084 0.719 56.593 o
1 -4 -9 27.451 28.501 0.721 18.328 o
1 -4 -8 29.198 28.608 0.813 16.528 o
1 -4 -7 4.176 4.624 0.372 231.399 o
1 -4 -6 44.209 37.153 0.723 9.308 o
1 -4 -5 127.501 120.196 7.725 0.573 o
1 -4 -4 34.489 32.712 0.406 14.383 o
1 -4 -3 163.344 182.562 2.116 0.643 o
1 -4 -2 182.121 195.895 1.424 0.549 o
1 -4 -1 242.353 268.640 1.044 0.309 o
1 -3 -13 0.114 1.772 1.179 45.667 o
1 -3 -12 8.892 8.204 0.593 85.486 o
1 -3 -11 1.668 1.531 0.481 237.929 o
1 -3 -10 11.191 10.837 0.588 68.195 o
1 -3 -9 81.801 83.872 1.368 2.551 o
1 -3 -8 6.484 6.238 0.528 121.735 o
1 -3 -7 39.417 37.561 0.843 10.290 o
1 -3 -6 30.704 30.573 1.328 12.030 o
1 -3 -5 18.476 17.766 0.474 39.528 o
1 -3 -4 252.996 247.499 2.774 0.300 o
1 -3 -3 55.017 56.348 0.484 5.787 o
1 -3 -2 130.274 145.895 0.838 1.037 o
1 -3 -1 373.621 406.841 1.452 0.133 o
1 -2 -13 1.435 1.454 0.518 212.842 o
1 -2 -12 34.109 36.970 0.974 11.617 o
1 -2 -11 0.223 0.217 0.424 348.975 o
1 -2 -10 58.379 60.786 1.070 4.777 o
1 -2 -9 23.970 25.345 0.763 21.834 o
1 -2 -8 17.438 18.360 0.669 36.042 o
1 -2 -7 29.088 30.915 0.862 15.622 o
1 -2 -6 31.167 30.327 0.850 14.783 o
1 -2 -5 76.560 83.599 1.151 2.828 o
1 -2 -4 295.690 317.796 2.588 0.210 o
1 -2 -3 169.545 190.391 1.378 0.612 o
1 -2 -2 498.099 559.253 3.275 0.073 o
1 -2 -1 343.828 363.685 1.237 0.160 o
1 -1 -13 15.592 14.145 0.883 35.891 o
1 -1 -12 0.438 0.247 0.402 380.537 o
1 -1 -11 36.742 37.998 0.978 10.598 o
1 -1 -10 49.029 49.036 0.865 6.873 o
1 -1 -9 41.143 39.856 0.733 9.743 o
1 -1 -8 19.345 20.188 0.784 29.074 o
1 -1 -7 37.590 27.970 1.230 10.830 o
1 -1 -6 14.763 13.982 0.379 59.298 o
1 -1 -5 150.274 147.427 1.931 0.825 o
1 -1 -4 42.681 42.343 0.345 9.584 o
1 -1 -3 662.227 761.918 3.602 0.041 o
1 -1 -2 151.380 147.377 0.621 0.854 o
1 -1 -1 180.322 207.025 0.919 0.540 o
1 0 0 95.317 102.764 0.808 1.942 o
1 0 1 935.729 950.177 3.968 0.022 o
1 0 2 6.399 9.492 0.171 187.539 o
1 0 3 0.638 0.330 0.138 2144.680 o
1 0 4 103.250 112.403 0.944 1.646 o
1 0 5 238.793 241.081 1.234 0.339 o
1 0 6 35.809 33.689 0.585 13.024 o
1 0 7 295.625 286.566 2.561 0.225 o
1 0 8 9.498 8.544 0.510 91.890 o
1 0 9 13.628 14.187 0.511 57.058 o
1 0 10 46.996 47.892 1.032 7.062 o
1 0 11 0.037 0.273 0.470 287.123 o
1 0 12 1.525 1.478 0.635 146.448 o
1 1 0 1332.480 1355.630 4.470 0.011 o
1 1 1 437.683 448.182 2.046 0.101 o
1 1 2 375.430 397.237 2.823 0.133 o
1 1 3 146.208 160.053 1.137 0.835 o
1 1 4 291.557 324.853 1.962 0.212 o
1 1 5 44.829 42.959 0.571 8.687 o
1 1 6 197.897 197.014 1.106 0.495 o
1 1 7 20.036 19.309 0.492 34.538 o
1 1 8 11.499 10.521 0.569 69.183 o
1 1 9 3.793 3.923 0.383 243.101 o
1 1 10 2.156 1.374 0.397 314.827 o
1 1 11 8.686 8.936 0.705 71.026 o
1 1 12 43.968 44.676 1.148 7.658 o
1 2 0 1452.890 1567.560 3.501 0.009 o
1 2 1 288.626 298.650 2.186 0.227 o
1 2 2 205.070 234.281 1.809 0.415 o
1 2 3 276.901 303.544 1.270 0.239 o
1 2 4 58.055 59.247 0.515 5.232 o
1 2 5 131.753 138.357 0.830 1.060 o
1 2 6 223.723 219.457 2.132 0.385 o
1 2 7 29.608 26.295 0.520 18.919 o
1 2 8 13.155 10.784 0.383 74.377 o
1 2 9 11.485 11.098 0.615 64.219 o
1 2 10 22.987 23.115 1.066 19.709 o
1 2 11 9.881 10.526 0.882 49.739 o
1 2 12 4.138 2.754 0.932 65.551 o
1 3 0 82.421 83.899 0.642 2.683 o
1 3 1 13.134 14.102 0.613 53.384 o
1 3 2 69.436 78.794 0.639 3.454 o
1 3 3 20.782 20.542 0.483 32.346 o
1 3 4 189.727 188.770 1.035 0.538 o
1 3 5 29.951 29.763 0.354 18.176 o
1 3 6 118.728 118.573 0.830 1.339 o
1 3 7 115.216 111.206 1.210 1.425 o
1 3 8 10.386 10.179 0.683 64.415 o
1 3 9 20.569 19.978 0.602 31.095 o
1 3 10 6.714 5.186 0.562 116.001 o
1 3 11 85.003 86.819 2.145 2.167 o
1 3 12 3.301 1.774 1.043 55.126 o
1 4 0 115.425 127.134 1.060 1.313 o
1 4 1 281.814 291.767 2.689 0.235 o
1 4 2 306.200 335.764 2.387 0.194 o
1 4 3 27.619 32.366 0.572 17.876 o
1 4 4 1.598 1.734 0.249 637.331 o
1 4 5 76.308 72.905 1.330 3.023 o
1 4 6 78.949 75.813 0.952 2.951 o
1 4 7 20.748 19.253 0.594 31.517 o
1 4 8 5.167 4.386 0.384 204.179 o
1 4 9 1.253 0.331 0.487 249.281 o
1 4 10 6.993 6.352 0.943 55.258 o
1 4 11 38.752 41.358 1.636 7.616 o
1 4 12 13.555 11.230 2.064 12.787 o
1 5 0 51.603 51.632 0.393 6.670 o
1 5 1 48.688 52.069 0.950 6.580 o
1 5 2 34.174 33.422 0.297 14.613 o
1 5 3 57.992 60.320 0.845 4.998 o
1 5 4 263.731 286.740 1.970 0.263 o
1 5 5 14.140 14.283 0.427 59.092 o
1 5 6 13.346 12.626 0.490 62.323 o
1 5 7 5.313 4.231 0.495 154.725 o
1 5 8 10.619 12.438 0.764 53.777 o
1 5 9 22.263 25.160 0.935 21.200 o
1 5 10 3.537 2.912 1.113 48.056 o
1 5 11 8.013 8.002 1.427 26.869 o
1 6 0 0.688 0.844 0.217 1024.810 o
1 6 1 123.824 128.360 1.588 1.165 o
1 6 2 1.101 1.400 0.106 1694.040 o
1 6 3 4.224 4.515 0.168 383.934 o
1 6 4 0.529 0.426 0.178 1541.820 o
1 6 5 9.153 9.109 0.400 107.835 o
1 6 6 6.621 4.773 0.576 115.084 o
1 6 7 31.321 32.692 0.841 14.197 o
1 6 8 28.131 28.416 1.166 14.501 o
1 6 9 3.111 1.566 0.973 63.105 o
1 7 0 33.480 32.847 0.793 13.427 o
1 7 1 10.305 11.173 0.663 64.599 o
1 7 2 5.343 4.676 0.370 204.062 o
1 7 3 20.401 20.665 0.483 32.880 o
1 7 4 36.048 34.896 0.972 11.323 o
1 7 5 79.872 82.926 1.086 2.720 o
1 7 6 37.303 41.907 1.042 9.690 o
1 7 7 1.066 0.748 1.230 41.822 o
1 8 0 13.708 14.682 0.478 57.530 o
1 8 1 6.480 5.721 0.667 93.972 o
1 8 2 15.918 14.356 0.661 43.429 o
1 8 3 8.883 8.358 0.525 94.642 o
1 8 4 17.424 18.777 0.738 33.867 o
1 8 5 16.323 18.334 0.802 34.162 o
1 8 6 19.905 23.515 1.943 11.478 o
1 9 0 17.842 17.756 0.641 36.610 o
1 9 1 2.921 2.142 0.492 204.575 o
1 9 2 12.644 13.700 0.663 52.684 o
1 9 3 18.911 19.241 1.138 22.907 o
1 9 4 15.539 14.888 3.449 4.961 o
1 10 0 7.031 8.766 1.081 42.953 o
1 10 1 0.768 0.078 0.896 78.903 o
1 10 2 1.797 1.469 0.679 127.859 o
2 -11 -6 4.709 4.325 1.278 35.965 o
2 -11 -5 1.498 1.160 0.754 106.997 o
2 -11 -4 4.172 4.397 1.322 34.059 o
2 -11 -3 20.297 25.567 1.950 11.134 o
2 -11 -2 15.000 13.135 1.614 18.178 o
2 -11 -1 5.272 5.900 1.382 30.439 o
2 -10 -7 7.597 5.262 0.819 67.922 o
2 -10 -6 5.548 6.041 0.746 83.729 o
2 -10 -5 7.297 7.382 0.721 77.710 o
2 -10 -4 22.537 23.138 1.175 18.588 o
2 -10 -3 10.088 8.622 0.886 51.118 o
2 -10 -2 12.285 10.906 1.427 23.764 o
2 -10 -1 4.015 2.678 0.877 73.342 o
2 -9 -9 8.974 7.315 0.958 49.423 o
2 -9 -8 4.127 3.385 0.552 151.382 o
2 -9 -7 3.362 3.856 0.496 183.171 o
2 -9 -6 8.181 6.544 0.550 102.053 o
2 -9 -5 41.889 43.704 0.955 8.593 o
2 -9 -4 5.355 4.933 0.528 139.095 o
2 -9 -3 9.433 9.352 0.689 68.958 o
2 -9 -2 5.439 5.155 0.482 152.118 o
2 -9 -1 49.714 45.921 1.322 6.325 o
2 -8 -10 4.685 5.565 0.889 66.744 o
2 -8 -9 1.395 1.083 0.509 222.296 o
2 -8 -8 36.619 40.018 0.876 10.663 o
2 -8 -7 0.366 0.569 0.376 426.922 o
2 -8 -6 5.166 4.029 0.384 208.143 o
2 -8 -5 49.825 51.310 0.853 6.582 o
2 -8 -4 28.614 30.365 0.646 17.438 o
2 -8 -3 5.196 4.751 0.402 191.089 o
2 -8 -2 9.496 9.736 0.374 105.435 o
2 -8 -1 2.611 2.506 0.294 414.350 o
2 -7 -11 3.160 2.175 1.408 31.152 o
2 -7 -10 21.222 20.683 0.784 26.544 o
2 -7 -9 16.042 16.835 0.860 33.975 o
2 -7 -8 32.832 32.574 0.794 13.767 o
2 -7 -7 10.055 7.838 0.477 94.977 o
2 -7 -6 31.025 30.064 0.619 16.200 o
2 -7 -5 23.454 24.919 0.548 24.937 o
2 -7 -4 32.569 34.099 0.696 13.979 o
2 -7 -3 25.592 24.367 0.489 23.513 o
2 -7 -2 9.025 9.410 0.275 125.413 o
2 -7 -1 18.299 17.996 0.257 43.993 o
2 -6 -11 12.545 11.986 0.782 48.373 o
2 -6 -10 29.323 31.391 0.875 15.289 o
2 -6 -9 31.479 34.167 0.967 13.146 o
2 -6 -8 8.150 8.091 0.584 91.421 o
2 -6 -7 9.100 7.957 0.503 97.779 o
2 -6 -6 35.628 38.542 0.655 11.917 o
2 -6 -5 2.077 2.233 0.221 626.662 o
2 -6 -4 10.684 10.761 0.587 70.702 o
2 -6 -3 13.953 13.279 0.336 66.353 o
2 -6 -2 30.663 28.829 0.344 18.037 o
2 -6 -1 24.380 24.515 0.270 26.420 o
2 -5 -12 11.829 11.638 0.796 49.682 o
2 -5 -11 4.801 4.743 0.569 132.414 o
2 -5 -10 32.388 34.558 1.030 12.398 o
2 -5 -9 17.039 16.783 0.702 37.225 o
2 -5 -8 4.627 4.350 0.440 187.250 o
2 -5 -7 9.079 8.470 0.593 83.744 o
2 -5 -6 168.565 167.256 2.823 0.632 o
2 -5 -5 1.224 1.431 0.334 456.802 o
2 -5 -4 26.452 23.567 0.452 23.335 o
2 -5 -3 48.595 48.696 0.489 7.381 o
2 -5 -2 47.654 44.956 0.349 8.050 o
2 -5 -1 19.821 21.927 0.335 34.954 o
2 -4 -12 1.681 1.481 0.496 226.115 o
2 -4 -11 12.797 12.563 0.836 44.247 o
2 -4 -10 5.381 4.927 0.574 125.115 o
2 -4 -9 50.735 49.858 0.874 6.530 o
2 -4 -8 1.638 2.420 0.326 420.106 o
2 -4 -7 42.355 41.080 0.712 9.300 o
2 -4 -6 0.585 1.785 0.255 745.042 o
2 -4 -5 18.436 17.941 0.671 34.620 o
2 -4 -4 254.022 265.417 1.991 0.290 o
2 -4 -3 27.944 32.261 0.314 18.881 o
2 -4 -2 54.892 48.964 0.358 6.382 o
2 -4 -1 253.938 269.026 2.313 0.286 o
2 -3 -13 7.593 7.444 1.265 33.402 o
2 -3 -12 27.621 28.383 0.831 17.400 o
2 -3 -11 28.915 28.313 0.909 16.085 o
2 -3 -10 3.010 3.183 0.481 201.882 o
2 -3 -9 15.708 16.729 0.737 38.609 o
2 -3 -8 37.159 37.748 0.903 10.759 o
2 -3 -7 18.809 18.843 0.526 36.573 o
2 -3 -6 53.575 45.998 1.203 5.986 o
2 -3 -5 106.332 91.221 0.931 1.805 o
2 -3 -4 13.031 12.633 0.239 77.723 o
2 -3 -3 57.011 57.845 0.827 5.246 o
2 -3 -2 40.602 43.609 0.332 10.012 o
2 -3 -1 153.576 171.948 0.701 0.755 o
2 -2 -13 11.408 9.599 0.865 48.627 o
2 -2 -12 8.500 8.733 0.732 69.102 o
2 -2 -11 13.830 17.394 0.933 34.364 o
2 -2 -10 34.180 36.286 1.048 11.398 o
2 -2 -9 2.676 2.396 0.378 302.709 o
2 -2 -8 1.049 1.129 0.383 377.063 o
2 -2 -7 39.473 34.918 0.701 11.074 o
2 -2 -6 52.077 51.628 1.734 5.099 o
2 -2 -5 219.073 219.636 1.269 0.403 o
2 -2 -4 41.195 41.744 0.915 9.074 o
2 -2 -3 309.591 340.088 1.572 0.191 o
2 -2 -2 509.059 581.297 2.820 0.069 o
2 -2 -1 71.530 83.114 0.382 3.256 o
2 -1 -13 0.977 0.794 0.500 238.421 o
2 -1 -12 2.015 2.665 0.529 190.653 o
2 -1 -11 3.755 3.611 0.471 192.039 o
2 -1 -10 51.776 51.520 1.040 6.068 o
2 -1 -9 15.331 14.628 0.572 48.122 o
2 -1 -8 51.211 54.737 0.976 6.003 o
2 -1 -7 26.662 24.561 0.941 18.247 o
2 -1 -6 107.651 108.990 1.162 1.576 o
2 -1 -5 2.475 1.614 0.188 707.547 o
2 -1 -4 26.262 28.819 0.479 20.845 o
2 -1 -3 28.822 27.565 0.328 20.000 o
2 -1 -2 73.219 77.252 0.994 3.186 o
2 -1 -1 71.008 86.042 0.603 3.170 o
2 0 0 196.915 210.635 1.348 0.474 o
2 0 1 520.443 586.701 2.568 0.067 o
2 0 2 133.804 138.169 0.815 1.041 o
2 0 3 180.201 186.652 1.115 0.578 o
2 0 4 181.606 190.211 2.427 0.543 o
2 0 5 1.325 0.450 0.197 1051.210 o
2 0 6 31.830 27.524 0.545 16.845 o
2 0 7 42.979 45.661 0.847 8.357 o
2 0 8 4.430 4.067 0.481 173.297 o
2 0 9 5.623 6.123 0.446 155.635 o
2 0 10 0.001 -0.143 0.390 422.260 o
2 0 11 8.035 7.538 0.916 54.321 o
2 0 12 13.944 15.721 1.197 27.000 o
2 1 0 180.821 183.016 1.656 0.576 o
2 1 1 139.680 143.938 1.157 0.949 o
2 1 2 297.774 337.473 2.150 0.201 o
2 1 3 66.553 73.155 0.553 3.846 o
2 1 4 45.595 51.061 0.511 7.711 o
2 1 5 86.271 78.374 0.681 2.633 o
2 1 6 18.339 20.267 0.514 36.358 o
2 1 7 26.111 21.703 0.575 23.549 o
2 1 8 0.242 -0.038 0.296 707.064 o
2 1 9 5.393 4.048 0.417 187.410 o
2 1 10 0.734 0.720 0.509 233.686 o
2 1 11 21.523 24.001 0.942 22.173 o
2 1 12 8.058 6.089 1.189 37.177 o
2 2 0 258.350 270.859 2.253 0.279 o
2 2 1 12.836 12.006 0.235 81.249 o
2 2 2 68.563 75.239 0.914 3.534 o
2 2 3 123.820 138.988 0.634 1.148 o
2 2 4 10.079 10.478 0.208 113.762 o
2 2 5 17.966 16.991 0.282 45.893 o
2 2 6 10.143 8.904 0.303 111.965 o
2 2 7 57.766 55.661 1.016 5.136 o
2 2 8 67.832 64.893 0.757 3.987 o
2 2 9 8.383 8.420 0.478 105.538 o
2 2 10 27.413 28.261 0.843 17.474 o
2 2 11 26.210 26.804 1.511 12.835 o
2 2 12 16.788 15.223 1.761 15.108 o
2 3 0 141.340 155.793 1.020 0.891 o
2 3 1 171.299 170.411 1.482 0.649 o
2 3 2 63.534 59.391 0.618 4.624 o
2 3 3 126.843 143.460 0.915 1.082 o
2 3 4 48.916 45.707 0.875 7.158 o
2 3 5 39.586 35.942 0.799 10.605 o
2 3 6 71.509 60.971 0.904 3.808 o
2 3 7 33.054 31.235 1.080 12.508 o
2 3 8 22.821 25.316 0.596 24.890 o
2 3 9 0.301 0.390 0.382 421.858 o
2 3 10 6.728 6.019 0.952 55.332 o
2 3 11 6.739 6.918 1.225 36.160 o
2 4 0 34.392 37.138 0.351 13.488 o
2 4 1 230.527 235.943 1.729 0.357 o
2 4 2 55.613 56.392 0.578 5.657 o
2 4 3 4.966 3.665 0.289 276.470 o
2 4 4 48.147 44.383 0.853 7.444 o
2 4 5 0.031 -0.414 0.353 513.041 o
2 4 6 75.269 75.409 1.162 3.074 o
2 4 7 10.918 10.440 0.417 86.558 o
2 4 8 43.472 45.883 0.943 8.051 o
2 4 9 27.482 28.419 1.014 16.008 o
2 4 10 11.573 10.957 1.090 35.463 o
2 4 11 6.833 5.068 1.001 51.706 o
2 5 0 11.688 10.593 0.212 96.829 o
2 5 1 181.826 184.159 0.902 0.579 o
2 5 2 29.806 31.476 0.386 17.560 o
2 5 3 18.578 17.987 0.585 36.455 o
2 5 4 27.194 26.751 0.496 20.820 o
2 5 5 23.316 21.184 0.544 27.363 o
2 5 6 4.255 3.055 0.381 243.363 o
2 5 7 13.333 10.819 0.594 59.339 o
2 5 8 14.292 13.102 0.757 44.401 o
2 5 9 0.584 0.698 0.675 137.105 o
2 5 10 2.913 2.939 1.202 42.072 o
2 5 11 27.876 29.067 4.263 3.019 o
2 6 0 53.635 52.198 0.407 6.305 o
2 6 1 138.447 143.493 0.976 0.967 o
2 6 2 5.517 5.436 0.159 288.412 o
2 6 3 40.131 37.691 0.443 10.948 o
2 6 4 41.829 42.409 1.052 8.527 o
2 6 5 50.583 48.968 0.868 6.628 o
2 6 6 5.257 5.377 0.508 144.204 o
2 6 7 16.803 18.717 0.784 33.630 o
2 6 8 9.053 10.446 0.932 48.106 o
2 6 9 0.042 -0.498 1.021 61.518 o
2 6 10 14.410 14.340 1.766 15.862 o
2 7 0 4.852 4.875 0.635 113.048 o
2 7 1 39.447 36.973 2.196 6.229 o
2 7 2 39.319 39.910 0.850 9.961 o
2 7 3 17.909 17.615 0.642 36.583 o
2 7 4 1.024 0.852 0.371 405.566 o
2 7 5 2.208 2.583 0.521 193.561 o
2 7 6 1.745 1.510 0.992 62.631 o
2 8 0 50.489 53.801 3.231 3.224 o
2 8 1 33.771 32.185 0.927 12.825 o
2 8 2 6.256 6.412 0.529 122.623 o
2 8 3 24.525 26.608 1.031 18.023 o
2 8 4 0.983 1.274 0.426 313.291 o
2 8 5 13.202 14.377 1.130 30.294 o
2 8 6 13.648 13.693 1.512 20.466 o
2 9 0 24.360 27.188 1.245 15.797 o
2 9 1 1.102 0.208 0.499 241.444 o
2 9 2 5.296 5.288 0.878 67.051 o
2 9 3 3.534 2.824 0.767 93.916 o
2 9 4 8.545 7.413 1.192 35.956 o
2 10 0 20.079 21.715 1.517 15.880 o
2 10 1 22.804 24.222 1.750 12.284 o
3 -11 -4 7.725 9.156 1.804 17.721 o
3 -11 -3 1.195 0.777 1.487 28.715 o
3 -11 -2 13.931 12.593 1.595 19.025 o
3 -11 -1 11.584 8.903 1.617 20.199 o
3 -10 -7 1.675 1.027 0.759 105.169 o
3 -10 -6 0.962 1.229 0.623 156.146 o
3 -10 -5 2.643 3.320 0.809 87.388 o
3 -10 -4 2.080 2.172 0.772 98.751 o
3 -10 -3 21.324 23.189 1.886 11.662 o
3 -10 -2 19.202 20.624 1.798 13.281 o
3 -10 -1 5.564 6.293 1.366 30.817 o
3 -9 -9 6.223 4.968 1.503 25.944 o
3 -9 -8 15.492 15.843 0.810 37.271 o
3 -9 -7 5.503 5.521 0.507 140.945 o
3 -9 -6 7.653 6.952 0.577 99.549 o
3 -9 -5 4.882 3.905 0.630 117.246 o
3 -9 -4 63.499 67.833 1.258 3.946 o
3 -9 -3 6.386 6.317 0.499 129.471 o
3 -9 -2 4.437 3.936 0.527 154.940 o
3 -9 -1 10.174 8.435 0.731 63.882 o
3 -8 -9 0.255 1.146 0.533 217.699 o
3 -8 -8 2.071 1.894 0.515 203.700 o
3 -8 -7 12.115 12.351 0.753 50.645 o
3 -8 -6 2.001 1.909 0.352 372.583 o
3 -8 -5 5.724 5.815 0.493 141.276 o
3 -8 -4 6.410 5.685 0.314 192.371 o
3 -8 -3 62.967 65.457 0.986 4.233 o
3 -8 -2 19.948 18.968 0.702 30.791 o
3 -8 -1 13.290 12.789 0.502 61.487 o
3 -7 -10 2.556 2.082 0.563 169.026 o
3 -7 -9 11.984 10.093 0.620 63.870 o
3 -7 -8 9.542 8.591 0.617 78.074 o
3 -7 -7 2.972 2.728 0.400 267.784 o
3 -7 -6 12.165 11.940 0.442 72.516 o
3 -7 -5 28.720 30.187 0.635 17.497 o
3 -7 -4 2.625 2.268 0.239 520.777 o
3 -7 -3 36.841 33.736 0.634 12.437 o
3 -7 -2 8.619 9.241 0.259 134.196 o
3 -7 -1 15.379 15.830 0.302 55.929 o
3 -6 -11 5.367 4.666 0.599 119.380 o
3 -6 -10 25.848 27.125 0.867 18.647 o
3 -6 -9 8.471 8.066 0.558 93.491 o
3 -6 -8 12.029 11.375 0.660 58.437 o
3 -6 -7 4.232 4.158 0.406 215.041 o
3 -6 -6 6.937 6.590 0.405 146.543 o
3 -6 -5 14.478 15.076 0.562 50.379 o
3 -6 -4 53.028 50.175 0.956 6.086 o
3 -6 -3 68.220 68.012 0.929 3.782 o
3 -6 -2 123.609 120.093 0.750 1.264 o
3 -6 -1 18.569 18.705 0.297 41.734 o
3 -5 -11 1.151 1.034 0.460 271.725 o
3 -5 -10 3.110 3.240 0.530 173.223 o
3 -5 -9 92.827 94.814 2.038 1.897 o
3 -5 -8 0.003 -0.001 0.395 411.296 o
3 -5 -7 9.092 10.813 0.524 85.490 o
3 -5 -6 42.477 45.344 0.713 8.744 o
3 -5 -5 10.327 10.851 0.445 86.342 o
3 -5 -4 28.452 32.066 0.879 15.540 o
3 -5 -3 8.619 7.191 0.226 155.536 o
3 -5 -2 22.120 21.873 0.400 30.307 o
3 -5 -1 5.032 5.296 0.190 299.991 o
3 -4 -12 20.489 20.889 0.940 24.465 o
3 -4 -11 41.681 43.638 1.351 7.700 o
3 -4 -10 50.107 51.625 1.107 6.201 o
3 -4 -9 68.108 69.854 1.121 3.645 o
3 -4 -8 0.848 0.630 0.423 329.527 o
3 -4 -7 61.432 61.333 0.775 4.655 o
3 -4 -6 61.816 64.098 0.757 4.505 o
3 -4 -5 45.786 43.457 0.944 7.829 o
3 -4 -4 55.451 48.376 0.795 6.042 o
3 -4 -3 49.552 47.641 0.606 7.196 o
3 -4 -2 204.849 207.783 0.827 0.458 o
3 -4 -1 37.965 36.157 0.361 12.153 o
3 -3 -12 12.815 12.680 1.064 33.975 o
3 -3 -11 4.319 3.360 0.570 142.696 o
3 -3 -10 1.340 1.285 0.424 306.618 o
3 -3 -9 11.545 10.453 0.460 78.635 o
3 -3 -8 16.694 18.730 0.606 38.859 o
3 -3 -7 18.051 19.762 0.479 38.191 o
3 -3 -6 23.132 21.346 0.435 28.815 o
3 -3 -5 67.232 68.682 1.481 3.545 o
3 -3 -4 351.471 351.767 2.340 0.158 o
3 -3 -3 88.781 93.325 0.606 2.284 o
3 -3 -2 2.587 2.260 0.153 725.758 o
3 -3 -1 80.261 78.103 0.511 2.923 o
3 -2 -13 7.965 9.400 1.275 31.959 o
3 -2 -12 15.361 15.571 0.930 33.597 o
3 -2 -11 75.811 78.399 1.461 2.872 o
3 -2 -10 52.966 51.344 0.862 6.114 o
3 -2 -9 71.578 72.935 1.087 3.360 o
3 -2 -8 47.342 50.097 0.758 7.203 o
3 -2 -7 8.294 5.902 0.283 161.424 o
3 -2 -6 21.110 18.784 0.462 33.611 o
3 -2 -5 200.070 192.120 4.198 0.440 o
3 -2 -4 107.472 101.495 0.758 1.684 o
3 -2 -3 27.800 25.948 0.477 20.771 o
3 -2 -2 81.709 90.644 2.262 2.167 o
3 -2 -1 225.961 234.270 3.820 0.345 o
3 -1 -13 2.517 2.834 0.616 142.870 o
3 -1 -12 4.426 4.402 0.663 110.111 o
3 -1 -11 65.235 67.563 1.001 3.974 o
3 -1 -10 8.164 7.309 0.487 110.496 o
3 -1 -9 6.477 5.702 0.400 161.434 o
3 -1 -8 9.926 11.396 0.482 83.279 o
3 -1 -7 7.050 7.139 0.326 161.966 o
3 -1 -6 4.690 2.940 0.567 142.295 o
3 -1 -5 269.576 253.311 2.419 0.274 o
3 -1 -4 13.796 11.959 0.384 67.897 o
3 -1 -3 165.576 168.085 1.411 0.685 o
3 -1 -2 1.809 1.639 0.148 1006.680 o
3 -1 -1 21.026 22.338 0.288 32.908 o
3 0 0 175.012 190.896 1.183 0.590 o
3 0 1 48.064 40.984 1.011 7.512 o
3 0 2 77.290 83.384 1.239 2.776 o
3 0 3 8.733 7.609 0.263 143.999 o
3 0 4 5.292 5.549 0.378 192.078 o
3 0 5 15.705 14.731 0.412 53.120 o
3 0 6 24.555 20.992 0.465 26.838 o
3 0 7 0.927 1.137 0.307 555.410 o
3 0 8 34.158 37.364 0.882 11.898 o
3 0 9 2.882 2.922 0.601 145.582 o
3 0 10 0.419 1.185 0.647 148.475 o
3 0 11 55.188 54.854 1.583 4.855 o
3 1 0 52.785 48.786 0.812 6.372 o
3 1 1 19.096 19.144 0.322 39.556 o
3 1 2 101.252 99.798 0.842 1.832 o
3 1 3 1.473 0.681 0.175 1116.760 o
3 1 4 68.879 60.723 0.811 4.043 o
3 1 5 184.840 176.446 2.193 0.562 o
3 1 6 25.675 22.184 0.459 24.857 o
3 1 7 5.317 4.457 0.315 235.559 o
3 1 8 17.421 16.934 0.725 35.751 o
3 1 9 0.051 -0.532 0.489 267.223 o
3 1 10 8.598 9.343 0.787 62.201 o
3 1 11 3.283 3.858 0.716 104.434 o
3 2 0 158.109 172.793 1.272 0.716 o
3 2 1 63.878 64.121 0.682 4.359 o
3 2 2 175.659 172.500 1.053 0.630 o
3 2 3 0.899 0.997 0.197 1092.720 o
3 2 4 49.932 43.913 0.922 7.070 o
3 2 5 81.892 79.458 1.676 2.534 o
3 2 6 0.150 0.950 0.497 251.406 o
3 2 7 13.860 12.284 0.496 60.551 o
3 2 8 5.550 5.994 0.463 151.690 o
3 2 9 22.258 23.303 1.084 19.895 o
3 2 10 0.710 1.079 0.548 201.638 o
3 2 11 14.428 16.400 1.484 20.005 o
3 3 0 41.078 41.504 0.592 9.810 o
3 3 1 39.118 35.560 0.458 11.652 o
3 3 2 107.804 101.091 0.771 1.681 o
3 3 3 19.333 18.380 0.399 38.552 o
3 3 4 36.846 30.405 1.054 11.461 o
3 3 5 24.106 21.351 0.605 25.551 o
3 3 6 30.570 28.829 0.852 15.450 o
3 3 7 58.198 56.005 1.022 5.068 o
3 3 8 11.108 12.373 0.786 51.139 o
3 3 9 4.243 2.747 0.908 68.438 o
3 3 10 0.978 0.453 0.846 87.479 o
3 3 11 7.073 4.829 1.140 41.573 o
3 4 0 64.889 61.667 0.522 4.435 o
3 4 1 56.254 56.730 0.503 5.596 o
3 4 2 2.429 1.938 0.147 806.329 o
3 4 3 128.485 123.896 1.952 1.112 o
3 4 4 38.600 35.603 0.806 10.947 o
3 4 5 4.621 3.585 0.649 114.993 o
3 4 6 23.142 22.530 0.669 25.149 o
3 4 7 15.168 15.110 0.661 44.283 o
3 4 8 2.913 2.276 0.764 97.604 o
3 4 9 1.197 2.820 0.860 82.065 o
3 4 10 0.109 0.824 0.809 96.921 o
3 4 11 25.471 24.362 2.118 9.217 o
3 5 0 48.741 47.851 0.445 7.468 o
3 5 1 129.326 128.330 1.042 1.132 o
3 5 2 6.030 5.729 0.276 215.964 o
3 5 3 29.726 27.466 0.622 17.807 o
3 5 4 65.514 61.505 3.973 2.129 o
3 5 5 61.226 59.394 0.798 4.753 o
3 5 6 10.639 10.683 0.545 75.026 o
3 5 7 28.581 28.490 0.989 15.614 o
3 5 8 12.378 13.683 1.084 33.156 o
3 5 9 6.632 5.075 0.710 87.281 o
3 5 10 0.211 -0.137 0.907 77.767 o
3 6 0 45.235 42.600 0.468 8.760 o
3 6 1 6.265 4.598 0.257 233.255 o
3 6 2 59.480 57.579 0.613 5.121 o
3 6 3 4.675 4.315 0.243 306.912 o
3 6 4 6.428 5.628 0.682 91.774 o
3 6 5 3.164 2.036 0.404 268.091 o
3 6 6 46.119 49.443 1.187 6.819 o
3 6 7 2.303 1.979 0.648 135.037 o
3 6 8 6.468 5.117 1.135 42.359 o
3 6 9 13.634 13.696 1.560 19.559 o
3 7 0 29.215 28.258 0.464 18.786 o
3 7 1 31.619 31.509 0.669 15.217 o
3 7 2 25.189 25.923 0.576 22.382 o
3 7 3 13.193 14.420 0.520 57.716 o
3 7 4 13.100 14.684 0.586 54.041 o
3 7 5 9.045 9.205 1.038 42.495 o
3 8 0 4.957 4.825 0.527 144.218 o
3 8 1 37.051 38.305 1.068 10.157 o
3 8 2 16.673 18.383 1.144 24.905 o
3 8 3 15.245 15.978 2.257 10.436 o
3 8 4 17.653 17.057 1.525 17.722 o
3 8 5 6.619 4.375 1.328 32.356 o
3 9 0 6.808 7.065 0.886 60.310 o
3 9 1 3.535 3.557 0.996 58.521 o
4 -10 -6 8.000 5.628 1.167 38.653 o
4 -10 -5 7.562 7.142 2.568 9.287 o
4 -10 -4 3.943 2.536 1.376 32.144 o
4 -10 -3 1.523 1.284 1.265 39.272 o
4 -10 -2 1.474 1.002 1.436 30.657 o
4 -10 -1 8.752 7.501 1.379 28.172 o
4 -9 -8 0.650 0.330 0.678 136.193 o
4 -9 -7 26.651 26.266 0.850 18.549 o
4 -9 -6 19.179 21.382 0.986 24.625 o
4 -9 -5 21.612 21.288 0.799 25.553 o
4 -9 -4 1.618 1.865 0.543 191.223 o
4 -9 -3 4.030 4.161 0.569 142.012 o
4 -9 -2 7.811 6.432 0.959 52.307 o
4 -9 -1 8.449 7.339 0.694 76.463 o
4 -8 -9 2.803 2.356 0.534 180.079 o
4 -8 -8 10.808 10.180 0.586 71.549 o
4 -8 -7 9.279 8.372 0.504 94.908 o
4 -8 -6 8.385 8.335 0.550 94.369 o
4 -8 -5 1.372 1.118 0.311 511.670 o
4 -8 -4 7.625 6.074 0.384 146.097 o
4 -8 -3 35.623 34.752 0.647 12.682 o
4 -8 -2 23.252 26.213 0.784 21.834 o
4 -8 -1 9.860 9.175 0.518 86.534 o
4 -7 -10 9.038 8.266 0.681 73.679 o
4 -7 -9 18.820 22.890 1.006 23.904 o
4 -7 -8 10.190 8.413 0.510 87.867 o
4 -7 -7 16.440 15.239 0.674 40.831 o
4 -7 -6 30.392 30.877 0.624 16.306 o
4 -7 -5 16.878 17.878 0.560 40.700 o
4 -7 -4 26.990 25.941 0.737 19.433 o
4 -7 -3 8.379 7.286 0.338 137.478 o
4 -7 -2 36.566 36.898 0.498 12.285 o
4 -7 -1 40.940 43.753 0.797 9.150 o
4 -6 -10 5.083 5.140 0.637 110.219 o
4 -6 -9 2.753 2.551 0.477 213.658 o
4 -6 -8 6.125 5.931 0.577 114.280 o
4 -6 -7 35.772 37.909 0.794 11.548 o
4 -6 -6 45.750 49.021 0.726 7.636 o
4 -6 -5 43.996 44.758 0.646 8.566 o
4 -6 -4 5.241 4.288 0.268 267.719 o
4 -6 -3 19.313 18.851 0.391 38.236 o
4 -6 -2 14.743 15.071 0.443 54.651 o
4 -6 -1 6.532 7.482 0.425 140.596 o
4 -5 -11 1.829 2.421 0.574 169.103 o
4 -5 -10 41.699 47.198 1.231 7.661 o
4 -5 -9 29.079 29.669 0.937 15.436 o
4 -5 -8 7.116 8.001 0.472 120.015 o
4 -5 -7 10.329 10.110 0.508 81.961 o
4 -5 -6 27.151 28.867 0.640 19.007 o
4 -5 -5 54.484 54.886 0.588 5.893 o
4 -5 -4 36.074 34.754 0.538 12.823 o
4 -5 -3 40.729 38.049 0.506 10.586 o
4 -5 -2 25.474 22.547 0.607 23.446 o
4 -5 -1 17.698 17.521 0.511 40.623 o
4 -4 -11 13.551 11.867 0.928 39.139 o
4 -4 -10 5.269 4.378 0.671 103.325 o
4 -4 -9 26.892 27.961 0.990 16.647 o
4 -4 -8 14.080 14.528 0.602 50.510 o
4 -4 -7 26.373 27.825 0.649 19.920 o
4 -4 -6 23.025 24.006 0.563 25.774 o
4 -4 -5 33.556 32.192 0.529 14.612 o
4 -4 -4 120.593 117.366 0.802 1.322 o
4 -4 -3 26.535 26.292 0.599 20.816 o
4 -4 -2 40.238 35.857 0.453 11.207 o
4 -4 -1 19.794 20.522 0.596 31.980 o
4 -3 -12 0.285 -0.014 0.576 191.585 o
4 -3 -11 31.352 32.185 1.172 12.453 o
4 -3 -10 8.513 7.887 0.662 79.059 o
4 -3 -9 12.093 12.381 0.555 63.763 o
4 -3 -8 76.895 79.665 0.984 2.948 o
4 -3 -7 74.550 74.518 0.813 3.241 o
4 -3 -6 53.252 51.475 0.717 6.201 o
4 -3 -5 28.208 27.604 0.554 19.272 o
4 -3 -4 5.757 5.707 0.546 125.997 o
4 -3 -3 103.799 97.143 1.427 1.739 o
4 -3 -2 0.624 0.242 0.386 403.117 o
4 -3 -1 32.614 26.241 0.460 17.139 o
4 -2 -12 21.455 20.269 0.996 22.948 o
4 -2 -11 5.008 5.366 0.622 113.630 o
4 -2 -10 27.411 27.718 1.066 15.794 o
4 -2 -9 36.105 38.339 0.747 11.505 o
4 -2 -8 27.297 27.632 0.646 19.313 o
4 -2 -7 43.360 45.657 0.680 8.557 o
4 -2 -6 36.838 33.464 0.501 12.873 o
4 -2 -5 89.530 89.099 0.913 2.289 o
4 -2 -4 250.472 231.305 2.471 0.319 o
4 -2 -3 92.219 99.679 1.810 1.904 o
4 -2 -2 34.085 33.745 0.466 14.162 o
4 -2 -1 128.140 118.078 1.045 1.207 o
4 -1 -13 10.048 11.724 1.430 24.684 o
4 -1 -12 5.146 4.232 0.685 101.442 o
4 -1 -11 14.887 13.898 0.846 38.648 o
4 -1 -10 25.224 25.166 0.886 19.566 o
4 -1 -9 17.742 18.343 0.647 36.101 o
4 -1 -8 65.327 66.795 0.902 4.042 o
4 -1 -7 27.326 28.491 0.528 19.786 o
4 -1 -6 5.519 5.037 0.266 245.985 o
4 -1 -5 142.103 125.433 1.019 1.016 o
4 -1 -4 41.904 42.444 1.075 8.452 o
4 -1 -3 55.060 49.911 0.893 5.899 o
4 -1 -2 20.930 19.875 0.361 34.458 o
4 -1 -1 18.902 17.692 0.311 41.926 o
4 0 0 0.430 0.154 0.221 1160.100 o
4 0 1 0.928 1.441 0.170 1214.390 o
4 0 2 98.034 93.256 2.972 1.590 o
4 0 3 14.062 14.342 0.418 59.697 o
4 0 4 3.155 2.511 0.273 410.429 o
4 0 5 129.750 120.928 1.139 1.166 o
4 0 6 7.709 7.496 0.438 123.802 o
4 0 7 41.337 39.866 0.725 9.706 o
4 0 8 50.133 52.779 1.086 6.148 o
4 0 9 25.026 27.395 0.915 18.636 o
4 0 10 0.785 0.652 0.624 158.538 o
4 1 0 103.105 92.132 1.274 1.829 o
4 1 1 144.541 137.212 1.967 0.903 o
4 1 2 518.110 506.039 4.015 0.074 o
4 1 3 4.699 4.075 0.346 240.830 o
4 1 4 55.955 49.662 0.640 6.011 o
4 1 5 3.422 2.568 0.269 397.590 o
4 1 6 32.716 28.073 0.528 16.215 o
4 1 7 17.884 17.507 0.556 39.053 o
4 1 8 7.827 7.724 0.600 92.107 o
4 1 9 10.026 10.220 0.877 50.106 o
4 1 10 2.777 3.334 0.590 149.115 o
4 2 0 63.195 62.973 0.572 4.510 o
4 2 1 75.258 70.856 1.441 3.078 o
4 2 2 8.713 7.395 0.306 138.259 o
4 2 3 8.204 5.711 0.380 141.488 o
4 2 4 6.857 6.381 0.384 155.211 o
4 2 5 0.371 0.295 0.280 755.204 o
4 2 6 11.005 10.864 0.538 73.361 o
4 2 7 10.002 8.645 0.454 95.296 o
4 2 8 31.302 34.064 1.083 12.617 o
4 2 9 31.263 36.862 1.262 11.236 o
4 2 10 5.578 6.727 1.251 35.865 o
4 3 0 45.000 42.039 0.450 8.905 o
4 3 1 109.789 105.616 1.403 1.545 o
4 3 2 90.134 83.377 0.853 2.373 o
4 3 3 102.281 96.175 0.938 1.841 o
4 3 4 70.394 64.790 1.002 3.714 o
4 3 5 18.911 16.591 0.571 37.511 o
4 3 6 9.472 9.875 0.441 96.352 o
4 3 7 7.614 7.572 0.536 104.968 o
4 3 8 2.204 1.931 0.597 156.518 o
4 3 9 11.669 11.649 1.025 37.729 o
4 3 10 3.016 2.385 0.804 88.751 o
4 4 0 54.293 51.774 0.678 6.066 o
4 4 1 90.122 87.285 1.029 2.281 o
4 4 2 13.652 13.060 0.477 60.909 o
4 4 3 5.231 4.117 0.319 240.623 o
4 4 4 2.658 2.493 0.259 470.412 o
4 4 5 4.234 5.263 0.452 180.815 o
4 4 6 9.920 9.922 0.608 74.047 o
4 4 7 0.791 0.281 0.612 165.682 o
4 4 8 58.906 61.443 1.571 4.283 o
4 4 9 17.178 19.008 1.159 23.934 o
4 4 10 11.845 11.871 1.313 26.844 o
4 5 0 32.484 30.418 0.646 15.157 o
4 5 1 121.801 121.520 0.841 1.275 o
4 5 2 59.264 57.276 0.816 5.043 o
4 5 3 28.362 26.051 0.600 19.437 o
4 5 4 20.804 18.340 0.604 31.942 o
4 5 5 8.622 8.325 0.543 93.925 o
4 5 6 25.060 24.409 0.773 21.201 o
4 5 7 10.697 9.503 0.751 58.709 o
4 5 8 0.232 0.128 0.503 249.618 o
4 5 9 3.463 4.219 0.813 82.930 o
4 6 0 14.761 16.313 0.560 47.883 o
4 6 1 12.427 11.613 0.569 62.928 o
4 6 2 8.785 9.445 1.005 44.691 o
4 6 3 51.794 51.767 0.838 6.273 o
4 6 4 21.321 22.933 0.880 23.735 o
4 6 5 4.621 4.220 0.421 197.954 o
4 6 6 23.639 23.727 1.901 10.989 o
4 6 7 47.200 53.939 2.400 4.429 o
4 7 0 11.803 11.959 0.610 61.739 o
4 7 1 12.186 13.490 0.452 67.891 o
4 7 2 48.917 49.981 0.907 6.761 o
4 7 3 28.574 29.513 0.860 16.291 o
4 7 4 45.472 51.468 1.250 6.656 o
4 7 5 1.709 0.374 0.885 79.122 o
4 7 6 8.909 6.972 1.189 35.971 o
4 8 0 39.251 40.347 3.538 3.512 o
4 8 1 4.143 3.532 0.945 63.233 o
4 8 2 12.369 13.262 1.452 22.479 o
4 8 3 0.270 -0.041 1.056 57.374 o
5 -10 -4 3.808 2.108 1.233 39.742 o
5 -10 -1 9.403 7.590 1.620 21.146 o
5 -9 -6 7.184 6.470 0.736 77.983 o
5 -9 -5 1.628 1.194 0.589 168.107 o
5 -9 -4 7.902 8.062 0.778 67.334 o
5 -9 -3 5.715 6.801 0.851 67.306 o
5 -9 -2 10.349 12.314 1.160 33.144 o
5 -9 -1 6.247 4.066 0.514 138.504 o
5 -8 -8 0.771 0.427 0.530 217.984 o
5 -8 -7 23.776 26.170 0.771 21.555 o
5 -8 -6 18.510 18.903 0.670 33.729 o
5 -8 -5 4.946 4.495 0.463 170.754 o
5 -8 -4 24.102 22.588 0.685 23.920 o
5 -8 -3 15.718 17.077 0.910 32.703 o
5 -8 -2 1.232 1.647 0.507 222.318 o
5 -8 -1 7.119 6.285 0.957 53.825 o
5 -7 -9 3.010 4.098 0.636 127.590 o
5 -7 -8 4.565 5.024 0.520 149.761 o
5 -7 -7 3.371 2.725 0.443 224.156 o
5 -7 -6 5.751 5.311 0.489 145.163 o
5 -7 -5 30.747 32.627 0.612 15.657 o
5 -7 -4 13.638 14.847 0.472 57.785 o
5 -7 -3 4.644 4.486 0.296 268.140 o
5 -7 -2 23.399 24.515 0.490 25.839 o
5 -7 -1 49.584 48.829 0.593 7.098 o
5 -6 -10 8.629 8.063 0.792 63.557 o
5 -6 -9 52.555 53.694 1.272 5.556 o
5 -6 -8 15.594 14.753 0.649 44.198 o
5 -6 -7 11.509 11.664 0.564 67.000 o
5 -6 -6 12.421 11.932 0.522 65.598 o
5 -6 -5 6.804 5.986 0.367 164.115 o
5 -6 -4 33.355 32.975 0.593 14.285 o
5 -6 -3 10.160 10.252 0.429 91.247 o
5 -6 -2 0.923 0.801 0.233 879.364 o
5 -6 -1 9.993 7.710 0.320 117.958 o
5 -5 -10 19.503 22.362 0.963 24.291 o
5 -5 -9 18.409 19.033 0.761 31.631 o
5 -5 -8 28.105 27.112 0.698 18.526 o
5 -5 -7 16.813 15.635 0.565 43.273 o
5 -5 -6 12.327 12.830 0.510 64.897 o
5 -5 -5 9.887 8.653 0.374 106.821 o
5 -5 -4 16.324 17.304 0.391 47.710 o
5 -5 -3 41.288 42.378 0.564 9.677 o
5 -5 -2 30.613 31.032 0.541 16.531 o
5 -5 -1 38.482 38.251 0.631 11.025 o
5 -4 -11 3.550 3.107 0.738 99.684 o
5 -4 -10 20.610 22.130 1.039 22.181 o
5 -4 -9 0.002 0.409 0.395 405.092 o
5 -4 -8 22.977 23.039 0.698 24.680 o
5 -4 -7 33.799 35.545 0.756 12.877 o
5 -4 -6 23.032 22.863 0.482 27.401 o
5 -4 -5 10.570 9.318 0.414 93.391 o
5 -4 -4 21.862 22.073 0.434 30.145 o
5 -4 -3 15.180 15.757 0.390 53.949 o
5 -4 -2 59.688 60.547 0.651 4.926 o
5 -4 -1 19.762 21.798 0.437 33.729 o
5 -3 -11 6.607 6.472 0.686 88.041 o
5 -3 -10 21.369 24.037 0.890 23.034 o
5 -3 -9 22.974 22.118 0.732 24.693 o
5 -3 -8 13.011 13.501 0.565 57.512 o
5 -3 -7 13.464 14.718 0.492 57.638 o
5 -3 -6 15.239 14.712 0.487 51.791 o
5 -3 -5 16.383 15.463 0.437 48.895 o
5 -3 -4 8.830 7.338 0.423 115.914 o
5 -3 -3 43.704 41.200 0.578 9.170 o
5 -3 -2 10.013 8.676 0.327 111.509 o
5 -3 -1 59.966 56.711 0.633 5.105 o
5 -2 -12 12.631 12.156 0.871 43.195 o
5 -2 -11 0.883 0.565 0.571 187.344 o
5 -2 -10 4.599 4.767 0.525 149.078 o
5 -2 -9 10.511 9.508 0.537 79.592 o
5 -2 -8 6.803 7.118 0.419 141.169 o
5 -2 -7 65.207 68.455 1.048 3.920 o
5 -2 -6 5.530 5.754 0.351 196.511 o
5 -2 -5 36.126 36.695 0.612 12.202 o
5 -2 -4 33.840 35.249 0.623 13.418 o
5 -2 -3 50.932 46.610 0.551 7.094 o
5 -2 -2 101.656 100.782 0.923 1.804 o
5 -2 -1 11.549 11.257 0.323 87.466 o
5 -1 -12 2.604 3.294 0.635 133.509 o
5 -1 -11 4.278 3.999 0.564 142.304 o
5 -1 -10 16.792 18.250 0.746 35.110 o
5 -1 -9 13.401 14.051 0.598 53.454 o
5 -1 -8 166.787 166.785 1.547 0.680 o
5 -1 -7 19.078 19.087 0.494 36.493 o
5 -1 -6 13.073 14.470 0.505 58.884 o
5 -1 -5 11.040 11.688 0.363 86.292 o
5 -1 -4 19.377 18.106 0.389 38.937 o
5 -1 -3 80.836 75.934 0.772 2.902 o
5 -1 -2 34.917 30.519 0.464 14.558 o
5 -1 -1 94.887 88.654 0.904 2.134 o
5 0 0 21.052 19.793 0.404 33.724 o
5 0 1 19.558 19.313 0.499 35.265 o
5 0 2 165.007 159.636 1.297 0.714 o
5 0 3 70.439 68.888 0.882 3.626 o
5 0 4 22.831 22.999 0.546 26.813 o
5 0 5 21.707 21.237 0.582 28.913 o
5 0 6 0.953 1.452 0.338 462.367 o
5 0 7 15.016 14.499 0.664 45.264 o
5 0 8 36.737 39.814 0.883 10.637 o
5 0 9 8.733 10.370 0.716 66.918 o
5 1 0 38.336 37.191 0.626 11.266 o
5 1 1 28.614 26.943 0.554 19.214 o
5 1 2 73.138 69.712 0.750 3.476 o
5 1 3 11.061 9.597 0.399 90.254 o
5 1 4 2.670 2.573 0.296 405.898 o
5 1 5 18.919 19.881 0.528 35.341 o
5 1 6 0.214 0.392 0.309 635.914 o
5 1 7 30.809 32.985 0.771 14.741 o
5 1 8 18.732 22.305 1.164 21.466 o
5 1 9 12.488 14.303 0.835 43.181 o
5 2 0 8.948 7.231 0.315 134.464 o
5 2 1 97.994 100.259 1.092 1.877 o
5 2 2 23.117 21.427 0.483 28.218 o
5 2 3 8.844 8.780 0.347 120.824 o
5 2 4 13.249 13.582 0.498 60.306 o
5 2 5 0.883 0.738 0.306 577.629 o
5 2 6 45.986 49.703 0.909 7.271 o
5 2 7 17.445 18.284 0.980 28.024 o
5 2 8 56.194 61.127 1.260 4.807 o
5 2 9 5.925 5.908 0.713 87.944 o
5 3 0 42.813 39.773 0.697 9.380 o
5 3 1 84.605 81.888 1.230 2.521 o
5 3 2 42.845 42.991 0.596 9.132 o
5 3 3 23.695 23.628 0.641 24.327 o
5 3 4 6.825 6.661 0.364 159.002 o
5 3 5 3.207 3.546 0.352 291.223 o
5 3 6 18.061 18.602 0.789 31.755 o
5 3 7 0.098 -0.234 0.448 318.024 o
5 3 8 12.325 14.078 0.860 42.507 o
5 3 9 7.589 7.424 0.690 80.649 o
5 4 0 5.453 5.691 0.312 216.195 o
5 4 1 4.611 6.343 0.459 163.834 o
5 4 2 2.471 2.665 0.324 372.453 o
5 4 3 5.251 5.242 0.362 203.532 o
5 4 4 9.442 10.352 0.530 84.109 o
5 4 5 5.935 6.188 0.487 138.481 o
5 4 6 51.361 54.374 1.184 5.764 o
5 4 7 21.614 26.599 0.831 22.519 o
5 4 8 12.838 13.531 0.793 45.372 o
5 5 0 7.168 4.228 0.476 138.725 o
5 5 1 15.773 15.140 0.426 51.684 o
5 5 2 21.050 20.619 0.712 28.040 o
5 5 3 33.493 35.308 0.674 13.374 o
5 5 4 28.234 28.350 0.683 18.118 o
5 5 5 6.510 5.847 0.499 130.671 o
5 5 6 0.625 0.349 0.479 267.110 o
5 5 7 19.510 20.766 1.000 24.339 o
5 5 8 12.964 12.860 0.828 44.011 o
5 6 0 4.113 3.707 0.400 226.578 o
5 6 1 31.652 32.344 0.641 15.111 o
5 6 2 18.415 18.435 0.687 33.852 o
5 6 3 0.722 0.466 0.403 365.639 o
5 6 4 9.967 10.604 0.689 64.612 o
5 6 5 15.218 14.851 1.175 26.897 o
5 6 6 24.605 25.804 2.064 9.549 o
5 6 7 10.625 13.392 1.725 17.756 o
5 7 0 51.953 54.067 1.299 5.569 o
5 7 1 12.194 12.577 0.872 43.581 o
5 7 2 2.029 3.157 0.616 145.189 o
5 7 3 21.520 21.835 1.680 13.605 o
5 7 4 2.449 1.563 1.081 52.444 o
5 7 5 2.079 1.836 1.236 40.644 o
5 7 6 0.601 0.476 1.275 39.217 o
6 -9 -4 0.329 -0.177 1.041 58.958 o
6 -9 -3 2.186 2.971 0.920 70.426 o
6 -9 -2 10.069 9.689 1.174 34.173 o
6 -9 -1 4.368 3.931 0.631 120.397 o
6 -8 -7 10.365 10.243 1.172 33.703 o
6 -8 -6 10.150 9.574 0.677 66.930 o
6 -8 -5 2.570 3.932 0.691 114.142 o
6 -8 -4 15.458 17.033 0.951 31.855 o
6 -8 -3 28.796 31.310 1.477 11.597 o
6 -8 -2 4.861 3.957 0.584 130.644 o
6 -8 -1 1.059 0.806 0.521 219.478 o
6 -7 -8 4.797 4.674 0.695 99.924 o
6 -7 -7 11.194 11.682 0.636 62.605 o
6 -7 -6 5.567 5.918 0.439 160.214 o
6 -7 -5 2.028 1.820 0.395 313.772 o
6 -7 -4 16.870 17.397 0.575 40.810 o
6 -7 -3 10.309 8.850 0.430 95.316 o
6 -7 -2 2.206 1.561 0.301 458.821 o
6 -7 -1 3.021 2.934 0.384 278.074 o
6 -6 -9 1.990 0.010 0.779 100.793 o
6 -6 -8 39.428 41.861 0.924 9.478 o
6 -6 -7 5.190 4.902 0.439 173.997 o
6 -6 -6 7.065 7.088 0.470 125.733 o
6 -6 -5 17.880 18.026 0.576 38.008 o
6 -6 -4 58.588 62.902 0.838 4.815 o
6 -6 -3 1.389 0.990 0.268 642.595 o
6 -6 -2 23.633 25.004 0.585 24.305 o
6 -6 -1 15.636 16.425 0.455 49.081 o
6 -5 -9 10.407 9.493 0.629 70.709 o
6 -5 -8 7.623 7.875 0.511 108.328 o
6 -5 -7 19.693 19.334 0.694 31.056 o
6 -5 -6 4.020 3.358 0.371 253.400 o
6 -5 -5 6.057 6.265 0.396 164.766 o
6 -5 -4 0.455 0.514 0.275 755.154 o
6 -5 -3 5.600 4.727 0.330 216.409 o
6 -5 -2 14.047 14.762 0.470 56.518 o
6 -5 -1 12.137 12.078 0.392 75.918 o
6 -4 -10 6.840 7.465 0.641 91.704 o
6 -4 -9 33.762 34.473 1.022 11.961 o
6 -4 -8 0.234 0.438 0.382 421.821 o
6 -4 -7 4.922 4.969 0.423 184.607 o
6 -4 -6 11.316 10.092 0.527 74.718 o
6 -4 -5 8.620 8.995 0.404 112.925 o
6 -4 -4 66.463 67.596 0.779 3.980 o
6 -4 -3 11.158 11.285 0.421 81.831 o
6 -4 -2 5.500 4.582 0.318 227.077 o
6 -4 -1 0.051 -0.442 0.246 1046.550 o
6 -3 -10 10.006 9.239 0.627 73.206 o
6 -3 -9 4.314 4.945 0.570 135.397 o
6 -3 -8 4.682 4.144 0.464 176.852 o
6 -3 -7 26.174 25.899 0.614 21.174 o
6 -3 -6 6.435 6.471 0.492 130.063 o
6 -3 -5 5.540 5.403 0.312 217.557 o
6 -3 -4 3.835 2.181 0.280 370.869 o
6 -3 -3 14.146 13.525 0.500 56.919 o
6 -3 -2 53.900 51.910 0.631 6.147 o
6 -3 -1 9.020 7.839 0.401 115.224 o
6 -2 -11 8.559 8.368 0.753 67.280 o
6 -2 -10 25.765 28.262 0.921 17.827 o
6 -2 -9 7.344 6.125 0.495 121.974 o
6 -2 -8 14.901 13.656 0.703 44.855 o
6 -2 -7 14.910 15.438 0.573 48.125 o
6 -2 -6 7.911 6.322 0.350 148.490 o
6 -2 -5 10.572 9.659 0.424 91.031 o
6 -2 -4 3.041 2.659 0.271 417.339 o
6 -2 -3 5.836 5.332 0.326 205.025 o
6 -2 -2 25.066 25.253 0.468 23.769 o
6 -2 -1 17.325 16.096 0.457 44.753 o
6 -1 -11 17.071 19.655 1.120 24.558 o
6 -1 -10 3.215 3.502 0.528 171.336 o
6 -1 -9 19.401 19.960 0.786 29.109 o
6 -1 -8 1.308 1.320 0.358 405.993 o
6 -1 -7 0.480 0.264 0.332 543.342 o
6 -1 -6 8.599 8.009 0.444 111.246 o
6 -1 -5 15.435 15.607 0.502 49.230 o
6 -1 -4 3.241 2.550 0.303 364.201 o
6 -1 -3 58.160 52.588 0.752 5.467 o
6 -1 -2 15.883 14.623 0.441 51.648 o
6 -1 -1 40.485 39.227 0.625 10.251 o
6 0 0 1.632 1.306 0.242 683.203 o
6 0 1 0.988 0.617 0.260 749.433 o
6 0 2 0.559 0.379 0.310 603.247 o
6 0 3 2.100 2.142 0.451 250.330 o
6 0 4 29.765 31.385 0.728 15.951 o
6 0 5 3.563 3.176 0.486 190.642 o
6 0 6 17.764 20.905 0.811 30.050 o
6 0 7 12.974 14.975 0.894 39.023 o
6 0 8 14.143 16.376 1.001 32.339 o
6 1 0 14.014 15.326 0.386 59.292 o
6 1 1 5.217 4.233 0.360 217.221 o
6 1 2 17.063 16.313 0.555 42.188 o
6 1 3 1.366 1.151 0.294 556.697 o
6 1 4 2.213 2.913 0.407 279.479 o
6 1 5 14.431 15.239 0.659 45.975 o
6 1 6 4.519 4.870 0.574 132.725 o
6 1 7 3.240 2.777 0.594 145.999 o
6 1 8 9.079 8.825 0.799 60.407 o
6 2 0 18.812 18.372 0.512 37.335 o
6 2 1 3.678 4.007 0.313 300.780 o
6 2 2 22.925 23.230 0.510 26.986 o
6 2 3 52.161 52.344 0.702 6.308 o
6 2 4 18.367 19.694 0.632 34.205 o
6 2 5 14.022 14.332 0.636 49.310 o
6 2 6 2.744 2.734 0.520 186.168 o
6 2 7 10.454 9.444 0.679 65.912 o
6 2 8 9.394 10.672 1.392 26.447 o
6 3 0 22.587 24.091 0.527 26.673 o
6 3 1 6.690 6.432 0.341 170.157 o
6 3 2 23.647 23.909 0.550 25.271 o
6 3 3 8.501 9.315 0.508 96.464 o
6 3 4 3.164 3.114 0.464 210.249 o
6 3 5 4.809 4.383 0.554 138.777 o
6 3 6 3.675 4.581 0.593 135.170 o
6 3 7 9.710 10.258 0.673 67.699 o
6 4 0 1.847 1.220 0.365 373.634 o
6 4 1 46.360 48.794 0.617 7.674 o
6 4 2 3.295 3.664 0.330 307.360 o
6 4 3 22.571 23.108 0.637 25.895 o
6 4 4 23.699 26.559 0.770 21.468 o
6 4 5 9.519 10.889 0.755 59.863 o
6 4 6 11.331 12.335 0.737 53.835 o
6 4 7 4.773 5.084 0.602 121.561 o
6 5 0 6.440 6.236 0.487 132.673 o
6 5 1 4.542 5.330 0.492 158.675 o
6 5 2 6.237 4.199 0.518 136.731 o
6 5 3 32.792 34.477 1.057 12.138 o
6 5 4 2.149 2.604 0.665 127.932 o
6 5 5 1.805 1.861 0.691 122.946 o
6 5 6 8.608 8.298 0.842 58.541 o
6 6 0 0.231 0.021 0.434 335.406 o
6 6 1 0.801 0.301 0.464 281.589 o
6 6 2 2.049 1.973 0.641 139.114 o
6 6 3 14.065 17.391 0.991 32.138 o
6 6 4 2.847 4.214 1.588 24.498 o
6 6 5 4.470 5.382 1.573 24.360 o
6 6 6 5.593 5.970 1.668 21.450 o
6 7 0 3.075 2.895 0.802 88.148 o
6 7 1 1.180 1.785 0.796 96.505 o
6 7 2 6.425 6.065 1.097 44.360 o
6 7 3 11.425 14.007 1.401 24.011 o
6 7 4 0.095 0.219 0.957 69.776 o
7 -7 -6 3.794 3.383 0.637 124.293 o
7 -7 -5 5.628 4.629 0.539 134.415 o
7 -7 -4 4.717 5.704 0.445 172.560 o
7 -7 -3 2.939 3.107 0.412 253.616 o
7 -7 -2 3.863 3.684 0.480 185.014 o
7 -7 -1 7.112 6.296 0.594 102.218 o
7 -6 -7 27.634 31.806 0.978 15.340 o
7 -6 -6 0.945 1.242 0.405 343.021 o
7 -6 -5 1.808 2.044 0.433 274.296 o
7 -6 -4 9.030 9.141 0.485 96.595 o
7 -6 -3 5.329 4.819 0.385 195.408 o
7 -6 -2 3.610 4.757 0.391 231.523 o
7 -6 -1 6.040 4.926 0.398 175.692 o
7 -5 -8 14.587 13.207 0.747 44.089 o
7 -5 -7 45.383 50.724 0.823 7.413 o
7 -5 -6 1.060 1.676 0.419 315.280 o
7 -5 -5 5.246 5.631 0.399 183.456 o
7 -5 -4 32.069 34.712 0.600 14.464 o
7 -5 -3 4.981 5.769 0.396 188.129 o
7 -5 -2 15.565 17.073 0.530 45.800 o
7 -5 -1 13.187 14.322 0.520 57.951 o
7 -4 -9 0.590 0.079 1.468 29.655 o
7 -4 -8 15.057 16.425 0.896 34.558 o
7 -4 -7 17.895 17.830 0.646 36.320 o
7 -4 -6 0.452 0.568 0.378 420.341 o
7 -4 -5 22.232 24.135 0.721 24.577 o
7 -4 -4 14.738 16.319 0.540 48.742 o
7 -4 -3 5.452 4.841 0.359 204.971 o
7 -4 -2 56.078 61.874 0.951 5.040 o
7 -4 -1 17.318 20.207 0.594 36.511 o
7 -3 -9 58.121 60.940 1.031 4.824 o
7 -3 -8 4.589 5.480 0.507 151.834 o
7 -3 -7 6.600 6.258 0.484 131.570 o
7 -3 -6 5.708 5.241 0.391 181.612 o
7 -3 -5 7.410 7.793 0.443 124.323 o
7 -3 -4 2.260 1.819 0.316 419.431 o
7 -3 -3 19.377 21.925 0.560 32.202 o
7 -3 -2 9.534 8.562 0.559 85.302 o
7 -3 -1 6.736 5.766 0.396 157.961 o
7 -2 -9 9.133 9.873 0.576 81.761 o
7 -2 -8 5.475 4.608 0.517 143.047 o
7 -2 -7 0.959 0.602 0.428 320.018 o
7 -2 -6 12.270 12.463 0.633 57.629 o
7 -2 -5 3.273 4.183 0.420 226.567 o
7 -2 -4 0.694 0.554 0.304 605.835 o
7 -2 -3 82.855 86.611 0.995 2.551 o
7 -2 -2 19.187 20.641 0.545 33.858 o
7 -2 -1 17.416 18.198 0.497 40.857 o
7 -1 -10 18.589 20.278 0.972 25.994 o
7 -1 -9 13.242 12.286 0.683 51.825 o
7 -1 -8 41.408 44.912 0.869 8.749 o
7 -1 -7 8.444 8.788 0.500 100.096 o
7 -1 -6 4.663 3.283 0.453 189.336 o
7 -1 -5 5.651 5.153 0.430 168.125 o
7 -1 -4 8.108 8.920 0.463 108.304 o
7 -1 -3 1.057 1.088 0.322 505.165 o
7 -1 -2 4.091 4.476 0.405 214.828 o
7 -1 -1 4.227 3.897 0.378 235.653 o
7 0 0 9.507 8.603 0.411 105.359 o
7 0 1 0.999 1.357 0.369 399.421 o
7 0 2 0.659 0.501 0.326 540.121 o
7 0 3 4.736 4.751 0.546 140.523 o
7 0 4 7.187 7.782 0.608 94.483 o
7 0 5 0.324 -0.314 0.518 235.377 o
7 0 6 24.201 27.125 0.978 18.619 o
7 1 0 36.395 38.463 0.744 11.393 o
7 1 1 2.889 3.084 0.373 289.991 o
7 1 2 6.582 6.084 0.435 146.253 o
7 1 3 3.397 2.597 0.497 190.866 o
7 1 4 17.488 18.093 0.910 29.799 o
7 1 5 0.522 0.605 0.542 210.222 o
7 1 6 1.982 1.338 0.590 164.492 o
7 2 0 8.178 6.992 0.462 116.748 o
7 2 1 1.343 1.058 0.351 423.778 o
7 2 2 8.903 7.750 0.565 90.750 o
7 2 3 1.942 1.988 0.472 236.903 o
7 2 4 7.259 8.107 0.636 88.543 o
7 2 5 2.469 2.843 0.549 173.386 o
7 2 6 3.488 3.534 0.745 97.334 o
7 3 0 21.713 23.145 0.671 26.376 o
7 3 1 29.532 33.502 0.809 15.042 o
7 3 2 11.358 10.441 0.567 70.171 o
7 3 3 19.129 21.158 0.732 29.797 o
7 3 4 7.411 8.371 0.581 95.674 o
7 3 5 2.896 2.979 0.535 174.482 o
7 3 6 6.257 6.090 1.195 38.520 o
7 4 0 3.307 3.136 0.599 141.689 o
7 4 1 2.303 1.926 0.532 189.849 o
7 4 2 12.601 12.778 0.729 50.253 o
7 4 3 11.560 10.823 0.915 44.095 o
7 4 4 1.928 2.062 0.622 147.404 o
7 4 5 8.606 9.713 1.082 40.273 o
7 5 0 13.614 15.073 0.667 47.888 o
7 5 1 0.970 1.314 0.648 144.513 o
7 5 2 1.600 0.752 0.620 154.882 o
7 5 3 2.501 3.188 0.591 151.620 o
7 5 4 7.322 7.716 0.716 77.642 o
7 6 0 14.513 16.745 0.937 33.745 o
7 6 1 8.869 12.208 1.111 36.960 o
7 6 2 7.471 9.001 0.996 47.786 o
7 6 3 7.340 8.484 1.579 22.706 o
7 7 0 8.542 6.858 1.370 28.819 o
7 7 2 13.589 12.587 1.468 21.675 o
8 -6 -3 19.630 22.509 1.089 21.970 o
8 -6 -2 10.511 9.553 1.067 38.704 o
8 -6 -1 14.471 16.204 1.617 17.748 o
8 -5 -6 8.615 7.292 1.550 23.182 o
8 -5 -5 10.773 10.921 0.680 61.942 o
8 -5 -4 11.696 10.029 0.620 65.088 o
8 -5 -3 3.939 2.869 0.438 214.637 o
8 -5 -2 6.132 6.476 0.428 151.931 o
8 -5 -1 0.271 0.142 0.377 438.599 o
8 -4 -6 11.579 11.100 0.621 63.375 o
8 -4 -5 10.214 9.458 0.538 81.260 o
8 -4 -4 36.417 43.529 0.821 10.354 o
8 -4 -3 9.715 9.129 0.520 87.315 o
8 -4 -2 5.232 6.019 0.431 167.415 o
8 -4 -1 15.338 16.304 0.648 43.029 o
8 -3 -7 2.074 1.953 0.482 226.488 o
8 -3 -6 0.441 0.327 0.444 312.455 o
8 -3 -5 11.966 11.820 0.612 61.263 o
8 -3 -4 5.091 5.216 0.490 153.257 o
8 -3 -3 16.971 19.911 0.672 35.419 o
8 -3 -2 38.520 43.923 0.789 9.779 o
8 -3 -1 4.931 5.069 0.507 149.956 o
8 -2 -7 3.052 2.415 0.470 215.013 o
8 -2 -6 44.531 47.606 0.848 7.833 o
8 -2 -5 6.913 6.620 0.598 101.683 o
8 -2 -4 14.108 17.811 0.786 38.850 o
8 -2 -3 9.922 9.122 0.594 77.472 o
8 -2 -2 19.055 22.946 0.691 29.494 o
8 -2 -1 17.741 20.126 0.730 32.552 o
8 -1 -8 12.694 14.056 1.405 23.188 o
8 -1 -7 9.675 10.050 0.573 78.717 o
8 -1 -6 4.847 3.872 0.522 152.426 o
8 -1 -5 10.502 11.322 0.578 71.040 o
8 -1 -4 7.039 7.371 0.495 118.974 o
8 -1 -3 55.477 63.370 1.190 4.832 o
8 -1 -2 0.060 0.199 0.365 473.799 o
8 -1 -1 4.762 4.949 0.467 168.578 o
8 0 0 5.489 4.907 0.529 137.349 o
8 0 1 9.031 8.781 0.572 85.823 o
8 0 2 21.352 25.560 0.821 23.351 o
8 0 3 13.490 14.835 0.724 45.798 o
8 1 0 0.743 0.403 0.385 398.839 o
8 1 1 2.430 1.779 0.438 258.996 o
8 1 2 1.689 2.624 0.464 242.606 o
8 1 3 12.849 13.369 0.622 54.935 o
8 2 0 2.378 2.081 0.463 235.535 o
8 2 1 1.540 1.569 0.426 295.339 o
8 2 2 9.179 10.025 0.564 82.471 o
8 2 3 15.803 17.366 0.805 35.642 o
8 3 0 2.674 2.156 0.543 178.077 o
8 3 1 9.486 9.160 0.621 76.495 o
8 3 2 2.269 1.979 0.623 144.768 o
8 3 3 7.956 7.488 1.294 31.902 o
8 4 0 0.309 0.295 0.435 328.177 o
8 4 1 4.154 4.459 0.631 120.154 o
8 4 2 6.940 7.231 0.641 91.865 o
8 5 0 6.947 6.206 0.671 89.567 o
8 5 1 4.514 3.546 0.714 99.799 o
;
_iucr_refine_instructions_details
;
TITL 
CELL 0.71073 5.1189 6.8936 7.5948 90 100.64 90
ZERR 1 0.0032 0.0038 0.005 0 0.051 0
LATT -1
SYMM -X,0.5+Y,-Z
SFAC C O N H
UNIT 1 1 1 1

L.S. 4
PLAN  20
CONF
FMAP 2
MORE -1
BOND $H
a
ACTA
WGHT 0.056545 0.018326
FVAR 1.775983
REM <olex2.extras>
REM <HklSrc "%.\\fk_03482_intdb_v128.hkl">
REM </olex2.extras>

O     2     0.11282  0.47383 -0.08387  11.00000  0.01459  0.01598  0.00811 =
 0.00249  0.00317  0.00215
O3    2     0.24974  0.51258  0.60961  11.00000  0.01192  0.01986  0.00672 =
 0.00217  0.00219  0.00169
O1    2    -0.18138  0.50096  0.48166  11.00000  0.01028  0.01661  0.01268 =
 0.00272  0.00414 -0.00055
N1    3     0.35881  0.70756  0.31616  11.00000  0.01183  0.00994  0.00884 =
 -0.00032  0.00337 -0.00197
O2    2     0.50309  0.32405  0.00894  11.00000  0.02264  0.03083  0.01144 =
 0.00232  0.00660  0.01313
C1    1     0.13544  0.56542  0.29481  11.00000  0.01002  0.01014  0.00656 =
 0.00038  0.00266 -0.00078
C2    1     0.06047  0.52515  0.47832  11.00000  0.01106  0.00919  0.00696 =
 0.00046  0.00352  0.00105
C3    1     0.21612  0.37325  0.21959  11.00000  0.01816  0.00996  0.00757 =
 -0.00019  0.00463  0.00058
C4    1     0.29334  0.38942  0.03755  11.00000  0.01554  0.01139  0.00729 =
 -0.00077  0.00306  0.00080
H1    4    -0.01763  0.61564  0.21942  11.00000 -1.20000
H3a   4     0.35027  0.32526  0.29517  11.00000 -1.20000
H3b   4     0.05686  0.28969  0.21025  11.00000 -1.20000
H     4     0.17711  0.48133 -0.20024  11.00000 -1.50000
H1a   4     0.38952  0.74363  0.20324  11.00000 -1.20000
H1b   4     0.32001  0.81606  0.36894  11.00000 -1.20000
H1c   4     0.51090  0.65947  0.37534  11.00000 -1.20000
HKLF 4

END
Q1 1 -0.055556 0.5 0.48 11 0.05 0.6
Q2 1 0.166667 0.5 0.56 11 0.05 0.55
Q3 1 0.388889 0.333333 0 11 0.05 0.49
Q4 1 0.222222 0.375 0.12 11 0.05 0.34
Q5 1 0.166667 0.458333 -0.04 11 0.05 0.33

  REM The information below was added by Olex2.
  REM
  REM R1 = 0.0369 for 2628 Fo > 4sig(Fo) and 0.0409 for all 2825 data
  REM 103 parameters refined using 1 restraints
  REM Highest difference peak 0.5951, deepest hole -0.2834
  REM Mean Shift 0.0001, Max Shift -0.0008.

  REM +++ Tabular Listing of Refinement Information +++
  REM R1_all = 0.0409
  REM R1_gt = 0.0369
  REM wR_ref = 0.0939
  REM GOOF = 1.1636
  REM Shift_max = -0.0008
  REM Shift_mean = 0.0001
  REM Reflections_all = 2825
  REM Reflections_gt = 2628
  REM Parameters = 103
  REM Hole = -0.2834
  REM Peak = 0.5951
  REM Flack = 0.1(2)

  
;
_olex2_submission_special_instructions  'No special instructions were received'
