data_fk_03422_int_db
_audit_creation_date               2024-03-13
_audit_creation_method
;
Olex2 1.5-alpha
(compiled 2023.11.24 svn.r209d9fb2 for OlexSys, GUI svn.r6869)
;
_audit_contact_author_address      ?
_audit_contact_author_email        ?
_audit_contact_author_name         ''
_audit_contact_author_phone        ?
_publ_contact_author_id_orcid      ?
_publ_section_references
;
Bourhis, L.J., Dolomanov, O.V., Gildea, R.J., Howard, J.A.K., Puschmann, H.
 (2015). Acta Cryst. A71, 59-75.

D. Kratzert, I. Krossing, (2018), J. Appl. Cryst. 51, 928-934.

Dolomanov, O.V., Bourhis, L.J., Gildea, R.J, Howard, J.A.K. & Puschmann, H.
 (2009), J. Appl. Cryst. 42, 339-341.

Kratzert, D., Holstein, J.J. & Krossing, I. (2015). J. Appl. Cryst. 48, 933-938.

Sheldrick, G.M. (2015). Acta Cryst. A71, 3-8.
;
_chemical_name_systematic          '2-Aminopentanedioic acid'
_chemical_formula_moiety           'C5 H9 N O4'
_chemical_formula_sum              'C5 H9 N O4'
_chemical_formula_weight           147.132
_chemical_absolute_configuration   unk
loop_
  _atom_type_symbol
  _atom_type_scat_dispersion_real
  _atom_type_scat_dispersion_imag
  _atom_type_scat_Cromer_Mann_a1
  _atom_type_scat_Cromer_Mann_a2
  _atom_type_scat_Cromer_Mann_a3
  _atom_type_scat_Cromer_Mann_a4
  _atom_type_scat_Cromer_Mann_b1
  _atom_type_scat_Cromer_Mann_b2
  _atom_type_scat_Cromer_Mann_b3
  _atom_type_scat_Cromer_Mann_b4
  _atom_type_scat_Cromer_Mann_c
  _atom_type_scat_source
  _atom_type_scat_dispersion_source
 C 0.00313 0.00162 2.31000 1.02000 1.58860 0.86500 20.84390 10.20750 0.56870
 51.65120 0.21560 'International Tables Volume C Table 6.1.1.4 (pp. 500-502)'
 'Brennan, Cowan, Rev. Sci. Instrum., 1992, 63, 850'
 H 0.00000 0.00000 0.49300 0.32291 0.14019 0.04081 10.51090 26.12570 3.14236
 57.79970 0.00304 'International Tables Volume C Table 6.1.1.4 (pp. 500-502)'
 'Brennan, Cowan, Rev. Sci. Instrum., 1992, 63, 850'
 N 0.00612 0.00332 12.21260 3.13220 2.01250 1.16630 0.00570 9.89330 28.99750
 0.58260 -11.52900 'International Tables Volume C Table 6.1.1.4 (pp. 500-502)'
 'Brennan, Cowan, Rev. Sci. Instrum., 1992, 63, 850'
 O 0.01085 0.00610 3.04850 2.28680 1.54630 0.86700 13.27710 5.70110 0.32390
 32.90890 0.25080 'International Tables Volume C Table 6.1.1.4 (pp. 500-502)'
 'Brennan, Cowan, Rev. Sci. Instrum., 1992, 63, 850'

_space_group_crystal_system        'orthorhombic'
_space_group_IT_number             19
_space_group_name_H-M_alt          'P 21 21 21'
_space_group_name_Hall             ' P 2ac 2ab'
loop_
  _space_group_symop_id
  _space_group_symop_operation_xyz
 1 x,y,z
 2 x+1/2,-y+1/2,-z
 3 -x,y+1/2,-z+1/2
 4 -x+1/2,-y,z+1/2

_symmetry_Int_Tables_number        19
_cell_length_a                     5.139(3)
_cell_length_b                     6.880(3)
_cell_length_c                     17.227(8)
_cell_angle_alpha                  90
_cell_angle_beta                   90
_cell_angle_gamma                  90
_cell_volume                       609.1(5)
_cell_formula_units_Z              4
_cell_measurement_reflns_used      0
_cell_measurement_temperature      100
_cell_measurement_theta_max        0.00
_cell_measurement_theta_min        0.00
_exptl_absorpt_coefficient_mu      0.140
_exptl_absorpt_correction_T_max    0.9656
_exptl_absorpt_correction_T_min    0.9652
_exptl_absorpt_correction_type     spherical
_exptl_crystal_colour              'clear colourless'
_exptl_crystal_colour_lustre       clear
_exptl_crystal_colour_modifier     .
_exptl_crystal_colour_primary      colourless
_exptl_crystal_density_diffrn      1.604
_exptl_crystal_density_meas        ?
_exptl_crystal_density_method      'not measured'
_exptl_crystal_description         block
_exptl_crystal_F_000               312.280
_exptl_crystal_size_max            0.13
_exptl_crystal_size_mid            0.09
_exptl_crystal_size_min            0.04
_diffrn_reflns_av_R_equivalents    0.0286
_diffrn_reflns_av_unetI/netI       0.0322
_diffrn_reflns_Laue_measured_fraction_full  1.0000
_diffrn_reflns_Laue_measured_fraction_max  0.9738
_diffrn_reflns_limit_h_max         8
_diffrn_reflns_limit_h_min         -8
_diffrn_reflns_limit_k_max         10
_diffrn_reflns_limit_k_min         -11
_diffrn_reflns_limit_l_max         29
_diffrn_reflns_limit_l_min         -29
_diffrn_reflns_number              17657
_diffrn_reflns_point_group_measured_fraction_full  1.0000
_diffrn_reflns_point_group_measured_fraction_max  0.9620
_diffrn_reflns_theta_full          25.2417
_diffrn_reflns_theta_max           38.53
_diffrn_reflns_theta_min           2.36
_diffrn_ambient_temperature        100
_diffrn_detector                   Pilatus200K
_diffrn_detector_area_resol_mean   5.81
_diffrn_detector_type              'DECTRIS PILATUS 200K'
_diffrn_measured_fraction_theta_full  1.0000
_diffrn_measured_fraction_theta_max  0.9738
_diffrn_measurement_details
;
 2182 frames, detector distance = 40 mm
;
_diffrn_measurement_device         'Eulerian 4-circle diffractometer'
_diffrn_measurement_device_type    'STOE STADIVARI'
_diffrn_measurement_method         'rotation method, \w scans'
_diffrn_radiation_collimation      '0.6 mm diameter'
_diffrn_radiation_monochromator    'Graded multilayer mirror'
_diffrn_radiation_polarisn_norm    270
_diffrn_radiation_probe            x-ray
_diffrn_radiation_type             'Mo K\a'
_diffrn_radiation_wavelength       0.71073
_diffrn_source                     'Genix Mo'
_diffrn_source_current             1.000
_diffrn_source_power               0.050
_diffrn_source_voltage             50
_reflns_Friedel_coverage           0.945
_reflns_limit_h_max                8
_reflns_limit_h_min                -8
_reflns_limit_k_max                11
_reflns_limit_k_min                -11
_reflns_limit_l_max                29
_reflns_limit_l_min                -29
_reflns_number_gt                  2855
_reflns_number_total               3288
_reflns_threshold_expression       I>=2u(I)
_computing_cell_refinement
;
X-Area Recipe 1.37.0.0 (STOE, 2021)
;
_computing_data_collection
;
X-Area Pilatus3_SV 1.31.186.0 (STOE, 2022)
;
_computing_data_reduction
;
X-Area Integrate 2.5.3.0 (STOE, 2021)
X-Area X-Red 2.3.0.0 (STOE, 2021) 
;
_computing_molecular_graphics      'Olex2 1.5-alpha (Dolomanov et al., 2009)'
_computing_publication_material    'Olex2 1.5-alpha (Dolomanov et al., 2009)'
_computing_structure_refinement   
 'olex2.refine 1.5-alpha (Bourhis et al., 2015)'
_computing_structure_solution      'SHELXT 2018/2 (Sheldrick, 2018)'
_refine_diff_density_max           0.4339
_refine_diff_density_min           -0.2639
_refine_diff_density_rms           0.0774
_refine_ls_abs_structure_details  
 'Hooft, R.W.W., Straver, L.H., Spek, A.L. (2010). J. Appl. Cryst., 43, 665-668.'
_refine_ls_abs_structure_Flack     -0.2(3)
_refine_ls_d_res_high              0.5705
_refine_ls_d_res_low               8.6136
_refine_ls_goodness_of_fit_ref     1.0659
_refine_ls_hydrogen_treatment      refall
_refine_ls_matrix_type             full
_refine_ls_number_constraints      0
_refine_ls_number_parameters       127
_refine_ls_number_reflns           3288
_refine_ls_number_restraints       0
_refine_ls_R_factor_all            0.0476
_refine_ls_R_factor_gt             0.0371
_refine_ls_restrained_S_all        1.0659
_refine_ls_shift/su_max            -0.0004
_refine_ls_shift/su_mean           0.0001
_refine_ls_structure_factor_coef   Fsqd
_refine_ls_weighting_details      
 'w=1/[\s^2^(Fo^2^)+(0.0496P)^2^+0.0638P] where P=(Fo^2^+2Fc^2^)/3'
_refine_ls_weighting_scheme        calc
_refine_ls_wR_factor_gt            0.0862
_refine_ls_wR_factor_ref           0.0923
_olex2_refinement_description
;
;
_atom_sites_solution_primary       dual
loop_
  _atom_site_label
  _atom_site_type_symbol
  _atom_site_fract_x
  _atom_site_fract_y
  _atom_site_fract_z
  _atom_site_U_iso_or_equiv
  _atom_site_adp_type
  _atom_site_occupancy
  _atom_site_refinement_flags_posn
 O001 O 0.27647(13) 0.40826(11) 0.79311(4) 0.01200(12) Uani 1.000000 .
 O002 O -0.00111(14) 0.55361(10) 0.42186(4) 0.01204(12) Uani 1.000000 .
 O003 O 0.66898(13) 0.41799(10) 0.73633(4) 0.01190(12) Uani 1.000000 .
 O004 O 0.36169(14) 0.43182(11) 0.47587(4) 0.01408(13) Uani 1.000000 .
 N005 N 0.08791(16) 0.20330(11) 0.66841(4) 0.00905(12) Uani 1.000000 .
 C006 C 0.42764(16) 0.39310(12) 0.73557(5) 0.00790(13) Uani 1.000000 .
 C007 C 0.14306(18) 0.50147(12) 0.48139(5) 0.00922(13) Uani 1.000000 .
 C008 C 0.00739(18) 0.53840(13) 0.55737(5) 0.01099(14) Uani 1.000000 .
 C009 C 0.29602(17) 0.35196(11) 0.65747(5) 0.00769(13) Uani 1.000000 .
 C00A C 0.18351(19) 0.54493(12) 0.62879(5) 0.01028(14) Uani 1.000000 .
 H00d H -0.083(3) 0.660(2) 0.5536(9) 0.016(4) Uiso 1.000000 .
 H00e H -0.129(3) 0.436(2) 0.5609(8) 0.013(3) Uiso 1.000000 .
 H009 H 0.409(3) 0.299(2) 0.6211(8) 0.015(3) Uiso 1.000000 .
 H00f H 0.339(3) 0.631(3) 0.6171(9) 0.023(4) Uiso 1.000000 .
 H00g H 0.088(3) 0.610(2) 0.6696(8) 0.011(3) Uiso 1.000000 .
 H002 H 0.088(4) 0.559(3) 0.3798(10) 0.030(5) Uiso 1.000000 .
 H00a H 0.026(3) 0.162(3) 0.6212(9) 0.024(4) Uiso 1.000000 .
 H00b H 0.147(3) 0.097(2) 0.6946(9) 0.016(3) Uiso 1.000000 .
 H00c H -0.051(3) 0.254(2) 0.6927(9) 0.017(4) Uiso 1.000000 .

loop_
  _atom_site_aniso_label
  _atom_site_aniso_U_11
  _atom_site_aniso_U_22
  _atom_site_aniso_U_33
  _atom_site_aniso_U_12
  _atom_site_aniso_U_13
  _atom_site_aniso_U_23
 O001 0.0103(3) 0.0185(3) 0.0072(2) 0.0005(2) 0.0007(2) -0.0018(2)
 O002 0.0130(3) 0.0167(3) 0.0065(2) 0.0015(2) -0.0005(2) 0.0024(2)
 O003 0.0076(3) 0.0157(3) 0.0124(3) -0.0010(2) -0.0004(2) -0.0032(2)
 O004 0.0129(3) 0.0197(3) 0.0097(3) 0.0053(2) 0.0009(2) -0.0003(2)
 N005 0.0090(3) 0.0099(3) 0.0082(3) -0.0017(2) -0.0005(2) 0.0001(2)
 C006 0.0078(3) 0.0084(3) 0.0075(3) -0.0001(2) -0.0009(2) -0.0007(2)
 C007 0.0109(3) 0.0090(3) 0.0078(3) -0.0006(3) 0.0003(3) 0.0004(2)
 C008 0.0116(3) 0.0141(3) 0.0073(3) 0.0039(3) 0.0012(3) 0.0008(3)
 C009 0.0075(3) 0.0091(3) 0.0065(3) -0.0010(2) 0.0004(2) -0.0007(2)
 C00A 0.0149(4) 0.0087(3) 0.0073(3) -0.0001(3) -0.0001(3) -0.0000(2)

loop_
  _geom_bond_atom_site_label_1
  _geom_bond_atom_site_label_2
  _geom_bond_distance
  _geom_bond_site_symmetry_2
  _geom_bond_publ_flag
 O001 C006 1.2637(11) . ?
 O002 C007 1.3151(11) . ?
 O002 H002 0.857(19) . ?
 O003 C006 1.2521(13) . ?
 O004 C007 1.2252(12) . ?
 N005 C009 1.4918(12) . ?
 N005 H00a 0.918(17) . ?
 N005 H00b 0.909(16) . ?
 N005 H00c 0.897(16) . ?
 C006 C009 1.5324(13) . ?
 C007 C008 1.5047(13) . ?
 C008 C00A 1.5280(13) . ?
 C008 H00d 0.962(16) . ?
 C008 H00e 0.995(15) . ?
 C009 C00A 1.5301(13) . ?
 C009 H009 0.929(16) . ?
 C00A H00f 1.014(17) . ?
 C00A H00g 0.969(15) . ?

loop_
  _geom_angle_atom_site_label_1
  _geom_angle_atom_site_label_2
  _geom_angle_atom_site_label_3
  _geom_angle
  _geom_angle_site_symmetry_1
  _geom_angle_site_symmetry_3
  _geom_angle_publ_flag
 H002 O002 C007 111.8(12) . . ?
 H00a N005 C009 110.2(11) . . ?
 H00b N005 C009 111.8(10) . . ?
 H00b N005 H00a 108.0(15) . . ?
 H00c N005 C009 111.3(10) . . ?
 H00c N005 H00a 105.1(15) . . ?
 H00c N005 H00b 110.2(13) . . ?
 O003 C006 O001 126.13(8) . . ?
 C009 C006 O001 115.63(7) . . ?
 C009 C006 O003 118.14(7) . . ?
 O004 C007 O002 124.25(8) . . ?
 C008 C007 O002 111.79(8) . . ?
 C008 C007 O004 123.96(8) . . ?
 C00A C008 C007 115.52(8) . . ?
 H00d C008 C007 108.2(9) . . ?
 H00d C008 C00A 108.4(10) . . ?
 H00e C008 C007 105.0(8) . . ?
 H00e C008 C00A 112.8(8) . . ?
 H00e C008 H00d 106.3(13) . . ?
 C006 C009 N005 109.40(6) . . ?
 C00A C009 N005 111.40(7) . . ?
 C00A C009 C006 106.86(6) . . ?
 H009 C009 N005 105.4(10) . . ?
 H009 C009 C006 112.8(9) . . ?
 H009 C009 C00A 111.0(10) . . ?
 C009 C00A C008 117.28(7) . . ?
 H00f C00A C008 108.9(9) . . ?
 H00f C00A C009 105.7(10) . . ?
 H00g C00A C008 107.4(9) . . ?
 H00g C00A C009 111.0(9) . . ?
 H00g C00A H00f 106.0(13) . . ?

loop_
  _geom_torsion_atom_site_label_1
  _geom_torsion_atom_site_label_2
  _geom_torsion_atom_site_label_3
  _geom_torsion_atom_site_label_4
  _geom_torsion
  _geom_torsion_site_symmetry_1
  _geom_torsion_site_symmetry_2
  _geom_torsion_site_symmetry_3
  _geom_torsion_site_symmetry_4
  _geom_torsion_publ_flag
 O001 C006 C009 N005 -42.50(8) . . . . ?
 O001 C006 C009 C00A 78.22(8) . . . . ?
 O002 C007 C008 C00A -161.29(7) . . . . ?
 O003 C006 C009 N005 140.95(8) . . . . ?
 O003 C006 C009 C00A -98.32(9) . . . . ?
 O004 C007 C008 C00A 18.49(10) . . . . ?
 N005 C009 C00A C008 -51.93(8) . . . . ?
 C006 C009 C00A C008 -171.37(7) . . . . ?
 C007 C008 C00A C009 -72.72(8) . . . . ?

loop_
  _diffrn_refln_index_h
  _diffrn_refln_index_k
  _diffrn_refln_index_l
  _diffrn_refln_intensity_net
  _diffrn_refln_intensity_u
 -3 -10 -12 12.22 6.46
 -3 -10 -11 47.7 8.5
 -3 -10 -10 6.36 5.67
 -3 -10 -9 10.64 5.57
 -2 -10 -14 31.91 8.23
 -2 -10 -13 -0.99 5.13
 -2 -10 -12 1.97 5.34
 -2 -10 -10 62.99 8.53
 -2 -10 -9 37.34 6.89
 -2 -9 -17 37.33 8.66
 -2 -9 -15 7.28 5.74
 -2 -9 -14 29.67 8.33
 -2 -9 -13 26.29 7.47
 -2 -9 -12 55.65 8.48
 -2 -9 -9 157.58 10.93
 -2 -9 -8 20.65 5.34
 -2 -9 -7 15.01 5.45
 -2 -9 -6 6.58 4.07
 -2 -9 -5 44.91 6.32
 -2 -8 -2 62.84 5.17
 -2 -5 5 80.68 2.81
 -2 -4 6 286.52 4.21
 -2 -3 7 15.89 1.39
 -1 -11 -11 9.63 6.51
 -1 -11 -10 108.48 10.85
 -1 -10 -15 17.94 7.6
 -1 -10 -14 -3.94 5.26
 -1 -10 -13 23.87 7.25
 -1 -10 -12 -1.36 5.21
 -1 -10 -11 41.32 8.41
 -1 -10 -10 47.93 7.89
 -1 -10 -9 96.05 9.59
 -1 -10 -8 10.32 5.79
 -1 -10 -7 45.02 7.21
 -1 -10 -6 0.04 2.99
 -1 -10 -5 -3.96 2.75
 -1 -9 -18 1.62 6.25
 -1 -9 -17 44.14 9.55
 -1 -9 -16 -7.89 4.63
 -1 -9 -14 4.73 6.29
 -1 -9 -13 109.58 10.85
 -1 -9 -12 -8.16 5.15
 -1 -9 -10 43.4 7.17
 -1 -9 -9 72.02 8.55
 -1 -9 -8 67.38 8.2
 -1 -9 -6 15.13 4.72
 -1 -9 -5 52.57 6.43
 -1 -9 -4 99.41 7.26
 -1 -8 -20 16.12 7.52
 -1 -8 -19 102.47 11.61
 -1 -8 -18 17.34 8.61
 -1 -8 -17 22.5 6.85
 -1 -8 -16 27.32 7.76
 -1 -8 -14 73.17 9.83
 -1 -8 -12 33.84 6.93
 -1 -8 -11 20.88 6.41
 -1 -8 -10 4.76 5.02
 -1 -8 -8 47.77 6.63
 -1 -8 -7 96.56 7.77
 -1 -8 -6 24.06 4.82
 -1 -8 -5 87.55 6.72
 -1 -8 -4 59.47 5.94
 -1 -8 -3 100.78 6.51
 -1 -8 -2 152.59 7.51
 -1 -7 -22 9.09 6.85
 -1 -7 -21 13.31 7.21
 -1 -7 -20 52.79 9.11
 -1 -7 -19 15.05 6.42
 -1 -7 -18 51.51 9.08
 -1 -7 -4 10.93 3.77
 -1 -7 0 57.19 4.25
 -1 -7 2 36.45 2.99
 -1 -6 -24 83.61 11.31
 -1 -6 -23 15.01 7.56
 -1 -6 0 462.59 9.72
 -1 -6 3 240.96 5.55
 -1 -6 4 251.75 4.98
 -1 -5 -25 10.87 8
 -1 -5 -24 124.99 12.44
 -1 -5 3 300.84 5.42
 -1 -5 4 31.65 1.71
 -1 -4 -27 21.29 9.12
 -1 -4 -26 0.84 5.79
 -1 -4 4 318.18 3.83
 -1 -3 -28 73.69 10.4
 -1 -3 -27 69.7 10.06
 -1 -2 -29 110.03 11.18
 -1 -2 -28 65.43 9.25
 -1 -2 -27 48.5 8.33
 -1 -2 4 299.77 3.49
 -1 -1 -29 17.48 6.15
 -1 -1 -28 51.83 8.09
 -1 -1 2 1017.3 8.34
 -1 -1 4 17.33 1.49
 -1 -1 5 2196.04 11.65
 -1 0 -27 159.77 10.92
 -1 0 1 376.11 5.95
 -1 0 2 590.05 7
 0 -11 -11 10.56 6.26
 0 -11 -10 21.01 7.66
 0 -11 -9 -4.44 5.58
 0 -10 -14 47.44 9.5
 0 -10 -13 41.15 9.26
 0 -10 -12 8.75 6.36
 0 -10 -11 20.94 7.31
 0 -10 -10 17.75 6.71
 0 -10 -9 7.67 5.4
 0 -10 -8 14.76 5.81
 0 -10 -7 7.43 5.03
 0 -10 -6 2.29 4.87
 0 -10 -5 3.56 4.01
 0 -9 -18 5.56 6.96
 0 -9 -17 136.6 13.25
 0 -9 -16 4.39 7.65
 0 -9 -15 29.41 8.47
 0 -9 -14 36.02 8.82
 0 -9 -13 6.5 6.82
 0 -9 -12 -2.66 4.83
 0 -9 -11 20.41 6.26
 0 -9 -10 11.91 5.81
 0 -9 -8 107.96 9.63
 0 -9 -7 5.83 5.34
 0 -9 -6 9.37 4.48
 0 -9 -5 0.88 4.14
 0 -9 -4 42.34 6.37
 0 -9 -3 8.16 4.09
 0 -9 -2 27.86 4.89
 0 -8 -21 -10.73 5.82
 0 -8 -20 71.54 10.99
 0 -8 -17 39.73 9.19
 0 -8 -16 3.07 6.35
 0 -8 -15 84.51 10.03
 0 -8 -13 212.52 12.62
 0 -8 -10 4.7 4.48
 0 -8 -9 16.28 5.48
 0 -8 -8 33.89 5.97
 0 -8 -7 157.48 9.57
 0 -8 -6 16.95 5.09
 0 -8 -3 79.45 6.52
 0 -8 -2 4.11 3.15
 0 -7 -23 6.23 6.85
 0 -7 -22 112.67 12.8
 0 -7 -21 62.11 10.85
 0 -7 -20 66.87 10.3
 0 -7 -19 206.5 13.65
 0 -7 -18 146.73 12.79
 0 -7 -17 162.3 12.04
 0 -7 -16 11.14 6.62
 0 -7 -15 9.68 5.43
 0 -7 -14 40.26 7.35
 0 -7 -13 63.19 8.08
 0 -7 -12 0.22 3.91
 0 -7 -11 139.08 9.52
 0 -7 -10 253.18 11.84
 0 -7 -9 5.15 4.75
 0 -7 -7 65.33 6.08
 0 -7 -6 12.88 3.88
 0 -7 -5 132.07 7.99
 0 -7 1 102.52 5.5
 0 -7 3 17.07 2.54
 0 -6 -24 8.33 7.7
 0 -6 -23 4.19 6.93
 0 -6 -22 -1.38 6.27
 0 -6 -21 26.96 8.32
 0 -6 -20 17.27 7.67
 0 -6 -19 52.89 8.5
 0 -6 -18 55.57 8.26
 0 -6 -17 21.21 6.44
 0 -6 -16 5.52 4.82
 0 -6 -14 4.67 4.22
 0 -6 -13 -0.01 3.77
 0 -6 -12 26.82 6.04
 0 -6 -11 5.61 4.55
 0 -6 -10 7.01 4.21
 0 -6 -9 297.19 11.43
 0 -6 -8 9.45 3.96
 0 -6 -1 470.19 10.79
 0 -6 0 460.53 10.24
 0 -6 1 465.39 9.87
 0 -6 4 340.86 7.08
 0 -5 -26 43.67 10.39
 0 -5 -25 48.2 9.65
 0 -5 -24 11.84 6.7
 0 -5 -23 34.91 8.06
 0 -5 -22 53.67 8.93
 0 -5 -21 10.43 6.04
 0 -5 -20 45.44 8.36
 0 -5 -19 23.46 6.23
 0 -5 -18 311.09 14.51
 0 -5 -4 92.32 5.65
 0 -5 -2 2.88 1.94
 0 -5 -1 311.35 7.93
 0 -5 1 321.65 7.35
 0 -5 4 88.39 3.38
 0 -4 -27 24.23 8.42
 0 -4 -26 122.2 11.49
 0 -4 -24 1.82 5.45
 0 -4 -23 49.58 8.5
 0 -4 -22 5.18 5.59
 0 -4 -21 26.07 7.4
 0 -4 -20 109.13 10.27
 0 -4 -2 1890.57 18.16
 0 -4 -1 1121.03 13.28
 0 -4 0 166.39 5.04
 0 -4 1 1111.75 11.72
 0 -4 4 164.85 3.75
 0 -3 -28 81.43 10.81
 0 -3 -27 -3.21 6.14
 0 -3 -26 4.01 5.8
 0 -3 -25 0.68 5.37
 0 -3 -23 387.75 16.94
 0 -3 -22 21.82 5.91
 0 -3 3 1398.34 9.29
 0 -2 -29 11.13 6.8
 0 -2 -28 89.39 10.16
 0 -2 -27 166.73 12.1
 0 -2 -26 31.19 7.33
 0 -2 -25 49.8 8.33
 0 -2 -24 55.48 7.89
 0 -2 -23 35.68 7.15
 0 -2 -22 29.37 5.94
 0 -1 -28 11.87 6.27
 0 -1 -27 22.09 6.81
 0 -1 -25 20.35 5.73
 0 -1 -24 0.69 3.82
 0 -1 -23 82.82 8.29
 0 0 -26 51.42 6.91
 0 0 -24 7.24 4.04
 0 0 -22 381.51 13.42
 0 1 -24 -1.57 3.36
 0 1 -23 71.18 6.53
 0 1 -21 0.14 2.68
 0 2 -22 23.97 4.16
 0 3 -18 0.89 1.72
 0 3 -17 56.62 3.44
 0 3 -16 160.21 4.96
 0 3 -9 355.39 4.16
 1 -11 -10 87.06 11.41
 1 -11 -9 9.65 6.86
 1 -11 -8 29.99 8.07
 1 -11 -7 33.4 7.15
 1 -10 -14 -2.48 6
 1 -10 -13 21.02 7.67
 1 -10 -12 4.25 6.5
 1 -10 -11 44.77 9.51
 1 -10 -10 36.1 8.44
 1 -10 -9 101.27 10.85
 1 -10 -7 31.89 7.59
 1 -10 -6 3.18 4.98
 1 -10 -5 85.15 8.73
 1 -10 -4 8.81 4.42
 1 -9 -18 -5.91 6.87
 1 -9 -17 66.48 11.94
 1 -9 -16 -2.66 7.64
 1 -9 -15 4.17 8
 1 -9 -14 2.34 6.5
 1 -9 -12 0.22 6.29
 1 -9 -11 29.48 7.06
 1 -9 -10 40.63 8.23
 1 -9 -9 54.72 8.8
 1 -9 -8 77.48 9.81
 1 -9 -7 89.73 8.9
 1 -9 -6 9.85 5.57
 1 -9 -5 69.57 7.93
 1 -9 -4 118.51 9.02
 1 -9 -3 27.69 5.85
 1 -9 -2 52.72 6.83
 1 -9 -1 5.15 3.35
 1 -9 0 -1.4 2.1
 1 -8 -20 9.49 7.35
 1 -8 -18 10.64 7.02
 1 -8 -17 18.64 7.38
 1 -8 -16 23.73 7.42
 1 -8 -15 25.07 6.95
 1 -8 -14 66.25 9.02
 1 -8 -13 63.21 8.61
 1 -8 -12 35.7 7.76
 1 -8 -11 22.77 6.32
 1 -8 -10 6.69 6.29
 1 -8 -9 154.39 11.37
 1 -8 -8 44.77 7.34
 1 -8 -7 93.06 8.75
 1 -8 -6 22.49 5.14
 1 -8 -4 71.44 7.38
 1 -8 -3 105.17 7.56
 1 -8 -2 154.37 8.87
 1 -8 -1 18.16 4.18
 1 -8 0 2.36 2.92
 1 -8 1 18.67 3.96
 1 -7 -22 9.8 7.62
 1 -7 -21 5.33 8.2
 1 -7 -20 39.38 8.37
 1 -7 -19 3.65 7.5
 1 -7 -18 59.31 9.35
 1 -7 -17 26.15 7.36
 1 -7 -16 17.22 7.69
 1 -7 -15 129.6 11.57
 1 -7 -14 271.88 14.69
 1 -7 -13 102.21 10.24
 1 -7 -12 216.41 12.35
 1 -7 -11 78.62 8.4
 1 -7 -10 82.22 8.28
 1 -7 -9 4.04 4.94
 1 -7 -8 32.25 6.46
 1 -7 -7 71.15 7.68
 1 -7 -6 21.87 4.78
 1 -7 -5 184.28 9.81
 1 -7 -4 16.21 4.88
 1 -7 -3 10.07 3.6
 1 -7 2 35.76 4.42
 1 -7 3 14.69 3.26
 1 -6 -24 66.62 11.96
 1 -6 -23 9 8.33
 1 -6 -22 2.41 6.37
 1 -6 -21 12.34 6.77
 1 -6 -20 70.08 10.71
 1 -6 -19 6.19 5.79
 1 -6 -18 50.05 8.44
 1 -6 -16 3.82 5.52
 1 -6 -15 32.97 7.2
 1 -6 -14 30.59 6.44
 1 -6 -13 52.65 7.45
 1 -6 -12 44.07 7.15
 1 -6 -11 189.03 10.4
 1 -6 -10 9.76 4.31
 1 -6 -9 56.07 6.1
 1 -6 -8 156.7 8.71
 1 -6 -7 243.68 10.4
 1 -6 -6 89.99 6.95
 1 -6 -5 60.22 5.5
 1 -6 -1 116.54 6.8
 1 -6 0 464.96 11.79
 1 -6 1 119.4 6.15
 1 -6 3 242.11 7.97
 1 -5 -26 0.82 6.47
 1 -5 -24 130.27 12.87
 1 -5 -23 142.91 12.81
 1 -5 -21 56 8.77
 1 -5 -20 1.26 4.93
 1 -5 -19 91.47 10.38
 1 -5 -18 4.3 4.78
 1 -5 -17 13.47 6.07
 1 -5 -16 129.69 9.47
 1 -5 -14 232.05 12.15
 1 -5 -13 29.26 6
 1 -5 -11 151.12 8.79
 1 -5 -10 78.52 6.89
 1 -5 -9 491.96 14.11
 1 -5 -8 173.15 8.71
 1 -5 -2 123.85 6.5
 1 -5 0 80.04 5.17
 1 -5 1 302.94 8.58
 1 -5 2 133.77 5.83
 1 -5 3 305.77 8.15
 1 -4 -27 17.81 7.66
 1 -4 -26 6.68 6.5
 1 -4 -25 63.66 10.65
 1 -4 -24 27.56 8.12
 1 -4 -23 3 5.68
 1 -4 -22 34.73 7.9
 1 -4 -21 16.21 6.45
 1 -4 -19 11.71 5.21
 1 -4 -18 117.23 9.15
 1 -4 -17 41.76 7.06
 1 -4 -15 178.47 10.32
 1 -4 -14 234.49 11.13
 1 -4 -13 29.25 4.82
 1 -4 -12 6.52 3.35
 1 -4 -11 341.9 11.89
 1 -4 -6 807.61 15.18
 1 -4 -5 13.93 3.23
 1 -4 -4 315.11 9.17
 1 -4 -3 855.53 14.33
 1 -4 -2 246.92 7.71
 1 -4 -1 396.81 9.32
 1 -4 0 1466.07 17.15
 1 -4 1 406.79 8.9
 1 -4 2 242.07 6.86
 1 -4 3 855.38 12.33
 1 -3 -28 69.12 10.23
 1 -3 -27 57.46 10.18
 1 -3 -26 177.94 13.33
 1 -3 -25 8.32 5.95
 1 -3 -24 12.9 6.67
 1 -3 -23 14.47 6.93
 1 -3 -22 123.58 10.63
 1 -3 -19 54.33 7.6
 1 -3 -18 70 7.56
 1 -3 -17 101.66 8.01
 1 -3 -16 629.88 17.31
 1 -3 -15 39.16 5.51
 1 -3 -14 25.36 4.74
 1 -3 -13 355.23 12.12
 1 -3 -9 921.91 16.5
 1 -3 -8 70.61 4.89
 1 -3 -7 40.62 4.11
 1 -3 -6 61.79 4.55
 1 -3 -4 925.16 13.79
 1 -3 -3 366.57 8.6
 1 -3 -1 1303.81 14.87
 1 -3 0 122.01 4.79
 1 -3 1 1352.72 14.48
 1 -3 3 358.83 7.51
 1 -2 -29 120.22 11.56
 1 -2 -28 58.91 9.67
 1 -2 -27 75.7 9.55
 1 -2 -26 1.78 5.27
 1 -2 -25 5.29 5.29
 1 -2 -24 17.18 6.8
 1 -2 -23 115.42 10.08
 1 -2 -22 23.67 5.7
 1 -2 -21 39.73 6.3
 1 -2 -20 150.81 9.36
 1 -2 -19 11.58 4.3
 1 -2 -18 -3.3 2.86
 1 -2 -17 38.19 6.11
 1 -2 -16 4.1 3.54
 1 -2 -11 177.31 7.6
 1 -2 -9 607.42 12.35
 1 -2 -8 128.02 5.68
 1 -2 -7 926.77 13.93
 1 -2 -6 1396.57 16.3
 1 -2 -5 105.37 4.74
 1 -2 -4 288.35 7.13
 1 -2 -2 291.95 6.62
 1 -2 0 9282.82 33.92
 1 -2 1 638.34 9.21
 1 -2 2 290.23 6.24
 1 -1 -27 7.35 4.92
 1 -1 -26 105.11 9.86
 1 -1 -25 27.12 6.15
 1 -1 -24 7.34 5.52
 1 -1 -23 85.95 8.1
 1 -1 -22 325.68 13.43
 1 -1 -21 119.72 8.83
 1 -1 -20 70.88 7.17
 1 -1 -19 12.05 4.39
 1 -1 -18 82.17 6.95
 1 -1 -16 99.37 6.77
 1 -1 -13 13.4 3.49
 1 -1 -12 645.29 13.11
 1 -1 -11 159.32 6.62
 1 -1 -10 496.12 10.68
 1 -1 -9 631.89 11.44
 1 -1 -8 188.61 6.26
 1 -1 -7 929.51 12.46
 1 -1 -6 1655.73 15.8
 1 -1 -5 2229.01 17.38
 1 -1 -4 17.08 2.2
 1 -1 -3 303.49 6.2
 1 -1 -2 975.4 10.41
 1 -1 -1 2497.62 16.16
 1 -1 0 5562.3 23.9
 1 0 -26 19.99 5.47
 1 0 -25 113.81 8.88
 1 0 -24 0.68 4.46
 1 0 -23 11.05 4.19
 1 0 -22 60.2 6.67
 1 0 -21 26.48 5.15
 1 0 -20 3.37 3.1
 1 0 -18 -0.69 2.38
 1 0 -15 253.76 8.81
 1 0 -13 34.92 3.62
 1 0 -12 277.36 7.93
 1 0 -11 103.56 4.8
 1 0 -10 1254.37 14.94
 1 0 -9 87.42 4.33
 1 0 -7 3125.58 19.99
 1 0 -6 6115.75 26.48
 1 0 -5 1113.4 10.77
 1 0 -4 345.77 5.91
 1 0 -3 917.32 9.11
 1 0 -2 591.4 7.17
 1 0 -1 360.61 5.88
 1 1 -23 96.74 7.11
 1 1 -21 106.03 6.97
 1 1 -20 62.66 5.65
 1 1 -17 132.8 6.53
 1 1 -16 115.55 5.82
 1 1 -15 758.45 13.21
 1 1 -14 86.18 4.74
 1 1 -12 649.85 10.6
 1 1 -10 495.42 8.34
 1 1 -9 638.06 8.89
 1 1 -8 182.75 4.61
 1 1 -7 924.6 9.41
 1 1 -6 1586.09 11.52
 1 1 -4 13.72 1.55
 1 2 -20 147.92 6.77
 1 2 -19 10.48 2.83
 1 2 -18 0.04 2.14
 1 2 -17 35.27 3.6
 1 2 -16 5.03 2.08
 1 2 -15 249.94 6.82
 1 2 -13 304.16 6.74
 1 2 -12 238.29 5.63
 1 2 -11 177.52 4.59
 1 2 -10 270.16 5.19
 1 2 -9 581.91 6.94
 1 2 -7 876.21 7
 1 3 -17 99.22 3.9
 1 3 -16 656.27 8.77
 1 3 -15 35.42 2.36
 1 3 -14 16.36 1.71
 1 3 -13 361.75 4.96
 2 -11 -9 13.83 7.27
 2 -11 -8 18.97 7.38
 2 -11 -6 88.67 11.23
 2 -10 -13 -3.56 6.96
 2 -10 -12 11.59 7.13
 2 -10 -11 40.69 9.55
 2 -10 -10 60.63 10.7
 2 -10 -9 31.81 8.9
 2 -10 -8 63.03 9.64
 2 -10 -7 42.81 8.64
 2 -10 -6 92.62 10.35
 2 -10 -5 60.75 9.15
 2 -10 -4 25.25 6.74
 2 -10 -3 41.59 6.85
 2 -10 -1 -4.17 3.22
 2 -9 -17 44.94 10.74
 2 -9 -16 34.34 9.5
 2 -9 -15 5.11 7.15
 2 -9 -14 27.59 8.66
 2 -9 -13 36.52 9.46
 2 -9 -12 52.82 9.73
 2 -9 -11 34.78 7.96
 2 -9 -10 45.85 8.92
 2 -9 -9 137.55 12.12
 2 -9 -8 26.91 6.95
 2 -9 -6 2.02 5.09
 2 -9 -5 50.18 8.33
 2 -9 -4 20.31 6.55
 2 -9 -3 30.27 6.19
 2 -9 -2 105.9 9.29
 2 -9 -1 97.59 8.55
 2 -9 0 62.89 7.03
 2 -8 -19 16.56 8.44
 2 -8 -18 6.92 7.77
 2 -8 -17 165.42 14.82
 2 -8 -16 22.32 8.82
 2 -8 -15 4.08 6.54
 2 -8 -14 18.82 7.16
 2 -8 -13 44.25 9.17
 2 -8 -12 53.83 8.9
 2 -8 -11 96.73 10.98
 2 -8 -10 28.63 7.45
 2 -8 -9 45.93 8.17
 2 -8 -7 40.14 7.22
 2 -8 -6 4.6 4.79
 2 -8 -5 25.43 5.98
 2 -8 -4 17.68 5.12
 2 -8 -3 298.18 13.44
 2 -8 -2 61.78 6.81
 2 -8 -1 35.87 6.06
 2 -8 1 31.92 5.36
 2 -8 2 58.23 6.2
 2 -7 -22 10.79 9.53
 2 -7 -20 32.73 10.16
 2 -7 -19 29.09 8.87
 2 -7 -18 143.65 12.51
 2 -7 -17 88.06 10.68
 2 -7 -16 12.03 6.53
 2 -7 -15 72.36 9.7
 2 -7 -14 8.38 5.78
 2 -7 -13 79.34 10.46
 2 -7 -12 24.49 6.6
 2 -7 -11 47.14 8.28
 2 -7 -8 32.22 6.95
 2 -7 -6 1.86 3.96
 2 -7 -5 132.9 9.11
 2 -7 -3 10.21 4.92
 2 -7 -2 38.12 5.94
 2 -7 -1 85.24 7.35
 2 -7 0 0.04 4.08
 2 -7 1 83.26 7.05
 2 -7 2 26.95 4.73
 2 -6 -23 135.8 14.31
 2 -6 -22 43.67 10.1
 2 -6 -21 66.96 10.4
 2 -6 -20 23.34 9.12
 2 -6 -18 3.32 5.86
 2 -6 -17 64.91 9.42
 2 -6 -16 1.06 5.46
 2 -6 -15 110.48 10.87
 2 -6 -13 21 5.9
 2 -6 -12 120.5 10.43
 2 -6 -11 32.6 6.1
 2 -6 -10 90.27 8.07
 2 -6 -8 5.85 3.93
 2 -6 -7 106.68 8.54
 2 -6 -6 73.52 6.91
 2 -6 -5 100.39 7.67
 2 -6 -3 332.3 12.28
 2 -5 -25 12.67 8.59
 2 -5 -24 -6.52 6.11
 2 -5 -23 10.96 7.12
 2 -5 -22 13.55 7.21
 2 -5 -21 7.59 7.37
 2 -5 -20 40.45 8.31
 2 -5 -18 81.6 9.99
 2 -5 -16 11.66 5.15
 2 -5 -15 37.45 6.77
 2 -5 -14 -0.98 3.93
 2 -5 -11 7.81 4.35
 2 -5 -10 35.29 5.55
 2 -5 -9 150.2 8.94
 2 -5 -8 29.06 5.06
 2 -5 -6 68.85 6.35
 2 -5 -5 85.22 6.73
 2 -5 0 50.8 5.27
 2 -5 1 131.61 7.42
 2 -4 -26 -2.29 6.03
 2 -4 -25 6.7 6.48
 2 -4 -24 49.26 9.45
 2 -4 -23 92.61 11.01
 2 -4 -22 50.26 9.05
 2 -4 -21 188.52 13.57
 2 -4 -20 74.39 8.82
 2 -4 -19 31.85 7.75
 2 -4 -16 32.52 6.21
 2 -4 -15 96.8 8.89
 2 -4 -13 143.8 9.05
 2 -4 -12 29.62 5.72
 2 -4 -11 84.98 6.99
 2 -4 -10 12.78 3.84
 2 -4 -9 2.73 2.94
 2 -4 -2 137.25 6.97
 2 -4 -1 284.7 9.4
 2 -4 1 288.33 9.31
 2 -4 2 147.67 6.94
 2 -3 -28 22.76 9.05
 2 -3 -26 34.94 8.04
 2 -3 -25 6.45 6.16
 2 -3 -24 1.27 5.4
 2 -3 -23 39.18 7.73
 2 -3 -22 94.32 9.78
 2 -3 -20 197.89 12.5
 2 -3 -19 26.31 6.19
 2 -3 -18 39.78 6.61
 2 -3 -17 88.52 8.81
 2 -3 -13 196.53 10.15
 2 -3 -12 21.76 4.18
 2 -3 -7 14.61 3.65
 2 -3 -6 504.13 12.83
 2 -3 -3 144.41 6.62
 2 -3 -2 226.68 7.98
 2 -3 -1 983.17 15.96
 2 -3 0 1054.99 16.43
 2 -3 1 981.71 15.75
 2 -2 -27 22.75 7.27
 2 -2 -26 54.76 8.76
 2 -2 -24 15.16 7.06
 2 -2 -23 13.55 6.99
 2 -2 -22 6.88 5.28
 2 -2 -21 256.33 12.97
 2 -2 -20 17.3 5.3
 2 -2 -19 12.46 5.01
 2 -2 -18 -1.08 3.47
 2 -2 -17 181.93 9.98
 2 -2 -16 51.99 6.94
 2 -2 -14 49.43 5.81
 2 -2 -13 55.88 5.24
 2 -2 -9 307.54 10.19
 2 -2 -8 401.97 10.93
 2 -2 -6 945.79 16.05
 2 -2 -5 77.12 4.97
 2 -2 -4 299.72 9
 2 -2 -3 519.57 11.26
 2 -2 -1 632.57 12.45
 2 -2 0 8.83 2.57
 2 -1 -25 3.6 5.79
 2 -1 -24 57.41 8.56
 2 -1 -23 26.55 6.53
 2 -1 -22 164.49 10.76
 2 -1 -21 84.57 8.35
 2 -1 -19 4.28 3.68
 2 -1 -18 130.58 8.57
 2 -1 -17 25.44 4.94
 2 -1 -16 11.82 3.81
 2 -1 -15 17.24 3.86
 2 -1 -11 9.33 3.2
 2 -1 -10 198.85 8.1
 2 -1 -8 42.8 3.86
 2 -1 -7 110.42 5.92
 2 -1 -6 1331.24 17.4
 2 -1 -5 353.75 8.89
 2 -1 -4 130.48 5.61
 2 -1 -3 276.32 8.09
 2 -1 -2 480.79 10.18
 2 -1 -1 47.93 4.32
 2 0 -25 2.84 4.82
 2 0 -24 25.22 6.19
 2 0 -23 73.53 7.82
 2 0 -21 12.79 4.96
 2 0 -20 58.39 6.36
 2 0 -19 -0.26 3.14
 2 0 -18 20.31 4.26
 2 0 -14 4.39 2.83
 2 0 -13 8.87 3.34
 2 0 -12 509.46 11.95
 2 0 -11 3 2.37
 2 0 -10 109.13 5.68
 2 0 -9 28.61 3.71
 2 0 -8 753.66 12.61
 2 0 -7 2.39 1.85
 2 0 -6 1030.98 14.13
 2 0 -5 93.27 4.61
 2 0 -4 223.06 6.79
 2 0 -3 1287 15.27
 2 1 -22 160.02 8.85
 2 1 -21 96.72 7.02
 2 1 -20 117.5 7.43
 2 1 -16 13.44 3.53
 2 1 -15 25.65 4.05
 2 1 -14 197.29 7.54
 2 1 -13 98.23 5.53
 2 1 -12 156.24 6.35
 2 1 -11 7.3 2.47
 2 1 -9 436.27 9.2
 2 1 -8 49.93 3.78
 2 1 -7 99.86 4.61
 2 1 -6 1300.23 14.61
 2 2 -19 19.17 3.64
 2 2 -18 3.01 2.79
 2 2 -17 165.12 6.75
 2 2 -16 66.6 4.58
 2 2 -15 92.85 4.92
 2 2 -14 51.25 3.92
 2 2 -13 59.46 3.97
 2 2 -12 214.96 6.43
 2 2 -11 83.89 4.23
 3 -11 -6 2.65 6.65
 3 -10 -11 75.21 11.73
 3 -10 -8 5.41 7.01
 3 -10 -7 14.62 8.55
 3 -10 -5 18.27 7.01
 3 -10 -4 150.68 12.35
 3 -10 -3 2.95 5.18
 3 -9 -15 7.3 8.56
 3 -9 -14 2.18 6.68
 3 -9 -13 75.62 11.87
 3 -9 -12 32.89 9.04
 3 -9 -11 83.77 11.76
 3 -9 -10 19.02 8.9
 3 -9 -9 3.16 6.95
 3 -9 -8 63.05 9.82
 3 -9 -7 35.03 8.62
 3 -9 -6 34.66 7.94
 3 -9 -5 45 9.27
 3 -9 -4 25.92 7.77
 3 -9 -3 47.25 8.54
 3 -9 -2 34.06 6.98
 3 -9 -1 107.77 10.42
 3 -8 -18 7.05 8.74
 3 -8 -17 75.49 12.98
 3 -8 -16 10.88 9.2
 3 -8 -15 93.04 12.38
 3 -8 -14 3.27 6.42
 3 -8 -13 48.01 10.38
 3 -8 -12 6.78 6.57
 3 -8 -11 58.73 9.45
 3 -8 -10 45.83 8.77
 3 -8 -9 53.57 8.94
 3 -8 -7 69.27 10.31
 3 -8 -6 98.81 9.81
 3 -8 -5 27.66 6.99
 3 -8 -3 132.71 10.58
 3 -8 -2 15.01 5.71
 3 -8 -1 1.73 4.34
 3 -8 0 44.28 7.28
 3 -7 -20 19.5 10.42
 3 -7 -18 1.06 6.81
 3 -7 -17 0.16 6.65
 3 -7 -16 68.46 11.33
 3 -7 -15 18.67 8.58
 3 -7 -14 2.91 5.97
 3 -7 -13 29.26 8.47
 3 -7 -12 2.41 5.55
 3 -7 -11 39.17 7.91
 3 -7 -10 23.02 7.35
 3 -7 -9 63.67 9.39
 3 -7 -8 23.37 6.3
 3 -7 -6 45.45 7.37
 3 -7 -5 100.03 9.85
 3 -7 -4 7.11 5.42
 3 -7 -3 215.04 11.98
 3 -7 -2 61.12 8.05
 3 -7 -1 112.68 8.82
 3 -7 0 18.02 5.16
 3 -6 -21 1.51 7.65
 3 -6 -20 45.18 9.64
 3 -6 -19 24.66 8.18
 3 -6 -18 12.48 7.71
 3 -6 -17 83.27 11.47
 3 -6 -16 1.2 6.01
 3 -6 -15 144.77 12.13
 3 -6 -14 41.32 8.33
 3 -6 -12 102.04 10.51
 3 -6 -11 15.02 5.69
 3 -6 -10 24.28 6.17
 3 -6 -9 34.55 6.63
 3 -6 -8 297.51 14.21
 3 -6 -6 114.14 9.91
 3 -6 -5 36.27 6.2
 3 -6 -4 45.73 6.92
 3 -6 -3 349.12 14.38
 3 -6 -2 36.49 6.19
 3 -5 -23 49.19 11.26
 3 -5 -22 99.9 12.32
 3 -5 -21 8.19 7.8
 3 -5 -20 221.86 15.07
 3 -5 -17 12.43 7.67
 3 -5 -16 15.75 7.01
 3 -5 -15 55.22 8.29
 3 -5 -13 14.88 6.14
 3 -5 -12 202.86 12.31
 3 -5 -11 30.95 6.13
 3 -5 -10 155.1 10.41
 3 -5 -9 49.08 6.78
 3 -5 -8 310.71 13.82
 3 -5 -7 56.07 6.76
 3 -5 -6 101.64 8.69
 3 -5 -5 159.4 10.03
 3 -5 -4 4.64 3.79
 3 -5 0 36.41 5.53
 3 -4 -25 9.8 8.9
 3 -4 -24 5.78 7.09
 3 -4 -23 75.98 11.18
 3 -4 -22 21.17 8.91
 3 -4 -21 77.6 10.17
 3 -4 -20 53.86 9.82
 3 -4 -19 24.91 7.49
 3 -4 -18 63.11 8.82
 3 -4 -16 8.97 5.38
 3 -4 -14 79.5 8.79
 3 -4 -13 24.94 5.86
 3 -4 -12 193.51 11.13
 3 -4 -11 47.46 6.78
 3 -4 -10 184.25 10.73
 3 -4 -9 4.97 3.85
 3 -4 -8 720.65 18.92
 3 -4 -7 104.32 7.76
 3 -4 -5 347.77 12.61
 3 -3 -27 53.12 9.93
 3 -3 -26 57.82 10.03
 3 -3 -25 39.45 8.62
 3 -3 -24 33.24 8.43
 3 -3 -23 79.78 11.35
 3 -3 -22 82.04 9.79
 3 -3 -21 68.32 10.26
 3 -3 -20 123.83 10.5
 3 -3 -19 2.63 5.39
 3 -3 -18 100.04 10.27
 3 -3 -17 20.12 6.5
 3 -3 -16 77.19 8.89
 3 -3 -12 239.11 11.86
 3 -3 -9 85.74 7.18
 3 -2 -27 14.34 7.75
 3 -2 -26 4.96 7.09
 3 -2 -25 -1.6 6.54
 3 -2 -24 9.62 6.97
 3 -2 -23 149.84 11.93
 3 -2 -22 66.6 9.4
 3 -2 -21 203.15 12.91
 3 -2 -20 5.23 5
 3 -2 -18 55.08 7.46
 3 -2 -17 37.44 6.39
 3 -2 -16 66.27 7.07
 3 -2 -15 49.1 6.56
 3 -2 -14 79.97 7.92
 3 -2 -13 15.38 4.38
 3 -2 -12 89.16 7
 3 -2 -10 14.16 4.09
 3 -2 -4 250.32 9.94
 3 -2 -3 433.49 12.51
 3 -2 -2 515.99 13.28
 3 -1 -25 18.81 6.27
 3 -1 -24 172.89 11.92
 3 -1 -23 65.14 8.96
 3 -1 -22 13.32 6.14
 3 -1 -21 50.98 7.51
 3 -1 -20 55.97 7.82
 3 -1 -19 50.14 7.42
 3 -1 -17 13.72 4.95
 3 -1 -16 7.07 4.93
 3 -1 -15 185.95 9.74
 3 -1 -14 135.14 8.76
 3 -1 -13 361.51 12.6
 3 -1 -8 205.75 9.07
 3 -1 -6 137.3 7.64
 3 -1 -5 45.57 5.08
 3 -1 -4 348.21 10.78
 3 0 -23 96.9 8.99
 3 0 -22 0.45 4.62
 3 0 -20 -3.54 3.88
 3 0 -19 1.81 4.44
 3 0 -18 -3.64 3.73
 3 0 -17 183.77 9.85
 3 0 -15 30.55 5.06
 3 0 -11 37.82 4.99
 3 0 -10 49.31 5.49
 3 0 -9 55.56 5.51
 3 0 -8 453.62 12.05
 3 0 -7 4.09 2.84
 3 0 -6 207.11 8.4
 3 1 -21 65.62 6.77
 3 1 -20 57.1 6.31
 3 1 -19 55.07 6.25
 3 1 -18 23.82 4.54
 3 1 -13 387.17 11.58
 3 1 -12 127.58 7.02
 3 1 -11 107.78 6.16
 3 2 -17 41.22 4.84
 3 2 -16 54.21 5
 3 2 -15 48.28 4.77
 4 -10 -8 1.74 8.21
 4 -10 -7 40.42 9.97
 4 -10 -6 7.65 7.98
 4 -9 -12 -1.39 8.91
 4 -9 -11 78.67 12.98
 4 -9 -10 38.83 10.12
 4 -9 -7 1.03 6.54
 4 -9 -6 9.45 7.67
 4 -9 -5 73.28 10.74
 4 -9 -4 4.26 6.75
 4 -8 -16 27.63 10.39
 4 -8 -15 9.07 8.77
 4 -8 -13 25.84 9.65
 4 -8 -12 41.96 10.46
 4 -8 -11 29.84 8.76
 4 -8 -9 5.19 6.79
 4 -8 -8 1.52 6.51
 4 -8 -7 58.54 10.35
 4 -8 -6 45.43 9.07
 4 -8 -5 27.9 7.72
 4 -8 -4 112.55 12.02
 4 -7 -16 56.97 11.5
 4 -7 -14 8.05 8.02
 4 -7 -13 99.29 12.67
 4 -7 -12 23.34 8.71
 4 -7 -11 50.27 10.58
 4 -7 -10 56.82 10.42
 4 -7 -9 187.3 14.63
 4 -7 -8 139.15 13.31
 4 -7 -7 8.92 6.14
 4 -7 -6 8.69 7.32
 4 -7 -5 40.45 8.19
 4 -7 -4 4.06 5.3
 4 -7 -3 23.87 6.89
 4 -6 -21 94.85 14.26
 4 -6 -19 -3.23 6.83
 4 -6 -18 52.13 10.66
 4 -6 -17 35.2 9.54
 4 -6 -16 7.36 8.54
 4 -6 -14 69.6 10.6
 4 -6 -13 215.09 14.78
 4 -6 -11 54.06 9.47
 4 -6 -10 239.01 15.09
 4 -6 -9 14.94 7
 4 -6 -8 118.6 11.66
 4 -6 -7 34.09 7.39
 4 -6 -5 27.69 7.39
 4 -6 -3 208.58 13.2
 4 -6 -2 5.44 5.08
 4 -5 -22 12.61 8.63
 4 -5 -21 37.67 9.36
 4 -5 -20 57.17 10.45
 4 -5 -19 1.72 6.74
 4 -5 -18 38.15 9.32
 4 -5 -17 41.19 8.76
 4 -5 -16 34.46 8.24
 4 -5 -15 -3.88 5.42
 4 -5 -13 95.87 11.23
 4 -5 -12 77.46 9.23
 4 -5 -11 5.19 5.34
 4 -5 -10 32.03 6.65
 4 -5 -9 209.97 12.86
 4 -5 -6 106.86 10.44
 4 -5 -5 330.99 15.53
 4 -5 -4 43.59 7.39
 4 -5 -3 73.27 8.41
 4 -5 -2 79.85 8.22
 4 -4 -24 71.34 12.23
 4 -4 -23 86.2 12.28
 4 -4 -22 167.6 15.06
 4 -4 -21 75.98 11.37
 4 -4 -20 -1.81 5.93
 4 -4 -19 36.96 8.48
 4 -4 -17 161.25 12.62
 4 -4 -16 43.49 8.09
 4 -4 -15 217.7 14.43
 4 -4 -14 91.85 9.46
 4 -4 -13 17.14 6.96
 4 -4 -12 47.3 8.12
 4 -4 -11 233.97 13.53
 4 -4 -8 64.25 7.51
 4 -4 -7 212.94 12.63
 4 -4 -6 419.88 16.5
 4 -4 -5 69.49 8
 4 -4 -4 3.46 4.27
 4 -3 -24 52.06 10.51
 4 -3 -23 59.96 10.01
 4 -3 -22 139.52 13.51
 4 -3 -20 23.11 7.31
 4 -3 -18 52.96 9.02
 4 -3 -17 27.09 6.93
 4 -3 -16 19.42 6.19
 4 -3 -13 82.98 9.34
 4 -3 -12 274.57 14.34
 4 -3 -10 303.03 14.25
 4 -3 -9 34.98 6.36
 4 -3 -8 39.1 7.03
 4 -3 -7 387.19 14.9
 4 -3 -6 287.01 12.81
 4 -3 -5 148.47 9.41
 4 -3 -4 200.93 10.97
 4 -2 -26 12.7 7.43
 4 -2 -25 15.4 7.37
 4 -2 -24 121.94 12.6
 4 -2 -23 148.44 12.59
 4 -2 -22 37.08 9.11
 4 -2 -21 9.34 5.9
 4 -2 -20 38.29 7.66
 4 -2 -19 14.21 6.92
 4 -2 -18 146.37 11.9
 4 -2 -17 21.05 6.15
 4 -2 -16 117.48 9.87
 4 -2 -15 210.81 12.8
 4 -2 -14 156.41 10.65
 4 -2 -13 36.02 6.47
 4 -2 -12 23.69 5.73
 4 -2 -10 107.65 8.63
 4 -2 -9 57.07 7.7
 4 -2 -8 649.42 18.53
 4 -2 -6 540.19 16.35
 4 -2 -5 58.84 6.56
 4 -1 -24 97.49 11.04
 4 -1 -23 21.81 6.69
 4 -1 -22 132.55 11.62
 4 -1 -21 210.12 12.99
 4 -1 -20 103.52 10.08
 4 -1 -18 23.46 6.33
 4 -1 -17 28.69 6.13
 4 -1 -16 50.17 7.57
 4 -1 -15 95.69 8.86
 4 -1 -14 8.93 5.4
 4 -1 -12 129.69 9.65
 4 -1 -11 24.86 6.05
 4 -1 -10 84.33 7.42
 4 -1 -8 1092.82 22.61
 4 0 -22 -3.71 4.29
 4 0 -21 118.69 10.1
 4 0 -19 292.09 13.69
 4 0 -18 19.46 5.95
 4 0 -17 59.41 7.81
 4 0 -16 27.77 5.44
 4 0 -15 29.46 6.01
 4 0 -14 462.89 15.55
 4 0 -13 0.07 4.26
 4 0 -10 10.14 4.88
 4 1 -20 113.05 9.04
 4 1 -19 11.9 4.64
 4 1 -18 26.37 5.5
 4 1 -17 16.33 5.09
 5 -8 -11 23.75 9.16
 5 -8 -10 91.98 13.03
 5 -8 -9 -0.83 7.01
 5 -8 -8 1.38 7.05
 5 -7 -14 35.25 11.38
 5 -7 -13 15.8 9.21
 5 -7 -11 10.88 7.95
 5 -7 -10 23.12 9.2
 5 -7 -9 40.03 9.94
 5 -7 -7 15.42 7.64
 5 -6 -18 45.94 12.04
 5 -6 -17 37.31 10.62
 5 -6 -16 201.14 16.72
 5 -6 -15 47.16 11.6
 5 -6 -14 58.08 11.22
 5 -6 -13 18.29 9.5
 5 -6 -10 10.12 7.19
 5 -6 -9 21.41 7.66
 5 -5 -20 9 10.57
 5 -5 -19 -4.1 8.55
 5 -5 -18 63.67 12.42
 5 -5 -15 38.57 9.84
 5 -5 -14 93.7 12.59
 5 -5 -13 1.32 7.67
 5 -5 -11 31.25 8.19
 5 -5 -10 139.64 12.13
 5 -5 -9 121.67 11.4
 5 -5 -7 27.48 7.43
 5 -4 -22 12.05 10.36
 5 -4 -21 102.65 14.37
 5 -4 -18 17.88 8.11
 5 -4 -17 138.88 13.99
 5 -4 -16 131.58 13.98
 5 -4 -15 23.82 7.97
 5 -4 -14 37.79 9.57
 5 -4 -13 93.71 10.85
 5 -4 -12 76.56 10.35
 5 -4 -11 21.5 7.1
 5 -4 -10 -0.18 5.01
 5 -4 -9 11.6 5.98
 5 -4 -8 90.49 10.74
 5 -3 -23 10.07 8.52
 5 -3 -21 -3.18 7.93
 5 -3 -19 1.69 7.01
 5 -3 -18 30.82 9.47
 5 -3 -17 23.36 8.88
 5 -3 -16 19.61 7.07
 5 -3 -14 17.43 6.79
 5 -3 -13 8.37 7.31
 5 -3 -12 5.05 6.09
 5 -3 -10 102.24 10.93
 5 -3 -9 152.6 12.37
 5 -3 -8 160.87 11.7
 5 -2 -24 29.35 8.45
 5 -2 -23 26.81 9.51
 5 -2 -22 68.48 10.52
 5 -2 -21 132.15 12.87
 5 -2 -20 25.02 8.57
 5 -2 -19 103.93 12.08
 5 -2 -18 72.58 10.66
 5 -2 -17 201.87 13.95
 5 -2 -16 11.17 6.13
 5 -2 -15 138.74 12.26
 5 -2 -14 264.91 15.13
 5 -2 -12 23.48 6.61
 5 -2 -11 82.65 8.93
 5 -2 -10 82.8 8.97
 5 -1 -22 25.23 8.8
 5 -1 -20 150.17 12.15
 5 -1 -18 57.77 8.73
 5 -1 -17 3.04 5.38
 5 -1 -16 64.47 9.26
 5 -1 -15 160.75 12.16
 5 -1 -14 50.39 8
 6 -5 -16 114.3 16.23
 6 -5 -15 107.39 14.34
 6 -4 -18 64.79 12.43
 -7 -1 1 107.36 8.74
 -7 -1 2 30.42 5.78
 -7 -1 3 11.89 4.52
 -7 -1 4 135.66 9.56
 -7 -1 7 7.42 4.9
 -7 -1 8 2.64 4.33
 -7 0 1 44.53 7.08
 -7 0 2 21.49 6.9
 -7 0 3 36.85 6.9
 -7 0 4 9.24 5.09
 -7 0 6 4.18 5.62
 -7 1 -1 105.22 10.45
 -7 1 0 0.01 5.15
 -7 1 1 103.24 9.78
 -7 1 3 12.94 5.6
 -7 1 4 141.47 11.77
 -7 1 5 24.37 6.82
 -6 -2 1 17.48 3.63
 -6 -2 2 55.55 5.55
 -6 -2 3 35.57 5.33
 -6 -2 4 8.81 3.31
 -6 -2 5 9.87 3.71
 -6 -2 6 12.2 3.77
 -6 -1 -1 51.61 6.37
 -6 -1 0 77.89 6.87
 -6 -1 1 43.81 6.32
 -6 -1 2 72.93 6.92
 -6 -1 3 53.72 6.51
 -6 -1 4 99.07 8.15
 -6 -1 5 8.12 4.23
 -6 0 -2 251.56 11.79
 -6 0 -1 9.31 4.39
 -6 0 0 196.45 10.93
 -6 0 1 4.29 3.94
 -6 0 2 250.54 11.7
 -6 0 3 6.07 3.99
 -6 0 4 4.61 4.08
 -6 1 -3 58.38 7.44
 -6 1 -2 69.08 8.61
 -6 1 -1 45.94 7.46
 -6 1 0 76.31 8.77
 -6 1 1 42.54 7.17
 -6 1 2 77.41 8.68
 -6 1 4 105.42 9.6
 -6 2 -2 73.14 8.58
 -6 2 0 509.67 18.39
 -6 2 1 14.33 6.39
 -6 2 2 60.49 8.13
 -6 2 3 33.3 6.56
 -6 3 -3 15.96 6.85
 -6 3 -2 100.08 9.96
 -6 3 0 34.89 7.37
 -6 3 1 45.83 8.11
 -6 3 2 100.3 9.49
 -6 3 3 15.83 7.11
 -6 3 4 17.77 6
 -6 4 -3 41.56 7.84
 -6 4 -2 3.65 5.26
 -6 4 0 59.89 8.67
 -6 4 2 5.18 5.53
 -6 4 3 52.63 9.57
 -6 4 4 71.61 10.25
 -6 4 5 71.14 9.73
 -5 -2 0 222.66 8.42
 -5 -2 1 48.39 4.7
 -5 -2 2 8.45 3.03
 -5 -2 4 90.75 6.11
 -5 -1 -2 667.93 15.11
 -5 -1 -1 428.98 12.53
 -5 -1 0 1.75 2.58
 -5 -1 1 428.81 12.52
 -5 -1 2 687.33 16.09
 -5 0 -3 10.24 3.71
 -5 0 -2 17.22 4.19
 -5 0 1 290.22 11.6
 -5 0 2 13.96 4.82
 -5 1 -4 54.47 5.82
 -5 1 -3 43.64 6.48
 -5 1 -2 680.43 17.82
 -5 1 -1 418.68 14
 -5 1 0 -0.21 3.25
 -5 1 2 706.58 18.44
 -5 2 -4 109.72 8.83
 -5 2 -3 31.15 5.51
 -5 2 -2 6.92 4.78
 -5 2 -1 47.38 6.37
 -5 2 0 236.75 11.98
 -5 2 2 6.37 4.17
 -5 3 -4 70.15 8.33
 -5 3 -3 89.36 8.85
 -5 3 1 370.05 15.3
 -5 3 2 23.47 5.91
 -5 4 -4 21.38 5.78
 -5 4 -3 92.48 8.92
 -5 4 -2 2.34 4.14
 -5 4 -1 53.36 7.61
 -5 4 0 394.44 15.86
 -5 4 2 12.71 5.09
 -5 5 -3 21.17 5.75
 -5 5 -2 116.01 9.66
 -5 5 0 285.09 14.57
 -5 5 1 24.55 6.27
 -5 5 3 19.56 7.22
 -5 6 -3 -0.44 4.8
 -5 6 -2 37.73 7.32
 -5 6 -1 6.57 6.13
 -5 6 0 16.6 5.99
 -5 6 1 4.33 5.18
 -5 6 2 26.16 6.91
 -5 6 3 2.16 5.47
 -5 6 4 6.34 5.59
 -4 -4 4 -1.27 0.62
 -4 -2 -1 168.71 6.22
 -4 -2 1 165.04 6.28
 -4 -2 2 28.88 3.45
 -4 -1 -2 15.83 3.16
 -4 -1 0 72.97 5.11
 -4 -1 1 273.21 8.9
 -4 0 -3 1.63 2.32
 -4 0 -2 16.19 3.44
 -4 0 -1 1.24 2.54
 -4 0 0 9.13 3.11
 -4 1 -4 298.02 11.09
 -4 1 -3 55 5.2
 -4 1 -1 271.79 10.11
 -4 1 0 79.8 6.5
 -4 2 -4 270.18 11.31
 -4 2 -3 278.11 11.26
 -4 2 0 11.67 3.67
 -4 3 -5 158.27 9.38
 -4 3 -4 222.44 10.5
 -4 3 -3 70.54 6.56
 -4 3 -2 172.53 9.37
 -4 3 -1 352.36 13.19
 -4 3 0 20.55 4.97
 -4 4 -5 69.99 7.33
 -4 4 -4 1.34 3.43
 -4 4 -3 68.45 7.65
 -4 4 -2 4.25 3.54
 -4 4 -1 21.58 5.54
 -4 4 0 14.95 4.22
 -4 4 1 25.11 5.31
 -4 5 -4 43.67 7.3
 -4 5 -3 64.36 7.13
 -4 5 -2 74.33 7.91
 -4 5 -1 279.51 13.17
 -4 5 0 -1.37 3.68
 -4 5 1 328.02 13.65
 -4 5 2 77.27 7.54
 -4 6 -4 7.86 5.06
 -4 6 -2 0.84 4.11
 -4 6 -1 12.19 4.86
 -4 6 0 0.42 3.96
 -4 6 1 6.44 4.36
 -4 6 2 5.09 4.41
 -4 7 -3 25.66 6.16
 -4 7 -2 72.33 8.12
 -4 7 -1 181.97 11.61
 -4 7 0 116.64 10.26
 -4 7 1 184.92 12.12
 -4 7 2 63.37 8.02
 -4 7 3 26.17 6.47
 -4 7 4 -4.38 4.3
 -4 8 -2 151.37 11.42
 -4 8 -1 6.42 5.14
 -4 8 0 -0.6 4.27
 -4 8 1 -1.5 5.86
 -4 8 2 147.76 10.81
 -4 8 3 16.98 6.66
 -3 -4 4 260.41 3.6
 -3 -3 2 67.74 2.76
 -3 -1 -2 352.64 8.35
 -3 0 -2 96.13 5.44
 -3 0 -1 358.19 9.2
 -3 1 -4 337.75 10.2
 -3 1 -3 122.44 6.11
 -3 1 -2 362.5 10.17
 -3 1 -1 532.2 12.23
 -3 2 -4 261.39 9.34
 -3 2 -3 433.65 11.92
 -3 2 -2 511.24 12.65
 -3 2 -1 2.81 2.54
 -3 3 -3 86.07 6.13
 -3 3 -2 66.79 5.41
 -3 3 -1 100.56 7.11
 -3 4 -2 152.39 8.7
 -3 4 -1 251.91 10.4
 -3 4 0 67.4 5.87
 -3 5 -4 3.62 3.58
 -3 5 -1 78.31 7.31
 -3 5 0 32.26 5.19
 -3 5 1 72.15 6.45
 -3 6 -3 324.97 12.63
 -3 6 -2 30.5 5.74
 -3 6 -1 7.37 3.94
 -3 6 0 28.02 5.18
 -3 6 1 9.33 4.24
 -3 7 -3 215.24 11.12
 -3 7 -2 68.9 7.44
 -3 7 0 15.92 4.62
 -3 7 2 59.11 7.15
 -3 7 3 222.33 11.62
 -3 8 -2 15.01 4.66
 -3 8 0 30.91 6.59
 -3 8 1 7.15 5.18
 -3 8 2 11.38 5.37
 -3 8 3 130.85 9.66
 -3 8 4 122.02 9.18
 -3 8 5 21.71 5.64
 -3 9 0 7.49 5.13
 -3 9 1 127.92 9.58
 -3 9 2 28.35 5.65
 -3 9 3 38.61 6.51
 -3 9 4 18.54 5.76
 -3 9 5 49.01 6.87
 -3 9 6 25.1 6.1
 -2 -5 6 63.1 2.25
 -2 -2 0 7.15 1.13
 -2 -1 -1 49.48 2.73
 -2 -1 0 43 2.65
 -2 2 -3 532.16 11.36
 -2 2 -1 613.2 12.03
 -2 3 -3 142.41 6.64
 -2 3 -2 227.53 7.91
 -2 3 -1 931.6 15.75
 -2 4 -4 78.46 5.47
 -2 4 -3 475.51 12.41
 -2 4 -2 143.39 7.23
 -2 4 -1 269.91 9.25
 -2 5 -3 258.85 9.78
 -2 5 -2 316.81 10.62
 -2 5 -1 137.69 7.53
 -2 5 0 46.71 5.37
 -2 6 -3 332.83 11.69
 -2 6 -1 98.29 6.67
 -2 6 0 10.27 3.38
 -2 6 1 113.27 7.48
 -2 7 -2 30.45 5.09
 -2 7 -1 76.57 6.91
 -2 7 0 1.05 3.6
 -2 7 1 85.73 6.98
 -2 7 2 28.49 4.68
 -2 7 3 5.77 3.32
 -2 8 -1 34.29 5.52
 -2 8 0 15.45 4.09
 -2 8 1 35.7 5.1
 -2 8 2 69.13 6.65
 -2 8 3 289.49 11.83
 -2 8 4 14.48 3.89
 -2 9 1 100.5 7.6
 -2 9 2 90.04 7.26
 -2 9 3 19.97 4.72
 -2 9 4 23.5 5.11
 -2 9 5 39.36 6.08
 -2 9 6 11.45 4.32
 -2 9 7 15.79 4.42
 -1 -5 8 178.85 5.86
 -1 -5 9 489.98 9.94
 -1 -4 4 311.86 5.35
 -1 -4 5 10.23 1.66
 -1 -4 6 817.05 10.27
 -1 -3 3 380.18 4.87
 -1 0 -1 372.59 5.46
 -1 1 -1 2503.48 16.65
 -1 4 -3 870.08 13.99
 -1 4 -2 231.03 7.24
 -1 5 -1 305.14 8.84
 -1 5 0 76.66 5.06
 -1 6 -1 119.32 6.33
 -1 6 1 115.52 6.35
 -1 7 -1 50.07 4.71
 -1 7 1 51.98 4.8
 -1 7 3 11.79 3.15
 -1 8 0 0.41 2.11
 -1 8 2 153.5 7.67
 -1 8 3 95.47 6.38
 -1 8 4 70.67 5.9
 0 -5 7 46.05 3.61
 0 -5 8 43.86 3.77
 0 -4 5 205.17 6
 0 -4 9 660.59 12.47
 0 -3 3 1459.57 13.07
 0 -3 4 209.27 5.46
 0 -3 5 570.07 9.25
 0 -2 2 1992.02 12.37
 0 -2 3 3629.41 17.93
 0 2 -1 3816.41 15.87
 0 3 -1 419.03 6.58
 0 4 -1 1099.68 11.89
 0 4 0 163.77 4.87
 0 7 1 94.77 4.74
 0 7 2 175.22 6.36
 0 7 3 20.43 2.92
 0 8 2 -0.35 1.97
 0 8 3 86.11 4.96
 0 8 4 40.06 3.83
 1 -3 5 103.65 4.85
 1 -3 6 62.62 4.42
 1 -2 3 1253.46 14
 1 -2 4 298.65 7.19
 1 -2 5 104.33 4.66
 1 -2 6 1349.04 16.26
 1 -1 2 965.87 10.57
 1 -1 4 16.35 2.34
 1 0 2 583.81 7.26
 1 1 1 2500.58 10.83
 1 5 2 132.85 3.31
 1 6 2 320.22 4.84
 1 6 3 248.7 5.18
 1 7 4 13.31 1.87
 2 -2 5 80.3 4.8
 2 -2 6 903.87 15.14
 2 -1 5 358.89 8.86
 2 -1 6 1332.59 17.44
 2 -1 7 103.18 5.29
 2 0 3 1272.65 14.28
 2 0 5 93.02 4.6
 2 0 6 1064.72 14.71
 2 1 3 262.8 6.09
 2 1 4 128.61 4.84
 2 1 5 375.93 8.14
 2 2 3 536.76 7.67
 2 2 4 308.06 6.41
 2 3 3 149.36 3.63
 2 3 4 33.28 2.32
 2 4 4 83.9 2.81
 3 0 5 60.68 4.62
 3 1 5 38.74 3.91
 3 1 6 134 5.89
 3 2 5 304.25 7.91
 3 2 6 247.78 7.48
 3 2 7 334.93 9.04
 3 3 5 92.3 4.31
 3 3 6 605.14 10.62
 3 3 7 937.45 13.9
 3 3 8 221.42 7.28
 3 4 6 191.38 5.69
 3 4 7 101.95 4.68
 3 4 8 697.24 11.89
 3 4 9 10.92 2.83
 3 5 7 56.19 3.29
 3 5 8 301.05 7.38
 -3 -5 -2 44 2.12
 -3 -3 -2 69.88 2.26
 -3 -2 -1 4.26 0.86
 -2 -8 -8 91.64 7.06
 -2 -8 -6 -0.25 2.21
 -2 -7 -3 4.21 2.26
 -2 -6 -3 342.38 9.01
 -2 -6 1 115.27 4.6
 -2 -6 2 110.49 4.4
 -2 -6 3 346.79 7.3
 -2 -5 0 50.56 2.89
 -2 -5 2 330.04 6.1
 -2 -4 -1 281.66 5.61
 -2 -4 0 403.05 5.87
 -2 -4 1 285.41 4.55
 -2 -4 2 128.88 2.87
 -2 -1 -1 52.85 2.15
 -2 -1 0 39.69 1.71
 -1 -10 -16 56.08 10.06
 -1 -10 -15 10.99 6.49
 -1 -10 -14 -1.09 5.11
 -1 -10 -13 22.25 7.18
 -1 -10 -12 2.09 4.9
 -1 -10 -11 46.08 7.79
 -1 -10 -9 97.33 9.09
 -1 -10 -8 9.04 4.45
 -1 -10 -6 -0.64 2.95
 -1 -10 -5 0.07 3.15
 -1 -10 -4 0.57 2.85
 -1 -9 -11 35.58 7.49
 -1 -9 -10 47.57 7.81
 -1 -9 -9 69.21 9.06
 -1 -9 -8 83.83 8.18
 -1 -9 -7 96.51 8.52
 -1 -9 -6 14.22 4.57
 -1 -9 -5 61.54 7.38
 -1 -9 -4 90.93 7.77
 -1 -9 -1 7.92 3.18
 -1 -9 0 -2.58 2.04
 -1 -9 1 2.05 2.66
 -1 -9 3 2.29 2.37
 -1 -8 -7 88.88 7.75
 -1 -8 -6 28.85 5.03
 -1 -8 -5 81.58 7.02
 -1 -8 -4 67.02 6.33
 -1 -8 -3 102.12 7.42
 -1 -8 -2 148.44 8.2
 -1 -8 -1 24.42 4.36
 -1 -8 0 -2.92 2.12
 -1 -8 1 21.35 4.35
 -1 -8 2 156.33 7.94
 -1 -8 3 87.32 6.14
 -1 -8 4 64.41 5.6
 -1 -8 5 94.99 6.33
 -1 -7 -5 175.42 8.76
 -1 -6 -3 240.95 8.85
 -1 -6 -2 322.65 9.71
 -1 -6 -1 122.71 6.16
 -1 -6 0 457.14 10.97
 -1 -6 1 122.3 5.85
 -1 -6 2 318.94 9
 -1 -6 3 243.4 8.02
 -1 -6 4 247.57 8.02
 -1 -6 6 101.39 5.58
 -1 -5 -1 310.93 8.18
 -1 -5 0 73.18 4.29
 -1 -5 1 308.15 7.88
 -1 -5 2 131.61 5.42
 -1 -5 3 312.27 7.89
 -1 -5 4 37.36 3.25
 -1 -5 5 38.09 3.36
 -1 -4 -1 406.03 8.22
 -1 -4 0 1408.99 14.52
 -1 -4 1 404.83 7.75
 -1 -4 2 239.9 5.96
 -1 -4 3 865.94 11.19
 -1 -4 4 321.9 6.97
 -1 0 -2 604.24 6.59
 -1 0 -1 375.76 4.81
 0 -11 -10 17.52 6.72
 0 -11 -8 60.54 8.94
 0 -11 -7 13.64 6.38
 0 -11 -6 5.03 5.24
 0 -11 -5 -2.08 4.17
 0 -11 -4 -0.5 5.42
 0 -11 -3 22.88 5.95
 0 -11 -2 69.99 8.9
 0 -11 -1 2.39 4.46
 0 -11 1 -4.86 3.25
 0 -10 -15 6.47 7.77
 0 -10 -14 40.94 9.23
 0 -10 -13 33.08 8.1
 0 -10 -12 11.97 6.75
 0 -10 -11 24.48 7.16
 0 -10 -9 3.8 5.89
 0 -10 -8 9.14 6.23
 0 -10 -7 2.1 5.92
 0 -10 -6 8.71 5.65
 0 -10 -5 -0.77 4.36
 0 -10 -4 225.55 12.65
 0 -10 -2 86.17 8.86
 0 -10 -1 31.73 6.37
 0 -10 0 1.81 4.38
 0 -10 1 26.74 6.39
 0 -10 2 85.41 8.54
 0 -10 3 0.45 4.15
 0 -10 5 -1.96 3.44
 0 -10 6 5 4.34
 0 -9 -12 -0.1 5.68
 0 -9 -11 21.56 7.07
 0 -9 -10 4.99 5.13
 0 -9 -9 -1.64 4.39
 0 -9 -8 101.96 9.33
 0 -9 -7 0.68 4.66
 0 -9 -6 2.29 4.27
 0 -9 -5 -1.48 4.61
 0 -9 -4 35.56 6.46
 0 -9 -2 53.21 7.01
 0 -9 -1 65.92 7.67
 0 -9 1 67.27 6.99
 0 -9 2 30.85 6.48
 0 -9 5 -0.04 3.29
 0 -9 6 5.93 4.6
 0 -9 7 0.9 3.75
 0 -8 -8 24.88 6.11
 0 -8 -7 179.82 10.52
 0 -8 -4 47.03 7.02
 0 -8 -3 80.51 7.84
 0 -8 -2 3.99 3.71
 0 -8 -1 92.02 7.86
 0 -8 0 154.21 9.15
 0 -8 1 98.66 7.31
 0 -8 3 82.61 7.2
 0 -8 4 43.86 6.19
 0 -8 5 262.65 11.41
 0 -8 6 20.3 5.46
 0 -8 7 181.8 9.99
 0 -7 -6 14.69 4.47
 0 -7 -5 113.9 8.12
 0 -7 -4 26.47 5.11
 0 -7 -3 18.72 4.21
 0 -7 -1 92.11 6.64
 0 -7 1 95.61 7.01
 0 -7 2 176.38 8.97
 0 -7 3 25.42 4.41
 0 -7 4 22.68 4.51
 0 -7 5 131.1 7.96
 0 -7 6 12.13 3.55
 0 -7 7 61.86 6.33
 0 -5 -2 1.29 2.13
 0 -5 1 306.77 9.08
 0 -5 3 326.67 9.38
 0 -5 5 422.54 11.01
 0 -5 7 41.76 4.43
 0 -4 -1 1143.79 15.58
 0 -4 0 169.93 6.28
 0 -4 1 1144.15 15.33
 0 -4 2 1887.03 19.5
 0 -4 3 934.28 13.92
 0 -4 5 220.5 7.4
 0 -3 1 413.02 8.1
 0 -3 2 1.4 1.53
 0 -3 3 1430.2 14.92
 0 -3 5 582.75 10.25
 0 -2 0 9981.82 30.98
 0 -2 1 3871.16 19.26
 0 -2 2 1960.52 14.01
 0 -2 3 3658.75 19.91
 0 -2 4 1776.99 14.67
 0 -1 2 -1.11 0.75
 0 1 -3 823.09 7.8
 0 1 -2 -0.79 0.94
 0 1 -1 294.55 4.05
 1 -11 -10 69.36 10.74
 1 -11 -9 9.39 6.95
 1 -11 -8 15.55 6.86
 1 -11 -7 41.27 8.64
 1 -11 -6 11.87 7.01
 1 -11 -5 49.36 9.1
 1 -11 -4 97.47 10.56
 1 -11 -3 9.45 5.88
 1 -11 -2 34.43 8.53
 1 -11 -1 22.9 7.02
 1 -11 0 14.58 6.84
 1 -11 1 17.77 6.72
 1 -11 2 6.36 6.48
 1 -11 4 104.8 10.73
 1 -11 5 41.51 8.73
 1 -11 6 11.54 6.69
 1 -10 -15 5.2 7.51
 1 -10 -14 4.64 7.3
 1 -10 -13 25.18 9.14
 1 -10 -12 2.94 6.33
 1 -10 -11 45.68 9.36
 1 -10 -10 40.58 8.49
 1 -10 -9 98.64 12.45
 1 -10 -7 37.4 7.97
 1 -10 -6 4.26 5.57
 1 -10 -5 69.08 10.01
 1 -10 -4 1.57 5.54
 1 -10 -3 24.11 6.6
 1 -10 -2 60.35 9.06
 1 -10 -1 13.01 5.87
 1 -10 0 1.54 4.72
 1 -10 1 0.08 6.02
 1 -10 2 65.21 9.78
 1 -10 3 19.04 6.43
 1 -10 4 7.73 5.37
 1 -10 5 96.26 9.79
 1 -10 6 -1.73 4.41
 1 -10 7 43.57 7.45
 1 -9 -14 4.69 6.97
 1 -9 -13 85.59 11.43
 1 -9 -12 -0.49 5.17
 1 -9 -11 37.91 9.2
 1 -9 -10 34.88 7.4
 1 -9 -9 59.34 8.72
 1 -9 -6 8.97 5.09
 1 -9 -5 63.03 8.51
 1 -9 -4 102.6 9.96
 1 -9 -3 45.53 7.87
 1 -9 -2 60.15 8.18
 1 -9 -1 6.2 4.59
 1 -9 0 1.71 4.71
 1 -9 1 9.85 5.52
 1 -9 2 54.78 7.85
 1 -9 3 36.57 6.62
 1 -9 4 104.81 8.95
 1 -9 5 64.68 8.1
 1 -9 6 11 5.49
 1 -9 7 99.49 9.85
 1 -9 8 74.73 9
 1 -8 -10 2.18 4.52
 1 -8 -9 152.84 10.81
 1 -8 -8 48.02 7.44
 1 -8 -6 21.78 6.33
 1 -8 -5 78.82 7.9
 1 -8 -4 66.04 7.86
 1 -8 -3 97.96 8.97
 1 -8 -2 156.92 10.46
 1 -8 0 0.16 3.58
 1 -8 1 23.66 5.28
 1 -8 2 154.63 10.35
 1 -8 5 90.24 8.53
 1 -8 6 27.33 5.75
 1 -8 7 104.02 9.17
 1 -7 -7 76.5 8.1
 1 -7 -6 15.52 4.61
 1 -7 -4 14.93 4.35
 1 -7 -3 10.36 3.85
 1 -7 -2 27.8 5
 1 -7 -1 48.64 6.37
 1 -7 0 53.59 6.36
 1 -7 1 52.95 5.83
 1 -7 3 15.4 4.78
 1 -7 4 13.39 4.32
 1 -7 5 177.2 9.6
 1 -7 6 16.64 4.48
 1 -7 7 74.18 7.76
 1 -7 8 34.94 5.39
 1 -7 9 6.04 4.15
 1 -6 -3 243.13 10.37
 1 -6 -1 125.69 7.83
 1 -6 3 236.27 10.15
 1 -6 4 244.4 10.36
 1 -6 5 62.23 5.85
 1 -6 7 245.91 10.83
 1 -6 8 177.27 9.49
 1 -6 9 54.88 5.8
 1 -5 0 72.46 5.58
 1 -5 2 127.63 7.13
 1 -4 -2 247.88 8.42
 1 -4 -1 386.49 10.26
 1 -4 1 399.27 10.5
 1 -4 2 255.62 8.65
 1 -4 3 854.21 15.3
 1 -4 5 9.36 2.91
 1 -4 6 848.87 16.09
 1 -4 7 172.05 8.01
 1 -3 1 1332.5 16.58
 1 -3 2 456.59 9.82
 1 -3 3 359.5 8.93
 1 -3 4 940.4 14.58
 1 -3 5 106.63 5.53
 1 -3 7 42.2 4.16
 1 -2 -1 624.31 9.97
 1 -2 0 9277.03 36.81
 1 -2 1 653.08 10.1
 1 -2 2 286.4 6.86
 1 -2 3 1240.16 14.25
 1 -2 4 301.26 7.67
 1 -2 5 107.63 5.07
 1 -1 0 5636.99 23.37
 1 -1 1 2471.72 15.51
 1 -1 2 991.49 10.4
 1 -1 4 16.04 2.22
 1 0 1 351.23 4.49
 2 -11 -7 3.04 6.24
 2 -11 -6 74.91 10.86
 2 -11 -5 8.39 8.19
 2 -11 -4 31.52 9.21
 2 -11 -3 35.52 9.7
 2 -11 -2 52.36 10.11
 2 -11 -1 18.13 7.28
 2 -11 2 50.17 9.54
 2 -11 3 34.85 8.45
 2 -11 4 26.14 8.54
 2 -11 5 5.53 6.4
 2 -11 6 74.49 11
 2 -11 7 1.08 5.66
 2 -10 -12 10.43 7.94
 2 -10 -11 48.99 10.38
 2 -10 -10 74.92 10.92
 2 -10 -9 34.26 9.21
 2 -10 -8 56.96 9.8
 2 -10 -7 43.28 8.58
 2 -10 -6 78.88 10.26
 2 -10 -5 62.35 9.58
 2 -10 -4 26.47 7.06
 2 -10 -3 42.72 8.1
 2 -10 -2 69.24 10.56
 2 -10 -1 42.29 8.89
 2 -10 0 3.96 5.45
 2 -10 1 45.4 9.36
 2 -10 3 36.64 8.49
 2 -10 4 38.09 8.61
 2 -10 5 86.53 10.72
 2 -10 6 89.54 11.41
 2 -10 7 45.38 9.09
 2 -10 8 50.67 8.49
 2 -9 -17 20.23 8.52
 2 -9 -15 12.96 7.57
 2 -9 -14 27.74 8.85
 2 -9 -13 26.17 8.09
 2 -9 -10 48.72 8.61
 2 -9 -9 141.85 12.83
 2 -9 -8 27.38 7.45
 2 -9 -7 19.14 6.64
 2 -9 -6 5.21 5.48
 2 -9 -5 60.28 9.07
 2 -9 -4 21.47 7.63
 2 -9 -3 21.47 6.27
 2 -9 -2 103.74 10.28
 2 -9 -1 78.43 9.64
 2 -9 0 63.02 9.74
 2 -9 1 88.9 9.11
 2 -9 2 102.47 10.11
 2 -9 3 23.67 7.45
 2 -9 4 29.77 7.93
 2 -9 5 41.09 7.75
 2 -9 6 10.62 5.75
 2 -9 8 26.43 6.76
 2 -9 9 134.13 11.67
 2 -8 -11 99.92 11.25
 2 -8 -10 23.38 6.74
 2 -8 -8 85.78 10.27
 2 -8 -7 42.66 8.38
 2 -8 -6 5.94 6.22
 2 -8 -5 21.77 6
 2 -8 -4 18.25 5.66
 2 -8 -2 45.11 7.53
 2 -8 0 15.25 5.03
 2 -8 2 65.51 7.49
 2 -8 4 14.66 5.13
 2 -8 5 28.84 6.28
 2 -8 6 -1.11 4.24
 2 -8 7 35.05 7.2
 2 -8 8 82.19 9.68
 2 -8 9 32.71 7.61
 2 -7 -9 309.55 15.14
 2 -7 -8 31.56 7.01
 2 -7 -7 275.44 13.87
 2 -7 -6 -0.03 3.85
 2 -7 -5 122.96 9.67
 2 -7 -4 68.34 7.31
 2 -7 -3 5.8 4
 2 -7 -2 31.58 5.68
 2 -7 -1 84.76 7.67
 2 -7 0 4.18 3.85
 2 -7 1 76.76 7.28
 2 -7 2 37.79 6.62
 2 -7 3 8.02 4.22
 2 -7 4 68.84 7.31
 2 -7 5 143.31 10.28
 2 -7 6 -2.56 3.35
 2 -7 8 34.71 6.93
 2 -7 9 301.22 14.2
 2 -6 -7 100.28 7.87
 2 -6 -6 62.26 7.24
 2 -6 -5 94.68 7.58
 2 -6 -2 105.91 8.08
 2 -6 -1 103.1 7.86
 2 -6 0 9.33 3.62
 2 -6 1 107.72 8.09
 2 -6 2 122.17 8.57
 2 -6 3 338.58 12.72
 2 -6 5 91.14 7.98
 2 -6 6 72.28 7.1
 2 -6 7 102.88 8.05
 2 -6 8 6.39 4.25
 2 -6 9 16.14 4.73
 2 -5 -5 79.24 6.6
 2 -5 -4 227.05 9.98
 2 -5 4 245.1 10.5
 2 -5 5 76.77 6.81
 2 -5 9 154.5 9.05
 2 -4 -2 135.72 7.08
 2 -4 -1 280.19 9.91
 2 -4 0 407.18 11.58
 2 -4 8 308.44 11.32
 2 -3 -2 223.67 8.24
 2 -3 -1 971.31 16.22
 2 -3 0 1040.08 16.52
 2 -3 1 949.07 15.92
 2 -3 2 210.38 8
 2 -3 4 35.39 4
 2 -3 7 15.16 3.23
 2 -2 -2 873.34 13.76
 2 -2 0 6.43 2.74
 2 -2 1 624.83 11.5
 2 -2 2 842.96 13.4
 2 -2 3 558.62 11.35
 2 -2 5 79.61 5.09
 2 -2 6 921.41 15.46
 2 -1 -2 479.04 8.88
 2 -1 -1 52.38 3.38
 2 -1 1 49.28 3.65
 2 -1 2 469.46 8.91
 2 -1 3 264.92 7.16
 2 -1 4 129.25 5.18
 2 0 -2 1888.75 13.89
 2 0 -1 5.29 1.6
 2 0 1 4.9 1.41
 2 0 2 1898 14.73
 2 1 -1 47.9 1.59
 2 2 -4 303.48 3.54
 2 3 -5 440.17 5.44
 3 -10 -10 2.45 6.7
 3 -10 -9 2.62 8.11
 3 -10 -8 3.85 6.73
 3 -10 -7 9.42 6.63
 3 -10 -6 16.02 8.72
 3 -10 -5 19.39 7.9
 3 -10 -4 140.96 12.82
 3 -10 -3 -0.74 5.57
 3 -10 -2 74.94 10.79
 3 -10 -1 13.03 6.86
 3 -10 0 50.81 10.54
 3 -10 1 7.84 6.31
 3 -10 2 85.68 11.22
 3 -10 3 7.97 7.45
 3 -10 4 159.14 13.38
 3 -10 5 19.67 7.47
 3 -10 6 3.7 6.93
 3 -10 7 9.01 6.85
 3 -10 8 1.79 6.62
 3 -9 -15 16.64 8.95
 3 -9 -14 -0.45 7.46
 3 -9 -13 78.02 11.64
 3 -9 -11 93.04 12.23
 3 -9 -10 9.41 8.03
 3 -9 -9 9.8 7.18
 3 -9 -8 71.76 10.86
 3 -9 -7 32.53 9.22
 3 -9 -6 30.15 8.28
 3 -9 -4 19.81 7.21
 3 -9 -2 28.91 8.18
 3 -9 -1 108.35 10.32
 3 -9 1 104.14 11.19
 3 -9 2 25.73 7
 3 -9 3 39.26 8.57
 3 -9 4 18.53 6.73
 3 -9 5 48.72 8.65
 3 -9 7 23.13 6.93
 3 -9 8 78.59 10.83
 3 -9 9 9.32 6.99
 3 -8 -17 67.12 11.53
 3 -8 -15 95.63 11.78
 3 -8 -14 4.1 6.92
 3 -8 -13 57.15 10.6
 3 -8 -11 60.15 9.82
 3 -8 -10 47.54 8.53
 3 -8 -9 50.22 8.73
 3 -8 -8 64.39 10.48
 3 -8 -3 130.75 10.42
 3 -8 -2 10.01 5.38
 3 -8 -1 1.52 4.7
 3 -8 0 41.63 7.75
 3 -8 1 12.78 5.68
 3 -8 2 10.71 6.29
 3 -8 4 111.21 9.88
 3 -8 6 101.39 10.66
 3 -8 7 72.13 9.84
 3 -8 8 67.74 9.44
 3 -8 9 54.19 8.36
 3 -7 -12 4.27 5.57
 3 -7 -11 27.47 7.29
 3 -7 -8 23.44 6.83
 3 -7 -7 56.08 8.79
 3 -7 -6 56.81 8.98
 3 -7 -5 88.96 9.28
 3 -7 -4 5.52 4.74
 3 -7 -3 223.84 12.87
 3 -7 -2 63.23 8.05
 3 -7 0 11.7 5.03
 3 -7 1 90.14 9.12
 3 -7 2 71.13 9.6
 3 -7 3 224.98 12.77
 3 -7 7 43.68 7.94
 3 -7 8 12.67 6.4
 3 -7 9 83.21 9.95
 3 -6 -9 39.36 7.02
 3 -6 -8 282.49 14.13
 3 -6 -7 196.61 12.13
 3 -6 -6 121.16 9.53
 3 -6 -5 35.29 6.12
 3 -6 -4 55.16 6.85
 3 -6 -2 30.72 6.18
 3 -6 -1 11.39 4.91
 3 -6 0 28.17 6.17
 3 -6 1 10.88 4.41
 3 -6 2 35.49 5.84
 3 -6 3 344.26 13.92
 3 -6 5 30.99 6.13
 3 -6 6 102.26 8.53
 3 -6 7 213.68 11.69
 3 -6 8 325.69 14.66
 3 -6 9 38.56 7.38
 3 -5 -7 57.91 7.33
 3 -5 -6 106.28 8.19
 3 -5 -5 149.92 9.21
 3 -5 -4 3.44 3.41
 3 -5 -3 80.67 7
 3 -5 -2 48.74 5.89
 3 -5 1 72.36 6.89
 3 -5 2 43.15 5.64
 3 -5 3 77.47 7.54
 3 -5 4 0.31 3.15
 3 -5 5 164.19 9.71
 3 -5 6 96.38 8.1
 3 -5 7 64.16 7.71
 3 -5 9 49.57 7.16
 3 -4 -6 183.22 9.58
 3 -4 -5 356.03 12.92
 3 -4 -4 248.9 10.42
 3 -4 3 187.13 9
 3 -4 4 250.66 10.41
 3 -4 5 349.76 12.39
 3 -4 6 194.08 10
 3 -4 7 104.47 7.81
 3 -4 8 731.37 18.37
 3 -3 -2 61.03 5.14
 3 -2 -4 247.07 8.86
 3 -2 -3 421.69 11.03
 3 -2 -2 532.69 12.21
 3 -2 -1 0.72 1.98
 3 -2 0 674.36 13.48
 3 -2 1 0.7 2.27
 3 -2 2 508.01 11.79
 3 -2 3 416.99 10.91
 3 -2 4 277.6 9.14
 3 -2 5 310.03 9.96
 3 -2 6 245.44 9.07
 3 -1 -2 363.52 8.85
 3 -1 -1 551.54 10.78
 3 -1 0 -1.2 1.67
 3 -1 1 519.54 10.56
 3 -1 3 120.06 5.67
 3 -1 4 320.11 8.87
 3 0 -4 892.3 12.18
 3 0 -3 1253.4 13.89
 3 0 -2 104.76 4.3
 3 0 -1 341.46 7.13
 3 0 1 344.12 7.41
 3 0 2 103.63 4.57
 3 1 -4 336.96 5.95
 3 1 -3 117.06 3.44
 3 1 -2 352.09 5.52
 3 1 -1 521.26 6.6
 4 -10 -6 -2.41 6.25
 4 -10 -5 30.9 10.18
 4 -10 -4 -5.97 6
 4 -10 -3 7.42 7.11
 4 -10 -2 14.15 7.4
 4 -10 -1 2.31 6.33
 4 -10 0 84.83 11.48
 4 -10 1 1.24 6.21
 4 -10 2 22.69 8.22
 4 -10 3 11.52 7.59
 4 -10 4 6.19 7.95
 4 -10 5 45.67 10.85
 4 -10 6 1.58 6.35
 4 -9 -12 -1.38 8.24
 4 -9 -11 92 13.01
 4 -9 -10 26.74 8.66
 4 -9 -9 9.8 7.89
 4 -9 -8 43.68 9.54
 4 -9 -5 50.68 9.57
 4 -9 -4 4.91 6.61
 4 -9 -3 51.23 9.8
 4 -9 -1 19.93 7.51
 4 -9 1 18.23 7.26
 4 -9 2 15.81 8.07
 4 -9 3 45.64 9.42
 4 -9 4 4.99 6.17
 4 -9 6 29.23 8.11
 4 -9 8 56.21 10.03
 4 -8 -16 31.42 10.09
 4 -8 -15 17.73 8.37
 4 -8 -14 84.39 12.19
 4 -8 -13 20.75 8.29
 4 -8 -12 36.21 9.98
 4 -8 -11 19.01 8.46
 4 -8 -10 46.87 9.5
 4 -8 -9 -1.3 7.6
 4 -8 -8 3.17 6.1
 4 -8 -7 65.35 10.29
 4 -8 -5 24.63 8.19
 4 -8 -4 109.08 12.05
 4 -8 -3 13.66 6.8
 4 -8 -2 159.17 12.35
 4 -8 -1 -0.84 5.16
 4 -8 0 2.34 6.39
 4 -8 1 2.85 5.17
 4 -8 2 171.85 13.06
 4 -8 3 16.47 7.21
 4 -8 4 127.95 11.89
 4 -8 5 21.62 7.2
 4 -8 7 58.64 9.06
 4 -8 8 2.51 6.81
 4 -8 9 13.4 6.74
 4 -7 -18 5.46 7.57
 4 -7 -17 8.78 8.33
 4 -7 -16 53.68 11.01
 4 -7 -15 5.14 7.09
 4 -7 -13 97.71 12.79
 4 -7 -12 27.75 8.93
 4 -7 -11 42.46 8.44
 4 -7 -10 59.17 9.74
 4 -7 -9 187.82 13.32
 4 -7 -7 21.27 7.98
 4 -7 -6 16.65 7.48
 4 -7 -5 45.35 8.76
 4 -7 -4 0.88 5.42
 4 -7 -3 18.64 6.31
 4 -7 -2 65.34 9.1
 4 -7 -1 188.1 12.63
 4 -7 3 15.54 5.72
 4 -7 4 -0.75 4.35
 4 -7 5 65.42 9.74
 4 -7 6 5.9 5.52
 4 -7 7 12.96 6.05
 4 -7 8 118.24 11.48
 4 -7 9 197.67 14.09
 4 -6 -14 75.87 10.91
 4 -6 -12 3.03 5.65
 4 -6 -11 66.65 10.29
 4 -6 -9 11.15 6.75
 4 -6 -8 128.88 11.61
 4 -6 -6 14.72 6.85
 4 -6 -5 25.68 6.11
 4 -6 -3 197.91 12.41
 4 -6 -2 8.02 4.54
 4 -6 -1 9.01 4.75
 4 -6 0 2.36 4.9
 4 -6 2 2.46 4.16
 4 -6 3 216.05 12.54
 4 -6 4 8.34 4.7
 4 -6 6 18.44 5.61
 4 -6 7 36.09 6.79
 4 -6 8 106.64 10
 4 -6 9 17.26 6.58
 4 -5 -10 35.89 7.76
 4 -5 -8 25.26 6.15
 4 -5 -7 211.95 12.67
 4 -5 -6 98.68 8.55
 4 -5 -5 311.17 14.16
 4 -5 -4 35.82 6.15
 4 -5 -3 73.14 7.78
 4 -5 -2 84.26 8.35
 4 -5 -1 290.25 13.39
 4 -5 0 5.6 4.93
 4 -5 4 35.48 6.01
 4 -5 5 298.62 13.65
 4 -5 6 100.87 9.06
 4 -5 7 201.86 12.12
 4 -5 8 26.34 6.62
 4 -5 9 206.79 12.43
 4 -4 -9 53.71 7.47
 4 -4 -8 68.31 8
 4 -4 -5 69.81 7.43
 4 -4 -4 -0.33 3.49
 4 -4 -2 2.51 4.15
 4 -4 -1 25.39 4.97
 4 -4 0 14.8 4.26
 4 -4 1 28.4 5.08
 4 -4 2 4.1 3.43
 4 -4 3 54.59 6.77
 4 -4 5 70.18 7.48
 4 -4 6 421.85 14.8
 4 -4 7 235.48 11.58
 4 -4 8 68.03 7.72
 4 -3 -8 55.2 6.18
 4 -3 -6 275.62 11.67
 4 -3 -5 154.45 8.74
 4 -3 -4 215.41 9.92
 4 -3 4 239.28 10.45
 4 -3 5 130.19 8.01
 4 -3 6 272.49 11.77
 4 -3 7 392.86 13.54
 4 -2 -2 24.09 4.31
 4 -2 0 13.36 3.34
 4 -1 -5 134.14 6.77
 4 -1 -4 305.11 9.58
 4 -1 -3 58.17 4.84
 4 -1 -2 14.99 3.32
 4 -1 -1 281.26 8.87
 4 -1 0 76.62 5.33
 4 -1 1 291.74 9.18
 4 -1 2 16.45 3.66
 4 -1 4 310.22 10.09
 4 0 -7 320.83 9.18
 4 0 -6 462.29 10.41
 4 0 -5 30.47 3.62
 4 0 -4 347.28 8.61
 4 0 -3 0.92 2.09
 4 0 -2 14.35 2.4
 4 0 -1 1.44 1.7
 4 0 0 7.11 1.98
 4 0 1 3.47 2.05
 4 0 2 11.72 2.43
 4 1 -6 437.58 8.4
 4 1 -5 122.07 4.44
 4 1 -4 298.16 6.22
 4 1 -3 50.25 2.88
 4 1 -2 11.62 1.82
 4 1 -1 279.79 5.99
 4 2 -8 651.17 8.58
 4 2 -7 189.37 4.12
 5 -9 -5 83.86 12.43
 5 -9 -4 -4.14 6.77
 5 -9 -3 46.92 10.3
 5 -9 -1 64.87 12.31
 5 -9 0 6.75 8.35
 5 -9 1 59.1 11.49
 5 -9 2 33.11 10.1
 5 -9 3 41.15 9.87
 5 -9 4 4.12 6.58
 5 -9 5 81.39 11.88
 5 -9 6 15.69 8.28
 5 -9 7 2.09 8.44
 5 -8 -11 21.75 8.87
 5 -8 -10 101.78 14.03
 5 -8 -9 8.21 7.49
 5 -8 -8 8.92 7.47
 5 -8 -7 16.15 7.5
 5 -8 -6 7.08 7.57
 5 -8 -5 28.99 9.36
 5 -8 -3 10.55 6.88
 5 -8 -2 -3.8 5.49
 5 -8 -1 26.52 8.25
 5 -8 0 114.33 12.74
 5 -8 1 14.82 8.33
 5 -8 2 -0.17 6.46
 5 -8 4 65.53 10.65
 5 -8 6 14.21 6.98
 5 -8 7 7.41 6.77
 5 -8 8 11.42 8.42
 5 -7 -16 24.84 10.4
 5 -7 -15 -1.22 8.01
 5 -7 -14 22.6 8.95
 5 -7 -13 25.52 9.98
 5 -7 -12 8.06 8.02
 5 -7 -11 18.24 7.52
 5 -7 -10 18.61 8.5
 5 -7 -9 45.89 9.52
 5 -7 -8 27.28 9.21
 5 -7 -7 17.48 7.3
 5 -7 -6 25.89 7.55
 5 -7 -5 56.04 9.11
 5 -7 -4 66.88 9.5
 5 -7 -3 106.73 10.82
 5 -7 0 9.14 7.14
 5 -7 2 73.87 10.64
 5 -7 3 114.47 11.88
 5 -7 5 79.21 11.2
 5 -7 7 22.1 8.52
 5 -7 8 24.14 7.21
 5 -6 -18 56.86 11.42
 5 -6 -17 35.52 10.19
 5 -6 -15 53.63 9.86
 5 -6 -14 65.71 10.56
 5 -6 -13 6.22 7.15
 5 -6 -12 70.39 11.05
 5 -6 -11 38.74 8.46
 5 -6 -10 16 8.25
 5 -6 -9 27.93 7.68
 5 -6 -8 6.05 5.95
 5 -6 -7 7.69 5.89
 5 -6 -6 272.45 15.4
 5 -6 -5 125.11 11.41
 5 -6 -4 1.99 4.78
 5 -6 -3 4.88 5.05
 5 -6 -2 26.02 7.65
 5 -6 -1 9.65 5.64
 5 -6 0 19.8 6.97
 5 -6 1 3.23 4.91
 5 -6 2 29.24 8.21
 5 -6 3 4.45 5.46
 5 -6 4 -2.52 4.99
 5 -6 5 121.44 11.24
 5 -6 7 5.73 6.86
 5 -6 8 11.07 6.44
 5 -5 -18 46.04 10.5
 5 -5 -17 37.99 9.23
 5 -5 -16 33.23 8.77
 5 -5 -15 22.09 7.77
 5 -5 -14 101.82 11.59
 5 -5 -13 8.54 7.24
 5 -5 -12 20.02 6.69
 5 -5 -10 133.35 11.03
 5 -5 -9 123.95 11.17
 5 -5 -8 23.28 6.86
 5 -5 -6 10.6 5.38
 5 -5 -4 97.54 10
 5 -5 -3 17.6 5.4
 5 -5 -1 17.04 5.51
 5 -5 0 292.06 14.14
 5 -5 1 18.13 6.29
 5 -5 2 108.62 10.27
 5 -5 3 16.06 5.42
 5 -5 4 116.79 9.59
 5 -5 5 6.77 4.9
 5 -5 6 13.79 6.63
 5 -5 7 21.2 6.83
 5 -5 8 25.67 6.34
 5 -4 -15 15.21 6.84
 5 -4 -14 37.91 8.42
 5 -4 -13 88.46 9.79
 5 -4 -10 2.16 4.52
 5 -4 -9 5.28 4.72
 5 -4 -8 85.26 8.52
 5 -4 -7 21.99 5.56
 5 -4 -5 19.97 5.4
 5 -4 -4 15.39 5.43
 5 -4 -2 8.92 4.4
 5 -4 -1 58.45 6.8
 5 -4 0 389.09 14.85
 5 -4 1 59.51 6.97
 5 -4 2 7.61 4.12
 5 -4 3 81.23 7.66
 5 -4 4 23.85 5.49
 5 -4 6 78.88 7.92
 5 -4 7 23.87 5.61
 5 -3 -13 17.1 6.66
 5 -3 -12 6.79 5.09
 5 -3 -11 71.92 7.79
 5 -3 -10 99.14 8.49
 5 -3 -9 151.13 10.21
 5 -3 -8 136.58 9.65
 5 -3 -7 20.16 4.89
 5 -3 -6 37.58 5.98
 5 -3 -4 69.27 7.56
 5 -3 -3 93.42 7.89
 5 -3 -2 20.88 4.8
 5 -3 -1 342.86 12.86
 5 -3 0 79.48 7.54
 5 -3 1 357.42 13.5
 5 -3 2 21.52 4.6
 5 -3 3 103.72 8.13
 5 -3 4 73.04 7.68
 5 -3 5 236.86 11.74
 5 -3 6 38.77 6.15
 5 -2 -12 18.16 5.65
 5 -2 -11 91.52 8.2
 5 -2 -10 100.18 7.89
 5 -2 -9 97.59 8.18
 5 -2 -8 38.63 5.44
 5 -2 -7 56.32 5.94
 5 -2 -5 146.92 8.71
 5 -2 -4 103.55 7.42
 5 -2 -3 33.61 5.07
 5 -2 -2 3.59 3.01
 5 -2 -1 37.92 5.62
 5 -2 1 53.33 5.94
 5 -2 2 12.02 4.04
 5 -2 4 87.81 7.34
 5 -2 5 139.55 8.64
 5 -1 -11 3.92 3.19
 5 0 -9 110.2 6.54
 5 0 -8 116.18 6.48
 5 0 -7 93.81 5.78
 5 0 -6 155.38 6.84
 5 0 -5 17.88 3.23
 5 0 -4 60.76 4.63
 5 0 -3 16.18 3.16
 5 0 -2 13.16 2.85
 5 0 -1 295.22 8.65
 5 0 1 296.61 8.79
 5 1 -12 9.45 3.25
 5 1 -11 4.57 2.59
 5 1 -10 51.02 4.28
 5 1 -9 33.76 3.62
 5 1 -8 254.25 7.2
 5 1 -6 319.21 7.32
 5 1 -5 36.28 2.98
 5 1 -4 65.04 3.57
 5 1 -3 32.32 2.78
 6 -8 -5 27.95 9.39
 6 -8 -4 20.8 9.5
 6 -8 -3 13.57 7.99
 6 -8 -2 58.24 10.87
 6 -8 -1 55.03 10.34
 6 -8 0 28.18 8.75
 6 -8 2 44 9.45
 6 -8 4 20.7 8.19
 6 -8 5 15.66 8.28
 6 -8 6 96.02 13.46
 6 -7 -11 134.61 14.67
 6 -7 -10 28.58 8.4
 6 -7 -8 -0.08 6.76
 6 -7 -7 11.14 7.96
 6 -7 -6 8.22 6.9
 6 -7 -5 72.75 11
 6 -7 -4 93.87 12.61
 6 -7 -2 11.52 8.43
 6 -7 -1 80.78 12.51
 6 -7 0 8.01 8.31
 6 -7 2 5.1 6.7
 6 -7 3 -2.32 5.82
 6 -7 4 96.43 11.92
 6 -7 5 62.98 11.73
 6 -7 6 6.82 7.37
 6 -7 7 3.7 6.6
 6 -6 -15 25.89 9.79
 6 -6 -14 21.09 9.48
 6 -6 -12 17.32 7.69
 6 -6 -11 28.89 9.08
 6 -6 -9 25.33 7.98
 6 -6 -8 -1.62 5.8
 6 -6 -7 20.87 8.65
 6 -6 -6 18.9 7.76
 6 -6 -5 83.4 10.78
 6 -6 -4 18.45 7.11
 6 -6 -3 30.23 7.78
 6 -6 -2 3.16 6.34
 6 -6 -1 146.43 13.16
 6 -6 0 2.72 6.29
 6 -6 2 4.95 6.41
 6 -6 3 23.72 8.17
 6 -6 4 14.7 6.35
 6 -6 5 63.65 10.5
 6 -6 6 25.7 7.99
 6 -6 7 7.86 6.49
 6 -5 -18 -1.35 6.64
 6 -5 -17 5.73 8.14
 6 -5 -16 119.09 13.44
 6 -5 -15 121.68 13.29
 6 -5 -13 -2.32 7.06
 6 -5 -12 42.58 8.96
 6 -5 -11 47.3 9.63
 6 -5 -10 55.03 8.95
 6 -5 -9 58.38 9.89
 6 -5 -8 30.16 8.06
 6 -5 -7 33.16 7.59
 6 -5 -6 43.07 8.14
 6 -5 -4 -0.27 5.33
 6 -5 -3 2.2 6.42
 6 -5 -2 28.62 6.97
 6 -5 0 11.07 6.8
 6 -5 2 19.02 7.31
 6 -5 3 -3.78 4.4
 6 -5 4 6.65 6.77
 6 -5 5 94.19 9.81
 6 -5 6 44.74 8.91
 6 -4 -19 32.28 8.64
 6 -4 -18 76.72 11.71
 6 -4 -17 32.24 8.63
 6 -4 -16 2.1 6.28
 6 -4 -15 28.98 7.89
 6 -4 -13 28.33 7.27
 6 -4 -12 19.78 7.17
 6 -4 -11 16.88 6.13
 6 -4 -10 22.19 7.21
 6 -4 -9 44.85 8.93
 6 -4 -8 33.64 7.94
 6 -4 -6 16.71 6.35
 6 -4 -5 101.77 9.3
 6 -4 -4 57.77 8.09
 6 -4 -3 40.94 7.38
 6 -4 -2 2.79 4.8
 6 -4 -1 17.96 5.83
 6 -4 0 57.76 8.91
 6 -4 1 26.16 5.86
 6 -4 2 8.68 5.71
 6 -4 3 47.13 7.76
 6 -4 4 80.96 8.48
 6 -4 5 91.4 9.91
 6 -4 6 17.46 5.93
 6 -3 -20 42.09 9.65
 6 -3 -19 10.45 6.71
 6 -3 -18 15.08 6.69
 6 -3 -17 11.54 6.36
 6 -3 -16 20.1 6.4
 6 -3 -15 96.68 9.81
 6 -3 -14 142.55 11.66
 6 -3 -13 5.44 5.29
 6 -3 -11 1.59 4.83
 6 -3 -10 33.68 6.38
 6 -3 -9 27.79 5.98
 6 -3 -8 18.67 5.66
 6 -3 -7 18.17 6.02
 6 -3 -6 5.49 4.35
 6 -3 -5 167.31 10.84
 6 -3 -4 17.71 4.96
 6 -3 -3 21.23 5.44
 6 -3 0 26.14 5.62
 6 -3 1 50.31 6.78
 6 -3 2 100.67 8.56
 6 -3 3 19.81 5.53
 6 -3 4 10.3 5.61
 6 -3 5 186.38 11.51
 6 -2 -16 16.45 5.72
 6 -2 -15 3.55 5.04
 6 -2 -14 69.25 8.66
 6 -2 -13 48.03 7.24
 6 -2 -12 39.2 6.6
 6 -2 -11 122.58 9.35
 6 -2 -10 38.71 6.45
 6 -2 -9 9.46 5
 6 -2 -8 119.72 8.51
 6 -2 -7 2.83 4.17
 6 -2 -6 10.53 4.56
 6 -2 -4 13.88 4.51
 6 -2 -3 33.7 5.57
 6 -2 -2 65.25 6.96
 6 -2 -1 11.18 4.37
 6 -2 0 489.63 15.14
 6 -2 2 63.58 6.98
 6 -2 3 26.61 5.76
 6 -1 -14 166.21 10.18
 6 -1 -13 12.94 4.51
 6 -1 -12 85.24 7.61
 6 -1 -11 18.09 4.71
 6 -1 -10 9.53 3.82
 6 -1 -9 49.15 6.09
 6 -1 -8 7.64 4.1
 6 -1 -7 15.11 4.46
 6 -1 -6 11.26 3.95
 6 -1 -5 6.19 3.13
 6 -1 -4 93.07 6.79
 6 -1 -3 53.55 5.69
 6 -1 -2 75.26 6.19
 6 -1 -1 45.95 5.71
 6 0 -6 114.51 6.33
 6 0 -5 0.27 2.37
 6 0 -4 4.5 2.7
 6 0 -3 4.8 2.78
 6 0 -2 260.71 8.67
 6 0 -1 5.2 2.49
 7 -7 -2 15.8 8.67
 7 -7 -1 35.95 9.59
 7 -7 0 -2.08 6.9
 7 -7 1 24.7 8.72
 7 -6 -10 21.03 8.94
 7 -6 -9 12.46 7.95
 7 -6 -8 -3.15 5.98
 7 -6 -7 18.35 7.74
 7 -6 -4 24.52 7.84
 7 -6 -3 3.17 6.32
 7 -6 -2 -1.99 6.65
 7 -6 -1 17.09 8.31
 7 -6 0 139.53 13.4
 7 -6 2 3.81 6.57
 7 -6 3 8.52 6.73
 7 -6 4 12.1 7.06
 7 -6 5 24.16 7.94
 7 -5 -13 19.03 8.13
 7 -5 -12 59.36 10.69
 7 -5 -10 14.81 6.88
 7 -5 -9 10.13 6.51
 7 -5 -7 10.8 6.59
 7 -5 -5 73.23 9.93
 7 -5 -4 52.04 9.19
 7 -5 -3 1.01 5.9
 7 -5 -2 46.14 8.78
 7 -5 -1 116.57 11.37
 7 -5 1 119.91 11.97
 7 -5 3 2.04 6.92
 7 -5 4 43.02 8.57
 7 -4 -14 1.46 6.04
 7 -4 -13 44.3 8.69
 7 -4 -12 74.3 9.46
 7 -4 -10 50.29 8.31
 7 -4 -9 19.41 7.59
 7 -4 -8 19.43 6.55
 7 -4 -7 25.49 6.86
 7 -4 -6 5.86 5.3
 7 -4 -5 0.73 5.07
 7 -4 -4 14.94 6.76
 7 -4 -3 28.18 7.79
 7 -4 -2 53.63 8.72
 7 -4 -1 168.12 11.95
 7 -4 0 153.56 11.85
 7 -4 1 158.61 12.32
 7 -4 2 60.78 8.24
 7 -4 3 34.34 7.64
 7 -4 4 10.61 6.93
 7 -3 -12 26.32 6.59
 7 -3 -11 -1.76 5.79
 7 -3 -10 0.65 4.76
 7 -3 -9 13.67 5.5
 7 -3 -8 43.11 7.12
 7 -3 -7 93.72 9.42
 7 -3 -6 11.6 5.53
 7 -3 -4 11.52 4.97
 7 -3 -3 144.04 10.6
 7 -3 -2 22.29 6.34
 7 -3 -1 53.9 7.43
 7 -3 0 6.59 5.71
 7 -3 2 30.32 7.46
 7 -2 -8 18.03 5.34
 7 -2 -7 30.02 6.2
 7 -2 -6 24.54 5.11
 7 -2 -5 3.22 4.15
 7 -2 -4 2.14 3.72
 7 -2 -3 20.66 5.7
 7 -2 -1 6.95 4.44
 7 -2 0 23.09 5.74
 7 -2 1 4.01 3.91
 7 -1 -1 95.92 7.14
 8 -5 -6 45.95 9.99
 8 -5 -5 93.46 11.33
 8 -5 -4 16.9 8.27
 8 -5 -3 32.61 8.82
 8 -5 -2 22.88 8.1
 8 -5 -1 12.35 7.05
 8 -5 0 12.54 6.75
 8 -5 1 24.05 7.62
 8 -4 -2 21.76 7.19
 8 -4 -1 11.9 6.65
 8 -4 1 1.87 5.37
 0 0 4 1631.55 10.07
 0 0 6 3.82 1.35
 0 0 10 395.34 8.22
 0 0 14 51.56 4.42
 0 1 8 31.59 2.67
 0 1 9 108.14 4.89
 0 1 10 40.94 3.58
 0 1 11 4.82 2.01
 0 1 12 2294.61 23.53
 0 1 13 249.46 8.41
 0 1 14 178.83 7.32
 0 1 15 986.81 17.39
 0 1 16 1662.85 23.46
 0 2 7 1380.92 16.12
 0 2 8 144.94 5.84
 0 2 10 5.27 2.53
 0 2 11 382.88 10.11
 0 2 14 164.09 7.7
 0 2 15 140.06 7.68
 0 2 16 34.79 4.73
 0 3 4 198.42 6.1
 0 3 5 576.72 10.7
 0 3 6 60.81 4.19
 0 3 7 306.08 8.61
 0 3 8 17.87 2.91
 0 3 11 307.02 9.91
 0 3 12 40.95 4.59
 0 3 14 645.25 15.56
 0 3 15 1086.44 21
 0 3 16 163.38 8.76
 0 3 18 -0.6 3.19
 0 3 19 262.26 12.03
 0 4 -4 175.04 3.42
 0 4 -3 936.97 8.8
 0 4 -2 1847.1 13.59
 0 4 2 1874.83 18.25
 0 4 3 920.42 13.63
 0 4 4 171.21 6.24
 0 4 5 206.85 7.29
 0 4 6 104.39 5.73
 0 4 7 328.12 9.6
 0 4 9 667.99 14.49
 0 4 10 23.55 4.18
 0 4 11 352.78 11.51
 0 4 12 1.64 2.91
 0 4 13 34.66 4.8
 0 4 14 -1.11 3.71
 0 4 15 31.31 5.08
 0 4 16 58.05 6.52
 0 4 17 5.04 4.2
 0 4 18 0.23 3.58
 0 4 19 0.92 4.92
 0 5 -4 84.6 2.97
 0 5 2 3.44 1.81
 0 5 4 92.72 5.32
 0 5 5 421.76 10.97
 0 5 6 7.59 2.66
 0 5 7 41.49 4.88
 0 5 9 119.4 7.35
 0 5 10 6.49 3.23
 0 5 12 37.03 5.51
 0 5 13 100.75 8.15
 0 5 15 241.8 11.47
 0 5 16 390.52 14.55
 0 5 17 -2.04 4.06
 0 5 18 293.12 14.03
 0 5 19 19.38 5.64
 0 6 -2 318.69 7.37
 0 6 -1 446.09 9.27
 0 6 0 450.52 9.79
 0 6 1 445.64 10.21
 0 6 2 315.44 9.19
 0 6 3 11.74 2.76
 0 6 4 349.55 10.3
 0 6 6 435.16 12.44
 0 6 7 133.55 7.52
 0 6 8 3.32 3.18
 0 6 9 308.24 11.45
 0 6 10 6.32 3.54
 0 6 12 30.21 6.17
 0 6 13 -0.96 3.86
 0 6 14 1.84 4.36
 0 6 15 43.23 7.05
 0 6 16 3.38 5.09
 0 6 17 24.52 5.93
 0 7 1 100.27 5.55
 0 7 2 185.77 7.59
 0 7 4 27.53 4.04
 0 7 5 118.05 7.04
 0 7 6 11.6 3.54
 0 7 8 67.43 6.7
 0 7 9 16.52 4.45
 0 7 10 236.6 11.4
 0 7 11 140.3 9.7
 0 7 12 -3.06 3.36
 0 7 13 44.13 6.5
 0 7 14 36.57 6.55
 0 8 2 1.37 2.4
 0 8 3 87.14 6.41
 0 8 4 48.45 5.96
 0 8 5 247.99 10.65
 0 8 6 18.13 4.48
 0 8 7 175.29 9.76
 0 8 8 28.79 5.47
 0 8 9 8.69 4.59
 0 8 10 4.1 4.02
 0 8 11 31.97 6.94
 0 8 12 -2.9 3.99
 1 -3 -5 111.28 4.97
 1 -3 -2 445.6 8.22
 1 -3 -1 1339.03 12.99
 1 -3 0 119.44 3.92
 1 -3 1 1361.76 11.42
 1 -3 2 443.86 6.1
 1 -3 3 375.65 5.09
 1 -3 4 971.13 7.09
 1 -3 5 113.98 2.08
 1 -2 -8 122.39 5.53
 1 -2 -7 906.89 12.99
 1 -2 -6 1397.67 15.36
 1 -2 -5 111.45 4.7
 1 -2 -4 282.47 6.46
 1 -2 -3 1288.74 12.83
 1 -2 -2 294.78 5.95
 1 -2 -1 627.1 8.13
 1 -2 10 272.03 4.97
 1 -2 11 156.9 4.01
 1 -1 -10 513.15 10.41
 1 -1 -9 625.56 10.93
 1 -1 -8 190.69 6.1
 1 -1 -7 948.95 12.31
 1 -1 -6 1623.86 15.23
 1 -1 -5 2156.41 16.65
 1 -1 12 635.29 10.32
 1 -1 13 13.04 2.04
 1 -1 14 83.76 4.33
 1 -1 15 710.79 12.22
 1 -1 16 120.64 5.51
 1 -1 17 124.22 5.73
 1 -1 18 79.69 5.16
 1 0 -11 108.18 4.8
 1 0 -10 1308.08 15.08
 1 0 -8 536.46 8.92
 1 0 -7 3195.72 20.6
 1 0 13 36.18 3.72
 1 0 14 69.97 4.86
 1 0 15 250.2 8.32
 1 0 16 221.93 7.98
 1 0 17 102.01 6.19
 1 0 18 1.23 2.25
 1 0 19 45.54 5.03
 1 0 20 4.39 2.69
 1 1 -11 159.86 5.27
 1 1 -10 494.76 8.62
 1 1 -9 630.46 9.26
 1 1 14 92.46 5.97
 1 1 15 733.42 15.1
 1 1 16 108.19 6.67
 1 1 17 133.01 7.23
 1 1 18 85.51 6.48
 1 1 19 16.09 4.52
 1 1 20 59.04 5.94
 1 1 22 312.69 12.66
 1 2 -11 169.36 4.94
 1 2 -10 268.29 5.86
 1 2 -9 629.9 8.52
 1 2 14 419.41 12.08
 1 2 15 270.59 10.12
 1 2 16 0.69 3.23
 1 2 17 35.03 5.37
 1 2 18 0.17 2.82
 1 2 19 13.98 4.1
 1 2 20 143.59 8.9
 1 2 21 40.16 6.14
 1 2 22 22.95 5.78
 1 2 23 129.89 9.84
 1 3 -11 30.27 2.17
 1 3 -10 46.42 2.42
 1 3 13 356.21 11.74
 1 3 14 18.24 4.52
 1 3 15 31.69 5.37
 1 3 16 644.46 16.83
 1 3 20 129.87 9.71
 1 3 21 125.8 9.75
 1 3 22 115.68 9.87
 1 4 -10 16.2 1.42
 1 4 13 29.19 4.81
 1 4 14 223.03 10.2
 1 4 15 180.91 9.8
 1 4 16 34.8 6.25
 1 4 18 105.6 8.41
 1 4 19 6.89 4.27
 1 4 20 47.44 6.89
 1 4 21 15.94 5.79
 1 5 12 80.07 6.72
 1 5 13 24.19 5.35
 1 5 14 249.19 11.35
 1 5 15 22.83 5.83
 1 5 17 12.07 4.63
 1 5 18 4.49 4.86
 1 5 19 97.24 8.75
 1 6 -8 171.36 2.99
 1 6 -7 249.17 4.85
 1 6 8 159.34 8.71
 1 6 9 44.75 5.56
 1 6 10 17.64 4.42
 1 6 11 183.87 10.38
 1 6 13 65.09 6.9
 1 6 14 27.8 6.22
 1 6 15 40.43 6.57
 1 6 16 3.01 4.3
 1 6 17 59.32 8.13
 1 7 -7 69.03 2.64
 1 7 -4 12.73 2.22
 1 7 -3 10.65 2.34
 1 7 -2 32.99 3.39
 1 7 -1 51.85 4.23
 1 7 0 53.56 4.63
 1 7 1 53.45 4.86
 1 7 4 14.16 3.65
 1 7 5 191.91 9.22
 1 7 6 21.01 5.09
 1 7 7 65.31 6.57
 1 7 8 46.95 5.96
 1 7 9 7.63 3.74
 1 7 10 77.59 7.1
 1 7 11 84.02 7.42
 1 7 12 235.81 11.79
 1 7 13 100.35 8.78
 1 7 14 274.92 13.64
 1 8 -3 92.51 4.89
 1 8 -1 16.97 3.24
 1 8 0 -1.82 2.22
 1 8 1 15.82 3.25
 1 8 2 164.2 8.07
 1 8 3 94.63 6.8
 1 8 5 83.36 6.63
 1 8 6 26.2 5.57
 1 8 7 110.27 7.92
 1 8 8 39.27 6.43
 1 8 9 162.07 10.14
 1 8 10 3.27 4.03
 1 8 11 23.86 5.52
 1 8 12 41.62 7.02
 1 9 0 0.71 2.02
 1 9 2 44.31 5.4
 1 9 3 46.41 5.48
 1 9 4 96.51 7.46
 1 9 5 70.31 7.18
 1 9 6 17.8 4.91
 1 9 7 86.72 7.56
 1 9 8 69.08 8.63
 1 9 9 63.41 7.69
 2 -5 0 50.95 3.5
 2 -4 3 461.19 7.82
 2 -4 4 79.74 3.27
 2 -4 5 195.52 4.65
 2 -4 7 192.71 4
 2 -2 -6 921.32 14.07
 2 -1 17 32.82 4.13
 2 -1 18 127.64 6.25
 2 -1 19 5.03 2.37
 2 -1 20 115.72 6.3
 2 0 17 109.88 6.52
 2 0 18 24.15 4.49
 2 0 19 3.06 3.15
 2 0 20 51.42 5.46
 2 0 21 7.96 3.74
 2 0 22 70.76 6.38
 2 0 23 78.29 6.46
 2 1 18 122.6 7.77
 2 1 19 5.36 3.85
 2 1 20 113.37 8
 2 1 24 46.12 6.15
 2 2 -12 216.65 6.89
 2 2 18 4.25 4.39
 2 2 19 14.05 4.38
 2 2 20 7.5 4.65
 2 2 22 4.77 4.73
 2 2 23 21.4 5.63
 2 3 -14 14.69 2.51
 2 3 -13 197.79 6.3
 2 3 18 40.59 5.91
 2 3 19 18.02 5.18
 2 3 20 210.11 11.7
 2 3 21 13.61 4.82
 2 4 -13 142.39 4.98
 2 4 17 34.85 6.14
 2 4 18 15.16 5.31
 2 4 20 80.84 9.11
 2 5 16 13.65 5.19
 2 5 17 31.04 6.14
 2 6 16 5.64 4.7
 2 7 11 55.63 6.9
 2 7 13 96.1 9.48
 2 8 7 34.54 5.8
 2 8 8 94.98 8.26
 2 8 9 41.22 6.74
 2 8 10 25.59 5.97
 2 9 1 94.01 6.93
 2 9 2 92.52 7.18
 2 9 3 25.23 4.66
 2 9 4 13.54 4.26
 2 9 5 43.02 6.23
 2 9 6 4.63 3.95
 2 9 7 19.24 5.42
 3 -5 3 74.73 4.14
 3 -5 4 0.31 1.39
 3 -5 5 161.63 5.32
 3 -5 6 95.78 3.98
 3 0 20 -0.97 3.33
 3 0 21 497.86 14.65
 3 0 22 1.45 2.87
 3 1 21 62.7 7.33
 3 1 22 9.63 4.42
 3 1 23 81.85 7.86
 3 2 21 193.13 10.99
 3 2 22 65.94 7.94
 3 3 20 119.77 9.19
 0 -6 0 457.82 7.3
 0 -6 3 8.18 2.23
 0 -6 4 344.02 8.6
 0 -6 5 37.79 4.02
 0 -6 9 285.56 10.24
 0 -6 10 6.26 3.53
 0 -5 -2 3.97 0.87
 0 -5 -1 310.21 5.08
 0 -5 2 4.99 1.73
 0 -5 3 326.31 7.42
 0 -5 4 81.52 4.4
 0 -5 5 418.1 9.46
 0 -5 6 8.51 2.39
 0 -5 7 43.55 4.13
 0 -5 11 7.84 3.3
 0 -5 12 34.57 5.17
 0 -4 -9 661.83 6.62
 0 -4 -8 37.39 1.54
 0 -4 -2 1883.99 9.36
 0 -4 -1 1121.87 8.56
 0 -4 2 1876.51 15.17
 0 -4 3 903.84 11.41
 0 -4 4 165.46 5.52
 0 -4 6 99.62 4.8
 0 -4 7 331.65 8.88
 0 -4 8 34.34 4.14
 0 -4 12 0.85 2.83
 0 -4 13 32.49 4.79
 0 -3 -6 68.1 1.97
 0 -3 -5 601.74 4.56
 0 -3 1 410.73 5.99
 0 -3 2 2.64 1.32
 0 -3 3 1439.49 13.2
 0 -3 5 592.97 9.87
 0 -3 6 59.46 3.77
 0 -3 7 314.15 8.19
 0 -3 8 18.31 2.92
 0 -3 9 379.17 9.87
 0 -3 10 57.72 4.7
 0 -3 13 87.06 6.56
 0 -3 14 663.3 16.17
 0 -2 -5 968.93 7.04
 0 -2 -4 1813.36 8.06
 0 -2 1 3764.16 15.03
 0 -2 2 1967.57 12.39
 0 -2 3 3645.93 18.68
 0 -2 4 1774.03 14.17
 0 -2 5 955.26 11.36
 0 -2 6 1164.93 13.36
 0 -2 8 151.1 5.97
 0 -2 10 2.92 2.63
 0 -2 11 386.83 10.25
 0 -1 -4 513.81 5.21
 0 -1 -3 824.42 5.35
 0 -1 1 263.82 3.29
 0 -1 2 -0.32 0.94
 0 -1 3 818.13 7.74
 0 -1 5 955.99 10.29
 0 -1 6 1764.08 15.11
 0 -1 8 25.88 2.59
 0 -1 9 115.67 5.08
 0 -1 10 43.59 3.65
 0 -1 11 3.32 2.1
 0 -1 12 2265.9 24.48
 0 0 -2 487.09 4.23
 0 0 4 1624.75 10.62
 0 0 6 3.48 1.34
 0 0 8 2.55 1.92
 0 1 -2 0.57 1.07
 0 1 -1 289.86 3.49
 0 2 -1 3859.74 15.27
 1 -8 0 -1.08 0.95
 1 -8 4 64.19 5.05
 1 -8 5 88.11 6.04
 1 -8 6 24.08 3.99
 1 -8 8 47.68 6.05
 1 -8 9 161.94 9.1
 1 -8 10 5.74 4.69
 1 -8 11 20.04 5.84
 1 -8 13 95.54 9.39
 1 -7 -1 59.02 3.44
 1 -7 1 51.12 3.81
 1 -7 2 38.59 3.77
 1 -7 6 19.79 3.64
 1 -7 7 68.68 5.91
 1 -7 8 47.26 6.17
 1 -7 9 4.74 4.1
 1 -7 10 87.34 7.18
 1 -7 12 226.08 11.27
 1 -7 13 97.53 8.73
 1 -7 14 266.73 12.63
 1 -7 15 119.95 10.27
 1 -7 16 17.62 6.08
 1 -6 -6 95.59 3.07
 1 -6 -5 60.06 2.73
 1 -6 -4 258.25 5.49
 1 -6 -3 250.93 5.7
 1 -6 0 476.68 9.26
 1 -6 1 124.94 5.27
 1 -6 2 327.91 8.5
 1 -6 4 240.42 8.15
 1 -6 8 169.21 8.16
 1 -6 9 60.1 5.99
 1 -6 10 11.02 3.77
 1 -6 11 179.87 9.63
 1 -6 12 41.43 5.81
 1 -6 13 61.01 7.63
 1 -6 14 30.96 5.55
 1 -6 15 37.09 7.16
 1 -6 16 10.92 4.93
 1 -6 17 61.24 9.02
 1 -5 -1 306.83 6.77
 1 -5 0 85.2 4.06
 1 -5 1 312.14 7.44
 1 -5 2 130.24 5.27
 1 -5 3 301.16 8.09
 1 -5 4 40.48 3.7
 1 -5 5 46.23 4.35
 1 -5 6 77.13 5.43
 1 -5 10 82.81 6.72
 1 -5 11 141.91 8.14
 1 -5 12 82.51 6.5
 1 -5 14 231.64 11.2
 1 -5 15 21.74 5.25
 1 -5 16 145.14 9.38
 1 -4 -1 395.35 7.37
 1 -4 0 1437.85 14.12
 1 -4 1 405.73 8.06
 1 -4 2 256.09 6.74
 1 -4 3 861.19 12.58
 1 -4 4 327.39 8.29
 1 -4 5 11.62 2.74
 1 -4 6 839.29 14.15
 1 -4 7 171.12 7.12
 1 -4 11 346.01 11.3
 1 -4 12 7.5 3.19
 1 -4 13 33.11 4.82
 1 -4 15 176.53 10.03
 1 -4 18 113.34 8.84
 1 -4 19 16.47 5.47
 1 -3 1 1351.59 13.44
 1 -3 2 433.61 8.07
 1 -3 3 377.36 7.97
 1 -3 4 948.83 12.84
 1 -3 13 374.67 12.04
 1 -3 14 16.03 3.96
 1 -3 15 45.05 6.07
 1 -3 16 632.17 17.05
 1 -3 17 98.66 8.03
 1 -3 18 65.42 7.99
 1 -2 3 1279.1 13.03
 1 -2 4 282.12 6.76
 1 -2 6 1337.3 15.45
 1 -2 9 628.75 12.4
 1 -2 10 279.3 8.86
 1 -2 14 411.49 12.44
 1 -2 16 5.79 3.37
 1 -2 18 0.06 3.2
 1 -2 19 11.17 4.52
 1 -1 3 304.01 5.95
 1 -1 5 2165.33 17.13
 1 -1 6 1607.49 15.59
 1 -1 7 947.11 12.85
 1 -1 9 650.25 11.83
 1 -1 10 496.47 10.77
 1 -1 11 161.42 6.58
 1 -1 16 109.42 6.93
 1 -1 17 135.1 7.87
 1 -1 18 89.05 6.92
 1 0 4 345.87 6.04
 1 0 6 6100.23 27.51
 1 0 7 3160.72 21.12
 1 0 8 557.64 9.75
 1 0 9 95.69 4.75
 1 0 10 1284.9 16.18
 1 0 11 100.62 5
 1 0 12 281.1 8.49
 1 0 16 245.72 9.67
 1 0 17 104.82 7.3
 1 1 4 17.9 1.7
 1 1 5 2162.86 13.49
 1 1 7 924.92 10.57
 1 1 8 184.05 5.3
 1 1 9 648.1 10.06
 1 1 10 503.78 9.45
 1 1 11 163.14 5.96
 1 1 13 10.43 2.93
 1 1 14 89.41 5.47
 1 2 4 289.96 3.76
 1 2 5 105.23 2.62
 1 2 6 1369.89 9.97
 1 2 7 887.74 8.87
 1 2 9 610.25 8.73
 1 2 10 249.85 6.06
 1 2 11 168.94 5.44
 1 2 12 229.25 6.68
 1 3 1 1351.81 8.03
 1 4 1 406.96 4.78
 2 -9 7 23.81 4.97
 2 -9 9 156.57 9.85
 2 -9 10 45.19 6.81
 2 -9 11 38.46 6.59
 2 -9 12 35.69 7.06
 2 -9 13 27.64 7.15
 2 -9 14 26.37 7.38
 2 -9 15 5.11 5.58
 2 -8 2 59.42 5.1
 2 -8 3 306.26 10.38
 2 -8 4 21.51 4.06
 2 -8 5 28.45 5.04
 2 -8 6 2.05 3.62
 2 -8 7 38.48 5.76
 2 -8 8 76.4 7.54
 2 -8 9 42.75 6.21
 2 -8 10 31.78 6.72
 2 -8 11 92.72 8.62
 2 -8 12 61.96 7.98
 2 -8 13 31.13 7.13
 2 -8 14 20.6 6.37
 2 -8 15 7.37 6.59
 2 -8 16 33.22 7.26
 2 -8 17 133.15 12.14
 2 -8 18 -3.02 5.49
 2 -7 -6 0.42 1.06
 2 -7 -2 39.34 3.75
 2 -7 3 8.31 2.97
 2 -7 4 66.21 5.8
 2 -7 5 136.2 7.88
 2 -7 6 0.04 3.9
 2 -7 7 283.69 11.35
 2 -7 9 302.94 12.26
 2 -7 10 6.36 5.13
 2 -7 11 55.44 7.05
 2 -7 12 28.06 5.86
 2 -7 13 84.87 8.78
 2 -7 14 11.91 5.46
 2 -7 15 71.11 8.66
 2 -7 16 13.31 7.15
 2 -7 17 69.13 9.2
 2 -7 19 25.81 8.75
 2 -7 20 39.86 8.38
 2 -6 -3 337.68 8.86
 2 -6 -2 115.34 5.53
 2 -6 0 11.25 3.05
 2 -6 5 94.75 6.63
 2 -6 6 69.49 6.01
 2 -6 7 106.24 6.98
 2 -6 8 4.26 3.36
 2 -6 10 75.04 6.93
 2 -6 12 124.24 8.75
 2 -6 13 15.06 4.75
 2 -6 14 73.95 8.16
 2 -6 16 0.5 5.81
 2 -6 17 73.53 9.72
 2 -6 18 1.79 5.05
 2 -6 19 73.8 9.05
 2 -6 20 23.22 7.8
 2 -5 1 134.62 6.13
 2 -5 2 328.81 9.52
 2 -5 3 242.31 8.62
 2 -5 7 572.82 13.88
 2 -5 8 24.09 4.58
 2 -5 9 162.83 8.3
 2 -5 10 43.34 6.22
 2 -5 12 155.36 9.25
 2 -5 13 338.34 13
 2 -5 14 4.02 3.94
 2 -5 15 28.38 5.8
 2 -5 16 13.39 5.15
 2 -5 17 35.95 6.71
 2 -5 18 65.58 8.57
 2 -5 19 132.25 10.38
 2 -5 21 4.03 6.13
 2 -4 2 144.03 6.19
 2 -4 3 477.24 10.99
 2 -4 4 73.57 5.08
 2 -4 5 186.75 7.61
 2 -4 9 3.9 3.16
 2 -4 10 16.09 3.84
 2 -4 13 145.77 9.29
 2 -4 14 391.59 14
 2 -4 15 99.87 7.9
 2 -4 18 14.85 6.4
 2 -4 19 33.81 7.89
 2 -4 20 60.1 8.83
 2 -4 21 160.41 12.35
 2 -4 22 63.88 10.23
 2 -4 23 96.43 12.41
 2 -3 4 34.01 3.52
 2 -3 5 423.72 10.3
 2 -3 6 508.04 11.54
 2 -3 7 15.94 3.33
 2 -3 11 179.49 8.69
 2 -3 12 18.58 3.78
 2 -3 13 204.85 9.85
 2 -3 15 61.71 6.86
 2 -3 16 86.71 7.24
 2 -3 17 82.1 8.39
 2 -3 18 44.01 7.21
 2 -3 19 21.02 5.58
 2 -3 20 215.27 12.03
 2 -3 21 24.9 6.29
 2 -3 22 88.67 9.93
 2 -3 23 55.93 8.92
 2 -2 5 79.95 5.15
 2 -2 6 883.21 14.38
 2 -2 7 304.69 9.07
 2 -2 8 385.56 10.44
 2 -2 9 300.35 9.37
 2 -2 13 58.52 6.05
 2 -2 14 55.06 6.15
 2 -2 15 89.91 7.23
 2 -2 16 65.91 7.08
 2 -2 18 0.76 4.78
 2 -2 19 14.61 4.91
 2 -2 20 14.55 5.06
 2 -2 22 1.62 5.83
 2 -1 7 105.08 5.04
 2 -1 8 51.92 4.31
 2 -1 9 426.81 10.55
 2 -1 10 203.35 8
 2 -1 14 195.09 8.94
 2 -1 15 29.11 5.37
 2 -1 16 13.56 4.15
 2 -1 17 33.6 5.22
 2 -1 18 113.68 8.29
 2 -1 19 4.43 4.53
 2 -1 20 120.89 8.72
 2 -1 21 90.6 8.7
 2 0 6 1056.08 14.05
 2 0 7 1.77 2.18
 2 0 8 764.86 12.66
 2 0 9 30.7 3.65
 2 0 10 107.62 5.56
 2 0 11 3.95 2.21
 2 0 15 17.77 3.69
 2 0 16 114.23 7.33
 2 0 17 106.93 7.64
 2 0 18 20.59 4.39
 2 0 19 4.87 4.67
 2 1 6 1348.55 14.64
 2 1 8 42.16 3.47
 2 1 9 433.92 9.2
 2 1 10 192.26 6.6
 2 1 11 9.98 2.44
 2 1 13 97.97 5.91
 2 1 16 12.05 3.3
 2 1 17 31.59 4.82
 2 1 18 123.29 7.8
 2 1 19 -0.34 3.37
 2 1 20 121.19 8.49
 2 2 6 912.54 10.91
 2 2 7 300.56 6.59
 2 2 8 403.09 7.88
 2 2 9 316.81 7.24
 2 2 10 401.65 8.5
 2 2 11 84.75 4.66
 2 2 12 223.71 7.17
 2 2 13 54.79 4.37
 2 2 18 -0.33 2.77
 2 3 6 508.29 7.07
 2 3 7 15.1 1.82
 2 3 8 398.12 6.69
 2 3 9 489.36 7.92
 2 3 10 27.08 2.76
 2 3 11 178.95 5.44
 2 3 12 17.76 2.66
 2 3 13 202.87 6.44
 2 3 14 12.73 2.51
 2 4 5 194.1 3.27
 2 4 6 283.66 3.62
 2 4 8 341.57 4.35
 2 4 9 1.58 0.97
 2 5 3 261.01 3.03
 3 -10 12 16.6 6.77
 3 -10 13 6.29 6.99
 3 -9 5 48.57 6.21
 3 -9 6 24.86 5.38
 3 -9 7 36.02 6.83
 3 -9 8 89.22 8.75
 3 -9 9 6.54 5.58
 3 -9 10 8 5.94
 3 -9 12 26.92 7.58
 3 -9 13 93.63 10.09
 3 -9 14 -1.67 6.58
 3 -9 15 2.07 5.49
 3 -9 16 49.3 10.42
 3 -8 -1 0.77 2.6
 3 -8 0 39.74 4.94
 3 -8 1 4.67 3.08
 3 -8 2 8.69 4.17
 3 -8 3 146.15 8.61
 3 -8 4 123.27 8.26
 3 -8 5 30.57 5.6
 3 -8 6 101.69 8.6
 3 -8 7 76.79 8.01
 3 -8 8 74.54 7.99
 3 -8 9 59.67 8.55
 3 -8 10 45.77 7.83
 3 -8 11 58.81 8.07
 3 -8 12 0.34 6.1
 3 -8 13 50.11 8.61
 3 -8 14 1.66 5.31
 3 -8 15 97.31 10.86
 3 -8 16 -1.84 5.99
 3 -8 17 74.9 10.19
 3 -8 18 7.4 7.61
 3 -7 -4 14.16 3.63
 3 -7 -3 201.55 8.43
 3 -7 -2 58 5.25
 3 -7 -1 96.66 6.43
 3 -7 1 105.59 7.19
 3 -7 3 236.67 10.16
 3 -7 4 18.73 4.52
 3 -7 6 61.03 7.21
 3 -7 7 60.67 7.34
 3 -7 8 29.63 6.45
 3 -7 9 73.85 9.02
 3 -7 10 26.6 6.53
 3 -7 13 33.66 6.78
 3 -7 14 1.8 5.36
 3 -7 15 26.53 7.12
 3 -7 16 64.99 9.88
 3 -7 17 5.44 7.62
 3 -7 18 7.52 6.95
 3 -7 19 176.93 13.58
 3 -7 20 24.31 8
 3 -6 0 31.3 4.71
 3 -6 1 8.07 3.08
 3 -6 2 36.13 5.35
 3 -6 3 349.88 11.76
 3 -6 4 64.32 6.28
 3 -6 5 39.05 5.71
 3 -6 6 109.75 8.06
 3 -6 7 211.41 10.16
 3 -6 8 298.47 12.45
 3 -6 10 31.59 5.89
 3 -6 11 24.37 5.46
 3 -6 12 100.34 9.2
 3 -6 13 62.56 8.91
 3 -6 14 47.21 8.54
 3 -6 15 154.89 12.01
 3 -6 18 24.01 8.63
 3 -6 19 31.33 9.45
 3 -6 20 40.29 9.32
 3 -6 21 -1.06 6.54
 3 -6 22 40.87 9.68
 3 -5 2 41.46 5.75
 3 -5 4 0.13 2.98
 3 -5 6 110.49 7.8
 3 -5 7 66.93 6.43
 3 -5 8 304.21 11.81
 3 -5 10 158.23 9.12
 3 -5 11 35.99 6.55
 3 -5 12 200.3 11.03
 3 -5 13 18.53 5.37
 3 -5 15 49.13 7.93
 3 -5 16 15.66 5.8
 3 -5 17 11.65 5.78
 3 -5 18 149.61 11.78
 3 -5 19 134.56 11.82
 3 -5 21 2.68 6.95
 3 -5 22 110.7 12.63
 3 -5 24 -3.95 8.36
 3 -4 6 179.34 8.84
 3 -4 7 98.02 7.25
 3 -4 10 199.12 10.28
 3 -4 11 53.61 6.27
 3 -4 12 195.87 10.4
 3 -4 13 22.49 5.87
 3 -4 14 82.22 7.72
 3 -4 15 56.58 8.19
 3 -4 17 17.79 5.77
 3 -4 18 86.12 9.86
 3 -4 19 35.98 8.21
 3 -4 20 48.78 8.2
 3 -4 22 10.36 6.78
 3 -4 23 61.66 10.67
 3 -4 24 9.43 8.4
 3 -4 25 14.11 9.56
 3 -3 8 203.06 8.87
 3 -3 9 84.78 6.77
 3 -3 10 41 5.74
 3 -3 11 48.68 6.44
 3 -3 12 236.91 11
 3 -3 13 1.77 3.79
 3 -3 14 70.37 6.72
 3 -3 15 73.48 7.88
 3 -3 16 79.41 8.66
 3 -3 17 32.06 6.13
 3 -3 18 117.4 9.89
 3 -3 19 -1.67 5.23
 3 -3 20 127.28 10.06
 3 -3 21 86.03 10.55
 3 -3 22 78.28 10.58
 3 -3 23 78.62 10.31
 3 -3 24 30.96 7.87
 3 -3 25 31.1 8.57
 3 -2 10 17.47 3.89
 3 -2 11 120.04 7.8
 3 -2 12 79.6 6.69
 3 -2 13 15.74 4.15
 3 -2 15 58.11 6.83
 3 -2 16 55.31 7.4
 3 -2 17 39.11 6.53
 3 -2 18 49.41 7.08
 3 -2 19 66.45 8.9
 3 -2 20 0.54 4.57
 3 -2 21 202.15 12.66
 3 -2 22 52.25 8.99
 3 -2 23 129.59 10.86
 3 -2 24 25.02 7.78
 3 -2 25 2.04 7.71
 3 -1 11 112.04 7.06
 3 -1 12 125.57 7.24
 3 -1 13 365.69 12.32
 3 -1 14 122.87 8.36
 3 -1 15 192.21 10.1
 3 -1 16 8.07 5
 3 -1 17 24.65 5.87
 3 -1 18 18.39 5.01
 3 -1 19 65.95 7.91
 3 -1 20 48.48 8.09
 3 -1 21 61.09 7.77
 3 -1 22 14.07 6.46
 3 -1 23 74.71 9.08
 3 -1 24 176.68 12.68
 3 -1 25 14.62 7.96
 3 0 8 478.82 11.7
 3 0 9 53.15 5.05
 3 0 13 7.97 3.53
 3 0 14 2.53 3.06
 3 0 15 24.94 5.05
 3 0 17 179.45 9.91
 3 0 18 -0.74 4.02
 3 0 19 3.52 4.23
 3 0 20 -5.6 3.49
 3 0 22 0.47 4.3
 3 0 24 0.14 4.94
 3 1 8 204.63 7.69
 3 1 9 268.04 8.6
 3 1 10 44.73 4.73
 3 1 14 110.35 6.93
 3 1 15 171.75 8.6
 3 1 16 5.18 3.58
 3 1 17 14.92 4.01
 3 1 18 13.24 4.08
 3 1 19 57.25 6.72
 3 1 20 57.43 7.26
 3 1 22 9.98 4.76
 3 1 23 93.74 9.41
 3 2 8 534.81 10.97
 3 2 9 538.62 11.17
 3 2 10 14.12 2.75
 3 2 11 112.14 5.85
 3 2 17 44.11 5.37
 3 2 19 74.76 6.69
 3 2 20 8.02 4
 3 2 21 181.33 9.97
 3 3 8 220.36 6.56
 3 3 9 88 4.74
 3 3 10 44.01 3.7
 3 3 11 48.52 4.12
 3 3 12 270.89 8.07
 3 3 13 1.41 2.51
 3 3 14 71.74 5.14
 3 3 17 30.79 4.3
 3 3 18 98.92 6.45
 3 3 19 0.72 3.03
 3 4 7 107.14 4.21
 3 4 9 9.36 2.02
 3 4 10 191.4 5.51
 3 4 11 52.72 3.5
 3 4 12 191.32 5.84
 3 4 13 28.29 3.08
 3 4 14 73.41 4.33
 3 4 15 53.56 4.08
 3 5 6 98.68 3.07
 3 5 7 57.39 2.28
 4 -10 10 33.28 8.47
 4 -9 3 60.77 7.06
 4 -9 4 7.5 4.85
 4 -9 5 65.9 8.25
 4 -9 6 23.96 6.59
 4 -9 7 2.09 5.16
 4 -9 8 42.94 8.18
 4 -9 9 7.18 5.64
 4 -9 10 48.44 9.14
 4 -9 12 11.52 7.74
 4 -8 -1 8.98 4.29
 4 -8 0 1.58 3.54
 4 -8 2 172.26 10.31
 4 -8 3 12.23 5.75
 4 -8 4 117.73 9.47
 4 -8 5 25.5 6.03
 4 -8 6 39.51 6.67
 4 -8 7 53.04 8.03
 4 -8 8 8.8 6.34
 4 -8 10 41.37 7.94
 4 -8 11 27.33 7.02
 4 -8 12 51.05 9.08
 4 -8 13 16.65 8.38
 4 -8 14 96.9 11.57
 4 -8 16 38.87 8.59
 4 -7 -2 64.27 6.74
 4 -7 -1 172.11 9.66
 4 -7 0 121.62 8.75
 4 -7 1 183.02 10.23
 4 -7 2 67.04 7.56
 4 -7 3 25.8 5.55
 4 -7 4 3.03 4.17
 4 -7 6 13.26 4.97
 4 -7 7 17.58 5.55
 4 -7 8 131.27 10.28
 4 -7 9 189.03 12.11
 4 -7 10 65.39 9.25
 4 -7 11 31.99 7.49
 4 -7 12 39.54 8.36
 4 -7 14 16.46 7.1
 4 -7 16 42.6 8.37
 4 -7 17 18.5 7.46
 4 -7 18 1.03 6.68
 4 -6 1 -0.49 4.44
 4 -6 2 6.01 3.94
 4 -6 3 194.16 10.56
 4 -6 4 11.08 4.2
 4 -6 5 28.53 6.08
 4 -6 6 7.92 4.59
 4 -6 7 40.81 6.48
 4 -6 8 114.11 9.56
 4 -6 9 15.71 5.92
 4 -6 10 269.75 13.04
 4 -6 11 61.8 8.06
 4 -6 12 1.14 6.05
 4 -6 13 198.52 13.09
 4 -6 15 71.9 9.57
 4 -6 16 9.64 6.36
 4 -6 18 34.37 8.7
 4 -6 19 9.33 7.06
 4 -6 20 85.03 12.34
 4 -5 4 41.8 6.78
 4 -5 5 300.46 12.16
 4 -5 6 102.79 8.24
 4 -5 7 202.68 11.15
 4 -5 9 197.67 11.48
 4 -5 10 38.27 6.48
 4 -5 11 -0.51 5.36
 4 -5 12 71.69 7.76
 4 -5 14 11.1 6.27
 4 -5 15 -3.59 4.49
 4 -5 16 33.86 7.64
 4 -5 18 30.02 8.18
 4 -5 19 2.18 5.72
 4 -5 20 74.07 10.29
 4 -5 22 12.27 9.01
 4 -4 5 70.55 7.01
 4 -4 7 215.85 10.62
 4 -4 9 69.25 7.32
 4 -4 10 85.54 8.55
 4 -4 11 208.29 11.63
 4 -4 13 13.07 6.21
 4 -4 14 101.17 9.21
 4 -4 15 241.29 13.64
 4 -4 16 51.56 8.06
 4 -4 17 164.46 12.69
 4 -4 18 8.91 6.19
 4 -4 19 28.77 7.65
 4 -4 20 9.19 7.73
 4 -4 21 50.77 9.41
 4 -4 22 154.63 13.12
 4 -4 23 82.1 11.82
 4 -3 7 368.31 13.28
 4 -3 10 296.45 12.71
 4 -3 11 15.07 5.45
 4 -3 12 270.95 12.81
 4 -3 14 100.53 8.43
 4 -3 15 13.87 5.42
 4 -3 16 12.27 5.87
 4 -3 17 26.89 6.44
 4 -3 19 69.55 9.26
 4 -3 20 11.61 7.61
 4 -3 21 14.93 6.77
 4 -3 22 126.46 12.54
 4 -2 8 646.2 16.78
 4 -2 9 52.96 5.84
 4 -2 10 110.32 8.1
 4 -2 11 78.19 7.62
 4 -2 12 18.7 5.33
 4 -2 13 41.41 6.37
 4 -2 14 152.45 10.35
 4 -2 15 215.89 12.07
 4 -2 16 90.75 9.05
 4 -2 17 30.31 6.35
 4 -2 18 136.19 11.12
 4 -2 19 18.81 7.53
 4 -2 20 59.64 8.52
 4 -2 22 37.87 7.82
 4 -2 24 100.73 10.67
 4 -2 25 7.71 8.03
 4 -1 8 1118.12 21.14
 4 -1 9 261.19 10.65
 4 -1 10 80.21 7.25
 4 -1 11 20.47 4.49
 4 -1 13 14.83 4.59
 4 -1 14 16.17 4.6
 4 -1 15 110.66 8.2
 4 -1 16 65.19 7.18
 4 -1 18 25.85 6.01
 4 -1 19 18.35 6.6
 4 -1 20 112.02 10.59
 4 -1 21 206.23 12.37
 4 -1 23 7.54 6.11
 4 -1 24 100.88 11.24
 4 -1 25 6.58 6.8
 4 -1 26 51.1 9.7
 4 0 9 957.64 19.27
 4 0 10 6.14 4.05
 4 0 12 18.08 4.19
 4 0 13 1.09 3.91
 4 0 14 434.23 13.97
 4 0 15 35.1 6.17
 4 0 16 26.96 6.11
 4 0 17 45.24 6.84
 4 0 18 20.32 5.9
 4 0 19 266.72 13.31
 4 0 20 150.49 10.99
 4 0 22 0.1 4.88
 4 0 23 5.36 5.69
 4 0 24 113.92 11.05
 4 0 25 19.65 6.68
 4 1 10 85.37 6.46
 4 1 13 16.48 4.77
 4 1 14 13.42 4.22
 4 1 15 109.38 7.99
 4 1 17 25.89 5.95
 4 1 18 26.19 5.91
 4 1 19 19.15 5.5
 4 1 20 109.02 9.12
 4 1 21 221.95 12.03
 4 1 22 118.76 10.04
 4 1 23 16.46 6.3
 4 2 12 21.88 4.26
 4 2 14 156.2 8.19
 4 2 15 216.73 9.72
 4 2 16 104.92 7.56
 4 2 17 18.99 5.18
 4 2 18 142.36 8.8
 4 2 19 22.19 5.45
 4 2 20 45.97 6.86
 4 2 21 8.2 4.88
 4 2 22 38.32 6.95
 4 3 8 55.21 4.98
 4 3 9 40.77 4.54
 4 3 14 93.61 6.41
 4 3 15 18.71 4.07
 4 3 16 15.99 3.79
 4 3 17 22.43 4.41
 4 3 18 60.14 5.99
 4 4 8 71.04 4.73
 4 4 9 63.94 4.65
 4 4 10 87.77 5.06
 4 4 11 225.58 7.5
 4 4 12 45.86 4.31
 4 4 13 13.16 3.22
 4 5 7 203.64 6.22
 5 -9 1 51.58 7.66
 5 -9 2 42.76 7.33
 5 -9 3 56.23 7.76
 5 -9 4 3.36 6.02
 5 -9 5 76.01 9.33
 5 -9 6 14.9 7.44
 5 -9 7 -0.9 5.38
 5 -9 8 9.15 6.98
 5 -9 9 2.59 6.72
 5 -8 -3 10.16 4.66
 5 -8 -2 -2.48 4.91
 5 -8 -1 25.7 6.44
 5 -8 0 117.91 9.72
 5 -8 2 3.25 5.99
 5 -8 3 12.02 5.88
 5 -8 4 75.74 9.04
 5 -8 5 38.45 7.73
 5 -8 6 10.22 7.01
 5 -8 9 4.86 5.65
 5 -8 11 13.36 7.83
 5 -8 12 30.78 9.5
 5 -8 13 63.43 10.26
 5 -7 -1 157.41 10.55
 5 -7 0 12.15 5.31
 5 -7 2 68.64 7.93
 5 -7 4 56.66 7.99
 5 -7 5 81.59 8.96
 5 -7 7 31.61 7.24
 5 -7 8 28.89 7.22
 5 -7 9 62.33 8.85
 5 -7 11 11.04 6.28
 5 -7 13 22.28 7.42
 5 -7 14 32.52 8.65
 5 -7 15 4.96 6.72
 5 -7 16 14.99 7.81
 5 -6 3 1.03 4.53
 5 -6 4 2.13 5.71
 5 -6 5 113.35 10.04
 5 -6 7 5.47 5.32
 5 -6 8 6.99 6.74
 5 -6 9 18.72 6.57
 5 -6 10 3.44 5.38
 5 -6 11 52.94 8.54
 5 -6 13 21.08 8.48
 5 -6 14 72.77 10.97
 5 -6 17 41.19 9.06
 5 -6 18 48.56 9.66
 5 -5 4 102.99 9.61
 5 -5 5 9.13 4.84
 5 -5 6 7.09 5.58
 5 -5 9 122.83 10.52
 5 -5 10 167.58 11.92
 5 -5 11 37.06 8.47
 5 -5 12 16.43 6.35
 5 -5 13 2.31 5.76
 5 -5 15 36.51 8.1
 5 -5 18 60.83 10.62
 5 -5 19 7.27 7.27
 5 -5 20 12.11 8.01
 5 -4 7 19.89 5.14
 5 -4 8 78.68 8.89
 5 -4 9 16.45 5.51
 5 -4 10 -0.65 4.37
 5 -4 11 15.37 6.46
 5 -4 12 97.6 9.42
 5 -4 13 105.63 11
 5 -4 14 43.78 7.79
 5 -4 15 17.06 7.82
 5 -4 16 144.49 11.99
 5 -4 17 136.28 12.66
 5 -4 18 15.61 7.69
 5 -4 19 32.62 8.27
 5 -4 20 105.58 12.93
 5 -4 21 111.89 12.82
 5 -3 9 143.54 10.09
 5 -3 10 95.98 8.52
 5 -3 11 75.45 8.54
 5 -3 13 11.17 5.67
 5 -3 14 24.1 6.29
 5 -3 15 63.87 9.45
 5 -3 16 21.88 6.36
 5 -3 17 26.73 7.49
 5 -3 19 13.69 7.07
 5 -3 20 10.29 7.19
 5 -3 21 -0.26 7.04
 5 -2 8 52.62 7.61
 5 -2 9 85.11 8.59
 5 -2 10 94.68 9
 5 -2 11 80.86 8.53
 5 -2 12 15.69 5.75
 5 -2 13 102.74 9.99
 5 -2 14 272.2 14.15
 5 -2 15 124.46 10.7
 5 -2 16 4.96 5.23
 5 -2 17 183.91 12.86
 5 -2 19 102.79 10.7
 5 -2 20 17.57 7.62
 5 -2 21 111.63 12.08
 5 -2 22 92.53 11.18
 5 -1 9 25.46 5.7
 5 -1 10 38.74 6.02
 5 -1 11 0.95 3.96
 5 -1 12 6.7 4.89
 5 -1 13 19.7 6.55
 5 -1 14 46.38 7.8
 5 -1 17 1.73 5.82
 5 -1 18 46.21 8.3
 5 -1 19 16.67 6.23
 5 -1 20 137.99 11.64
 5 -1 21 26.19 8.54
 5 -1 22 19.07 7.38
 5 -1 23 25.75 7.29
 5 -1 24 13.74 8.42
 5 0 9 100.34 8.62
 5 0 11 69.32 7.81
 5 0 12 -0.19 3.83
 5 0 14 602.75 18.35
 5 0 15 296.88 13.7
 5 0 16 46.31 7.15
 5 0 18 264.61 13.55
 5 0 19 2.8 5.21
 5 0 21 -0.77 6.51
 5 0 22 87.17 10.64
 5 0 23 255.42 14.73
 5 0 24 36.2 7.76
 5 0 25 -2.29 6.1
 5 1 10 40.28 5.92
 5 1 11 5.24 4.6
 5 1 12 7.05 3.93
 5 1 13 13.42 4.88
 5 1 15 149.69 10.02
 5 1 16 80.94 7.92
 5 1 18 51.12 8
 5 1 19 24.64 7.01
 5 1 20 135.95 10.93
 5 1 22 28.89 7.37
 5 1 23 35.74 8.01
 5 2 9 102.6 7.79
 5 2 11 84.88 7.37
 5 2 12 22.29 5.32
 5 2 13 117.94 8.45
 5 2 14 268.38 11.6
 5 2 15 128.16 8.75
 5 2 16 4.28 4.58
 5 2 17 184.32 10.46
 5 2 18 66.83 7.85
 5 2 19 102.49 9.05
 5 3 9 146.57 8.29
 5 3 10 112.47 7.35
 5 3 11 68.55 6.38
 5 3 12 0.98 3.81
 5 3 13 10.91 4.18
 5 3 14 14.07 4.28
 5 3 15 72.18 6.76
 5 3 16 18.33 5.09
 5 4 8 93.72 6.57
 5 4 9 9.85 3.27
 5 4 10 3.61 2.87
 5 4 11 12.56 3.75
 6 -8 -5 21.85 7.12
 6 -8 -4 16.87 6.03
 6 -8 -3 14.72 6.82
 6 -8 -2 45.54 8.33
 6 -8 -1 63.85 9.53
 6 -8 0 30.22 7.23
 6 -8 1 69.8 10.24
 6 -8 2 48.21 8.18
 6 -8 3 9.23 6.43
 6 -8 4 19.28 8.05
 6 -8 5 14.49 6.97
 6 -8 6 107.13 11.21
 6 -8 7 5.61 7.86
 6 -7 1 99.24 10.88
 6 -7 2 8.95 6.14
 6 -7 3 -4.01 4.83
 6 -7 4 83.76 9.76
 6 -7 5 64.72 9.41
 6 -7 6 8.73 6.7
 6 -7 7 17.99 8.26
 6 -7 9 23.17 9.07
 6 -7 10 19.13 8.96
 6 -7 11 128.81 13.18
 6 -6 2 1.05 5.57
 6 -6 3 33.42 7.37
 6 -6 4 21.28 6.35
 6 -6 5 58.81 8.51
 6 -6 6 19.7 6.77
 6 -6 7 11.45 6.37
 6 -6 8 8.97 6.84
 6 -6 11 31.63 9.46
 6 -6 12 19.12 8.37
 6 -6 13 86.5 11.26
 6 -6 14 39.82 9.27
 6 -5 5 99.43 10.84
 6 -5 6 42.05 7.89
 6 -5 7 20.87 6.62
 6 -5 8 31.08 8.15
 6 -5 9 56.63 10.04
 6 -5 10 46.34 8.37
 6 -5 11 47.79 8.93
 6 -5 12 38.41 9.73
 6 -5 13 9.03 7.68
 6 -5 14 7.12 6.38
 6 -5 15 123.75 12.84
 6 -4 6 18.02 6.23
 6 -4 7 154.66 12.18
 6 -4 8 36.08 7.41
 6 -4 9 45.78 8.69
 6 -4 10 26.7 7.73
 6 -4 11 22.18 6.94
 6 -4 12 30.14 8.58
 6 -4 13 37.72 8.09
 6 -4 16 9.68 7.16
 6 -4 17 28.28 9.86
 6 -4 18 57.4 10.11
 6 -3 7 13.96 6.2
 6 -3 8 17.23 5.94
 6 -3 9 23.08 7.55
 6 -3 11 -1.09 5.59
 6 -3 12 68.83 9.63
 6 -3 13 2.15 5.93
 6 -3 17 7.92 6.73
 6 -3 18 15.32 8.95
 6 -3 19 17.86 7.7
 6 -2 8 122.48 10.75
 6 -2 9 15.59 6.04
 6 -2 10 33.42 6.75
 6 -2 11 121.91 11.1
 6 -2 12 34.39 8.21
 6 -2 13 53.72 8.62
 6 -2 14 72.28 9.45
 6 -2 16 24.67 8.09
 6 -2 17 -1.14 5.77
 6 -2 18 22.44 9.05
 6 -2 19 8.79 7.14
 6 -1 9 33.7 7.52
 6 -1 10 11.97 6.16
 6 -1 11 7.07 5.4
 6 -1 13 10.22 5.61
 6 -1 16 88.43 10.75
 6 -1 17 59.38 10.01
 6 -1 18 15.58 7.39
 6 -1 19 28.12 7.85
 6 -1 20 22.87 7.5
 6 -1 21 17.23 8.89
 6 0 9 51.04 7.51
 6 0 11 16.31 6.56
 6 0 13 129.97 10.64
 6 0 14 28.02 6.8
 6 0 15 111.75 10.42
 6 0 17 19.34 6.56
 6 0 18 75.95 9.75
 6 0 19 7.64 6.87
 6 0 21 -3 6.89
 6 0 22 2.65 6.53
 6 1 10 10.39 5.1
 6 1 13 12.61 5.57
 6 1 14 184.52 12.13
 6 1 15 38.89 7.58
 6 1 16 89.54 9.35
 6 1 17 61.7 8.35
 6 1 18 18.73 6.25
 6 1 19 24.87 7.2
 6 1 20 29.89 7.93
 6 2 9 14.79 5.37
 6 2 11 118.23 9.47
 6 2 12 33.76 6.24
 6 2 13 47.78 7.35
 6 2 14 74.28 8.12
 6 2 15 0.64 5.53
 6 2 16 11.15 5.16
 6 2 17 2.74 5.19
 6 2 18 14.81 6.47
 6 3 9 30.34 5.51
 6 3 10 29.52 5.74
 6 3 11 3.41 4.55
 6 3 12 66.68 7.58
 6 3 13 8.45 4.86
 6 3 14 146.11 9.62
 6 4 8 22.82 5.26
 7 -7 -2 5.78 7.46
 7 -7 -1 19.66 7.33
 7 -7 0 -0.72 8.11
 7 -7 1 22.45 7.58
 7 -7 2 23.65 8.2
 7 -6 1 8.04 6.46
 7 -6 2 -1.08 5.92
 7 -6 3 8.39 7.33
 7 -6 4 27.35 9.25
 7 -6 5 38.17 9.76
 7 -6 6 43.05 9.94
 7 -6 7 28.34 9.33
 7 -6 8 6.3 7.46
 7 -5 4 32.65 8.9
 7 -5 5 67.23 10.74
 7 -5 6 8.97 7.94
 7 -5 7 12.64 8.69
 7 -5 8 2.57 7.49
 7 -5 9 18.46 8.11
 7 -4 6 5.91 6.35
 7 -4 7 21.02 7.58
 7 -4 8 24.81 8.8
 7 -4 9 16.47 7.93
 7 -4 10 49.29 9.1
 7 -4 11 30.99 8.88
 7 -4 13 63.97 10.33
 7 -3 7 102.65 11.63
 7 -3 8 44.69 9.21
 7 -3 10 2.59 7.66
 7 -3 11 4.99 6.26
 7 -3 13 31.16 8.58
 7 -3 14 194.05 14.89
 7 -3 15 74.53 12.1
 7 -2 8 13.44 7.8
 7 -2 9 26.59 7.19
 7 -2 10 6.35 7.67
 7 -2 11 19.55 7.19
 7 -2 12 -1.75 7.12
 7 -2 13 18.66 7.54
 7 -2 14 15.97 7.63
 7 -2 15 52.59 10.04
 7 -2 16 28.58 8.47
 7 -1 9 60.01 10.46
 7 -1 10 15.02 6.62
 7 -1 11 2.81 5.67
 7 -1 12 2.6 7.46
 7 -1 14 44.53 8.8
 7 -1 15 14.38 8.3
 7 -1 16 6.53 7.14
 7 -1 17 56.13 9.8
 7 0 9 18.24 7.81
 7 0 10 4.76 5.96
 7 0 12 3.23 5.52
 7 0 13 90.8 10.77
 7 0 14 98.99 12.05
 7 0 15 1.81 7.16
 7 0 16 84.51 11.67
 7 0 17 53.21 9.46
 7 0 18 18.58 7.64
 7 1 9 49.52 7.96
 7 1 11 2.61 5.29
 7 1 12 10.06 6.35
 7 1 13 153.36 12.14
 7 1 14 52.22 9.04
 7 1 15 12.82 6.97
 7 1 16 8.14 7.38
 7 1 17 34.83 8.57
 7 1 18 9.09 7.15
 7 2 9 29.73 7.67
 7 2 11 36.24 7.12
 7 2 12 6.59 6
 7 2 13 16.82 7.05
 7 2 14 18.6 6.33
 7 2 15 36.5 7.27
 7 3 9 9.71 5.2
 7 3 10 0.88 5.62
 7 3 11 4.75 4.83
 8 -3 6 6.79 7.43
 8 -3 7 153.77 14.86
 8 -3 8 -2.85 8.44
 8 -2 7 7.6 7.56
 8 -2 8 77.76 11.92
 8 -2 9 57.3 9.95
 8 -2 10 2.64 7.03
 8 -1 9 1.05 7.91
 8 -1 10 60.72 9.56
 8 -1 11 14.76 9.19
 8 0 8 102.02 11.62
 8 0 9 10.46 8.21
 8 0 10 50.93 9.81
 8 0 11 51.69 9.19
 8 0 12 6.83 8.38
 8 1 8 13.09 7.63
 8 1 9 3.7 7.41
 8 1 11 14.75 6.69
 8 1 12 5.53 6.29
 8 1 13 52.32 10.24
 8 2 10 8.41 6.18
 8 2 11 14.18 6.58
 8 2 12 30.15 7.57
 -2 -5 -7 593.33 6.2
 -2 -4 -6 278.77 4.55
 -2 -3 -4 32.2 1.52
 -1 -6 -6 93.88 3.7
 -1 -6 -5 59.52 2.81
 -1 -6 -3 232.06 4.24
 -1 -6 -2 335.77 4.9
 -1 -6 -1 123.49 3.08
 -1 -5 -4 33.73 1.98
 -1 -5 -3 308.21 4.83
 -1 -5 -2 124.87 2.82
 -1 -5 -1 315.93 4.32
 -1 -4 -2 241.49 3.31
 -1 -4 -1 392.27 3.86
 -1 -1 -3 302.33 4.41
 -1 0 -2 580.31 6.75
 0 -7 3 23.28 3.35
 0 -7 4 40.21 4.02
 0 -6 -4 337.22 8.47
 0 -6 0 452.39 9.33
 0 -6 1 475.21 9.63
 0 -6 2 317.21 8.04
 0 -6 3 12.51 2.4
 0 -6 5 37.03 3.83
 0 -5 -3 330.47 7.71
 0 -5 -2 4.2 1.68
 0 -5 -1 308.21 7.26
 0 -5 1 320.76 7.36
 0 -5 2 6.17 1.88
 0 -5 4 85.94 4.5
 0 -4 -1 1149.38 12.41
 0 -4 0 172.09 4.96
 0 -4 1 1148.69 12.46
 0 -4 2 1885.84 16.15
 0 -4 3 953.98 12.08
 0 -4 4 174.9 5.6
 0 -3 1 414.17 6.65
 0 -3 2 2.33 1.34
 0 -3 3 1451.38 13.29
 0 -3 4 213.49 5.77
 0 -3 5 568.71 9.53
 0 -2 1 3814.26 16.24
 0 -2 2 1974.24 12.55
 0 -2 3 3643.77 18.42
 0 -2 4 1764.23 14.03
 0 -1 2 1.56 1.16
 0 1 -3 810.85 7.77
 0 1 -2 1.35 0.88
 0 1 -1 270.68 3.47
 0 2 -1 3887.55 16.71
 1 -9 -1 0.97 1.77
 1 -9 0 -1.04 1.55
 1 -8 -9 158.97 8.85
 1 -8 -8 48.31 5.3
 1 -8 -7 97.24 6.81
 1 -8 -6 27.52 4.51
 1 -8 -5 79.05 6.21
 1 -8 -4 67.09 5.82
 1 -8 -3 89.97 6.44
 1 -8 -2 170.28 8.11
 1 -8 0 0.87 2.9
 1 -8 1 20.96 3.96
 1 -8 2 156.22 7.86
 1 -8 3 102.77 6.78
 1 -8 4 66.38 5.99
 1 -8 5 86.99 6.47
 1 -8 6 24.94 4.31
 1 -8 7 97.65 6.98
 1 -7 4 13.1 3.58
 1 -7 6 14.5 4.11
 1 -7 7 64.28 6.11
 1 -7 8 50.06 5.6
 1 -6 -3 239.06 8.77
 1 -6 -2 320.77 9.9
 1 -6 -1 120.97 6.42
 1 -6 1 118.56 6.55
 1 -6 8 166.45 8.57
 1 -6 9 48.91 5.15
 1 -5 -1 301.66 9.08
 1 -5 0 82.08 5.09
 1 -5 1 306.13 9.1
 1 -5 2 128.11 6.03
 1 -5 3 294.76 9.02
 1 -5 4 38.17 3.93
 1 -4 -1 396.54 9.27
 1 -4 0 1427.63 17.6
 1 -4 2 249.32 7.76
 1 -4 3 850.27 13.88
 1 -4 4 309.64 8.67
 1 -4 5 9.73 2.76
 1 -4 6 833.46 14.84
 1 -4 8 208.74 8.41
 1 -3 0 121.66 5.14
 1 -3 1 1355.14 15.67
 1 -3 2 448.12 9.33
 1 -3 3 373.47 8.66
 1 -3 4 957.82 13.69
 1 -3 5 108.96 5.39
 1 -3 6 64.54 4.18
 1 -3 8 68.8 4.7
 1 -2 1 627.48 9.56
 1 -2 2 283.53 6.56
 1 -2 5 104.79 4.64
 1 -2 7 923 13.94
 1 -1 1 2432.93 15.92
 1 -1 2 969.99 10.41
 1 -1 3 306.49 6.26
 1 -1 4 14.59 2.14
 1 -1 5 2195.27 17.75
 1 -1 6 1566.83 15.95
 1 0 1 380.19 5.21
 1 0 2 584.83 6.61
 1 0 3 897.71 8.65
 1 0 4 342.26 6.12
 1 1 2 972.21 6.38
 1 3 -2 443.93 5.48
 2 -10 -1 -0.48 2.86
 2 -10 0 0.3 2.6
 2 -9 -13 17.94 6.07
 2 -9 -11 25.95 5.61
 2 -9 -10 52.81 6.83
 2 -9 -9 147.54 9.66
 2 -9 -8 29.34 5.8
 2 -9 -6 11.08 4.31
 2 -9 -5 60.03 6.88
 2 -9 -4 19.29 5.32
 2 -9 -3 19.98 4.96
 2 -9 -1 104.48 7.88
 2 -9 0 59.72 6.93
 2 -9 1 84.46 7.67
 2 -9 2 89.13 7.87
 2 -9 4 19.67 5.37
 2 -9 5 44.18 6.44
 2 -9 6 10.43 4.64
 2 -9 7 21.86 6.26
 2 -9 8 19.94 5.55
 2 -8 -9 38.24 6.48
 2 -8 -7 39.84 6.02
 2 -8 -6 5.4 3.74
 2 -8 -5 24.48 5.73
 2 -8 -4 22.97 5.47
 2 -8 -3 309.41 12.55
 2 -8 -2 80.85 7.48
 2 -8 -1 40.46 5.85
 2 -8 0 12.07 3.95
 2 -8 1 39.38 5.92
 2 -8 2 67.84 7.01
 2 -8 3 312.32 12.62
 2 -8 4 23.56 5.39
 2 -8 5 30.41 5.89
 2 -8 6 4.91 4.23
 2 -8 7 43.13 7.01
 2 -8 8 82.15 8.4
 2 -8 9 47.74 7.26
 2 -7 -6 1.7 3.44
 2 -7 -5 136.26 8.52
 2 -7 -4 69.77 6.37
 2 -7 -3 6.33 3.75
 2 -7 -2 33.15 5.5
 2 -7 -1 78.73 6.79
 2 -7 0 3.14 3.74
 2 -7 1 79.98 7.04
 2 -7 2 35.62 5.6
 2 -7 4 74.56 7.05
 2 -7 5 141.04 8.38
 2 -7 6 1.51 3.34
 2 -7 7 278.17 12.17
 2 -7 8 38.26 6.42
 2 -7 9 277.59 12.58
 2 -7 10 5.7 5.19
 2 -6 -4 81.6 7.12
 2 -6 -2 106.41 7.2
 2 -6 2 112 7.83
 2 -6 3 336.44 11.86
 2 -6 4 79.34 6.55
 2 -6 5 91.9 6.67
 2 -6 7 116.91 7.57
 2 -6 8 9.16 4.22
 2 -6 9 19.84 5.09
 2 -6 10 70.96 7.1
 2 -6 11 39.72 6.08
 2 -5 6 67.42 6.14
 2 -5 7 595.08 15.31
 2 -5 8 31.85 5
 2 -5 9 152.81 8.83
 2 -5 10 41.74 5.58
 2 -4 -1 265.69 9.16
 2 -4 0 409.45 11.31
 2 -4 1 271.46 9.51
 2 -4 2 144.65 7.29
 2 -4 3 480.65 12.4
 2 -4 10 19.02 3.97
 2 -4 11 99.04 7.05
 2 -3 0 1036.07 16.11
 2 -3 1 941.91 15.73
 2 -3 2 221.52 7.84
 2 -3 3 149.22 6.84
 2 -3 6 518.55 12.22
 2 -3 7 16.86 3.34
 2 -3 11 180.46 8.86
 2 -2 1 614.32 11.67
 2 -2 2 828.79 13.94
 2 -2 3 558.05 11.38
 2 -2 4 312.07 8.9
 2 -2 5 80.91 4.72
 2 -2 6 915.47 15.25
 2 -2 7 309.32 9.47
 2 -2 8 394.16 10.59
 2 -2 9 297.42 9.79
 2 -1 3 269.48 7.29
 2 -1 4 128.86 5.68
 2 -1 5 358.71 8.56
 2 -1 6 1307.25 16.57
 2 -1 7 97.93 5.13
 2 -1 8 45.79 3.97
 2 0 1 5.8 1.75
 2 0 2 1910.39 16.38
 2 0 4 230 6.24
 2 0 6 1046.43 13.61
 2 0 7 1.3 2.28
 2 1 1 52.72 2.86
 2 1 2 484.82 7.15
 2 1 3 266.22 5.51
 2 1 4 133.95 4.11
 2 1 5 377.82 7.31
 2 2 0 5.86 1.05
 2 2 1 617.27 5.78
 2 2 3 533.37 5.98
 2 4 -3 470.01 5.56
 3 -10 -10 2.69 5.46
 3 -10 -9 -0.74 4.38
 3 -10 -8 -0.64 4.07
 3 -10 -7 8.47 4.76
 3 -10 -6 9.1 5.26
 3 -10 -5 14.59 5.34
 3 -10 -3 13.59 6.14
 3 -10 -1 9.63 4.88
 3 -10 0 39.29 7.73
 3 -10 1 6.38 5.47
 3 -10 2 81.25 9.01
 3 -10 3 6.07 6.23
 3 -10 4 140.16 10.68
 3 -10 5 23.55 6.94
 3 -10 6 2.84 5.08
 3 -10 8 -4.48 5.57
 3 -9 -14 0.16 5.8
 3 -9 -13 63.74 9.68
 3 -9 -12 32.09 7.18
 3 -9 -11 103.91 10.36
 3 -9 -10 19.33 6.67
 3 -9 -9 10.65 5.47
 3 -9 -8 63.21 8.52
 3 -9 -7 19.32 6.07
 3 -9 -6 27.24 7.19
 3 -9 -5 47.55 8.1
 3 -9 -4 18.95 5.94
 3 -9 -3 45.53 7.72
 3 -9 -2 33.67 7.03
 3 -9 -1 109 9.76
 3 -9 0 10.51 5.18
 3 -9 1 109.34 9.67
 3 -9 2 24.73 6.04
 3 -9 3 40.45 7.6
 3 -9 4 25.09 6.35
 3 -9 6 34.57 7.72
 3 -9 7 26.32 6.57
 3 -9 8 75.49 10.06
 3 -9 9 9.57 5.38
 3 -9 10 17.65 7.12
 3 -8 -9 53.69 8.27
 3 -8 -8 71.21 8.91
 3 -8 -7 70.24 8.5
 3 -8 -5 19.45 6.23
 3 -8 -4 103.83 8.61
 3 -8 -3 140.24 10.54
 3 -8 -2 11.39 5.03
 3 -8 0 40.73 7.13
 3 -8 1 8.73 5.73
 3 -8 2 14.28 5.42
 3 -8 3 122.52 9.66
 3 -8 4 122.7 9.27
 3 -8 5 25.62 5.97
 3 -8 6 99.41 9.55
 3 -8 7 78.89 9.1
 3 -8 8 62.99 8.14
 3 -8 9 45.95 7.58
 3 -8 10 42.78 8.4
 3 -8 11 57.16 8.14
 3 -7 -6 53.45 7.04
 3 -7 -5 84.73 8.05
 3 -7 -4 7.95 4.66
 3 -7 -3 218.76 11.41
 3 -7 -2 67.94 7.04
 3 -7 2 68.24 7.75
 3 -7 3 217.31 11.45
 3 -7 4 11.63 4.67
 3 -7 5 88.11 8.42
 3 -7 6 59.69 8
 3 -7 10 22.63 6
 3 -7 11 24.32 6.21
 3 -7 12 -3.11 5.3
 3 -6 -4 56.24 6.13
 3 -6 -3 346.31 13.04
 3 -6 -1 8.06 4.42
 3 -6 0 31 5.7
 3 -6 1 9.66 3.81
 3 -6 2 30.97 5.75
 3 -6 4 61.63 6.6
 3 -6 5 39.14 6.41
 3 -6 6 107.7 8.62
 3 -6 7 202.41 10.71
 3 -6 8 325.31 13.33
 3 -6 9 43.94 6.53
 3 -6 10 29.21 6.08
 3 -6 11 21.8 5.78
 3 -6 12 94.98 8.6
 3 -5 -3 80.8 6.78
 3 -5 -2 42.08 5.95
 3 -5 -1 78.79 6.48
 3 -5 0 41.67 5.8
 3 -5 1 80.71 7.04
 3 -5 2 44.67 5.38
 3 -5 3 85.26 6.96
 3 -5 4 4.94 3.77
 3 -5 5 169.16 9.16
 3 -5 6 104.36 8.05
 3 -5 7 54.65 5.96
 3 -5 8 325.6 13.1
 3 -5 9 51.6 6.23
 3 -5 10 164.39 9.81
 3 -5 11 35.93 6.11
 3 -5 13 19.49 5.38
 3 -4 3 187.54 9.47
 3 -4 4 247.29 10.54
 3 -4 5 365.09 12.58
 3 -4 7 96.09 6.96
 3 -4 8 718.06 17.66
 3 -4 9 3.78 3.34
 3 -4 11 61.54 6.5
 3 -3 8 221.51 9.58
 3 -3 9 89.11 6.62
 3 -3 10 42.7 6.07
 3 -3 11 47.62 5.62
 3 -3 12 259.19 11.57
 3 -2 0 668.78 14.14
 3 -2 1 3.02 2.82
 3 -2 4 253.86 9.09
 3 -2 5 301.49 9.91
 3 -2 10 17.58 3.95
 3 -2 11 116.98 7.45
 3 -2 12 72.31 6.41
 3 -1 1 519.61 11.71
 3 -1 3 127.32 6.33
 3 -1 4 321.73 9.51
 3 -1 5 39.23 3.99
 3 -1 6 130.16 6.5
 3 -1 7 508.15 12.35
 3 0 3 1288.94 16.75
 3 0 4 863.54 13.95
 3 0 5 59.34 4.5
 3 0 7 5.19 2.45
 3 0 8 469.92 11.22
 3 0 9 54.47 4.96
 3 1 0 -1.05 1.41
 3 1 1 547.64 10.04
 3 1 2 357.01 7.95
 3 1 4 321.72 7.66
 3 1 5 39.72 3.58
 3 1 6 143.79 5.83
 3 1 7 525.74 10.71
 3 1 8 207.07 7.3
 3 2 0 690.34 9.48
 3 2 1 3.55 1.57
 3 2 2 509.7 7.93
 3 2 3 432.89 7.38
 3 2 4 254.29 5.89
 3 2 5 298.97 6.68
 3 3 -1 95.29 3.06
 3 3 1 100.62 2.52
 3 3 2 67.54 2.16
 4 -10 -9 0.18 5.6
 4 -10 -8 4.08 6.75
 4 -10 -7 31.63 7.69
 4 -10 -6 -2.07 5.02
 4 -10 -5 38.5 8.43
 4 -10 -4 -7.62 5.48
 4 -10 -3 16.47 7.4
 4 -10 -2 5.4 6.27
 4 -10 -1 5.35 6.07
 4 -10 1 1.57 5.41
 4 -10 2 15.77 6.81
 4 -10 4 0.36 6.2
 4 -10 5 41.34 7.99
 4 -10 6 1.96 5.62
 4 -10 7 24.17 8.38
 4 -9 -13 25.01 7.58
 4 -9 -12 10.81 6.77
 4 -9 -11 84.18 11.18
 4 -9 -10 30.21 7.55
 4 -9 -9 8.46 6.8
 4 -9 -8 55.01 9.92
 4 -9 -7 0.6 5.71
 4 -9 -6 14.74 6.31
 4 -9 -5 63.58 9.17
 4 -9 -4 8.8 5.77
 4 -9 -3 50.2 8.78
 4 -9 -2 16.7 6.71
 4 -9 -1 18.85 7.18
 4 -9 0 20.07 6.4
 4 -9 2 10.64 6.8
 4 -9 3 52.81 8.55
 4 -9 4 6.65 6.14
 4 -9 5 61.57 9.47
 4 -9 6 26.48 7.25
 4 -9 7 7.63 7.11
 4 -9 8 55.16 8.69
 4 -9 9 13.36 7.09
 4 -9 10 40.86 8.72
 4 -9 11 105.33 11.43
 4 -8 -11 27.52 7.83
 4 -8 -10 42.83 8.35
 4 -8 -9 12.56 6.08
 4 -8 -8 9.69 6.21
 4 -8 -7 48.08 8.82
 4 -8 -6 42.55 8.65
 4 -8 -5 23.13 6.64
 4 -8 -4 95.3 9.36
 4 -8 -2 174.01 12.58
 4 -8 -1 4.51 4.98
 4 -8 0 -0.06 4.95
 4 -8 1 7.92 5.33
 4 -8 3 17.64 6.11
 4 -8 6 38.54 8.44
 4 -8 7 51.13 8.33
 4 -8 8 7.1 5.69
 4 -8 9 18.22 6.79
 4 -8 10 43.47 8.17
 4 -8 12 31.34 7.65
 4 -7 -8 140.96 11.97
 4 -7 -7 9.15 5.87
 4 -7 -5 54.52 8.5
 4 -7 -4 2.07 4.48
 4 -7 -3 16.45 6.56
 4 -7 -2 69.06 8.42
 4 -7 -1 171.51 11.81
 4 -7 0 118.03 10.02
 4 -7 1 169.19 11.35
 4 -7 3 25.96 6.76
 4 -7 4 1.63 4.42
 4 -7 5 48.34 7.54
 4 -7 6 9.32 5.99
 4 -7 7 26.35 7.12
 4 -7 9 206.93 13.23
 4 -7 11 46.61 7.92
 4 -7 12 37.48 7.89
 4 -7 13 99.71 11.39
 4 -6 -5 30.1 6.14
 4 -6 -4 5.02 5.3
 4 -6 -2 8.29 4.41
 4 -6 -1 5.83 5.13
 4 -6 0 4.12 5.03
 4 -6 1 6.13 4.74
 4 -6 2 6.06 4.35
 4 -6 3 189.29 11.65
 4 -6 4 3.92 4.48
 4 -6 5 24.63 5.8
 4 -6 6 14.88 5.11
 4 -6 7 44.69 7.07
 4 -6 8 117.56 9.39
 4 -6 9 14.58 5.41
 4 -6 10 261.03 14.18
 4 -6 11 59.13 9.15
 4 -6 12 14.33 6.21
 4 -6 13 202.64 12.86
 4 -6 14 93.04 10.65
 4 -5 -4 35.64 6.47
 4 -5 -3 63.73 6.72
 4 -5 -2 84.71 7.56
 4 -5 -1 277.24 12.52
 4 -5 0 1.62 3.76
 4 -5 1 315.05 13.5
 4 -5 2 78.88 8.19
 4 -5 3 75.36 8.13
 4 -5 4 32.62 5.77
 4 -5 5 307.74 13.3
 4 -5 7 204.53 11.73
 4 -5 8 21.18 6.25
 4 -5 9 211.87 12.24
 4 -5 11 2.75 5.44
 4 -5 12 74.03 9.58
 4 -5 13 98.64 9.99
 4 -5 14 17.57 6.16
 4 -4 -2 5.49 4.12
 4 -4 -1 28.45 5.06
 4 -4 0 14.97 4.22
 4 -4 1 30.13 5.78
 4 -4 2 2.62 3.53
 4 -4 3 49.07 6.64
 4 -4 4 1.91 3.39
 4 -4 5 73.61 7.35
 4 -4 6 400.04 14.33
 4 -4 7 217.24 11.36
 4 -4 9 67.61 7.01
 4 -4 10 82.69 7.91
 4 -4 12 34.25 6.7
 4 -4 13 11.84 5.49
 4 -4 14 92.88 9.3
 4 -3 -1 334.02 12
 4 -3 0 20.96 4.36
 4 -3 1 363.86 13.1
 4 -3 2 176.53 9.53
 4 -3 3 77.32 6.76
 4 -3 4 243.34 10.78
 4 -3 5 131.41 8.55
 4 -3 6 294.83 12.26
 4 -3 8 43.61 6.19
 4 -3 9 38.06 6.03
 4 -3 10 307.06 13.13
 4 -3 11 14.56 4.53
 4 -3 13 81.35 8.09
 4 -2 5 58.79 5.69
 4 -2 6 550.82 15
 4 -2 8 642.24 16.62
 4 -2 9 48.91 6.6
 4 -2 10 110.12 7.75
 4 -2 11 72.08 7.51
 4 -2 12 18.58 4.69
 4 -2 13 38.34 5.92
 4 -1 9 264.14 10.42
 4 -1 10 84.49 6.96
 4 -1 12 135.52 8.78
 4 0 0 5.31 2.82
 4 0 1 2.26 2.68
 4 0 3 0.66 2.34
 4 0 4 351.06 10.61
 4 0 10 8.31 3.14
 4 0 11 347.76 12.02
 4 1 -1 284.45 9.15
 4 1 0 74.45 5
 4 1 1 271.34 8.69
 4 1 2 9.07 2.99
 4 1 4 303.33 8.94
 4 1 5 139.58 6.42
 4 1 6 449.2 10.96
 4 1 7 395.2 10.63
 4 1 8 1076.81 17.63
 4 2 -1 153.16 5.93
 4 2 0 13.12 2.53
 4 2 2 28.44 3.27
 4 2 3 275.77 7.38
 4 2 4 279.06 7.5
 4 2 5 56.72 4
 4 2 6 567.92 11.04
 4 2 7 194.84 6.86
 4 3 -1 372.01 7.68
 4 3 0 27.4 2.61
 4 3 1 349.28 6.69
 4 3 2 167.17 4.68
 4 3 3 69.72 3.28
 4 3 4 237.93 5.64
 4 4 -3 57.91 2.9
 4 4 -2 4.26 1.13
 5 -9 -8 2.32 7.66
 5 -9 -7 -0.45 5.93
 5 -9 -6 10.48 6.45
 5 -9 -5 72.07 10.91
 5 -9 -4 3.31 7.61
 5 -9 -2 39.44 9.23
 5 -9 -1 66.16 10.52
 5 -9 0 3.37 6.68
 5 -9 1 71.44 11.3
 5 -9 3 48.83 9.14
 5 -9 4 3.6 6.15
 5 -9 6 17.95 8.17
 5 -9 7 -1.16 6.17
 5 -9 8 0.71 6.24
 5 -8 -13 69.7 11.64
 5 -8 -12 33.13 8.55
 5 -8 -9 5.2 6.02
 5 -8 -8 0.74 7.08
 5 -8 -7 18.7 8.01
 5 -8 -6 9.44 6.26
 5 -8 -5 44.88 8.5
 5 -8 -4 65.72 9.83
 5 -8 -3 6.13 5.83
 5 -8 -1 20.45 6.89
 5 -8 0 107.96 11.56
 5 -8 3 4.72 5.74
 5 -8 5 45.3 8.78
 5 -8 6 17.29 7.06
 5 -8 7 9.46 7.64
 5 -8 8 2.29 6.13
 5 -8 9 6.41 6.9
 5 -8 10 89.65 11.61
 5 -8 11 9.14 7.06
 5 -8 12 39.5 10.27
 5 -7 -10 18.29 7.47
 5 -7 -9 52.66 9.98
 5 -7 -8 21.55 6.91
 5 -7 -7 19.49 6.93
 5 -7 -6 33.95 8.38
 5 -7 -5 73.92 10.64
 5 -7 -4 50.88 9.11
 5 -7 -3 105.51 10.62
 5 -7 -2 65.23 8.92
 5 -7 0 14.21 7
 5 -7 1 157.5 11.65
 5 -7 2 62.33 9.78
 5 -7 3 112.75 10.35
 5 -7 4 55.78 9.44
 5 -7 5 83.45 10.04
 5 -7 6 32.48 8.34
 5 -7 7 19.95 6.7
 5 -7 8 37.8 9.1
 5 -7 9 58.09 9.18
 5 -7 10 26.81 8.82
 5 -7 11 16.13 6.73
 5 -7 12 14.21 8.63
 5 -7 13 24.44 7.79
 5 -7 14 16.55 8.22
 5 -6 -7 -3.31 6.05
 5 -6 -6 281.23 15.36
 5 -6 -4 0.97 4.65
 5 -6 -3 3.53 5.03
 5 -6 -2 28.47 8.08
 5 -6 1 10.39 5.26
 5 -6 2 29.58 7.7
 5 -6 3 2.04 4.64
 5 -6 4 5.13 5.27
 5 -6 5 107.88 10.92
 5 -6 6 272.88 14.61
 5 -6 7 3.34 5.09
 5 -6 8 5.58 6.61
 5 -6 9 14.88 6.05
 5 -6 10 10.69 6.22
 5 -6 12 70.82 9.73
 5 -6 13 19.38 7.65
 5 -6 14 57.91 9.76
 5 -5 -5 19.16 5.77
 5 -5 -4 104.23 9.75
 5 -5 -3 18.19 5.8
 5 -5 -2 105.64 9.77
 5 -5 -1 23.2 5.89
 5 -5 0 281.5 14.36
 5 -5 1 21.24 5.97
 5 -5 2 114.33 9.4
 5 -5 3 16.27 5.5
 5 -5 4 102.27 9.81
 5 -5 5 7.22 5.56
 5 -5 7 25.45 6.53
 5 -5 8 24.78 6.34
 5 -5 9 111.23 9.81
 5 -5 10 155.93 11.74
 5 -5 11 34.31 8.23
 5 -5 14 100.46 11.53
 5 -4 -4 21.63 5.81
 5 -4 -3 84.39 8.44
 5 -4 -2 10.79 5.81
 5 -4 -1 56.78 7.5
 5 -4 1 63.15 7.32
 5 -4 2 6.03 4.29
 5 -4 4 17.5 5.21
 5 -4 5 24.33 5.86
 5 -4 6 87.43 9.04
 5 -4 7 24.99 6.54
 5 -4 8 90.4 9.27
 5 -4 9 9.98 5.97
 5 -4 10 1.76 4.96
 5 -4 11 17.86 6.16
 5 -4 12 76.37 9.53
 5 -4 13 95.54 9.57
 5 -4 14 36.54 7.81
 5 -3 -3 99.67 8.81
 5 -3 -2 25.89 5.33
 5 -3 -1 335.8 13.86
 5 -3 0 88.82 8.62
 5 -3 2 21.5 5.04
 5 -3 3 97.35 8.09
 5 -3 4 70.64 8.05
 5 -3 6 33.1 5.91
 5 -3 8 151.54 10.57
 5 -3 10 90.8 9
 5 -3 12 12.07 5.25
 5 -3 13 14.52 6.11
 5 -2 -1 42.83 6.22
 5 -2 0 219.91 10.9
 5 -2 1 43.73 6.52
 5 -2 2 9.69 4.16
 5 -2 3 35.8 5.63
 5 -2 4 108.61 8.57
 5 -2 5 144.64 8.97
 5 -2 7 53.22 6.27
 5 -2 8 44.12 6.53
 5 -2 9 86.13 8.27
 5 -2 10 89.35 7.91
 5 -2 12 18.38 5.5
 5 -1 -2 676.64 17.81
 5 -1 0 2.49 3.42
 5 -1 1 417.35 14
 5 -1 4 54.8 6.35
 5 -1 5 40.69 5.48
 5 -1 6 304.9 11.9
 5 -1 7 175.18 9.64
 5 -1 8 229.75 10.96
 5 -1 9 25.56 4.89
 5 -1 10 46.95 6.41
 5 -1 11 5.52 4.57
 5 -1 12 7.61 4.05
 5 -1 13 21.85 5.36
 5 0 3 11.6 3.76
 5 0 4 55.67 6
 5 0 5 24.24 4.46
 5 0 6 150.4 8.08
 5 0 7 99.63 7.02
 5 0 8 108.48 7.56
 5 0 10 140.07 8.37
 5 0 11 63.28 7.08
 5 1 8 256.72 9.78
 5 1 9 31.54 4.57
 5 2 -3 32.05 4.56
 5 2 -1 51.83 4.87
 5 2 0 212.88 8.07
 5 2 1 39.97 4.35
 5 2 2 7.8 2.99
 5 2 3 37.98 4.13
 5 2 4 99.79 5.71
 5 2 5 142.02 6.65
 5 2 6 135.02 6.71
 5 3 -3 100.14 5.51
 5 3 -2 20.66 3.17
 5 3 -1 354.93 8.85
 5 3 0 80.71 4.58
 5 3 1 340.15 8.08
 5 3 2 27.08 3.09
 5 3 3 91.85 4.49
 5 3 4 75.88 4.29
 5 3 5 246.45 6.98
 5 4 -5 24.63 3.19
 6 -8 -6 110.54 13.87
 6 -8 -5 23.73 8.35
 6 -8 -4 29.66 9.41
 6 -8 -2 43.39 9.76
 6 -8 -1 59.21 10.34
 6 -8 0 30.92 8.95
 6 -8 1 64.41 11.05
 6 -8 2 51.37 10.48
 6 -8 3 11.29 8.45
 6 -8 4 16.98 8.59
 6 -8 5 12.83 7.35
 6 -7 -9 20.76 9.67
 6 -7 -8 1.73 6.66
 6 -7 -7 15.59 8.52
 6 -7 -6 8.54 8
 6 -7 -5 69.46 10.49
 6 -7 -4 79.53 10.78
 6 -7 -3 3.16 5.95
 6 -7 -1 85.93 10.68
 6 -7 0 4.94 6.05
 6 -7 2 9.94 7.35
 6 -7 3 2.45 7.24
 6 -7 4 92.84 11.15
 6 -7 5 66.31 9.97
 6 -7 6 9.25 7.66
 6 -7 7 13.28 7.13
 6 -7 8 4.91 6.36
 6 -7 9 26.04 9.05
 6 -7 10 18.44 7.9
 6 -7 11 138.93 13.71
 6 -6 -10 36.51 9.67
 6 -6 -9 29.39 8.27
 6 -6 -8 6.17 7.21
 6 -6 -7 12.18 6.75
 6 -6 -6 24.32 7.75
 6 -6 -5 83.94 11.55
 6 -6 -4 21.54 8.45
 6 -6 -2 -0.36 5.83
 6 -6 -1 133.5 11.66
 6 -6 0 -0.29 5.47
 6 -6 1 145.5 12.81
 6 -6 2 7.28 6.01
 6 -6 4 13.26 7.83
 6 -6 5 67.39 9.38
 6 -6 6 13.68 7.78
 6 -6 7 11.14 6.46
 6 -6 8 0.06 6.42
 6 -6 9 23.74 7.6
 6 -6 11 34.15 8.34
 6 -5 -8 28.37 7.87
 6 -5 -7 32.65 7.82
 6 -5 -6 40 9.3
 6 -5 -5 101.6 12.06
 6 -5 -4 -2.13 6.13
 6 -5 -3 -0.5 5.45
 6 -5 -2 19.85 6.49
 6 -5 -1 132.35 12.45
 6 -5 0 21.34 7.05
 6 -5 1 115.27 11.03
 6 -5 2 24.58 7.64
 6 -5 4 9.9 6.12
 6 -5 5 97.98 10.88
 6 -5 7 28.52 8.34
 6 -5 8 30.27 7.65
 6 -5 9 55.4 9.15
 6 -5 10 59.19 9.74
 6 -5 11 53.54 9.31
 6 -5 12 38.11 9.38
 6 -5 13 8.37 6.62
 6 -5 14 5.93 8.14
 6 -4 -6 17.46 6.28
 6 -4 -5 94.12 9.86
 6 -4 -4 75.22 9.34
 6 -4 -3 32.03 7.98
 6 -4 -2 5.77 5.4
 6 -4 -1 24.92 6.84
 6 -4 0 45.42 7.6
 6 -4 1 30.05 7.9
 6 -4 2 3.99 5.14
 6 -4 3 42.58 7.59
 6 -4 4 80.62 10.55
 6 -4 6 18.75 6
 6 -4 8 29.57 8.24
 6 -4 9 48.2 8.42
 6 -4 10 26.76 7.05
 6 -4 11 25.03 7.81
 6 -4 13 35.71 7.78
 6 -3 -5 201.41 13.08
 6 -3 -4 21.03 5.79
 6 -3 -3 24.32 7.26
 6 -3 -2 90.01 9.17
 6 -3 -1 54.06 8.28
 6 -3 0 36.16 7.8
 6 -3 1 53.93 8.05
 6 -3 2 94.41 9
 6 -3 3 22.43 6
 6 -3 4 16.46 5.54
 6 -3 5 197.34 12.38
 6 -3 6 3.42 4.79
 6 -3 8 21.3 7.1
 6 -3 10 42.04 8.14
 6 -3 11 4.41 5.41
 6 -3 13 0.79 5.7
 6 -3 14 149.36 12.96
 6 -2 -5 11.62 5.37
 6 -2 -4 18.59 6.54
 6 -2 -3 24.98 6.26
 6 -2 -2 57.79 7.54
 6 -2 0 487.04 17.78
 6 -2 2 56.39 7.59
 6 -2 3 27.77 5.96
 6 -2 4 16.69 5.05
 6 -2 5 11.8 4.87
 6 -2 6 11.18 5.01
 6 -2 7 0.79 4.64
 6 -2 8 134.74 10.67
 6 -2 11 136.05 11.22
 6 -2 12 29.04 7.4
 6 -2 13 49.38 7.96
 6 -2 14 74.85 9.14
 6 -1 -4 91 9.12
 6 -1 -2 68.29 8.31
 6 -1 -1 43.37 7.29
 6 -1 0 70.23 7.8
 6 -1 1 44.55 6.46
 6 -1 4 98.28 8.02
 6 -1 5 8.83 5.25
 6 -1 6 11.73 4.77
 6 -1 7 18.46 4.97
 6 -1 8 4.65 4.52
 6 -1 9 44.17 7.58
 6 -1 10 8.23 4.96
 6 -1 11 11.25 5.26
 6 -1 12 86.83 9.05
 6 -1 13 17.16 5.96
 6 0 -4 2.58 4.67
 6 0 -3 7.32 4.38
 6 0 -2 262.28 11.94
 6 0 0 191.97 10.26
 6 0 1 3.69 4.51
 6 0 2 258.27 11.42
 6 0 4 5.76 4.34
 6 0 5 3.03 3.4
 6 0 6 116.96 8.72
 6 0 7 57.31 6.24
 6 0 8 16.02 5.15
 6 0 9 39.45 5.97
 6 0 10 23.2 5.33
 6 0 11 12.07 4.95
 6 1 -2 69.08 6.97
 6 1 0 72.41 6.94
 6 1 1 36.82 5.47
 6 1 3 58.05 6.22
 6 1 4 87.51 6.98
 6 1 5 9.14 3.76
 6 1 7 12.03 4.28
 6 1 8 3.47 3.49
 6 1 10 9.6 3.95
 6 2 -5 3.16 3.76
 6 2 -4 14.06 3.99
 6 2 -2 66.31 6.26
 6 2 -1 11.75 3.77
 6 2 4 9.67 3.49
 6 2 5 9.96 3.25
 6 2 6 11.48 3.28
 6 2 7 -1.2 2.59
 6 2 8 119.12 7.06
 6 3 -6 1.78 3.28
 6 3 -1 47.64 4.79
 7 -6 -7 17.56 8.81
 7 -6 -6 52.84 12.29
 7 -6 -5 41.68 9.61
 7 -6 -4 21.35 8.45
 7 -6 -3 11.62 8.05
 7 -6 -2 1.58 7.86
 7 -6 -1 6.6 8.44
 7 -6 0 117.64 13.52
 7 -6 1 13.74 8.11
 7 -6 2 1.76 6.52
 7 -6 3 0.42 6.17
 7 -6 4 21.94 7.96
 7 -6 5 27.4 9.08
 7 -6 6 37.63 10.01
 7 -5 -11 22.7 8.8
 7 -5 -10 6.2 9.22
 7 -5 -9 11.39 7.76
 7 -5 -8 1.05 7.73
 7 -5 -7 12.68 7.84
 7 -5 -6 -1.23 6.96
 7 -5 -5 68.12 12.04
 7 -5 -4 41.69 9.91
 7 -5 -3 1.36 6.68
 7 -5 -2 47.7 10.23
 7 -5 -1 137.05 13.78
 7 -5 0 72.29 11.66
 7 -5 1 127.15 12.92
 7 -5 2 67.27 10.23
 7 -5 3 -2.1 5.83
 7 -5 4 45.76 10.17
 7 -5 5 76.98 10.77
 7 -5 6 -1.48 6.12
 7 -5 7 2.41 6.68
 7 -5 8 11.31 7.13
 7 -5 9 18.17 9.13
 7 -5 10 -3.8 5.52
 7 -5 11 20.88 8.73
 7 -4 -9 20.94 8.32
 7 -4 -8 21.44 7.99
 7 -4 -7 18.22 8.03
 7 -4 -6 10.31 8.47
 7 -4 -4 14.36 8.22
 7 -4 -3 23.58 8.1
 7 -4 -2 67.21 11.07
 7 -4 -1 165.93 13.66
 7 -4 2 62.8 9.73
 7 -4 4 7.2 7.36
 7 -4 5 9.98 6.05
 7 -4 6 3.74 7.74
 7 -4 7 17.22 6.83
 7 -4 8 14.71 8.14
 7 -4 9 27.09 8.02
 7 -4 10 59.72 10.38
 7 -4 11 27.16 8.22
 7 -4 12 75.97 11.05
 7 -4 13 63.99 10.49
 7 -4 14 2.78 7.2
 7 -3 -9 13.04 7.62
 7 -3 -8 41.9 8.73
 7 -3 -7 94.61 11.45
 7 -3 -6 24.81 8.11
 7 -3 -5 43.16 8.84
 7 -3 -4 7.34 6.19
 7 -3 -2 21.69 7.49
 7 -3 -1 63.27 10.29
 7 -3 0 2.82 5.71
 7 -3 1 64.57 10.8
 7 -3 2 18.81 6.72
 7 -3 3 152.62 12.82
 7 -3 4 10.06 5.87
 7 -3 5 30.73 7.11
 7 -3 6 25.35 8.02
 7 -3 7 93.98 10.14
 7 -3 9 14.04 7.15
 7 -3 10 4.17 5.78
 7 -3 12 34.21 8.92
 7 -3 13 37.19 8.57
 7 -3 14 183.59 14.34
 7 -2 -8 11.48 8.1
 7 -2 -7 22.83 7.74
 7 -2 -6 17.15 7.27
 7 -2 -5 7.59 7.4
 7 -2 -4 2.75 5.35
 7 -2 -2 279.89 15.78
 7 -2 -1 2.58 5.23
 7 -2 0 25.44 7.31
 7 -2 1 10.66 6.21
 7 -2 2 271.49 14.39
 7 -2 3 14.06 6.12
 7 -2 5 4.95 5.47
 7 -2 6 21.69 6.35
 7 -2 7 30.54 6.71
 7 -2 8 5.94 6.03
 7 -2 9 26.91 7.95
 7 -2 10 5.18 5.93
 7 -2 11 28.57 7.39
 7 -2 12 -1.24 5.55
 7 -2 13 15.58 7.55
 7 -1 -7 5.01 6.94
 7 -1 -6 24.23 6.65
 7 -1 -5 35.9 7.4
 7 -1 -4 146.59 12.14
 7 -1 -1 108.6 10.39
 7 -1 0 2.57 4.59
 7 -1 1 112.5 9.61
 7 -1 2 22.02 6.03
 7 -1 3 11.11 5.38
 7 -1 4 148.55 11.1
 7 -1 5 20.19 5.99
 7 -1 7 3.16 5.13
 7 -1 8 3.78 5.61
 7 -1 9 63.94 9.04
 7 -1 10 19.13 7.08
 7 -1 11 0.97 5.35
 7 -1 12 9.52 5.4
 7 0 -7 10.33 6.12
 7 0 -6 12.37 5.47
 7 0 -4 5.68 4.91
 7 0 -3 38.06 6.85
 7 0 -2 20.99 6.59
 7 0 -1 33.14 7.19
 7 0 2 14.53 5.18
 7 0 3 27.97 5.78
 7 0 4 7.43 4.28
 7 0 5 17.9 5.84
 7 0 6 12.73 5.79
 7 0 7 8.22 5.4
 7 0 8 9.43 5.24
 7 0 10 7.91 5.3
 7 0 11 4.95 5.04
 7 1 -7 -2.94 4.75
 7 1 -6 31.46 6.25
 7 1 -5 27.53 6.34
 7 1 -4 148.31 10.38
 7 1 -3 8.52 5.25
 7 1 -2 22.6 5.28
 7 1 -1 105.24 8.37
 7 1 0 7.66 4.88
 7 1 2 32.13 5.58
 7 1 3 6.81 4.68
 7 1 4 137.43 8.98
 7 1 5 36.85 6.25
 7 1 6 23.28 4.98
 7 1 7 1.48 3.84
 7 1 8 4.11 4.46
 7 2 -8 10.79 4.72
 7 2 -7 32.98 6.55
 7 2 -6 25.22 5.86
 7 2 -5 1.3 4.52
 7 2 -4 2.45 3.88
 7 2 -3 18.91 4.89
 7 2 -2 272.62 11.45
 7 2 -1 3.59 4.02
 8 -4 -5 57.57 10.43
 8 -4 -4 41.64 9.98
 8 -4 -3 62.35 11.2
 8 -4 -2 41.32 10.09
 8 -4 -1 0.16 7.5
 8 -4 0 65.13 10.94
 8 -4 1 1.36 6.44
 8 -4 2 42.78 9.17
 8 -4 3 64.52 10.68
 8 -3 -9 5.74 7.47
 8 -3 -8 -9.03 7.4
 8 -3 -7 141.77 14.69
 8 -3 -6 2.95 6.73
 8 -3 -5 7.02 7
 8 -3 -4 18.5 8.12
 8 -3 -3 9.43 7.67
 8 -3 -1 32.54 8.51
 8 -3 0 99.77 11.4
 8 -3 2 198.67 15.21
 8 -3 3 5.72 6.49
 8 -3 4 20.53 7.85
 8 -3 5 12.52 7.88
 8 -3 6 10.3 6.6
 8 -3 8 3.78 6.44
 8 -3 9 0.68 6.92
 8 -2 -11 12.13 7.83
 8 -2 -10 -2.5 7.79
 8 -2 -8 106.32 13.46
 8 -2 -7 5.97 7.5
 8 -2 -6 10.95 7.42
 8 -2 -5 23.02 8.05
 8 -2 -3 40.33 8.94
 8 -2 -2 106.02 12.34
 8 -2 -1 42.6 8.76
 8 -2 0 71.8 9.88
 8 -2 1 40.64 9.44
 8 -2 2 100.68 11.08
 8 -2 3 39.21 8.57
 8 -2 4 11.52 6.27
 8 -2 5 30.48 8.24
 8 -2 6 4.24 5.53
 8 -2 8 94.1 10.43
 8 -2 9 65.86 10.28
 8 -2 10 4.88 6.65
 8 -2 11 17.22 7.66
 8 -1 -11 7.14 7.5
 8 -1 -10 99.02 11.79
 8 -1 -9 2 7.58
 8 -1 -8 8.64 7.17
 8 -1 -7 12.35 7.05
 8 -1 -6 32.7 7.87
 8 -1 -5 7.93 6.32
 8 -1 -4 12.97 7.15
 8 -1 -3 54.67 9.69
 8 -1 -2 99.03 10.38
 8 -1 -1 148.38 12.72
 8 -1 0 1.64 5.37
 8 -1 1 158.61 12.7
 8 -1 2 118.81 10.58
 8 -1 3 44.03 8.63
 8 -1 4 12.4 6.18
 8 -1 5 12.52 5.77
 8 -1 6 24.58 7.3
 8 -1 7 5.73 6.17
 8 -1 8 13.25 6.18
 8 -1 9 3.07 5.99
 8 -1 10 60.2 9.43
 8 -1 11 3.66 5.68
 8 0 -12 -0.58 6.19
 8 0 -11 37.43 8.68
 8 0 -10 42.29 8.46
 8 0 -9 9.68 6.53
 8 0 -8 117.76 11.86
 8 0 -6 -3.22 5.05
 8 0 -5 12.78 6.02
 8 0 -4 11.47 6.96
 8 0 -3 11.1 5.43
 8 0 -2 328.05 15.9
 8 0 -1 1.03 4.79
 8 0 0 0.83 5.49
 8 0 1 0.05 5.15
 8 0 2 307.27 14.67
 8 0 3 8.38 5.18
 8 0 4 6.9 4.85
 8 0 5 4.48 5.37
 8 0 6 3.82 5.85
 8 0 7 -0.16 5.4
 8 0 8 117.5 10.37
 -4 -3 -15 18.37 3.3
 -4 -3 -14 106.78 6.23
 -4 -3 -13 85.77 5.77
 -4 -2 -15 227.38 9.2
 -4 -2 -14 140.39 7.44
 -4 -2 -13 33.84 4.67
 -4 -1 -13 17.48 3.93
 -4 -1 -12 132.84 7.53
 -4 0 -12 20.49 4.95
 -3 -7 2 55.44 4.43
 -3 -7 3 218.81 8.32
 -3 -7 4 14.74 3.55
 -3 -6 5 41.52 4.54
 -3 -6 6 110.34 7.04
 -3 -3 -15 73.13 4.49
 -3 -3 -14 65.19 4.33
 -3 -3 -13 0.95 1.91
 -3 -3 -12 260.81 7.75
 -3 -3 -11 46.19 3.74
 -3 -2 -18 51.64 4.97
 -3 -2 -17 41.29 4.49
 -3 -2 -16 58.47 4.92
 -3 -2 -15 49.63 4.55
 -3 -2 -14 81.08 5.35
 -3 -2 -13 16.95 2.86
 -3 -2 -12 86.33 5.34
 -3 -1 -17 26.54 4.43
 -3 -1 -16 3.21 2.82
 -3 -1 -13 376.72 10.86
 -3 -1 -11 113.48 6.05
 -3 0 -15 27.28 4.23
 -3 0 -14 -0.34 2.97
 -3 0 -13 7.87 2.96
 -3 0 -12 64.95 5.63
 -3 0 -11 36.15 4.73
 -3 1 -14 124.04 7.56
 -3 1 -12 125.2 7.35
 -3 1 -11 111.86 6.6
 -3 1 -10 51.64 5.16
 -3 2 -11 111.33 6.79
 -3 2 -10 11.95 3.42
 -3 2 -9 542.84 13.61
 -3 3 -11 48.1 5.8
 -3 3 -10 36.08 5.32
 -3 3 -9 85.83 6.52
 -3 3 -8 218.69 9.01
 -3 3 -7 926.1 17.41
 -3 4 -9 7.07 3.94
 -3 4 -8 707.75 16.06
 -3 4 -7 98.56 6.94
 -3 4 -6 190.72 8.75
 -3 4 -5 359.6 10.97
 -3 5 -7 56.81 5.57
 -3 5 -6 96.81 6.88
 -3 5 -5 152.45 8.15
 -3 5 -4 1.26 2.73
 -3 5 -3 76.41 5.51
 -3 6 -4 55.8 5.73
 -3 6 -2 35.78 4.56
 -3 6 -1 6.64 2.56
 -3 6 0 24.41 3.49
 -3 6 1 8.45 2.65
 -3 6 2 40.86 4.19
 -3 7 -2 59.69 5.25
 -3 7 -1 102.67 6.43
 -3 7 0 16.66 3.42
 -3 7 1 100.7 5.94
 -3 7 2 58.87 4.74
 -3 7 3 228.11 8.05
 -2 -7 0 -0.13 1.07
 -2 -7 2 40.12 3.67
 -2 -7 3 9.15 2.49
 -2 -7 4 71.21 5.25
 -2 -7 5 134.77 6.95
 -2 -7 6 2.84 2.52
 -2 -6 -2 114.41 4.31
 -2 -6 -1 115.17 4.67
 -2 -6 0 11.18 2.29
 -2 -6 1 101.59 4.93
 -2 -6 2 100.88 5.27
 -2 -6 3 329.44 9.2
 -2 -6 4 75.54 5.04
 -2 -6 5 103 5.89
 -2 -6 6 62.22 5.29
 -2 -6 7 112.79 6.81
 -2 -6 8 6.16 3.04
 -2 -5 4 237.39 7.95
 -2 -5 5 82.58 5.19
 -2 -5 6 65.04 4.92
 -2 -5 7 588.53 13.37
 -2 -5 8 31.05 4.18
 -2 -5 9 156.38 7.63
 -2 -5 10 36.38 5.42
 -2 -4 -11 91.75 2.93
 -2 -4 -10 16.39 1.52
 -2 -4 -9 1.36 0.91
 -2 -4 9 2.62 2.62
 -2 -4 10 18.59 3.63
 -2 -4 11 86.88 5.94
 -2 -4 12 35.79 5.51
 -2 -3 11 162 7.32
 -2 -3 12 18.9 3.67
 -2 -2 -16 62.59 4.63
 -2 -2 -15 85.32 4.85
 -2 -2 -14 56.71 3.99
 -2 -2 -13 57.09 3.88
 -2 -2 -12 212.02 6.53
 -2 -2 -11 89.64 4.3
 -2 -2 -10 383.75 8.15
 -2 -2 -9 306.25 7.12
 -2 -2 14 53.75 5.05
 -2 -2 15 94.41 6.57
 -2 -1 -17 36.02 4.45
 -2 -1 -16 11.64 2.93
 -2 -1 -15 30.32 4.12
 -2 -1 -14 204.15 7.37
 -2 -1 -12 163.59 6.43
 -2 -1 -11 10.27 2.23
 -2 -1 -10 202.54 6.5
 -2 -1 14 190.57 7.94
 -2 -1 15 22.35 4.6
 -2 -1 16 13.55 3.63
 -2 0 -17 103.63 6.81
 -2 0 -15 12.25 3.28
 -2 0 -14 3.28 2.32
 -2 0 -13 9.43 2.81
 -2 0 -12 516.69 11.63
 -2 0 -11 2.6 2.29
 -2 0 -9 30.64 3.35
 -2 0 -8 784.37 12.92
 -2 0 15 12.97 3.64
 -2 0 16 115.46 7.14
 -2 0 17 96.19 6.78
 -2 1 -16 9.12 3.33
 -2 1 -15 23.98 4.27
 -2 1 -14 188.64 8.37
 -2 1 -12 160.35 7.36
 -2 1 -11 8.76 2.71
 -2 1 -10 200.73 7.72
 -2 1 -9 447.51 10.63
 -2 1 -8 42.71 4.2
 -2 1 16 12.66 3.35
 -2 1 17 36.2 4.62
 -2 1 18 122.55 7.08
 -2 2 -15 93.11 6.92
 -2 2 -14 57.86 5.82
 -2 2 -13 51.35 4.93
 -2 2 -12 214.82 8.72
 -2 2 -10 381.37 10.75
 -2 2 -8 386.15 10.06
 -2 2 -7 315.16 9.06
 -2 2 -6 949.88 15.16
 -2 2 16 65.19 4.92
 -2 2 17 176.79 7.68
 -2 2 18 4.95 2.75
 -2 2 19 18.76 3.55
 -2 3 -12 14.21 3.56
 -2 3 -11 170.92 8.28
 -2 3 -10 28.8 4.05
 -2 3 -9 483.81 12.08
 -2 3 -8 412.49 11.02
 -2 3 -7 12.32 3.32
 -2 3 -6 524.94 11.84
 -2 3 -5 436.85 10.32
 -2 3 15 64.82 4.51
 -2 3 16 89.56 5.21
 -2 3 17 81.36 5.13
 -2 3 18 39.05 4.28
 -2 4 -11 95.51 6.51
 -2 4 -10 17.86 3.78
 -2 4 -9 5.76 3.58
 -2 4 -8 339.34 10.46
 -2 4 -7 189.65 7.97
 -2 4 -6 287.79 9.32
 -2 4 -4 87.74 5.15
 -2 4 -3 463.2 10.68
 -2 4 15 108.93 4.98
 -2 5 -9 142.46 7.59
 -2 5 -8 24.74 4.08
 -2 5 -7 586.43 13.9
 -2 5 -5 77.73 5.7
 -2 5 -4 235.32 8.36
 -2 5 -3 264.57 8.46
 -2 5 -2 322.44 8.97
 -2 5 -1 138.74 6.06
 -2 5 0 49.89 3.93
 -2 5 1 124.79 5.41
 -2 5 2 314.29 7.97
 -2 5 13 331.26 6.59
 -2 6 -6 70.93 5.86
 -2 6 -5 95.38 5.97
 -2 6 -4 78.43 5.75
 -2 6 -3 344.51 9.93
 -2 6 -2 113.54 6.03
 -2 6 -1 111.87 5.55
 -2 6 0 13.4 2.87
 -2 6 2 110.2 5.08
 -2 6 3 334.61 8.07
 -2 6 4 70.77 3.92
 -2 6 6 68.56 3.62
 -2 6 7 102.04 4
 -2 6 8 5.41 1.55
 -2 6 9 11.18 1.63
 -2 7 -5 125.44 7.34
 -2 7 -4 77.34 5.79
 -2 7 -3 6.13 2.9
 -2 7 -2 35.84 4
 -2 7 -1 81.74 5.11
 -2 7 0 -0.67 2.1
 -2 7 1 77.69 4.72
 -2 7 3 7.23 2.24
 -2 7 4 71.67 3.95
 -2 7 5 123.76 4.61
 -2 8 -3 315.98 10.44
 -2 8 -2 64.4 5.16
 -1 -8 5 77.11 5.56
 -1 -8 6 24.22 4.3
 -1 -7 1 55.67 3.72
 -1 -7 2 41.45 3.74
 -1 -7 3 8.31 2.62
 -1 -7 4 13.97 3.06
 -1 -7 5 191.96 7.96
 -1 -7 6 21.27 3.65
 -1 -7 7 71.58 5.9
 -1 -6 0 462.92 8.74
 -1 -6 1 119.97 4.96
 -1 -6 2 320.81 8.3
 -1 -6 4 248.73 8.11
 -1 -6 5 61.02 4.99
 -1 -6 6 99.12 6.09
 -1 -6 7 226.72 8.91
 -1 -6 8 174.2 8.12
 -1 -6 9 49.77 5.24
 -1 -5 -2 131.44 3.79
 -1 -5 -1 316.46 6.3
 -1 -5 3 299.29 7.79
 -1 -5 5 41.91 4.02
 -1 -5 6 75.53 4.77
 -1 -5 8 178.82 7.48
 -1 -5 9 524.66 12.92
 -1 -5 10 83.11 6.23
 -1 -5 11 158.19 8.28
 -1 -4 -4 310.65 3.59
 -1 -4 -3 870.81 7.52
 -1 -4 -2 249.71 4.64
 -1 -4 0 1467.05 13.14
 -1 -4 1 403.23 7.56
 -1 -4 2 253.23 6.31
 -1 -4 3 863.74 12.24
 -1 -4 7 165.79 6.89
 -1 -4 8 222.9 8.06
 -1 -4 9 173.72 7.36
 -1 -4 10 14.9 3.26
 -1 -4 11 339.37 10.6
 -1 -4 12 4.66 3.68
 -1 -4 13 37.22 4.99
 -1 -3 -8 67.98 1.98
 -1 -3 -7 39.74 1.42
 -1 -3 -6 57.12 1.53
 -1 -3 5 115.12 4.82
 -1 -3 6 63.47 3.92
 -1 -3 11 26.34 3.65
 -1 -3 12 298.56 9.81
 -1 -3 14 23.54 4.08
 -1 -3 15 42.29 6.07
 -1 -2 -11 166.52 4.92
 -1 -2 8 117.04 5.19
 -1 -2 13 302.07 9.88
 -1 -2 15 258.9 9.6
 -1 -1 -12 669.88 11.28
 -1 -1 -11 165.02 5.53
 -1 -1 -9 615.65 9.25
 -1 -1 -7 931.73 10.12
 -1 -1 -6 1606.84 12.55
 -1 -1 11 158.47 6.49
 -1 -1 12 656.66 12.94
 -1 -1 13 9.67 2.75
 -1 -1 14 87.4 5.74
 -1 -1 15 730.89 15.13
 -1 -1 16 113.51 6.94
 -1 -1 17 136.15 7.82
 -1 0 -14 64.47 4.72
 -1 0 -11 102.08 5.06
 -1 0 -10 1290 15.42
 -1 0 -9 93.52 4.47
 -1 0 -8 556.47 9.47
 -1 0 -7 3099.07 20.54
 -1 0 -6 6098.63 27.62
 -1 0 -5 1089.46 11.12
 -1 0 12 270.38 8.08
 -1 0 13 33.44 4.01
 -1 0 14 64.98 4.63
 -1 0 15 248.95 8.74
 -1 0 16 227.13 8.47
 -1 0 17 109.55 6.5
 -1 0 18 2.37 3.32
 -1 1 -12 644.79 12.78
 -1 1 -11 158.82 6.6
 -1 1 -9 606.45 11.1
 -1 1 -8 181.88 6.02
 -1 1 -6 1617.56 15.55
 -1 1 -5 2104.12 17.12
 -1 1 11 156.98 5.54
 -1 1 12 658.39 11.52
 -1 1 13 13.09 2.41
 -1 1 14 87.25 4.78
 -1 1 15 728.2 13.47
 -1 1 17 132.15 6.54
 -1 1 18 89.88 6.1
 -1 1 19 11.13 3.42
 -1 2 -13 310.7 9.96
 -1 2 -12 238.15 8.5
 -1 2 -11 175.82 7.41
 -1 2 -10 252.67 8.02
 -1 2 -9 610.77 11.97
 -1 2 -7 876.53 13.16
 -1 2 -6 1363.93 15.69
 -1 2 -5 112.79 4.56
 -1 2 -4 283.75 6.68
 -1 2 -3 1271.62 13.35
 -1 2 11 165.8 5.17
 -1 2 12 231.01 6.46
 -1 2 13 306.78 7.66
 -1 2 14 412.31 9.12
 -1 2 16 7.46 2.77
 -1 2 17 33.31 3.9
 -1 2 18 1.73 2.14
 -1 2 19 7.11 3.07
 -1 2 20 135.77 6.94
 -1 3 -13 378.77 11.93
 -1 3 -12 309.71 10.46
 -1 3 -11 26.74 4.41
 -1 3 -7 38.46 3.68
 -1 3 -6 61.21 4.43
 -1 3 -5 112.36 5.19
 -1 3 -4 944.56 12.93
 -1 3 -2 423.14 8.16
 -1 3 -1 1352.54 13.59
 -1 3 11 31.85 2.53
 -1 3 12 310.14 6.58
 -1 3 13 374.86 7.57
 -1 3 14 28.45 2.82
 -1 3 15 38.39 3.29
 -1 3 16 655.36 11.23
 -1 3 17 123 5.45
 -1 3 18 65.64 4.53
 -1 4 -13 33.6 5.49
 -1 4 -12 4.06 2.96
 -1 4 -11 339.58 10.95
 -1 4 -10 13.59 3.96
 -1 4 -9 176.18 7.66
 -1 4 -8 217.99 7.96
 -1 4 -7 170.56 6.87
 -1 4 -6 830.42 14.11
 -1 4 -4 319.43 8.32
 -1 4 -3 836.68 12.59
 -1 4 -2 242.69 6.63
 -1 4 -1 399.5 7.96
 -1 4 0 1432.86 14.11
 -1 4 1 386.1 7.08
 -1 4 2 249.97 5.5
 -1 4 3 878.4 9.57
 -1 4 10 16.26 1.53
 -1 4 11 357.19 5.29
 -1 4 12 4.22 1.22
 -1 4 14 227.99 5.08
 -1 4 15 173.67 4.8
 -1 4 16 32.78 2.76
 -1 5 -11 150.62 8.54
 -1 5 -10 79.83 5.95
 -1 5 -9 519.58 13.42
 -1 5 -7 20.89 3.58
 -1 5 -5 40.87 3.89
 -1 5 -3 297.48 8.17
 -1 5 -2 123.46 5.24
 -1 5 -1 312.64 7.56
 -1 5 0 81.48 3.87
 -1 5 1 301.65 6.74
 -1 5 2 130.44 4.37
 -1 5 3 295.1 5.85
 -1 5 4 36.75 2.25
 -1 5 5 40.29 2.06
 -1 5 6 77.95 2.28
 -1 6 -7 242.93 9.31
 -1 6 -6 98.55 6.02
 -1 6 -5 58.76 4.62
 -1 6 -3 252.14 8.13
 -1 6 -2 329.12 8.69
 -1 6 -1 130.23 5.51
 -1 6 0 469.77 9.42
 -1 6 1 121.01 4.77
 -1 6 2 333.71 7.07
 -1 6 3 241.3 5.62
 -1 6 4 253.26 5.14
 0 -6 5 36.63 3.79
 0 -6 6 405.39 10.92
 0 -6 7 141.67 7.42
 0 -6 8 5.92 2.99
 0 -6 9 312.29 11.08
 0 -6 10 10.25 4.13
 0 -5 5 428.29 10.26
 0 -5 6 6.8 2.46
 0 -5 7 49.05 4.79
 0 -5 8 41.29 4.9
 0 -5 9 119.73 7.13
 0 -5 10 3.18 3.2
 0 -5 11 7.42 3.17
 0 -5 12 39.14 5.61
 0 -4 1 1145.66 12.44
 0 -4 2 1933.77 17.17
 0 -4 3 926.23 12.47
 0 -4 7 325 9.06
 0 -4 8 35.74 4.24
 0 -4 9 675.76 13.95
 0 -4 10 23.54 3.69
 0 -4 11 356.78 11.13
 0 -4 12 2.41 2.78
 0 -4 13 42 4.99
 0 -3 1 419.55 6.66
 0 -3 2 1.82 1.58
 0 -3 3 1471.59 14.22
 0 -3 4 201.97 5.76
 0 -3 5 596.81 10.38
 0 -3 6 61.49 4.18
 0 -3 7 300.2 8.27
 0 -3 12 45.42 4.87
 0 -3 13 84.49 6.21
 0 -3 14 632.14 15.02
 0 -3 15 1104.11 20.55
 0 -2 -1 3829.35 12.39
 0 -2 0 9861.67 23.42
 0 -2 1 3840.34 16.68
 0 -2 2 1903.15 13.02
 0 -2 3 3676 19.82
 0 -2 4 1794.78 14.86
 0 -2 5 970.91 11.87
 0 -2 6 1192.19 13.93
 0 -2 7 1393.37 15.66
 0 -2 8 147.37 5.69
 0 -2 9 227.53 7.29
 0 -2 12 127.11 6.65
 0 -2 14 155.77 7.38
 0 -2 15 155.61 7.59
 0 -2 16 42.22 5.45
 0 -1 1 283.51 3.61
 0 -1 2 0.91 0.72
 0 -1 3 809.97 7.92
 0 -1 4 520.93 7.13
 0 -1 5 999.85 10.59
 0 -1 6 1806.97 15.37
 0 -1 7 853.08 11.33
 0 -1 8 28.22 3.15
 0 -1 9 110.58 4.85
 0 -1 10 42.28 3.48
 0 -1 11 2.2 1.94
 0 -1 12 2302.19 23.55
 0 -1 13 238.41 8.06
 0 -1 14 172.58 7.38
 0 -1 15 964.34 17.36
 0 -1 16 1697.07 23.26
 0 -1 17 120.67 7.38
 0 -1 18 71.4 6.06
 0 0 4 1594.79 10.27
 0 0 6 2.74 1.19
 0 0 8 2.59 1.53
 0 0 10 413.21 8.67
 0 0 12 116.92 5.5
 0 0 14 52.3 4.5
 0 0 16 20.25 3.67
 0 0 18 20.78 3.97
 0 1 -6 1791 15.01
 0 1 -5 1002.51 10.81
 0 1 -3 841.25 8.2
 0 1 -2 -0.04 0.73
 0 1 -1 283.83 3.65
 0 1 4 501.94 4.45
 0 1 5 967.84 7.27
 0 1 6 1770.52 11.32
 0 1 7 847.88 8.77
 0 1 8 30.26 2.34
 0 1 9 114.02 4.1
 0 1 10 43.33 3.14
 0 1 11 6.79 1.85
 0 1 12 2343.92 20.39
 0 1 14 167.4 6.35
 0 1 15 980.58 15.37
 0 1 16 1663.47 20.66
 0 1 18 73.49 5.58
 0 1 19 21.71 3.73
 0 1 20 161.7 8.27
 0 2 -6 1187.55 13.56
 0 2 -5 953.33 11.77
 0 2 -4 1821.64 15.24
 0 2 -3 3675.07 19.97
 0 2 -2 1944.28 13.23
 0 2 -1 3785.93 16.5
 0 2 0 9640.29 22.99
 0 2 1 3816.88 12.13
 0 2 7 1448.36 9.21
 0 2 8 145.9 3.47
 0 2 9 229.07 4.73
 0 2 10 4.89 1.45
 0 2 11 411.6 7.37
 0 2 12 120.69 4.51
 0 2 13 32.63 2.94
 0 2 15 144.22 5.74
 0 2 16 39.68 3.79
 0 2 17 12.36 2.8
 0 3 -3 1414.66 13.82
 0 3 -2 3.39 1.39
 -3 -7 16 82.07 10.45
 -3 -7 17 0.93 6.27
 -3 -7 18 1.03 6.07
 -3 -6 13 77.36 9.22
 -3 -6 14 46.42 8.14
 -3 -6 15 130.05 11.61
 -3 -6 16 2.61 5.87
 -3 -6 17 92.9 10.68
 -3 -6 18 5.46 6.09
 -3 -6 19 33.58 9.28
 -3 -6 20 44.8 9.59
 -3 -6 21 5.9 5.99
 -3 -6 22 30.21 9.41
 -3 -5 11 41.38 6.86
 -3 -5 12 198.07 11.18
 -3 -5 13 17.03 5.56
 -3 -5 14 110.96 9.81
 -3 -5 15 58.2 8.96
 -3 -5 16 8.5 5.41
 -3 -5 17 6.47 5.28
 -3 -5 18 163.32 12
 -3 -5 19 157.16 12.47
 -3 -5 20 232.78 14.37
 -3 -5 21 4.47 5.79
 -3 -5 22 118.79 11.61
 -3 -4 11 51.25 7.11
 -3 -4 12 183.06 10.27
 -3 -4 13 27.56 5.46
 -3 -4 14 72.49 8.11
 -3 -4 15 42.8 6.35
 -3 -4 16 12.43 5.6
 -3 -4 17 12.11 5.81
 -3 -4 18 75.67 8.81
 -3 -4 19 26.25 6.33
 -3 -4 20 52.78 8.18
 -3 -4 21 72.62 9.37
 -3 -4 22 19.65 6.98
 -3 -4 23 88.73 9.69
 -3 -3 13 2.85 4.05
 -3 -3 14 63.88 6.55
 -3 -3 15 90.89 7.99
 -3 -3 17 30.78 5.53
 -3 -3 18 117.32 8.85
 -3 -3 19 0.83 4.38
 -3 -3 20 133.23 9.63
 -3 -3 21 76.27 8.28
 -3 -3 22 87.24 8.57
 -3 -3 23 80.3 8.45
 -3 -2 14 70.36 5.98
 -3 -2 15 52.44 5.66
 -3 -2 16 62.1 5.95
 -3 -2 17 36.64 5.41
 -3 -2 18 55.34 6.1
 -3 -2 19 80.9 7.03
 -3 -2 20 9.88 4.79
 -2 -9 10 56.66 9.05
 -2 -9 11 41.21 8.92
 -2 -9 16 34 10.28
 -2 -8 7 46.27 7.6
 -2 -8 8 89.01 10.08
 -2 -8 9 36.03 8.34
 -2 -8 11 96.38 10.02
 -2 -8 12 62.74 9.92
 -2 -8 13 54.09 9.36
 -2 -8 14 20.81 9.34
 -2 -8 15 13.79 7.51
 -2 -8 16 16.95 7.36
 -2 -8 17 149.53 13.51
 -2 -8 18 3.51 7.21
 -2 -8 19 9.49 8.84
 -2 -8 20 3.54 9.46
 -2 -7 6 -2.38 4.48
 -2 -7 7 272.12 13.22
 -2 -7 8 39.57 6.83
 -2 -7 9 288.81 13.96
 -2 -7 10 6.2 4.94
 -2 -7 11 58.45 8.46
 -2 -7 13 89.32 9.7
 -2 -7 14 11.9 6.85
 -2 -7 15 67.57 10.56
 -2 -7 16 16.85 7.92
 -2 -7 17 79.87 11.42
 -2 -7 18 150.65 13.66
 -2 -7 19 18.51 8.98
 -2 -7 20 45.14 9.16
 -2 -7 22 12.07 7.65
 -2 -6 4 74.93 6.42
 -2 -6 5 90.1 7.65
 -2 -6 6 61.23 7.19
 -2 -6 7 113.27 8.28
 -2 -6 9 19.7 6.01
 -2 -6 11 34.59 6.34
 -2 -6 12 116.21 9.2
 -2 -6 13 17.22 6.5
 -2 -6 14 81.44 9.18
 -2 -6 15 103.63 9.38
 -2 -6 16 6.53 5.45
 -2 -6 17 62.08 8.63
 -2 -6 18 1.22 5.2
 -2 -6 19 87.22 10.84
 -2 -6 20 18.04 8.2
 -2 -6 22 75.9 11.34
 -2 -6 24 45.01 9.38
 -2 -5 4 232.47 9.82
 -2 -5 8 30.48 5.34
 -2 -5 9 148.31 9.16
 -2 -5 14 1.95 3.95
 -2 -5 15 32.62 6.47
 -2 -5 16 14.18 5.53
 -2 -5 17 33.66 6.69
 -2 -5 18 71.92 8.29
 -2 -5 19 122.94 10.94
 -2 -5 20 48.1 8.71
 -2 -5 23 -0.36 6.91
 -2 -5 24 1.83 6.96
 -2 -5 25 11.94 7.39
 -2 -5 26 82.28 11.9
 -2 -4 9 5.65 2.98
 -2 -4 10 13.25 3.64
 -2 -4 12 36.7 5.85
 -2 -4 13 145.8 9.02
 -2 -4 16 30.19 5.51
 -2 -4 17 32.98 6.1
 -2 -4 18 13.6 5.84
 -2 -4 19 25.43 6.15
 -2 -4 21 179.28 11.6
 -2 -4 22 62.58 9.13
 -2 -4 24 58.02 9.28
 -2 -4 25 4.23 6.14
 -2 -4 26 -5.12 6.3
 -2 -3 4 31.82 3.97
 -2 -3 5 437.82 11.09
 -2 -3 6 511.55 12.01
 -2 -3 13 200.26 9.33
 -2 -3 14 21.91 4.63
 -2 -3 15 70.52 6.42
 -2 -3 16 98.26 7.36
 -2 -3 18 36.57 6.45
 -2 -3 20 197.34 11.06
 -2 -3 21 21.15 5.45
 -2 -3 24 5.03 5.03
 -2 -3 25 7.69 5.29
 -2 -2 6 923.26 14.46
 -2 -2 7 303.18 8.69
 -2 -2 9 323.38 9.12
 -2 -2 10 397.02 10.49
 -2 -2 11 89.09 5.73
 -2 -2 16 59.86 5.75
 -2 -2 17 173.3 8.64
 -2 -2 18 1.47 3.44
 -2 -2 19 18.15 4.56
 -2 -2 20 16.6 4.87
 -2 -2 21 252.87 11.14
 -2 -2 22 3.95 3.94
 -2 -2 23 11.31 4.8
 -2 -2 24 16.44 5.42
 -2 -1 7 106.94 4.77
 -2 -1 8 38.84 3.5
 -2 -1 9 437.89 9.4
 -2 -1 10 193.68 6.65
 -2 -1 12 159.32 6.46
 -2 -1 13 109.8 5.73
 -2 -1 19 1.33 2.79
 -2 -1 21 97.76 6.97
 -2 -1 22 155.99 8.38
 -2 0 9 30.39 2.75
 -2 0 10 116.69 4.56
 -2 0 11 2.36 1.84
 -2 0 12 523.01 9.62
 -2 0 13 9.27 2.24
 -2 0 14 3.61 2.15
 -2 0 15 14.92 2.93
 -2 0 17 95.14 5.29
 -2 0 18 18.6 3.26
 -2 0 19 -0.4 2.53
 -2 1 14 201.37 5.1
 -2 1 15 22.47 2.54
 -2 1 16 14.09 2.3
 -2 1 17 37.29 3.14
 -2 1 18 121.57 4.84
 -1 -10 7 40.37 9.25
 -1 -10 8 3.68 7.16
 -1 -10 9 99.13 12.06
 -1 -10 11 52.34 10.1
 -1 -10 12 0.57 7.64
 -1 -10 13 30.64 9
 -1 -10 14 -8.35 8.71
 -1 -9 4 90.87 9.12
 -1 -9 6 15.13 6.36
 -1 -9 7 85.01 10.94
 -1 -9 10 47.87 9.74
 -1 -9 11 39.99 8.46
 -1 -9 12 1.97 6.85
 -1 -9 13 92.09 10.79
 -1 -9 14 -2.26 8.02
 -1 -9 15 4.01 7.58
 -1 -9 16 -3.74 6.7
 -1 -8 3 98.82 8.41
 -1 -8 4 65.02 8.01
 -1 -8 6 24.97 5.93
 -1 -8 8 46.56 8.29
 -1 -8 9 160.93 11.87
 -1 -8 10 -0.9 4.93
 -1 -8 11 22.05 6.52
 -1 -8 12 39.45 9.06
 -1 -8 13 76.02 9.49
 -1 -8 14 76.1 9.77
 -1 -8 15 22.38 8.31
 -1 -8 16 32.97 9.4
 -1 -8 17 19.33 8.75
 -1 -8 18 11.5 7.75
 -1 -8 19 106.17 11.78
 -1 -8 20 20.3 9.28
 -1 -7 1 57.46 6.51
 -1 -7 2 29.33 5
 -1 -7 4 13.08 4.52
 -1 -7 6 18.06 5.86
 -1 -7 7 72.07 7.12
 -1 -7 10 96.92 8.45
 -1 -7 12 224.16 12.71
 -1 -7 13 102.76 10.39
 -1 -7 14 279.4 14.76
 -1 -7 15 132.03 10.82
 -1 -7 16 12.08 6.02
 -1 -7 17 26.07 7.48
 -1 -7 18 68 10.64
 -1 -7 19 3.19 7.23
 -1 -7 20 67.1 10.37
 -1 -7 21 20.67 9.49
 -1 -7 22 6.07 7.19
 -1 -7 23 13.33 7.96
 -1 -6 2 332.35 11.58
 -1 -6 3 231.31 9.94
 -1 -6 4 253.94 10.71
 -1 -6 5 65.01 6.64
 -1 -6 6 95.26 7.01
 -1 -6 7 233.16 10.87
 -1 -6 8 173.36 9.85
 -1 -6 9 57.73 7.25
 -1 -6 10 12.5 5.31
 -1 -6 13 63.5 7.16
 -1 -6 14 24.05 6.3
 -1 -6 16 8.79 5.72
 -1 -6 17 56.6 8.07
 -1 -6 18 52.6 8.54
 -1 -6 19 -2.85 6.61
 -1 -6 20 53.88 8.66
 -1 -6 21 13.29 8.18
 -1 -6 24 59.61 9.99
 -1 -6 25 21.31 8.05
 -1 -5 0 82.12 5.84
 -1 -5 1 310.97 9.83
 -1 -5 8 181.24 8.77
 -1 -5 9 516.21 14.66
 -1 -5 10 85.95 6.81
 -1 -5 12 82.88 7.34
 -1 -5 14 246.23 12.25
 -1 -5 16 150.24 10.67
 -1 -5 19 101.79 10.26
 -1 -5 20 7.15 5.52
 -1 -5 22 80.25 10.58
 -1 -5 23 138.38 12.51
 -1 -5 25 14.06 8.09
 -1 -5 26 7.97 7.66
 -1 -4 0 1418.09 17.89
 -1 -4 1 402.92 10.05
 -1 -4 2 233.76 7.85
 -1 -4 3 843.35 14.59
 -1 -4 4 323.49 9.54
 -1 -4 6 823.23 15.66
 -1 -4 11 327.65 11.56
 -1 -4 12 0.88 3.14
 -1 -4 14 231.96 10.95
 -1 -4 15 170.48 10.08
 -1 -4 16 25.13 5.74
 -1 -4 17 43.6 6.37
 -1 -4 18 122.99 9.84
 -1 -4 19 11.2 5.05
 -1 -4 20 45.72 7.51
 -1 -4 22 42.48 8.31
 -1 -4 23 5.94 6.32
 -1 -4 24 27.81 7.96
 -1 -4 25 64.95 9.66
 -1 -4 26 4.89 5.66
 -1 -4 27 20.38 7.6
 -1 -3 0 110.45 4.68
 -1 -3 1 1387.41 16
 -1 -3 2 440.63 9.48
 -1 -3 3 371.56 8.92
 -1 -3 4 946.34 14.22
 -1 -3 5 110.26 5.49
 -1 -3 7 37.99 4.33
 -1 -3 8 70.96 4.89
 -1 -3 9 962.89 16.61
 -1 -3 14 27.15 5.08
 -1 -3 15 31.85 5.32
 -1 -3 16 656.7 16.55
 -1 -3 17 109.96 8.34
 -1 -3 18 61.97 6.57
 -1 -3 19 67.99 7.62
 -1 -3 20 146.39 10.11
 -1 -3 21 136.56 10.12
 -1 -3 22 116.64 9.85
 -1 -3 23 9.37 5.95
 -1 -3 24 6.76 5.19
 -1 -3 26 170 11.93
 -1 -3 27 59.44 9.07
 -1 -2 1 630.26 9.4
 -1 -2 3 1230.25 13.53
 -1 -2 4 291.52 7.19
 -1 -2 5 108.88 4.62
 -1 -2 6 1389.21 15.98
 -1 -2 7 905.98 13.33
 -1 -2 8 126.6 5.63
 -1 -2 10 266.41 8.14
 -1 -2 11 178.08 7.35
 -1 -2 12 236.82 8.32
 -1 -2 16 7.08 3.25
 -1 -2 17 39.28 5.68
 -1 -2 18 1.53 3.07
 -1 -2 19 14.36 4.15
 -1 -2 20 137.27 8.61
 -1 -2 21 43.97 5.96
 -1 -2 22 19.41 5.05
 -1 -2 23 127.25 9.42
 -1 -2 24 22.38 5.56
 -1 -2 25 10.05 5.65
 -1 -1 2 961.49 9.75
 -1 -1 3 302.03 5.72
 -1 -1 6 1614.08 14.47
 -1 -1 7 929.12 11.68
 -1 -1 8 187.12 5.77
 -1 -1 9 628.01 10.51
 -1 -1 10 508.21 9.83
 -1 -1 11 166.62 6.2
 -1 -1 12 651.62 11.93
 -1 -1 13 11.82 2.7
 -1 -1 14 86.49 5.24
 -1 -1 15 736.23 14.26
 -1 -1 19 13.86 3.93
 -1 -1 21 106.14 7.39
 -1 -1 22 332.64 12.04
 -1 -1 23 95.29 7.53
 -1 -1 24 9.08 4.64
 -1 0 5 1058.71 8.67
 -1 0 6 6054.11 22.17
 -1 0 7 3170.97 17.2
 -1 0 8 563.5 7.91
 -1 0 9 88.01 3.63
 -1 0 10 1296.17 13.25
 -1 0 11 102.23 4.34
 -1 0 12 275.56 6.95
 -1 0 13 31.69 3.15
 -1 0 14 65.92 4.26
 -1 0 17 112.59 5.84
 -1 0 18 -0.7 2.55
 -1 0 22 52.74 5.6
 -1 1 8 185.39 3.46
 -1 1 9 638.61 6.88
 -1 1 10 496.61 6.61
 -1 1 11 160.74 4.17
 -1 1 12 661.41 8.73
 -1 1 13 13.05 2.09
 -1 1 14 92.06 3.99
 -1 1 15 743.62 10.8
 -1 1 16 117.42 4.98
 -1 1 18 97.26 5
 -1 1 19 13.37 2.97
 -1 1 20 69.92 4.93
 -1 2 11 174.88 2.9
 -1 2 12 234.6 3.77
 -1 2 13 298.36 4.75
 -1 2 15 259.21 5.2
 -1 2 16 4.38 1.51
 -1 2 17 34.91 2.68
 -1 2 18 1.49 1.57
 0 -11 6 -1.03 6.33
 0 -11 7 6.37 7.02
 0 -11 8 102.72 11.88
 0 -11 9 4.34 7.22
 0 -11 10 20.15 9.07
 0 -10 3 -1.85 5.43
 0 -10 4 238.02 13.88
 0 -10 6 5.94 7.3
 0 -10 7 7.68 6.62
 0 -10 10 23.58 9.33
 0 -10 11 12.91 7.22
 0 -10 12 9.96 7.43
 0 -10 13 41.31 9.21
 0 -9 2 31.97 6.59
 0 -9 3 8.26 5.87
 0 -9 4 34.8 6.85
 0 -9 5 -0.03 4.59
 0 -9 6 9.6 5.73
 0 -9 7 0.43 6.17
 0 -9 8 114.91 11.26
 0 -9 9 0.47 6.89
 0 -9 10 6.81 6.21
 0 -9 11 27.15 7.4
 0 -9 12 7.24 7.18
 0 -9 13 -3.8 5.79
 0 -9 14 34.3 8.33
 0 -9 15 35.97 8.8
 0 -9 16 5.7 6.91
 0 -9 17 148.84 13.18
 0 -9 18 13.79 7.87
 0 -8 0 151.57 9.02
 0 -8 1 93.54 7.99
 0 -8 2 6.48 4
 0 -8 3 83.86 7.3
 0 -8 4 41.93 6.42
 0 -8 6 18.46 5.46
 0 -8 7 185.04 11.35
 0 -8 8 33.02 6.76
 0 -8 9 14.1 5.72
 0 -8 10 6.5 5.17
 0 -8 11 48.99 9.32
 0 -8 12 0.96 5.23
 0 -8 14 1.73 7.28
 0 -8 15 85.93 11.71
 0 -8 16 -2.94 7.51
 0 -8 17 43.31 10.09
 0 -8 18 -3.16 5.92
 0 -8 19 -4.44 6.81
 0 -8 20 73.48 11.76
 0 -8 21 0.65 7.46
 0 -7 -1 99.75 7.01
 0 -7 1 93.33 7.04
 0 -7 2 184.08 9.24
 0 -7 4 33.48 6
 0 -7 5 121.18 8.43
 0 -7 6 14.05 4.72
 0 -7 7 63.18 6.77
 0 -7 14 36.27 7.16
 0 -7 15 3.86 5.46
 0 -7 16 10.11 6.74
 0 -7 17 177.25 13.6
 0 -7 20 76.12 10.72
 0 -7 22 116.56 13.19
 0 -7 23 0.85 7.17
 0 -6 4 339.91 11.55
 0 -6 5 33.79 4.88
 0 -6 6 423.99 13.39
 0 -6 7 140.83 8.55
 0 -6 8 6.37 3.66
 0 -6 9 303.84 12.66
 0 -6 10 8.1 4.06
 0 -6 11 8.52 4.58
 0 -6 12 31.24 5.67
 0 -6 13 -1.74 3.76
 0 -6 14 2.65 4.23
 0 -6 15 54.75 7.75
 0 -6 16 8.21 5.07
 0 -6 18 65.33 9.01
 0 -6 19 57.43 10.09
 0 -6 20 15.37 6.6
 0 -6 21 30.36 7.78
 0 -6 22 -2.16 6.97
 0 -6 23 -4.27 7.86
 0 -6 24 -6.64 7.86
 0 -6 25 41.91 10.71
 0 -5 -3 324.76 8.16
 0 -5 -2 6.16 2.28
 0 -5 -1 313.54 8.67
 0 -5 2 3.04 2.82
 0 -5 3 327.16 9.78
 0 -5 8 50.59 5.31
 0 -5 10 2.18 2.95
 0 -5 11 6.95 4.05
 0 -5 12 43.89 6.51
 0 -5 13 98.93 8.4
 0 -5 14 647.02 18.35
 0 -5 15 243.19 12.1
 0 -5 16 380.06 14.71
 0 -5 17 1.89 5.73
 0 -5 18 306.5 14.21
 0 -5 20 41.77 8.48
 0 -5 21 5.12 6.28
 0 -5 24 6.88 7.52
 0 -5 26 52.14 9.36
 0 -4 -3 922.86 11.89
 0 -4 -2 1865.9 17.4
 0 -4 -1 1115.68 13.93
 0 -4 1 1143.37 15.17
 0 -4 2 1882.46 19.87
 0 -4 3 954.3 14.82
 0 -4 4 172.96 6.95
 0 -4 5 213.43 7.84
 0 -4 6 101.86 5.6
 0 -4 11 349.21 11.6
 0 -4 12 -1.63 2.75
 0 -4 13 38.79 5.47
 0 -4 14 3.2 3.52
 0 -4 15 22.1 5.52
 0 -4 16 44.75 6.12
 0 -4 18 2.08 4.7
 0 -4 19 0.19 4.23
 0 -4 20 112.42 9.29
 0 -4 21 28.93 6.49
 0 -4 22 11.36 5.76
 0 -4 23 39.04 8.16
 0 -4 25 5.42 6.14
 0 -4 26 121.06 12.04
 0 -4 27 26.04 7.92
 0 -4 28 -0.01 7.04
 0 -3 -2 2.43 1.44
 0 -3 -1 406.44 7.27
 0 -3 1 423.67 8.18
 0 -3 2 1.83 2.04
 0 -3 3 1435.2 15.71
 0 -3 4 207.94 6.71
 0 -3 5 584.11 11.08
 0 -3 9 366.65 10.17
 0 -3 14 634.88 15.57
 0 -3 16 150.8 8.44
 0 -3 18 0.72 3.78
 0 -3 19 253.64 11.91
 0 -3 20 0.21 3.96
 0 -3 21 220.59 11.42
 0 -3 22 33.77 7.17
 0 -3 23 395.49 16.11
 0 -3 24 140.71 10.55
 0 -3 25 -5.38 5.75
 0 -3 26 -0.49 5.11
 0 -2 -2 1973.68 11.77
 0 -2 -1 3838.01 16.93
 0 -2 0 9894.32 28.93
 0 -2 1 3784.31 19
 0 -2 2 1997.07 14.66
 0 -2 3 3604.73 20.75
 0 -2 4 1753.11 15.52
 0 -2 5 930.17 12.03
 0 -2 7 1408.63 16.08
 0 -2 9 232.18 7.51
 0 -2 10 6.82 2.36
 0 -2 16 48.59 5.02
 0 -2 18 261.48 10.87
 0 -2 19 82.24 7.49
 0 -2 20 127.17 8.55
 0 -2 21 28.67 5.54
 0 -2 22 28.31 6.21
 0 -2 23 39.75 6.47
 0 -2 24 57.92 7.6
 0 -2 25 33.08 6.97
 0 -2 26 31.71 6.79
 0 -1 1 263.67 3.93
 0 -1 2 1.68 1.5
 0 -1 3 843.69 8.25
 0 -1 4 504.47 6.88
 0 -1 10 46.63 3.72
 0 -1 11 5.85 2.18
 0 -1 12 2300.71 22.69
 0 -1 14 168.25 7.29
 0 -1 18 73.88 6.16
 0 -1 20 155.35 8.55
 0 -1 22 321.45 12.41
 0 -1 24 -2.32 3.58
 0 -1 25 21.71 5.07
 0 -1 26 62.95 7.67
 0 0 16 19.98 3.3
 0 0 20 308.36 10.74
 0 0 22 374.36 12.17
 0 0 24 7.42 3.83
 0 1 -1 289.23 4.05
 0 1 1 293.23 3.36
 0 1 17 117.06 5.85
 0 1 18 76.6 5.26
 0 1 22 310.41 10.28
 0 2 2 1962.54 11.43
 0 2 3 3566.32 14.62
 0 2 4 1772.8 10.37
 0 2 18 271.29 7.75
 0 2 19 80.15 4.99
 0 2 20 131.56 6.15
 0 3 18 -0.27 1.68
 1 -11 3 9.15 6.24
 1 -11 5 35.28 7.76
 1 -11 6 18.58 7.49
 1 -11 7 58.64 9.67
 1 -11 8 32.66 8.35
 1 -11 9 1.22 6.6
 1 -10 1 4.23 4.45
 1 -10 2 56.02 8.11
 1 -10 5 85.58 9.49
 1 -10 6 -0.17 5.58
 1 -10 7 40.94 8.83
 1 -10 8 10.02 7.18
 1 -10 9 101.83 11.45
 1 -10 10 40.97 8.46
 1 -10 11 54.59 9.81
 1 -10 14 2.58 7.12
 1 -9 -1 6.44 3.57
 1 -9 0 3.5 3.68
 1 -9 1 10.79 4.96
 1 -9 2 49.27 6.75
 1 -9 3 40.78 6.45
 1 -9 4 109.34 8.99
 1 -9 5 67.12 8.86
 1 -9 8 78.59 8.93
 1 -9 9 80.94 9.75
 1 -9 10 47.48 9.21
 1 -9 12 -9.38 6.62
 1 -9 13 106.93 12.27
 1 -9 14 4.79 6.84
 1 -9 15 6.15 6.94
 1 -8 -2 158.81 7.99
 1 -8 0 0.65 3.56
 1 -8 1 24.52 5.27
 1 -8 3 94.05 7.84
 1 -8 5 85.08 8.1
 1 -8 6 23.12 6.26
 1 -8 7 100.24 9.23
 1 -8 8 53.84 8.42
 1 -8 10 8.61 5.31
 1 -8 11 16.7 7.22
 1 -8 12 47 8.36
 1 -8 13 74.42 9.51
 1 -8 14 69.1 9.36
 1 -8 16 25.32 7.56
 1 -8 17 17.18 8.75
 1 -8 18 10.73 7.26
 1 -8 19 108.9 13.01
 1 -8 20 15.65 8.28
 1 -7 1 44.4 5.37
 1 -7 5 187.17 9.59
 1 -7 6 19.1 5.5
 1 -7 7 61 7.13
 1 -7 8 44.98 6.79
 1 -7 9 4.14 4.09
 1 -7 10 101.67 9.39
 1 -7 11 84.21 8.44
 1 -7 13 98.01 9.2
 1 -7 14 268.15 13.84
 1 -7 15 120.66 10.72
 1 -7 17 34.94 8.03
 1 -7 18 57.57 9.58
 1 -7 19 17.49 7.39
 1 -7 20 66.58 11.75
 1 -7 21 6.31 7.03
 1 -7 23 12.38 8.2
 1 -6 -4 244.77 7.25
 1 -6 -3 243.36 7.52
 1 -6 -1 128.29 6.3
 1 -6 5 61.42 6.17
 1 -6 7 231.85 10.36
 1 -6 8 160.14 9.28
 1 -6 9 51.23 6.34
 1 -6 10 15.1 4.46
 1 -6 11 160.24 9.95
 1 -6 14 26.29 5.91
 1 -6 15 43.64 6.92
 1 -6 16 6.33 6.26
 1 -6 17 68.86 8.08
 1 -6 18 60.03 9.23
 1 -6 19 5.53 6.56
 1 -6 20 61 9.32
 1 -6 21 19.82 7.05
 1 -6 22 11.71 6.82
 1 -6 23 9.27 7.1
 1 -6 24 85.43 11.41
 1 -5 -3 306.63 7.3
 1 -5 -2 134.77 5.39
 1 -5 -1 318.48 8.24
 1 -5 0 79.27 4.86
 1 -5 1 312.2 8.81
 1 -5 2 131.42 6.13
 1 -5 3 300.67 9.33
 1 -5 8 199.78 9.32
 1 -5 9 542.03 14.62
 1 -5 11 150.52 8.99
 1 -5 12 90.44 7.48
 1 -5 13 29.77 5.47
 1 -5 14 225.48 11.67
 1 -5 15 19.06 5.09
 1 -5 16 139.8 10.55
 1 -5 17 13.15 6.02
 1 -5 18 8.11 5.14
 1 -5 19 110.41 9.78
 1 -5 20 10.36 5.73
 1 -5 21 56.9 8.38
 1 -5 22 89.1 9.89
 1 -5 23 143.31 12.46
 1 -5 24 143.24 13.13
 1 -5 25 6.71 7.41
 1 -5 26 1.3 7.04
 1 -4 -1 406.03 8.01
 1 -4 0 1463.74 15.61
 1 -4 2 256.04 7.49
 1 -4 3 869.06 13.89
 1 -4 5 10.93 2.75
 1 -4 6 826.31 15.04
 1 -4 10 13.07 3.9
 1 -4 11 347.44 11.85
 1 -4 12 5.06 3.16
 1 -4 13 29.54 5.44
 1 -4 14 232.6 10.81
 1 -4 15 181.44 9.72
 1 -4 17 46.75 7.43
 1 -4 19 7.9 5.63
 1 -4 20 51.11 7.82
 1 -4 21 20.28 6.17
 1 -4 22 40.96 7.78
 1 -4 23 3.82 6.94
 1 -4 24 34.99 7.7
 1 -4 25 49.63 9.33
 1 -4 26 2.16 6.22
 1 -4 27 20.19 8.65
 1 -3 -4 947.26 7.56
 1 -3 -1 1342.72 12
 1 -3 0 114.88 4.15
 1 -3 1 1295.94 13.34
 1 -3 3 376.12 8.28
 1 -3 13 363.37 11.98
 1 -3 15 41.27 5.95
 1 -3 16 648.66 17.09
 1 -3 17 111 8.27
 1 -3 18 67.45 6.98
 1 -3 19 70.5 8.53
 1 -3 20 132.63 10.32
 1 -3 21 138.17 10.14
 1 -3 22 128.03 10.82
 1 -3 23 17.78 5.95
 1 -3 24 8.68 6.53
 1 -3 25 8.81 6.07
 1 -3 26 165.07 12.05
 1 -3 29 40.65 9.3
 1 -2 17 33.01 4.98
 1 -2 18 3.4 4.47
 1 -2 19 9.93 4.08
 1 -2 20 136.58 9.63
 1 -2 21 35.94 6.41
 1 -2 22 26.44 5.84
 1 -2 23 120.37 9.9
 1 -2 25 2.15 5.95
 1 -2 26 -2.9 5.15
 1 -2 28 73.97 10
 1 -1 20 70.62 6.98
 1 -1 22 328.14 13.34
 1 -1 23 89.8 8.49
 1 -1 24 3.21 4.86
 1 -1 26 90.02 9.04
 1 -1 27 5.9 5.61
 1 0 -5 1095.41 8.68
 1 0 -4 348.16 4.83
 1 0 -3 931.27 7.31
 1 0 21 30.04 5.56
 1 0 23 9.47 4.22
 1 0 24 -1.48 4.31
 1 0 25 117.9 8.95
 1 0 26 15.89 5.75
 1 1 23 94.87 7.29
 1 1 24 2.56 4.43
 2 -11 4 23.58 6.39
 2 -11 5 3.83 6.03
 2 -11 6 100.61 10.57
 2 -11 8 29.53 9.16
 2 -10 2 52.21 7.5
 2 -10 3 43.87 7.5
 2 -10 4 36.75 7.76
 2 -10 5 68.69 8.62
 2 -10 6 86.96 9.92
 2 -10 7 53.79 9.19
 2 -10 8 54.13 9.56
 2 -10 9 27.4 8.58
 2 -10 10 78.13 10.25
 2 -10 11 50.26 9.73
 2 -10 12 15.11 7.21
 2 -10 13 9.3 8.4
 2 -9 0 54.93 5.85
 2 -9 1 101.22 7.73
 2 -9 2 105.04 8.31
 2 -9 3 26.62 6.04
 2 -9 4 19.02 5.48
 2 -9 6 8 5.01
 2 -9 7 11.96 5.43
 2 -9 8 19.64 6.54
 2 -9 9 147.88 11.98
 2 -9 10 50.98 8.7
 2 -9 11 39.67 9.43
 2 -9 14 37.02 8.69
 2 -9 15 7.3 6.77
 2 -9 16 22.88 8.53
 2 -9 17 34.12 10.11
 2 -8 -1 40.25 4.89
 2 -8 0 13.41 3.64
 2 -8 1 35.9 5.23
 2 -8 2 66.24 6.73
 2 -8 3 297.84 12.09
 2 -8 4 22.46 5.26
 2 -8 5 26.03 5.58
 2 -8 6 -2.11 4.94
 2 -8 7 41.34 7.27
 2 -8 8 84.95 8.61
 2 -8 9 31.96 6.69
 2 -8 10 31.64 7.04
 2 -8 11 96.35 10.3
 2 -8 12 47.74 8.43
 2 -8 13 43.21 8.38
 2 -8 14 21.91 7.64
 2 -8 15 3.26 7.35
 2 -8 16 28.81 8.11
 2 -8 17 140.9 12.94
 2 -8 18 5.07 8.53
 2 -7 0 1.57 3.04
 2 -7 2 27.56 5.02
 2 -7 3 8.22 4.07
 2 -7 4 64.66 6.32
 2 -7 5 144.68 8.78
 2 -7 6 3.55 3.89
 2 -7 7 274.29 11.79
 2 -7 8 35.45 6.31
 2 -7 9 285.17 12.79
 2 -7 10 10.35 6.06
 2 -7 11 59.96 8.66
 2 -7 12 22.35 6.79
 2 -7 13 68.67 9.36
 2 -7 15 64.12 8.82
 2 -7 16 15.16 7.77
 2 -7 18 133.75 12.82
 2 -7 19 15.93 7.42
 2 -7 22 19.49 9.36
 2 -6 -5 98.14 4.08
 2 -6 -3 339.63 8.43
 2 -6 -1 107.41 5.64
 2 -6 0 10.21 3.04
 2 -6 4 75.33 6.29
 2 -6 6 76.14 6.89
 2 -6 7 109.25 7.65
 2 -6 8 -0.85 3.93
 2 -6 9 10.95 4.15
 2 -6 13 16.09 6
 2 -6 14 70.75 7.94
 2 -6 15 116.37 10.83
 2 -6 16 1.86 4.77
 2 -6 17 78.05 9.7
 2 -6 18 3.99 7.04
 2 -6 19 94.19 11.19
 2 -6 20 12.01 6.88
 2 -6 21 76.37 10.93
 2 -6 22 65.59 10.19
 2 -6 23 107.8 13.48
 2 -6 24 47.5 11.59
 2 -5 -6 65.01 2.41
 2 -5 -5 83.23 3.26
 2 -5 -2 322.55 7.75
 2 -5 -1 140.42 5.62
 2 -5 0 52.63 4.15
 2 -5 2 314.4 9.38
 2 -5 6 58.8 5.68
 2 -5 7 592.15 14.76
 2 -5 8 28.35 4.56
 2 -5 10 33.92 5.65
 2 -5 11 2.73 3.97
 2 -5 12 152.36 9.29
 2 -5 14 0.38 3.87
 2 -5 15 30.17 6.07
 2 -5 16 16.83 5.85
 2 -5 17 38.62 8.04
 2 -5 19 115.04 11.37
 2 -5 20 45.51 9.2
 2 -5 21 14.51 7.37
 2 -5 22 31.03 7.94
 2 -5 23 8.17 6.96
 2 -5 24 6.93 8.22
 2 -5 25 3.2 6.89
 2 -4 -5 199.05 3.98
 2 -4 -4 86.97 3.16
 2 -4 -2 132.5 4.54
 2 -4 -1 267.24 6.62
 2 -4 0 411.04 8.67
 2 -4 14 357.69 13.63
 2 -4 15 99.01 7.92
 2 -4 16 31.56 5.95
 2 -4 17 33.54 6.35
 2 -4 18 13.38 6.08
 2 -4 20 58.85 8.13
 2 -4 21 170.57 12.58
 2 -4 22 68.64 10.05
 2 -4 23 88.58 10.38
 2 -4 24 55.31 10.28
 2 -4 25 11.48 6.83
 2 -4 26 -2.19 6.93
 2 -4 27 87.06 12.46
 2 -3 -5 425.81 4.54
 2 -3 19 19.04 5.34
 2 -3 21 13.64 5.52
 2 -3 22 80.63 10.31
 2 -3 23 54.88 8.1
 2 -3 24 1.1 5.59
 2 -3 25 9.98 7.86
 2 -3 26 38.35 8.49
 2 -3 27 38.8 8.74
 2 -3 28 30.4 8.29
 2 -2 22 -0.89 5.5
 2 -2 23 14.62 6.22
 2 -2 24 17.77 6.24
 2 -2 25 28.14 7.37
 2 -2 26 53.9 8.57
 2 -2 28 -1.59 6.22
 2 -2 29 23.18 8.48
 2 -1 25 7.28 5.12
 2 -1 26 4.11 5.74
 2 -1 27 21.2 7.46
 2 -1 28 111.67 10.81
 2 0 25 -0.72 4.72
 2 0 27 107.77 10
 3 -10 6 8.2 5.55
 3 -10 7 5.13 5.43
 3 -10 8 1.64 5.7
 3 -10 9 1.22 6.13
 3 -10 10 11.27 7.34
 3 -10 11 48.98 9.4
 3 -9 2 17.87 5.08
 3 -9 4 18.36 6
 3 -9 5 55.72 7.9
 3 -9 6 40.52 7.2
 3 -9 7 26.47 6.21
 3 -9 8 81.22 9.7
 3 -9 9 8.6 6.58
 3 -9 10 14.23 6.67
 3 -9 11 118.9 11.39
 3 -9 12 22.87 8.03
 3 -9 13 103.66 12.9
 3 -9 14 8.51 7.97
 3 -9 15 6.87 7.57
 3 -8 -1 -0.62 1.87
 3 -8 0 21 4.14
 3 -8 2 12.45 4.56
 3 -8 3 139.43 8.94
 3 -8 4 127.73 8.85
 3 -8 6 101.97 8.77
 3 -8 7 69.52 7.79
 3 -8 9 55.3 7.65
 3 -8 10 41.14 8.1
 3 -8 11 61.21 9.74
 3 -8 12 3.86 6.65
 3 -8 13 41.53 9.17
 3 -8 14 3.12 6.77
 3 -8 15 90.77 10.36
 3 -8 16 4.93 7.17
 3 -7 0 19.98 3.98
 3 -7 1 103.16 6.67
 3 -7 2 55.43 5.75
 3 -7 3 222.57 10.05
 3 -7 4 16.83 4.34
 3 -7 5 96.2 7.65
 3 -7 6 52.85 7.03
 3 -7 7 52.41 7.27
 3 -7 8 30.02 6.38
 3 -7 9 80.01 7.89
 3 -7 10 25.51 6.15
 3 -7 11 36.8 6.81
 3 -7 12 0.32 4.86
 3 -7 13 40.28 8.32
 3 -7 14 1.84 6
 3 -7 16 67.72 10.59
 3 -7 17 -0.21 6.24
 3 -7 18 5.79 6.42
 3 -7 20 14.22 9.17
 3 -6 2 35.23 4.61
 3 -6 3 331.38 11.24
 3 -6 4 61.14 6.28
 3 -6 5 33.61 5.09
 3 -6 6 102.75 7.82
 3 -6 7 204.96 10.01
 3 -6 9 42.79 6.22
 3 -6 10 21.05 5.32
 3 -6 11 14.12 5.07
 3 -6 12 99.01 9.54
 3 -6 13 79.96 8.33
 3 -6 14 43.17 8.23
 3 -6 15 133.23 11.24
 3 -6 16 3.17 5.23
 3 -6 18 24.23 8.56
 3 -6 19 33.47 9.68
 3 -6 20 50.87 10.87
 3 -6 21 11.9 8.93
 3 -6 22 27.77 8.98
 3 -5 -4 3.21 1.42
 3 -5 -2 43.07 3.6
 3 -5 -1 88.83 4.95
 3 -5 14 91.2 9.4
 3 -5 16 8.49 5.44
 3 -5 17 3.84 5.5
 3 -5 18 154.39 12.2
 3 -5 19 145.3 12.6
 3 -5 20 226.87 15
 3 -5 21 7.28 6.63
 3 -5 22 116.59 12.11
 3 -5 23 53.07 10.56
 3 -4 -6 189.88 3.83
 3 -4 19 31.26 7.26
 3 -4 20 40.1 8.25
 3 -4 21 65.38 9.35
 3 -4 22 19.98 8.54
 3 -4 23 55.68 9.03
 3 -4 24 2.52 7.98
 3 -4 25 22.4 8.78
 3 -3 -7 934.44 7.21
 3 -3 22 91.97 10.28
 3 -3 24 25.37 8.56
 3 -3 25 39.61 9.01
 3 -3 26 52.2 9.63
 3 -2 -9 542.05 5.85
 3 -2 25 5.8 6.99
 3 -2 26 10.99 7.02
 3 -2 27 26.14 7.62
 3 -1 26 10.46 7.72
 3 -1 27 15.19 6.86
 3 -1 28 36.92 8.58
 3 0 27 12.7 6.57
 3 0 28 67.61 9.6
 4 -10 7 30.87 7.55
 4 -10 8 6.86 6.06
 4 -10 9 -1.83 5.64
 4 -9 4 8.37 4.88
 4 -9 5 58.06 8.46
 4 -9 6 20.53 5.98
 4 -9 7 7.57 5.54
 4 -9 8 31.21 7.89
 4 -9 9 10.73 6.04
 4 -9 10 49.89 9.37
 4 -9 13 26.9 8.28
 4 -8 0 -0.26 2.28
 4 -8 1 -0.61 2.39
 4 -8 3 18.37 5.05
 4 -8 4 126.75 9.1
 4 -8 5 22.02 5.66
 4 -8 6 42.31 7.43
 4 -8 7 56.79 8.12
 4 -8 8 0.55 5.04
 4 -8 9 7.19 5.42
 4 -8 10 47.7 8.45
 4 -8 11 29.58 8.27
 4 -8 12 39.08 8.53
 4 -8 13 22.56 7.34
 4 -8 14 82.74 11.07
 4 -8 15 18.82 9.43
 4 -8 16 31.94 8.71
 4 -7 1 184.32 8.74
 4 -7 2 71.67 6.45
 4 -7 3 14.43 4.27
 4 -7 4 0.04 3.74
 4 -7 6 12.04 5.66
 4 -7 7 24.44 5.55
 4 -7 8 122.54 9.78
 4 -7 9 202.76 12.29
 4 -7 10 68.13 9.34
 4 -7 12 35.98 7.58
 4 -7 13 100.69 11.04
 4 -7 14 16.86 6.75
 4 -7 15 8.37 8.09
 4 -7 16 38.32 8.58
 4 -7 17 15.29 7.53
 4 -6 -4 -1 0.94
 4 -6 0 6.67 3.03
 4 -6 1 1.24 2.92
 4 -6 2 2.4 3.6
 4 -6 3 192.5 9.31
 4 -6 4 8 3.93
 4 -6 5 23.38 5.49
 4 -6 6 13.56 4.42
 4 -6 7 42.28 6.19
 4 -6 8 106.78 8.58
 4 -6 9 7.28 4.7
 4 -6 10 247.89 12.99
 4 -6 12 5.19 5.96
 4 -6 14 87.22 10.06
 4 -6 15 70.77 9.96
 4 -6 16 4.49 6.05
 4 -6 17 43.57 8.34
 4 -6 18 47.24 8.99
 4 -6 19 0.57 6.04
 4 -6 20 66.4 10.55
 4 -5 18 32.2 9.06
 4 -5 19 9.36 7.25
 4 -5 20 53.7 9.3
 4 -5 21 17.66 7.52
 4 -5 22 7.9 8.99
 4 -4 22 171.84 13.63
 4 -4 23 65.44 10.83
 5 -9 7 1.33 5.7
 5 -9 8 6.91 5.54
 5 -8 5 29.09 6.05
 5 -8 6 11.15 6.07
 5 -8 7 6.86 5.36
 5 -8 8 4.6 6.2
 5 -8 9 -0.47 5.16
 5 -8 11 7.38 6.12
 5 -8 12 39.25 8.97
 5 -8 13 72.75 11.75
 5 -7 3 112.34 8.18
 5 -7 4 56.8 7.3
 5 -7 5 70.52 8.01
 5 -7 6 34.2 6.26
 5 -7 7 18.72 5.5
 5 -7 8 32.36 6.8
 5 -7 9 55.73 8.23
 5 -7 11 7.97 5.96
 5 -7 12 6.75 7.29
 5 -7 13 17.03 6.64
 5 -7 14 34.14 8.79
 5 -7 15 -4.5 5.67
 5 -7 16 10.66 8.08
 5 -6 -1 1.48 1.93
 5 -6 14 57.02 9.07
 5 -6 15 46.43 8.51
 5 -6 16 215.95 14.95
 5 -6 17 29.87 9.29
 5 -6 18 45.7 10.59
 5 -5 20 13.15 9.21
 6 -8 7 3.15 5.62
 6 -8 8 13.13 6.48
 6 -8 9 3.33 5.78
 6 -7 3 -2.16 3.14
 6 -7 5 73.65 8.42
 6 -7 6 0.5 5.65
 6 -7 7 18.68 6.48
 6 -7 8 3.68 5.87
 6 -7 9 20.32 7.21
 6 -7 10 19.91 7.57
 6 -7 11 127.76 11.71
 6 -7 12 0.72 6.29
 -6 -3 -20 30.15 9.91
 -6 -2 -21 6.07 6.85
 -6 -2 -20 71.53 10.55
 -6 -1 -22 18.26 7.15
 -6 -1 -21 9.02 6.48
 -6 0 -21 3.91 6.16
 -5 -9 -9 7.62 7.76
 -5 -9 -8 -1.35 6.16
 -5 -9 -7 6.03 6.03
 -5 -9 -6 16.5 6.43
 -5 -8 -12 33.14 9.81
 -5 -8 -11 15.6 7.37
 -5 -7 -15 -3.61 5.93
 -5 -7 -14 20.58 8.49
 -5 -7 -13 17.94 8.69
 -5 -6 -17 32.41 9.12
 -5 -6 -16 219.28 15.87
 -5 -6 -15 56.63 10.8
 -5 -5 -19 9.93 8.07
 -5 -5 -18 63.26 10.75
 -5 -5 -17 51.87 9.52
 -5 -4 -20 111.78 12.89
 -5 -4 -18 17.82 7.57
 -5 -3 -23 3.84 6.98
 -5 -3 -22 68.26 11.05
 -5 -3 -19 7.04 6.36
 -5 -2 -24 25.35 7.75
 -5 -2 -23 26.05 8.11
 -5 -2 -22 81.16 10.7
 -5 -2 -21 122.36 11.23
 -5 -2 -20 10.82 6.93
 -5 -1 -24 12.96 6.62
 -5 -1 -23 35.44 8.39
 -5 -1 -22 25.03 8.46
 -5 -1 -21 28.64 7.82
 -5 -1 -20 139.69 11.82
 -5 0 -22 96.72 9.6
 -5 0 -21 3.13 4.59
 -5 0 -20 14.83 5.73
 -5 1 -21 23.97 6.52
 -5 1 -20 146.44 10.29
 -4 -10 -9 6.81 5.9
 -4 -10 -8 4.26 5.64
 -4 -10 -7 31.3 7.28
 -4 -10 -5 42.22 7.63
 -4 -9 -13 21.49 7.65
 -4 -9 -12 4.99 6.23
 -4 -9 -11 95.61 12.05
 -4 -9 -10 50.63 9.29
 -4 -9 -9 8.56 5.96
 -4 -9 -8 50.71 8.07
 -4 -9 -7 1.26 5.09
 -4 -9 -6 31.24 7.63
 -4 -9 -5 59.93 8.84
 -4 -9 -4 3.65 5.53
 -4 -9 -3 57.43 7.94
 -4 -9 -2 18.77 5.31
 -4 -9 -1 17.91 4.88
 -4 -8 -16 28.48 8.49
 -4 -8 -15 17.44 8.45
 -4 -8 -14 84.17 10.88
 -4 -8 -13 27.02 8.15
 -4 -8 -12 43.57 8.71
 -4 -8 -11 34.7 8.71
 -4 -8 -10 48.17 8.43
 -4 -8 -9 10.12 6.7
 -4 -8 -8 3.42 4.99
 -4 -7 -18 5.28 8.36
 -4 -7 -17 9.44 6.86
 -4 -7 -16 43.38 8.86
 -4 -7 -15 16.02 7.44
 -4 -7 -14 17.66 7.74
 -4 -7 -13 101.43 10.7
 -4 -7 -11 39.31 8.52
 -4 -6 -20 65.99 11.07
 -4 -6 -19 10.67 7.64
 -4 -6 -18 45.24 9.93
 -4 -6 -17 39.82 9.02
 -4 -6 -15 54.48 9.44
 -4 -6 -14 79.32 10.39
 -4 -5 -22 11.71 7.41
 -4 -5 -19 0.75 6.72
 -4 -5 -17 37.96 8.63
 -4 -5 -16 36.38 8.03
 -4 -5 -15 -5.34 4.46
 -4 -4 -24 82.92 11.27
 -4 -4 -23 74.63 11.56
 -4 -4 -22 168.64 13.91
 -4 -4 -21 58.44 9.01
 -4 -4 -20 5.44 6.69
 -4 -4 -19 34.42 8.35
 -4 -4 -17 166.19 12.55
 -4 -3 -25 9.65 7.11
 -4 -3 -24 41.05 8.28
 -4 -3 -23 50.8 9.61
 -4 -3 -22 126.13 11.37
 -4 -3 -21 6.75 7
 -4 -3 -20 6.65 5.25
 -4 -3 -19 66 9.87
 -4 -3 -18 44.76 7.81
 -4 -2 -26 19.55 7.36
 -4 -2 -25 14.05 6.72
 -4 -2 -24 112.08 11.74
 -4 -2 -23 178.49 12.71
 -4 -2 -22 34.23 8.06
 -4 -2 -20 60.07 8.34
 -4 -2 -19 21.99 6.88
 -4 -1 -26 52.24 9.23
 -4 -1 -25 3.43 5.38
 -4 -1 -24 113.72 10.32
 -4 -1 -23 14.46 5.9
 -4 -1 -22 135.94 11.22
 -4 -1 -21 189.98 12.52
 -4 -1 -20 113.64 10.2
 -4 -1 -19 12.24 5.51
 -4 0 -24 95.17 9.57
 -4 0 -22 2.04 4.95
 -4 0 -21 111.36 9.42
 -4 0 -20 151.69 10.13
 -4 0 -19 280.98 12.91
 -4 1 -21 194.56 10.62
 -4 1 -20 109.53 8.59
 -4 1 -19 13.14 4.55
 -4 1 -18 26.48 5.55
 -4 2 -19 18.52 4.2
 -4 2 -18 143.55 8.36
 -3 -10 -12 11.83 6.98
 -3 -10 -11 58.86 9.3
 -3 -10 -9 4.14 5.14
 -3 -10 -8 -5.28 4.5
 -3 -10 -7 8.51 6.08
 -3 -10 -6 5.22 4.5
 -3 -9 -15 5.06 6.57
 -3 -9 -14 2.57 5.66
 -3 -9 -12 19.84 7.43
 -3 -9 -10 7.37 5.71
 -3 -9 -9 9.88 5.58
 -3 -9 -8 85.57 9.06
 -3 -9 -7 28.11 6.43
 -3 -9 -6 34.15 6.76
 -3 -9 -5 48.01 7.55
 -3 -9 -4 20.35 5.53
 -3 -9 -3 39.75 6.15
 -3 -8 -18 0.62 6.99
 -3 -8 -17 84.02 11.32
 -3 -8 -16 7.18 6.68
 -3 -8 -15 78.01 10.07
 -3 -8 -14 5.54 6.61
 -3 -8 -13 43.53 8.36
 -3 -8 -12 1.81 6.57
 -3 -8 -11 58.91 8.6
 -3 -8 -10 44.08 7.46
 -3 -8 -9 31.04 7.44
 -3 -8 -8 53.17 7.95
 -3 -8 -7 78.34 8.01
 -3 -8 -6 105 8.9
 -3 -8 -5 24.99 5.79
 -3 -8 -4 134.34 9.59
 -3 -8 -3 138.55 9.44
 -3 -7 -20 18.15 7.92
 -3 -7 -19 196.14 15.16
 -3 -7 -18 6.42 6.65
 -3 -7 -17 4.34 5.99
 -3 -7 -16 71.09 10.62
 -3 -7 -15 32.63 7.5
 -3 -7 -14 4.76 5.53
 -3 -7 -13 37.73 8.35
 -3 -7 -12 0.88 4.72
 -3 -7 -11 19.99 6.61
 -3 -7 -10 14.66 5.43
 -3 -7 -9 79.51 8.98
 -3 -7 -8 18.78 5.75
 -3 -6 -21 4.35 6.79
 -3 -6 -20 59.97 10.5
 -3 -6 -18 19.75 7.26
 -3 -6 -17 85.35 9.77
 -3 -6 -16 -2.33 4.88
 -3 -6 -15 135.05 11.56
 -3 -6 -14 50.09 8.82
 -3 -6 -13 74.92 9.8
 -3 -6 -12 102.56 9.86
 -3 -6 -11 17.94 5.48
 -3 -5 -24 2.25 7.04
 -3 -5 -23 51.2 9.71
 -3 -5 -22 118.06 12.15
 -3 -5 -21 -0.43 5.48
 -3 -5 -20 217.28 14.15
 -3 -5 -19 145.67 11.77
 -3 -5 -18 142.5 11.35
 -3 -5 -16 10.85 5.53
 -3 -5 -14 95.76 8.79
 -3 -5 -13 18.24 5.52
 -3 -4 -25 12.87 7.33
 -3 -4 -24 1.99 5.77
 -3 -4 -22 18.79 7.61
 -3 -4 -21 60.36 9.71
 -3 -4 -20 57.81 9.09
 -3 -4 -19 34.05 6.9
 -3 -4 -18 72.14 8.85
 -3 -4 -17 11.55 5.79
 -3 -4 -16 17.2 6.32
 -3 -4 -15 40.66 6.79
 -3 -3 -26 52.23 9.31
 -3 -3 -25 35.57 9.01
 -3 -3 -24 22.06 7.49
 -3 -3 -22 94.19 10.8
 -3 -3 -21 84.29 9.98
 -3 -3 -19 -2.41 5.43
 -3 -3 -18 114.63 9.48
 -3 -3 -17 23.53 5.96
 -3 -2 -27 22.94 7.48
 -3 -2 -26 4.17 6.19
 -3 -2 -25 -0.39 5.28
 -3 -2 -24 16.18 6.59
 -3 -2 -22 51.12 8.36
 -3 -2 -21 195.12 12.5
 -3 -2 -20 2.23 4.52
 -3 -2 -19 59.41 8
 -3 -2 -17 38.3 6.68
 -3 -1 -27 23.68 6.96
 -3 -1 -26 14.58 6.55
 -3 -1 -25 21.6 6.59
 -3 -1 -24 187.97 12
 -3 -1 -23 64.17 9.11
 -3 -1 -22 12.05 5.46
 -3 -1 -21 76.47 7.93
 -3 -1 -20 48.84 7.31
 -3 -1 -18 25.08 6.03
 -3 -1 -17 17.88 4.98
 -3 0 -25 -5.57 3.87
 -3 0 -24 1.26 4.26
 -3 0 -23 97.54 8.55
 -3 0 -22 3.62 4.2
 -3 0 -21 509.7 16.44
 -3 0 -20 0.72 3.94
 -3 0 -19 2.01 3.66
 -3 0 -18 -1.44 3.19
 -3 0 -17 183.48 9.64
 -3 1 -23 78.03 7.43
 -3 1 -22 8.87 4.03
 -3 1 -21 58.94 6.4
 -3 1 -20 56.9 6.49
 -3 1 -19 51.27 6.12
 -3 1 -18 15 3.9
 -3 1 -17 20.7 4.58
 -3 1 -16 3.73 3.34
 -3 2 -20 8.78 3.38
 -3 2 -19 78.06 6.08
 -3 2 -18 55.46 5.34
 -3 3 -17 30.19 3.96
 -3 3 -16 73.76 4.87
 -3 3 -15 80.52 4.94
 -3 4 -13 28.89 2.77
 -2 -10 -14 38.87 8.65
 -2 -10 -13 4.68 6.29
 -2 -10 -12 10.09 6.91
 -2 -10 -11 40.91 8.11
 -2 -10 -10 56.79 8.41
 -2 -10 -9 42.1 8.2
 -2 -10 -8 51.37 7.74
 -2 -10 -7 41.28 7.05
 -2 -10 -6 56.59 7.53
 -2 -9 -17 39.32 9
 -2 -9 -16 25.19 8.6
 -2 -9 -14 19.32 7.82
 -2 -9 -13 23.19 7.55
 -2 -9 -12 38.32 8.27
 -2 -9 -11 38.28 7.91
 -2 -9 -10 42.09 8.02
 -2 -9 -9 140.1 10.6
 -2 -9 -8 22.28 5.64
 -2 -9 -7 21.28 5.99
 -2 -9 -6 7.33 4.53
 -2 -9 -5 35.82 5.95
 -2 -9 -4 18.75 4.53
 -2 -9 -3 26.25 4.92
 -2 -8 -19 3.52 6.61
 -2 -8 -18 -0.48 6.39
 -2 -8 -17 115.45 11.37
 -2 -8 -16 22.74 7.31
 -2 -8 -15 2.47 6.79
 -2 -8 -14 18 6.27
 -2 -8 -13 29.37 6.8
 -2 -8 -12 55.17 8.27
 -2 -8 -10 30.76 7.2
 -2 -8 -9 45.69 7.62
 -2 -8 -7 32.36 6.43
 -2 -8 -6 -0.03 4.42
 -2 -8 -5 21.88 5.35
 -2 -8 -3 311.85 11.61
 -2 -8 -2 60.2 5.87
 -2 -8 -1 32.12 4.42
 -2 -8 0 18.69 3.5
 -2 -7 -22 17.18 9.2
 -2 -7 -21 1.59 6.4
 -2 -7 -19 19.54 7.69
 -2 -7 -18 134.96 12.5
 -2 -7 -17 59.41 9.5
 -2 -7 -16 20.15 6.73
 -2 -7 -15 55.32 8.64
 -2 -7 -14 7.39 5.6
 -2 -7 -13 75.57 9.09
 -2 -7 -11 51.17 7.47
 -2 -7 -10 1.71 4.33
 -2 -7 -9 290.05 13.2
 -2 -7 -8 30.84 5.59
 -2 -7 -7 285.72 12.28
 -2 -7 -5 135.63 8.43
 -2 -7 -3 8.07 3.47
 -2 -7 -2 39.91 4.82
 -2 -6 -23 118.3 12.12
 -2 -6 -21 68.33 11.18
 -2 -6 -20 13.42 6.67
 -2 -6 -18 4.35 6.14
 -2 -6 -17 66.17 9.25
 -2 -6 -16 5.9 5.17
 -2 -6 -15 102.64 10.23
 -2 -6 -13 20.62 5.59
 -2 -6 -12 117.57 9.8
 -2 -6 -11 35.31 6.18
 -2 -6 -10 78.72 7.57
 -2 -6 -9 17.33 5.36
 -2 -6 -8 0.44 3.26
 -2 -6 -7 104.37 7.89
 -2 -5 -25 8.68 7.77
 -2 -5 -24 2.13 6.42
 -2 -5 -22 21.93 8.07
 -2 -5 -20 49.26 8.29
 -2 -5 -19 114.83 10.33
 -2 -5 -18 70.06 8.3
 -2 -5 -16 17.71 5.82
 -2 -5 -15 26.8 6.72
 -2 -5 -14 4.58 4.84
 -2 -5 -13 326.44 13.75
 -2 -5 -12 151.3 9.51
 -2 -5 -11 5.64 3.6
 -2 -5 -10 40.06 5.79
 -2 -5 -9 159.31 8.96
 -2 -4 -26 1.4 6.74
 -2 -4 -25 5.12 6.72
 -2 -4 -23 91.06 10.92
 -2 -4 -20 65.43 8.65
 -2 -4 -18 15.02 5.29
 -2 -4 -17 32.74 6.16
 -2 -4 -16 25.56 5.3
 -2 -4 -15 98.31 8.13
 -2 -4 -14 374.25 13.96
 -2 -4 -13 146.05 9.09
 -2 -4 -12 38.93 6.2
 -2 -4 -11 86.23 7.36
 -2 -3 -27 36.58 9.38
 -2 -3 -26 42.83 8.79
 -2 -3 -25 4.74 5.95
 -2 -3 -24 -0.23 5.14
 -2 -3 -21 16.74 6.52
 -2 -3 -20 216.59 12.62
 -2 -3 -19 18.35 5.29
 -2 -3 -17 89.42 8.48
 -2 -3 -16 89.72 8.22
 -2 -3 -14 16 4.42
 -2 -3 -13 210.31 10.27
 -2 -2 -28 9.13 7.38
 -2 -2 -27 8.45 6.28
 -2 -2 -26 48.52 8.19
 -2 -2 -25 31.19 8.4
 -2 -2 -23 12.76 5.38
 -2 -2 -22 6.89 5.32
 -2 -2 -21 262.83 13.53
 -2 -2 -20 10.48 4.73
 -2 -2 -18 -2.94 3.34
 -2 -2 -17 173.81 9.93
 -2 -2 -15 100.18 7.64
 -2 -2 -13 58.56 5.95
 -2 -1 -26 20.1 7.11
 -2 -1 -25 9.74 5.47
 -2 -1 -24 63.22 8.76
 -2 -1 -23 18.38 5.48
 -2 -1 -22 169.64 10.94
 -2 -1 -21 93.97 8.45
 -2 -1 -20 111.06 8.84
 -2 -1 -19 2.98 3.67
 -2 -1 -18 125.36 8.85
 -2 -1 -17 29.87 5.1
 -2 -1 -15 26.41 4.49
 -2 0 -26 11.69 5.35
 -2 0 -25 3.12 5.39
 -2 0 -23 80.04 8.09
 -2 0 -22 69.74 7.63
 -2 0 -21 8.27 4
 -2 0 -20 46.34 6.28
 -2 0 -19 1.28 3.48
 -2 0 -18 20.31 4.15
 -2 0 -17 95.21 6.65
 -2 0 -16 120.45 6.98
 -2 1 -24 75.63 7.49
 -2 1 -23 29.4 5.69
 -2 1 -22 143.59 8.77
 -2 1 -21 89.34 7.12
 -2 1 -20 123.27 7.74
 -2 1 -19 5.57 3.22
 -2 1 -18 118.42 7.12
 -2 1 -15 20.7 3.46
 -2 1 -14 196.29 7.61
 -2 1 -13 103.65 5.8
 -2 2 -21 259.92 9.75
 -2 2 -20 12.14 3.69
 -2 2 -17 169.91 7.1
 -2 2 -16 66.9 4.88
 -2 2 -15 93.61 5.26
 -2 2 -14 55.78 4.07
 -2 2 -13 51.41 3.96
 -2 3 -18 37.45 3.73
 -2 3 -17 83.02 4.54
 -2 3 -16 93.52 4.5
 -2 3 -15 67.19 3.78
 -2 3 -14 12.01 2.07
 -2 3 -13 206.69 5.67
 -2 3 -12 20.24 2.31
 -2 4 -10 14.92 1.2
 -2 4 -9 1.2 0.76
 -1 -10 -15 16.68 7.78
 -1 -10 -14 -1.13 6.99
 -1 -10 -13 21.57 6.76
 -1 -10 -12 -1.5 5.74
 -1 -10 -11 52.93 8.14
 -1 -10 -10 44.68 8.17
 -1 -10 -9 88.17 9.44
 -1 -10 -8 10.34 5.26
 -1 -10 -7 47.36 6.77
 -1 -10 -6 0.22 2.85
 -1 -10 -5 1.17 2.68
 -1 -9 -18 -0.35 6.42
 -1 -9 -17 47.6 8.85
 -1 -9 -16 -7.27 5.19
 -1 -9 -14 0.45 5.49
 -1 -9 -12 1.46 6.06
 -1 -9 -11 34.17 6.8
 -1 -9 -9 74.7 8.23
 -1 -9 -8 75.29 8.54
 -1 -9 -7 86.44 8.25
 -1 -9 -6 12.89 4.38
 -1 -9 -5 63.06 6.43
 -1 -9 -4 95.68 7.13
 -1 -8 -20 13.33 7.23
 -1 -8 -18 3.83 7.56
 -1 -8 -17 15.24 7.88
 -1 -8 -15 15.58 6.88
 -1 -8 -13 95.12 9.9
 -1 -8 -11 23.95 6.71
 -1 -8 -10 3.12 4.72
 -1 -8 -9 157.83 9.71
 -1 -8 -8 40.04 6.34
 -1 -8 -7 90.46 7.73
 -1 -8 -6 25.6 5.18
 -1 -8 -5 89.88 6.8
 -1 -8 -4 68.98 6.13
 -1 -8 -3 93.27 6.49
 -1 -8 -2 147.46 7.39
 -1 -7 -22 7.51 7.07
 -1 -7 -21 7.55 6.9
 -1 -7 -20 39.06 9.24
 -1 -7 -19 11.43 6.41
 -1 -7 -18 62.64 9.62
 -1 -7 -17 23.08 7.85
 -1 -7 -16 12.35 5.79
 -1 -7 -15 113.57 9.86
 -1 -7 -13 97.54 9.59
 -1 -7 -12 210.47 12.14
 -1 -7 -11 81.65 8.44
 -1 -7 -10 104.63 8.66
 -1 -7 -9 4.2 4.17
 -1 -7 -8 36.21 6.17
 -1 -7 -7 76.03 7.07
 -1 -7 -5 178.34 8.74
 -1 -7 -4 13.25 3.95
 -1 -7 0 57.87 4.42
 -1 -7 1 52.52 4
 -1 -7 3 14.03 2.04
 -1 -6 -24 73.02 12.17
 -1 -6 -23 8.95 6.9
 -1 -6 -22 9.1 6.96
 -1 -6 -21 10.8 7.1
 -1 -6 -19 6.15 6.01
 -1 -6 -18 59.86 8.59
 -1 -6 -17 58.88 8.19
 -1 -6 -15 32.67 6.41
 -1 -6 -14 21.24 5.66
 -1 -6 -13 68.13 7.6
 -1 -6 -12 39.76 6.12
 -1 -6 -11 178.03 10.29
 -1 -6 -10 11.85 4.59
 -1 -6 -9 58.68 6.33
 -1 -6 -8 173.32 8.86
 -1 -6 -7 248 10.26
 -1 -6 -6 90.24 6.9
 -1 -6 -2 326.27 9.51
 -1 -6 -1 123.38 5.98
 -1 -6 0 467.57 10.31
 -1 -6 1 121.34 5.26
 -1 -6 5 60.48 2.83
 -1 -6 6 94.79 2.9
 -1 -5 -25 2.53 6.37
 -1 -5 -24 135.47 12.92
 -1 -5 -21 53.99 8.48
 -1 -5 -20 9.96 6.62
 -1 -5 -18 2.07 4.8
 -1 -5 -17 10.43 5.29
 -1 -5 -16 138.04 9.76
 -1 -5 -15 20.77 5.94
 -1 -5 -14 222.55 11.2
 -1 -5 -13 27.59 5.94
 -1 -5 -12 84.49 7.08
 -1 -5 -11 156.01 9.34
 -1 -5 -9 545.9 14.8
 -1 -5 -8 185.65 8.72
 -1 -5 -4 30.95 4.05
 -1 -5 -3 305.51 9.18
 -1 -5 8 186.72 3.3
 -1 -4 -27 16.16 7.5
 -1 -4 -26 8.74 6.85
 -1 -4 -25 48.24 9.67
 -1 -4 -24 36.35 9.58
 -1 -4 -23 -2.03 5.6
 -1 -4 -22 36.55 7.63
 -1 -4 -21 15.84 5.8
 -1 -4 -20 48.35 8.27
 -1 -4 -19 13.44 5.59
 -1 -4 -18 112.24 9.27
 -1 -4 -17 50.37 7.24
 -1 -4 -16 34.89 6.57
 -1 -4 -15 172.51 10.23
 -1 -4 -14 222.69 10.65
 -1 -4 -12 4.44 3.28
 -1 -4 -11 353.83 12.29
 -1 -4 -10 14.15 3.63
 -1 -4 -6 838.93 15.36
 -1 -3 -28 71.96 11.46
 -1 -3 -27 53.88 10.01
 -1 -3 -26 165.74 13.85
 -1 -3 -25 -0.29 6.65
 -1 -3 -24 11.34 7.23
 -1 -3 -23 17.27 7.21
 -1 -3 -21 138.52 10.72
 -1 -3 -18 63.94 7.14
 -1 -3 -17 99.16 8.21
 -1 -3 -16 647.63 17.86
 -1 -3 -15 38.82 5.98
 -1 -3 -14 25.38 5.12
 -1 -3 -13 374.44 12.5
 -1 -3 -12 302.75 11.11
 -1 -3 -9 907.57 16.53
 -1 -3 -8 72.06 5.32
 -1 -2 -29 111.65 12.17
 -1 -2 -28 58.82 10.14
 -1 -2 -27 64.95 10.37
 -1 -2 -26 1.43 6.37
 -1 -2 -25 8.01 6.28
 -1 -2 -24 14.44 6.32
 -1 -2 -21 34.88 6.6
 -1 -2 -20 129.7 9.55
 -1 -2 -19 10.41 4.36
 -1 -2 -18 -0.69 3.13
 -1 -2 -17 30.89 5.24
 -1 -2 -16 7.53 3.66
 -1 -2 -15 261.03 10.43
 -1 -2 -14 420.33 12.8
 -1 -2 -9 583.88 12.49
 -1 -1 -29 26.6 6.95
 -1 -1 -28 48.11 8.52
 -1 -1 -27 2.29 6.16
 -1 -1 -26 89 9.91
 -1 -1 -25 26.66 6.48
 -1 -1 -24 6.06 4.63
 -1 -1 -23 100.61 8.65
 -1 -1 -22 340.41 14.2
 -1 -1 -20 71.2 7.57
 -1 -1 -17 128.34 7.8
 -1 -1 -16 106.94 7.01
 -1 -1 -12 629.93 13.27
 -1 -1 -10 498.96 10.97
 -1 -1 -9 641.29 11.98
 -1 0 -27 167.35 11.32
 -1 0 -26 14.36 6.18
 -1 0 -24 2.6 3.96
 -1 0 -23 11.98 4.47
 -1 0 -20 2.94 3.56
 -1 0 -19 48.88 5.34
 -1 0 -18 2.02 3.12
 -1 0 -17 102.4 6.93
 -1 0 -14 64.99 5
 -1 0 -13 34.53 3.65
 -1 0 -12 264.01 8.19
 -1 0 -11 108.27 5.2
 -1 0 -10 1307.6 16.16
 -1 1 -25 30.51 5.68
 -1 1 -24 5.39 3.92
 -1 1 -23 90.66 7.65
 -1 1 -22 305.18 11.71
 -1 1 -21 112.79 7.46
 -1 1 -20 64.91 6.19
 -1 1 -19 11.31 3.83
 -1 1 -16 107.36 5.99
 -1 1 -15 709.85 13.49
 -1 1 -14 84.8 5.07
 -1 1 -13 14.93 2.61
 -1 1 -12 670.57 11.58
 -1 1 -11 167.41 5.71
 -1 1 -10 490.06 8.91
 -1 1 -9 636.14 9.56
 -1 2 -22 19.77 4.21
 -1 2 -21 50.25 5.19
 -1 2 -18 0.39 2.27
 -1 2 -17 36.84 4.07
 -1 2 -16 5.43 2.56
 -1 2 -15 268.09 7.69
 -1 2 -14 431.81 9.03
 -1 2 -13 306.96 7.27
 -1 2 -12 237.59 6.1
 -1 2 -11 167.82 4.89
 -1 2 -10 259.78 5.6
 -1 2 -9 600.11 7.67
 -1 2 -8 124.05 3.38
 -1 2 -2 296.85 4.45
 -1 3 -18 66.82 4.2
 -1 3 -17 105.64 4.77
 -1 3 -15 36.98 2.91
 -1 3 -14 22.8 2.33
 -1 3 -13 371.17 6.46
 -1 3 -12 300.56 5.3
 -1 3 -11 26.44 1.75
 -1 3 -10 43.38 1.83
 -1 3 -9 941.48 6.1
 -1 3 -3 372.01 4.59
 0 -10 -15 8.56 7.05
 0 -10 -14 37.34 7.98
 0 -10 -13 42.93 9.08
 0 -10 -12 11.27 6.34
 0 -10 -11 21.32 6.41
 0 -10 -10 20.1 6.02
 0 -10 -9 7.06 4.87
 0 -10 -8 10.03 5.06
 0 -10 -7 2.42 3.27
 0 -10 -6 0.23 3.01
 0 -9 -18 7.13 7.85
 0 -9 -17 146.98 13.25
 0 -9 -16 -0.67 5.61
 0 -9 -14 31.68 7.44
 0 -9 -13 2.17 5.99
 0 -9 -12 9.19 5.54
 0 -9 -11 19.24 6.78
 0 -9 -10 6.23 5.54
 0 -9 -9 -0.91 4.3
 0 -9 -8 118.15 9.54
 0 -9 -7 2.95 4.79
 0 -9 -6 5.58 3.64
 0 -9 -4 27 5.06
 0 -9 -3 3.68 2.31
 0 -8 -20 72.22 11.58
 0 -8 -19 6.04 8.1
 0 -8 -18 0.5 7.28
 0 -8 -17 29.93 8.25
 0 -8 -15 82.36 9.39
 0 -8 -14 3.17 5.53
 0 -8 -13 229.85 13.73
 0 -8 -12 -0.68 4.16
 0 -8 -10 1.85 4.26
 0 -8 -9 11.89 4.59
 0 -8 -8 24.92 5.5
 0 -8 -7 169.39 9.8
 0 -8 -6 23.5 4.71
 0 -8 -5 261.75 10.67
 0 -8 -4 37.81 5.08
 0 -8 -3 87.94 6.22
 0 -7 -23 -1.32 6.76
 0 -7 -22 146.39 14.29
 0 -7 -21 47.44 10.08
 0 -7 -20 63.66 10.83
 0 -7 -19 225.26 14.9
 0 -7 -18 140.52 11.7
 0 -7 -17 176.47 12.57
 0 -7 -16 14.27 5.89
 0 -7 -15 7.62 5.27
 0 -7 -14 33.93 6.83
 0 -7 -12 -2.52 3.97
 0 -7 -10 247.67 12.16
 0 -7 -9 20.77 4.79
 0 -7 -8 67.22 6.93
 0 -7 -6 8.49 3.53
 0 -7 -5 121.86 7.38
 0 -7 -1 97.5 5.44
 0 -7 2 180.04 5.42
 0 -6 -24 -1.63 6.52
 0 -6 -23 5.22 7.65
 0 -6 -22 -7.23 5.07
 0 -6 -21 26.04 8.05
 0 -6 -20 10.61 7.36
 0 -6 -18 47.57 8.22
 0 -6 -16 6.72 5.26
 0 -6 -15 45.23 7.52
 0 -6 -14 -3.51 3.85
 0 -6 -13 -0.01 3.82
 0 -6 -12 22.96 5.18
 0 -6 -11 4.28 3.62
 0 -6 -10 5.13 3.59
 0 -6 -9 310.17 11.96
 0 -6 -8 5.7 3.25
 0 -6 -7 151.09 8.41
 0 -6 -3 10.62 2.97
 0 -6 -2 328.4 8.98
 0 -6 -1 457.35 9.95
 0 -6 0 447.5 9.31
 0 -6 2 329.1 6.86
 0 -6 3 11.63 1.61
 0 -6 4 353.34 5.13
 0 -5 -26 35.93 9.31
 0 -5 -25 48.6 10.58
 0 -5 -24 4.45 6.4
 0 -5 -23 28.16 8.8
 0 -5 -22 54.99 9.13
 0 -5 -21 11.98 7.51
 0 -5 -20 46.21 8.4
 0 -5 -19 21.78 6.16
 0 -5 -17 3.39 4.47
 0 -5 -15 240.42 12.06
 0 -5 -14 727.93 19.65
 0 -5 -12 34.05 5.64
 0 -5 -11 9.27 4.15
 0 -5 -10 -0.5 3.12
 0 -5 -9 114.34 7.46
 0 -5 -5 416.8 10.75
 0 -5 -4 93.16 5.35
 0 -5 -3 336.61 8.88
 0 -5 -2 4.2 1.86
 0 -5 -1 308.58 7.58
 0 -5 2 3.73 1.18
 0 -5 3 328 5.39
 0 -5 4 80.97 2.25
 0 -4 -26 131.54 13.41
 0 -4 -25 -0.53 5.94
 0 -4 -24 -1.51 7.12
 0 -4 -19 -1.54 3.91
 0 -4 -18 2.77 4.52
 0 -4 -17 13.84 5.16
 0 -4 -16 44.87 6.4
 0 -4 -15 27.01 5.58
 0 -4 -14 0.75 3.71
 0 -4 -13 43.99 5.65
 0 -4 -12 1.53 3.06
 0 -4 -11 342.55 11.74
 0 -4 -5 221.22 7.36
 0 -4 -4 169.6 6.42
 0 -4 -3 911.16 13.16
 0 -4 -2 1875.94 17.63
 0 -4 -1 1128.39 12.84
 0 -4 3 898.07 7.37
 0 -3 -28 66.06 10.38
 0 -3 -27 -4.22 5.52
 0 -3 -25 -1.32 6.35
 0 -3 -23 374.29 17.39
 0 -3 -22 28.75 7.07
 0 -3 -21 219.27 12.82
 0 -3 -20 4.1 5.38
 0 -3 -19 252.08 12.59
 0 -3 -17 53.94 6.71
 0 -3 -16 162.74 9.81
 0 -3 -15 1075.17 21.85
 0 -3 -14 649.93 16.39
 0 -3 -13 86.03 6.79
 0 -3 -9 368.17 10.27
 0 -3 -8 16.82 3.13
 0 -3 -7 308.51 8.78
 0 -3 -6 63.46 4.59
 0 -3 -5 586.17 10.84
 0 -3 -4 206.95 6.37
 0 -3 -3 1425.01 14.63
 0 -3 -2 0.81 1.98
 0 -3 -1 423.61 7.04
 0 -3 2 2.56 0.83
 0 -2 -27 175.56 13.73
 0 -2 -26 37.98 8.6
 0 -2 -25 51.61 8.51
 0 -2 -24 53.17 8.16
 0 -2 -23 44.43 8.31
 0 -2 -22 26.97 6.12
 0 -2 -21 35.1 6.24
 0 -2 -20 133.98 10.16
 0 -2 -19 89.19 7.81
 0 -2 -18 269.78 12.21
 0 -2 -17 8.67 3.75
 0 -2 -16 35.67 5.46
 0 -2 -15 145.37 8.28
 0 -2 -14 156.56 8.19
 0 -2 -11 405.74 11
 0 -2 -10 3.76 2.15
 0 -2 -9 230.06 7.72
 0 -2 -7 1434.5 16.87
 0 -2 -6 1210.91 14.68
 0 -2 -4 1739.12 15.33
 0 -2 -3 3621.54 20.32
 0 -2 -2 1960.63 13.73
 0 -2 -1 3788.85 17.07
 0 -1 -29 -0.09 5.71
 0 -1 -28 -1.56 5.3
 0 -1 -25 19.47 6.06
 0 -1 -24 2.63 5.3
 0 -1 -23 80.27 9.06
 0 -1 -22 312.37 13.56
 0 -1 -21 -0.92 3.85
 0 -1 -20 160.46 10.11
 0 -1 -19 22.2 4.74
 0 -1 -18 71.03 7.06
 0 -1 -17 126.41 8.23
 0 -1 -16 1652.55 24.89
 0 -1 -12 2375.84 25.1
 0 -1 -11 4.61 2.35
 0 -1 -10 41.68 4.03
 0 -1 -9 110.22 5.03
 0 -1 -7 869.25 11.77
 0 -1 -6 1798.3 15.8
 0 -1 -5 982.99 10.95
 0 -1 -4 512.94 7.4
 0 -1 -3 829.26 8.36
 0 -1 -1 275.95 3.74
 0 -1 6 1726.8 11.12
 0 0 -28 365.61 16.21
 0 0 -26 47.96 8.11
 0 0 -24 10.02 4.6
 0 0 -22 369.15 14.17
 0 0 -20 298.88 11.71
 0 0 -18 29.79 4.71
 0 0 -14 48.27 4.84
 0 0 -12 111.79 5.6
 0 0 -10 395.72 8.82
 0 0 -6 3.16 1.77
 0 0 -4 1589.12 10.43
 0 0 2 486.52 4.15
 0 0 4 1608.09 10.46
 0 1 -25 19.47 5.26
 0 1 -24 2.88 3.82
 0 1 -23 77.5 7.57
 0 1 -22 314.17 12.23
 0 1 -21 2.31 3.08
 0 1 -20 159.13 8.58
 0 1 -19 20.61 4.14
 0 1 -15 998.94 16.14
 0 1 -13 245.77 7.57
 0 1 -11 3.58 1.75
 0 1 -10 42.39 3
 0 1 -9 111.27 4.15
 0 1 -8 28.47 2.59
 0 1 -7 831.96 8.8
 0 1 -6 1745.47 11.39
 0 1 -5 984.23 7.43
 0 2 -21 27.73 4.45
 0 2 -18 274.53 9.15
 0 2 -17 9.14 3.21
 0 2 -16 43.83 4.02
 0 2 -15 148.16 6.1
 0 2 -13 35.78 3.2
 0 2 -12 123.97 4.68
 0 2 -11 390.37 7.37
 0 2 -10 6.52 1.65
 1 -10 -15 4.29 6.54
 1 -10 -13 16.73 6.87
 1 -10 -12 0.57 5.29
 1 -10 -11 60.32 8.94
 1 -10 -10 38.14 7.33
 1 -10 -9 91.42 8.89
 1 -10 -8 0.31 4.12
 1 -10 -7 -1.29 3.35
 1 -9 -18 4.8 6.83
 1 -9 -17 45.6 9.95
 1 -9 -16 -3.61 5.26
 1 -9 -15 11.18 7.72
 1 -9 -14 6.6 6.09
 1 -9 -13 88.53 9.51
 1 -9 -12 4.26 5.19
 1 -9 -11 39.69 7.09
 1 -9 -10 43.52 7.34
 1 -9 -8 73.85 7.69
 1 -9 -7 78.04 7.84
 1 -9 -6 14.56 4.72
 1 -9 -5 63.46 6.16
 1 -8 -20 13.25 7.58
 1 -8 -19 114.81 12.17
 1 -8 -18 5.12 6.92
 1 -8 -17 17.53 8.14
 1 -8 -16 28.42 7.44
 1 -8 -14 56.38 8.51
 1 -8 -13 64.46 8.58
 1 -8 -12 34.13 7.59
 1 -8 -10 -0.03 5.2
 1 -8 -8 54.07 6.42
 1 -8 -7 85.45 7.81
 1 -8 -6 28.63 5.43
 1 -8 -5 91.78 7.17
 1 -8 -4 69.36 5.97
 1 -8 -3 104.36 6.77
 1 -7 -22 9.29 7.58
 1 -7 -21 23.04 8.29
 1 -7 -19 3.92 5.98
 1 -7 -18 71.02 9.9
 1 -7 -17 20.11 7.28
 1 -7 -16 19.62 6.77
 1 -7 -15 119.93 10.52
 1 -7 -14 252.72 14.1
 1 -7 -13 94.85 8.88
 1 -7 -12 222.05 12.48
 1 -7 -11 87.96 8.99
 1 -7 -10 93.39 8.56
 1 -7 -9 5.42 5
 1 -7 -8 45.14 6.24
 1 -7 -7 79.23 7
 1 -7 -6 16.3 4.18
 1 -7 -1 44.57 4.02
 1 -6 -24 68.72 11.53
 1 -6 -23 7.64 8.53
 1 -6 -21 13.28 7.68
 1 -6 -20 80.77 10.91
 1 -6 -18 46.46 9.03
 1 -6 -17 53.85 8.44
 1 -6 -14 28.01 6.57
 1 -6 -13 59.43 7.62
 1 -6 -11 180.8 10.51
 1 -6 -10 14.2 4.25
 1 -6 -9 48.97 5.63
 1 -6 -8 159.23 8.68
 1 -6 -3 240.46 8.57
 1 -6 -2 309.66 8.98
 1 -6 0 465.36 9.78
 1 -5 -26 -4.96 7.12
 1 -5 -25 13.3 9.01
 1 -5 -24 137.06 13.06
 1 -5 -23 122.94 11.95
 1 -5 -21 58.78 10.26
 1 -5 -20 6.82 7.32
 1 -5 -18 -0.04 6.09
 1 -5 -17 18.7 6.33
 1 -5 -16 143.08 10.72
 1 -5 -15 28.72 5.84
 1 -5 -14 233.16 12.17
 1 -5 -13 28.24 5.66
 1 -5 -12 75.51 7.22
 1 -5 -11 143.93 8.86
 1 -5 -10 89.85 7.41
 1 -5 -5 42.31 4.62
 1 -5 -3 304.04 8.81
 1 -5 -2 126.65 5.48
 1 -5 -1 313.07 7.85
 1 -5 0 74.9 3.99
 1 -4 -27 20.61 8.53
 1 -4 -24 28.95 8.09
 1 -4 -23 -1.19 5.51
 1 -4 -22 38.85 8.69
 1 -4 -20 53.78 8.71
 1 -4 -19 8.53 5.12
 1 -4 -18 110.55 9.48
 1 -4 -17 47.58 6.84
 1 -4 -16 31.43 6.09
 1 -4 -15 180.27 10.78
 1 -4 -13 28.76 5.04
 1 -4 -12 5.06 4.39
 1 -4 -11 335.39 11.77
 1 -4 -10 13.69 3.66
 1 -4 -7 166.53 7.58
 1 -4 -5 13.92 3.06
 1 -4 -4 316.92 8.64
 1 -4 -3 858.68 13.25
 1 -4 -2 233.38 6.78
 1 -4 -1 397.48 8.11
 1 -4 0 1457.32 14.28
 1 -3 -28 76.18 11.38
 1 -3 -27 68.97 10.66
 1 -3 -25 12.65 7.14
 1 -3 -24 13.61 6.26
 1 -3 -23 16.29 7.62
 1 -3 -22 113.6 10.79
 1 -3 -19 70.8 8.19
 1 -3 -18 61.39 7.64
 1 -3 -17 114.36 9.13
 1 -3 -16 646.47 18.21
 1 -3 -15 36.57 5.52
 1 -3 -14 27.05 4.71
 1 -3 -13 379.07 12.86
 1 -3 -9 921.86 16.88
 1 -3 -7 37.59 3.9
 1 -3 -6 65.1 4.6
 1 -3 -5 111.18 5.2
 1 -3 -4 946.03 13.55
 1 -3 -3 372.25 8.11
 1 -3 -2 433.24 8.26
 1 -3 -1 1370.45 13.57
 1 -3 0 113.62 3.85
 1 -2 -26 2.14 6.27
 1 -2 -25 12.65 6.24
 1 -2 -24 19.51 7.61
 1 -2 -23 115.62 10.3
 1 -2 -22 23.87 6.18
 1 -2 -21 49.17 8.14
 1 -2 -19 14.18 4.85
 1 -2 -18 -0.76 3.39
 1 -2 -16 1.55 3.24
 1 -2 -15 260.93 11.06
 1 -2 -14 432.14 13.42
 1 -2 -10 261.43 9.24
 1 -2 -9 611.11 12.86
 1 -2 -6 1362.09 16.5
 1 -2 -5 104.04 5
 1 -2 -4 289.44 7.18
 1 -2 -3 1252.45 13.25
 1 -2 -2 293.65 6.34
 1 -2 -1 617.46 8.21
 1 -1 -23 86.73 9.39
 1 -1 -21 116.29 9.19
 1 -1 -20 61.46 6.88
 1 -1 -19 20.89 5.07
 1 -1 -18 84.26 7.33
 1 -1 -17 125.4 8.24
 1 -1 -16 113.35 7.37
 1 -1 -15 700.36 16.25
 1 -1 -12 641.85 14.01
 1 -1 -10 497.33 11.37
 1 -1 -9 633.69 12.11
 1 -1 -8 181.35 6.66
 1 -1 -7 926.31 13.24
 1 -1 -6 1661.75 16.81
 1 -1 -5 2164.27 17.94
 1 -1 -4 14.74 2.26
 1 -1 -3 305.81 6.18
 1 0 -22 52.91 7.32
 1 0 -20 -0.45 3.42
 1 0 -19 39.18 5.67
 1 0 -18 1.77 3.24
 1 0 -17 110.6 7.18
 1 0 -13 30.79 4.22
 1 0 -12 271.67 8.75
 1 0 -11 98.96 5.51
 1 0 -10 1259.49 16.66
 1 0 -8 548.14 10.2
 1 0 -7 3167.63 22.46
 1 0 -6 6106.56 29.31
 1 0 -5 1097.66 11.95
 1 1 -18 87.09 6.56
 1 1 -15 742.69 15.16
 1 1 -14 85.26 5.43
 1 1 -13 10.89 2.72
 1 1 -12 643.27 12.33
 1 1 -11 161.57 6.11
 2 -8 -20 -7.62 8.08
 2 -8 -19 7.79 6.87
 2 -8 -18 4.18 7.21
 2 -8 -16 17.89 8.05
 2 -8 -15 9.18 6.86
 2 -8 -14 16.71 6.9
 2 -8 -13 45.61 8.66
 2 -8 -12 47.67 8.34
 2 -8 -10 18.72 5.51
 2 -8 -8 97.5 9.04
 2 -7 -22 12.73 8.46
 2 -7 -21 2.95 7.9
 2 -7 -20 40.6 9.56
 2 -7 -19 20.48 7.76
 2 -7 -18 146.75 13.63
 2 -7 -16 7.96 6.42
 2 -7 -15 67.7 9.7
 2 -7 -13 82.52 9.11
 2 -7 -12 20.26 5.84
 2 -7 -10 3.95 4.56
 2 -7 -9 294.78 13.15
 2 -7 -8 34.95 5.87
 2 -7 -7 264.22 11.51
 2 -7 -6 5.11 3.48
 2 -6 -22 52.1 10.49
 2 -6 -20 22.67 8.92
 2 -6 -18 -3.34 5.57
 2 -6 -16 0.05 5.3
 2 -6 -15 123.31 10.31
 2 -6 -12 128.5 10.05
 2 -6 -11 31.88 6.09
 2 -6 -10 82.93 7.36
 2 -6 -9 10.26 4.99
 2 -6 -8 1.41 3.42
 2 -6 -6 70.99 6.61
 2 -6 -5 91.42 6.86
 2 -5 -24 1.16 7.24
 2 -5 -21 3.11 5.74
 2 -5 -20 35.99 8.07
 2 -5 -19 135.36 12.51
 2 -5 -18 84.57 10.52
 2 -5 -17 34.27 7.1
 2 -5 -16 13.49 5.62
 2 -5 -14 2.17 4.36
 2 -5 -13 328.51 13.87
 2 -5 -11 3.03 3.55
 2 -5 -10 28.99 5.36
 2 -5 -9 153.38 8.94
 2 -5 -7 599.17 15.37
 2 -4 -23 93.45 10.92
 2 -4 -22 55.5 9.21
 2 -4 -21 173.17 13.06
 2 -4 -19 21.55 7.48
 2 -4 -18 11.09 5.46
 2 -4 -17 35.09 6.86
 2 -4 -16 32.17 6.33
 2 -4 -15 98.68 9.03
 2 -4 -14 353.24 14.08
 2 -4 -12 40.01 5.82
 2 -4 -11 90.77 7.09
 2 -4 -10 10.47 3.92
 2 -4 -9 2.85 3.01
 2 -4 -5 204 8.36
 2 -3 -23 48.06 8.46
 2 -3 -22 97.95 10.11
 2 -3 -20 190.45 12.7
 2 -3 -19 19.27 6.89
 2 -3 -18 32.9 6.17
 2 -3 -17 86.98 8.8
 2 -3 -16 99.03 8.75
 2 -3 -13 203.91 10.12
 2 -3 -12 19.02 4.36
 2 -3 -11 163.77 8.7
 2 -3 -7 18.52 3.58
 2 -3 -6 516.85 12.36
 2 -2 -21 250.98 13.51
 2 -2 -20 11.99 5.3
 2 -2 -19 15.18 5.97
 2 -2 -17 165.64 10.66
 2 -2 -16 61.04 6.95
 2 -2 -15 94.33 7.98
 2 -2 -14 47.67 6.07
 2 -2 -13 55.67 5.73
 2 -2 -12 212.04 9.81
 2 -2 -8 384.54 10.86
 2 -1 -15 23.62 4.78
 2 -1 -14 206.24 9.91
 -4 2 12 22.11 4.43
 -4 2 13 39.47 5.55
 -4 2 14 151.43 8.61
 -4 2 15 207.89 9.94
 -4 2 16 95.6 7.41
 -4 2 17 26.22 4.72
 -4 3 10 300.17 12.44
 -4 3 11 17.4 4.51
 -4 3 12 287.42 12.27
 -4 3 13 86.18 7.81
 -4 3 14 93.44 7.92
 -4 3 15 14.25 5
 -4 3 16 11.92 4.56
 -4 3 17 26.39 5.87
 -4 3 18 50.61 6.94
 -4 3 19 65.76 7.5
 -4 4 9 72.72 7.45
 -4 4 10 94.28 8.21
 -4 4 12 33.05 7
 -4 4 13 10.71 5.63
 -4 4 14 100.36 8.99
 -4 4 15 235.75 12.9
 -4 4 16 39.33 6.95
 -4 4 17 167.6 11.6
 -4 4 18 -0.79 4.66
 -4 5 9 202.3 12.36
 -4 5 10 35.23 7.09
 -4 5 11 5.25 5.1
 -4 5 12 79.82 9.71
 -4 5 13 95.97 10.5
 -4 5 14 11.17 5.58
 -4 5 15 1.02 4.95
 -4 6 10 249.45 14.2
 -4 6 11 50.99 8.33
 -4 6 12 9.43 5.74
 -3 0 10 46.62 3.47
 -3 1 7 516.54 11.2
 -3 1 8 204.53 7.32
 -3 1 9 285.85 8.94
 -3 1 10 41.71 4.11
 -3 1 11 105.22 5.78
 -3 1 12 130.95 6.54
 -3 1 13 363.47 10.53
 -3 1 14 120.65 6.43
 -3 1 15 180.68 7.81
 -3 1 16 5.47 2.61
 -3 1 17 12.09 3.04
 -3 1 18 26.86 4.23
 -3 2 6 244.98 9.04
 -3 2 7 358.73 11.1
 -3 2 8 525.46 12.89
 -3 2 9 510.41 12.78
 -3 2 10 14.3 3.32
 -3 2 11 106.88 6.74
 -3 2 12 80.82 6.31
 -3 2 14 75.23 6.4
 -3 2 15 55.64 5.86
 -3 2 17 32.3 5
 -3 2 18 61.92 6.4
 -3 2 20 4.93 3.27
 -3 3 4 9.11 3.35
 -3 3 6 596.29 15.33
 -3 3 7 937.97 18.73
 -3 3 8 206.73 9.11
 -3 3 9 83.71 6.36
 -3 3 10 36.42 5.49
 -3 3 11 50.93 5.46
 -3 3 12 262.67 11.3
 -3 3 13 -0.5 3.53
 -3 3 15 78.64 7.19
 -3 3 16 65.49 7.36
 -3 3 17 26.34 5.68
 -3 3 18 111.65 8.92
 -3 3 20 112.63 9.35
 -3 3 21 60.92 7.69
 -3 3 22 93.84 8.75
 -3 4 4 249.63 10.58
 -3 4 6 181.4 9.49
 -3 4 7 104.65 7.44
 -3 4 8 720.27 18.17
 -3 4 10 190.48 10.32
 -3 4 11 53.21 6.19
 -3 4 12 182.72 10.32
 -3 4 13 23.27 5.06
 -3 4 14 79.84 7.83
 -3 4 15 52.21 7.58
 -3 4 16 7.87 4.62
 -3 4 17 14.65 5.01
 -3 4 18 87.44 8.89
 -3 4 20 50.92 7.7
 -3 5 3 70.09 7.36
 -3 5 4 2.9 3.6
 -3 5 6 93.38 7.78
 -3 5 8 305.91 13.33
 -3 5 9 45.97 6.68
 -3 5 10 165.22 10.36
 -3 5 12 194.61 11.53
 -3 5 13 14.72 5.09
 -3 5 14 89.65 9.12
 -3 5 15 48.88 7.47
 -3 5 16 6.76 5.56
 -3 5 17 5.28 4.96
 -3 5 18 156.16 11.31
 -3 6 6 113.98 9.23
 -3 6 7 212.68 12.56
 -3 6 8 301.79 14
 -3 6 9 53.53 8.37
 -3 6 10 24.09 6.48
 -3 6 11 18.94 6.1
 -3 6 12 90.27 10.53
 -3 6 14 38.45 7.45
 -3 6 15 128.92 12.02
 -3 7 4 15.63 5.51
 -3 7 5 102.2 9.61
 -3 7 6 56.86 8.96
 -3 7 7 45.49 7.8
 -3 7 8 16.52 7.02
 -3 7 9 65.86 9.48
 -3 7 10 20.4 6.55
 -3 7 11 23.92 7.08
 -3 8 5 31.85 7.38
 -2 -1 8 44.48 1.98
 -2 -1 9 432.58 5.95
 -2 -1 10 192.61 4.31
 -2 -1 11 8.97 1.43
 -2 0 5 92.18 3.66
 -2 0 6 1037.55 11.57
 -2 0 7 1.46 1.32
 -2 2 2 824 13.67
 -2 2 3 537 11.23
 -2 2 4 292.14 8.44
 -2 2 5 82.48 5.18
 -2 2 6 881.75 14.78
 -2 3 1 981.6 16.6
 -2 3 2 226.15 8.62
 -2 3 3 147.14 6.72
 -2 3 4 35.61 4.3
 -2 3 5 441.43 11.46
 -2 3 6 494.69 12.56
 -2 4 1 292.05 10.48
 -2 4 3 458.95 12.64
 -2 4 4 98.47 6.42
 -2 4 5 201.09 9.22
 -2 4 6 286.26 10.57
 -2 5 2 331.27 12.14
 -2 5 3 252.3 10.79
 -2 5 4 235.42 10.44
 -2 5 5 82.66 7.37
 -2 5 6 63.21 6.6
 -2 5 7 605.44 17.09
 -2 5 8 28.09 5.17
 -2 6 0 10.61 3.94
 -2 6 1 102.76 7.98
 -2 6 2 123.59 9.36
 -2 6 3 352.92 13.36
 -2 6 4 77.3 7.75
 -2 6 5 91.05 8.15
 -2 6 7 111.47 8.5
 -2 6 8 3.93 4.28
 -2 6 9 21.71 5.45
 -2 6 10 77.78 8.04
 -2 7 1 79.71 8.32
 -2 7 4 72.38 7.93
 -2 7 5 135.78 9.69
 -2 7 6 -4.01 3.59
 -2 7 7 290.52 14.58
 -2 7 8 27.1 6.15
 -2 7 9 304.05 14.56
 -2 7 10 2.42 4.69
 -2 7 11 46.78 7.73
 -2 7 12 27.49 6.67
 -2 7 13 76.01 9.88
 -2 8 1 30.43 6.57
 -2 8 4 19.25 6.46
 -2 8 5 26.4 7.17
 -2 8 6 2.25 4.67
 -2 8 7 28.35 7.59
 -2 8 8 90.21 9.58
 -2 8 9 50.77 8.71
 -2 9 3 21.89 6.39
 -1 -3 11 29.44 1.65
 -1 -3 12 311.07 5.04
 -1 -3 13 364.31 5.86
 -1 0 2 581.14 5.93
 -1 1 1 2477.84 16.09
 -1 3 0 114.29 5.47
 -1 3 1 1319.32 16.71
 -1 4 2 250.76 9.01
 -1 5 -2 126.46 6.7
 -1 5 0 82.45 5.93
 -1 5 2 126.84 7.32
 -1 6 -2 330.7 11.57
 -1 6 1 127.66 7.81
 -1 6 2 317.54 11.91
 -1 7 -2 33.94 5.16
 -1 7 -1 46.74 5.62
 -1 7 0 55.24 6.44
 -1 7 2 39.13 6.11
 -1 7 3 10.65 4.16
 -1 7 4 12.05 5
 -1 7 5 172.16 10.88
 -1 7 6 10.97 4.77
 -1 8 -1 22.82 5.27
 -1 8 0 1.25 4.26
 -1 8 1 24.77 5.31
 -1 8 3 88.88 8.41
 -1 8 6 27.45 6.99
 -1 8 7 93.36 8.98
 -1 8 8 50.01 8.48
 -1 8 9 143.15 11.91
 -1 9 0 -2.22 3.38
 -1 9 1 9.35 4.73
 -1 9 2 40.3 6.88
 -1 9 3 46.33 7.44
 -1 9 4 100.85 9.12
 0 -4 11 350.71 7.97
 0 -4 12 1.27 1.32
 0 -4 13 38.2 3.1
 0 -4 14 0.57 1.4
 0 -3 5 577.99 8.71
 0 -3 6 60.54 3.12
 0 -3 7 308.6 6.44
 0 -3 8 20.58 2.34
 0 -2 3 3635.43 17.39
 0 -2 4 1797.2 12.5
 0 -1 2 0.07 0.78
 0 1 -1 275.94 3.61
 0 2 -2 1945.87 13.16
 0 3 -3 1394.59 14.23
 0 5 -4 89.66 5.23
 0 5 -3 320.35 9.31
 0 5 -2 3.76 2.06
 0 5 -1 307.59 9.16
 0 6 -4 334.8 10.41
 0 6 -3 10.16 2.96
 0 6 -2 323.33 10.47
 0 6 0 452.48 12.66
 0 7 -3 23.51 4.64
 0 7 -2 190.65 9.23
 0 7 1 101.42 6.99
 0 7 2 183.8 9.39
 0 8 -3 92.06 7.39
 0 8 -2 6.19 3.76
 0 8 -1 97.64 7.74
 0 8 1 98.79 7.9
 0 8 2 3.88 4
 0 8 3 86.87 7.56
 0 8 4 40.74 6.13
 0 9 -2 35.11 5.9
 0 9 -1 75.52 7.48
 0 9 1 62.27 7.34
 0 9 2 40.96 6.1
 0 9 3 11.98 4.25
 0 9 4 33.65 6.38
 0 9 5 -1.48 3.36
 0 9 6 8.29 4.99
 0 10 0 -1.67 4.19
 0 10 1 30.89 6.23
 0 10 2 95.5 9.36
 1 -4 8 213.91 7.3
 1 -4 9 158.55 6.4
 1 -3 2 452.56 9.61
 1 -3 4 917.44 13.07
 1 -3 6 64.42 4.22
 1 -2 1 643.7 9.79
 1 -2 2 282.14 6.68
 1 -2 3 1220.4 13.43
 1 -1 -1 2543.69 16.12
 1 -1 0 5602.63 23.61
 1 0 -2 601.86 6.06
 1 3 -4 924.95 8.3
 1 4 -4 312.09 6.49
 1 6 -5 63.76 4.34
 1 6 -4 245.27 7.98
 1 6 -3 248.99 8.32
 1 7 -4 10.43 3.37
 1 7 -3 11.09 2.9
 1 7 -2 32.89 4.84
 1 8 -3 92.07 6.9
 1 8 -2 149.53 8.1
 1 8 -1 14.42 4
 1 8 0 -0.86 2.48
 1 8 1 17.58 4.54
 1 9 -3 41.33 5.33
 1 9 -2 45.69 5.86
 1 9 -1 9.1 3.97
 1 9 0 3.79 3.34
 1 9 1 8.52 4.03
 1 9 2 56.77 7.31
 1 9 3 34.99 6.04
 1 9 4 104.51 8.51
 1 10 1 8.56 4.6
 1 10 2 44.71 6.84
 1 10 3 20.57 5.41
 2 -3 0 1027.17 15.85
 2 -3 1 973.68 15.25
 2 -3 2 226.12 7.8
 2 -2 -1 637.68 11.41
 2 -2 0 7.11 2.45
 2 -2 1 636.08 11.65
 2 -2 2 852.42 13.51
 2 -1 -2 491.24 9.05
 2 -1 -1 53.49 3.95
 2 -1 0 40.01 3.3
 2 0 -2 1934.61 15.47
 2 1 -4 130.7 3.26
 2 4 -5 192.59 3.7
 2 5 -5 74.16 3.24
 2 6 -4 71.38 4.28
 2 7 -5 125.4 5.56
 2 7 -4 64.68 4.52
 2 7 -3 8.59 2.59
 2 7 -2 39.51 4.42
 2 8 -2 55.78 5.32
 2 8 -1 28.41 4.43
 2 9 1 93 7.64
 3 -1 -3 127.63 5.8
 3 -1 -2 367.4 9.05
 3 -1 -1 536 11.39
 3 -1 0 -0.33 2.28
 3 0 -4 888.7 12.49
 3 0 -3 1291.16 15.22
 3 0 -2 101.38 4.9
 3 1 -5 45.61 2.86
 3 1 -4 346.02 7.18
 3 5 -5 158.35 3.75
 3 6 -5 40.95 2.62
 4 0 -5 32.62 3.73
 4 0 -4 356.32 9.53
 4 1 -5 127.77 5.37
 4 1 -4 300.26 8
 4 1 -3 47.45 3.97
 4 2 -5 56.84 3.49
 4 2 -4 270.4 7.11
 -8 -4 -9 45.1 8.37
 -8 -4 -8 11.73 6.5
 -8 -4 -7 19.45 6.59
 -8 -4 -6 4.32 5.33
 -8 -4 -5 60.98 9.87
 -8 -4 -4 62.38 9.21
 -8 -4 -3 59.07 9.88
 -8 -4 -2 45.57 8.79
 -8 -4 -1 2.99 5.66
 -8 -4 0 81.01 10.61
 -8 -4 1 5.23 6.03
 -8 -4 2 30.76 7.89
 -8 -4 3 61.52 9.85
 -8 -4 4 51.39 10.14
 -8 -4 5 65.24 11.29
 -8 -3 -7 146.12 11.32
 -8 -3 -6 7.53 6.16
 -8 -3 -5 16.17 6.61
 -8 -3 -4 22.52 6.22
 -8 -3 -3 5.46 5.7
 -8 -3 -2 185.93 13.3
 -8 -3 -1 34.03 7.85
 -8 -3 0 90.59 10.77
 -8 -3 1 37.66 8.39
 -8 -3 2 199.63 14.32
 -8 -3 3 1.87 6.86
 -8 -2 -4 16.04 5.59
 -8 -2 -3 38.26 7.65
 -8 -2 -2 98.29 10.21
 -8 -2 -1 48.26 7.76
 -8 -2 0 55.97 8.86
 -8 -2 1 48.86 8.4
 -8 -1 -3 60.77 7.93
 -8 -1 -2 76.84 8.69
 -8 -1 -1 151.22 10.8
 -8 -1 0 5.94 4.82
 -8 0 0 -1.48 4.11
 -7 -6 -9 17.45 7.18
 -7 -6 -8 0.96 5.41
 -7 -6 -6 51.71 8.95
 -7 -6 -4 18.38 7.65
 -7 -6 -3 6.93 7.17
 -7 -6 -2 5.91 6.41
 -7 -6 -1 20.27 8.22
 -7 -6 0 132.03 13.17
 -7 -6 2 2.62 5.65
 -7 -6 3 15.36 7.31
 -7 -6 4 20.62 8.48
 -7 -6 5 34.17 8.39
 -7 -6 6 60.4 10.86
 -7 -6 7 21.17 7.84
 -7 -5 -14 -5.63 5.26
 -7 -5 -13 24.95 7.71
 -7 -5 -12 48.41 8.93
 -7 -5 -11 10.37 5.71
 -7 -5 -10 4.12 4.91
 -7 -5 -9 8.13 5.83
 -7 -5 -6 3.94 6.03
 -7 -5 -5 57.25 8.76
 -7 -5 -4 56.9 9.94
 -7 -5 -2 70.84 10.05
 -7 -5 -1 144.16 12.61
 -7 -5 1 123.77 12.44
 -7 -5 2 61.45 9.88
 -7 -5 3 3.93 5.59
 -7 -5 4 53.55 9.2
 -7 -5 5 64.43 10.58
 -7 -4 -14 -0.1 4.62
 -7 -4 -12 86.27 10.18
 -7 -4 -9 25.03 6.67
 -7 -4 -8 22.56 6.31
 -7 -4 -7 19.25 6.15
 -7 -4 -5 7.72 5.94
 -7 -4 -4 6.35 5.5
 -7 -4 -3 35.94 7.26
 -7 -4 -2 88.4 10.94
 -7 -4 -1 157.37 12.54
 -7 -4 2 87.03 10.73
 -7 -3 -12 26.42 5.98
 -7 -3 -11 3.37 4.57
 -7 -3 -10 0.24 4.17
 -7 -3 -9 16.05 5.77
 -7 -3 -8 40.88 7.29
 -7 -3 -6 25.08 6.25
 -7 -3 -5 39.71 6.91
 -7 -3 -4 12.7 5.38
 -7 -3 -3 150.01 11.48
 -7 -3 -2 28.28 7.17
 -7 -3 -1 56.04 8.22
 -7 -3 0 -0.87 5.75
 -7 -3 1 61.07 8.87
 -7 -2 -10 1.48 3.72
 -7 -2 -9 30.02 5.99
 -7 -2 -7 32.21 5.9
 -7 -2 -6 23.29 5.82
 -7 -2 -5 4.08 4.62
 -7 -2 -4 4.89 4.61
 -7 -2 -3 18.69 5.25
 -7 -2 -2 272.22 13.25
 -7 -2 -1 7.45 4.7
 -7 -1 -8 2.89 3.26
 -7 -1 -7 3.75 3.53
 -7 -1 -6 23.35 4.77
 -7 -1 -5 27.45 5.44
 -7 -1 -4 150.39 9.9
 -7 -1 -3 9.51 4.26
 -7 -1 -2 21.21 5.65
 -7 0 -5 15.53 4.55
 -7 0 -4 12.38 4.29
 -7 0 -3 33.68 5.78
 -7 0 -2 18.47 5.07
 -7 1 -3 15.47 4.22
 -6 -8 -6 108.55 12.4
 -6 -8 -2 39.05 9.65
 -6 -8 -1 68.88 10.66
 -6 -8 1 63.6 11.07
 -6 -8 2 56.94 10.02
 -6 -8 3 13.51 7.28
 -6 -8 4 29.18 8.48
 -6 -8 5 25.81 8.27
 -6 -7 -12 3.52 6.41
 -6 -7 -10 32.48 7.78
 -6 -7 -8 0.15 6.3
 -6 -7 -7 3.46 5.65
 -6 -7 -6 12.67 6.43
 -6 -7 -5 75.79 10.33
 -6 -7 -4 71.19 10.52
 -6 -7 -3 5.09 6.97
 -6 -7 -2 4.73 7.01
 -6 -7 -1 84.94 11.48
 -6 -7 0 4.28 6.83
 -6 -7 1 73.34 10.02
 -6 -7 2 8.24 6.33
 -6 -7 3 7.88 7.11
 -6 -7 4 81.94 10.72
 -6 -7 5 75.84 10.7
 -6 -7 6 5.94 6.17
 -6 -7 7 14.43 8.02
 -6 -7 8 4.8 6.59
 -6 -7 9 25.58 7.88
 -6 -7 10 28.3 8.21
 -6 -7 11 136.66 12.76
 -6 -6 -15 14.67 6.49
 -6 -6 -14 26.15 7.46
 -6 -6 -13 100.4 12.09
 -6 -6 -12 15.4 6.51
 -6 -6 -10 33.89 7.58
 -6 -6 -9 16.14 6.69
 -6 -6 -8 0.07 5.15
 -6 -6 -7 13.57 6.33
 -6 -6 -6 11.36 5.96
 -6 -6 -5 63.72 9.81
 -6 -6 -3 28.93 7.43
 -6 -6 -2 -0.63 6.26
 -6 -6 -1 128.69 12.01
 -6 -6 0 1.78 5.44
 -6 -6 1 126.98 11.98
 -6 -6 2 -1.69 5.72
 -6 -6 4 14.63 6.52
 -6 -6 5 69.7 10.1
 -6 -6 6 23.68 7.2
 -6 -5 -17 4.2 5.74
 -6 -5 -16 119.03 11.53
 -6 -5 -15 115.81 11.24
 -6 -5 -14 11.21 6.15
 -6 -5 -12 44.21 8.31
 -6 -5 -11 46.71 8.05
 -6 -5 -10 45.29 7.84
 -6 -5 -9 52.08 8.24
 -6 -5 -8 36.49 7.53
 -6 -5 -7 24.07 7.3
 -6 -5 -6 37.82 7.26
 -6 -5 -5 104.22 10.33
 -6 -5 -3 0.96 4.67
 -6 -5 -2 19.86 6.37
 -6 -5 -1 117.42 10.93
 -6 -5 0 17.73 6.18
 -6 -5 2 27.65 6.96
 -6 -5 3 4.67 5
 -6 -4 -17 33.77 6.75
 -6 -4 -16 5.44 5.72
 -6 -4 -15 22.99 6.31
 -6 -4 -14 15.56 5.71
 -6 -4 -13 39.57 7.22
 -6 -4 -12 32.24 6.73
 -6 -4 -10 18.01 6.11
 -6 -4 -9 52.89 8.14
 -6 -4 -7 158.12 11.01
 -6 -4 -6 16.26 5.45
 -6 -4 -5 75.11 9.12
 -6 -4 -4 75.14 9.01
 -6 -4 -1 23.19 6.91
 -6 -4 0 53.37 8.02
 -6 -4 1 27.69 6.8
 -6 -3 -16 18.98 5.52
 -6 -3 -14 144.19 10.21
 -6 -3 -13 4.97 4.19
 -6 -3 -11 3.93 4.1
 -6 -3 -9 21.73 5.38
 -6 -3 -8 21.31 5.76
 -6 -3 -7 18.18 5.23
 -6 -3 -5 172.34 10.83
 -6 -3 -3 15.18 5.81
 -6 -3 -2 97.39 9.18
 -6 -3 -1 58.79 7.77
 -6 -2 -15 0.79 3.7
 -6 -2 -13 50.11 6.72
 -6 -2 -12 37.71 6.22
 -6 -2 -11 123.12 8.67
 -6 -2 -9 17.36 5.05
 -6 -2 -8 122.61 8.82
 -6 -2 -7 3.56 3.87
 -6 -2 -6 10.09 4.15
 -6 -2 -5 8.55 4.75
 -6 -2 -4 14.28 4.37
 -6 -2 -3 28.39 5.98
 -6 -2 -2 62.38 7.24
 -6 -1 -12 73.88 6.37
 -6 -1 -11 14.2 3.65
 -6 -1 -10 9.86 3.86
 -6 -1 -8 4.68 3.87
 -6 -1 -7 23.44 4.46
 -6 -1 -6 7.37 3.48
 -6 -1 -5 4.52 3.47
 -6 -1 -4 96.82 7.58
 -6 -1 -3 54.99 6.24
 -6 0 -10 28.63 4.31
 -6 0 -9 45.57 4.66
 -6 0 -8 11.48 3.2
 -6 0 -7 60.58 5.58
 -6 0 -5 1.57 3.03
 -6 0 -4 6.26 3.17
 -6 2 -4 13.39 3.05
 -5 -9 -7 0.96 6.57
 -5 -9 -6 10.88 6.8
 -5 -9 -5 72.72 11.05
 -5 -9 -4 -2.28 5.96
 -5 -9 -2 31.94 7.99
 -5 -9 -1 61.01 9.73
 -5 -9 0 2.48 6.44
 -5 -9 2 37.51 8.65
 -5 -9 3 46.35 8.94
 -5 -9 4 -1.59 6.07
 -5 -9 5 74.1 10.16
 -5 -9 6 13.33 6.93
 -5 -9 7 -2.62 6.84
 -5 -9 8 7.79 7.34
 -5 -8 -12 30.53 8.85
 -5 -8 -11 19.8 7.96
 -5 -8 -10 94.11 11.91
 -5 -8 -9 0.24 5.65
 -5 -8 -8 2.61 5.97
 -5 -8 -7 6.93 7.27
 -5 -8 -6 14.51 7.71
 -5 -8 -5 37.89 8.58
 -5 -8 -4 67.96 10.43
 -5 -8 -3 9.76 6.79
 -5 -8 -2 -1.61 5.95
 -5 -8 -1 22.17 7.78
 -5 -8 0 118.96 11.75
 -5 -8 1 30.32 7.76
 -5 -8 2 2.72 5.35
 -5 -8 3 5.48 7.02
 -5 -8 4 75.63 10.29
 -5 -8 5 37.07 8.82
 -5 -8 6 9.56 6
 -5 -8 7 14.49 6.33
 -5 -8 8 -3.82 6.15
 -5 -8 11 17.01 7.08
 -5 -8 12 39.17 9.66
 -5 -7 -16 18.89 7.66
 -5 -7 -15 3.42 6.03
 -5 -7 -14 21.87 7.83
 -5 -7 -13 19.81 7.12
 -5 -7 -12 13.55 7.28
 -5 -7 -11 13.55 6.35
 -5 -7 -10 30.49 8.37
 -5 -7 -9 53.74 8.85
 -5 -7 -8 23.19 7.5
 -5 -7 -7 19.3 6.58
 -5 -7 -6 30.1 6.94
 -5 -7 -5 76.16 10.15
 -5 -7 -4 55.85 9.12
 -5 -7 -3 99.62 10.46
 -5 -7 -2 56.67 8.56
 -5 -7 -1 151.66 11.63
 -5 -7 0 13.61 5.94
 -5 -7 2 70.54 9.2
 -5 -7 4 60.97 9.52
 -5 -7 5 80.81 9.41
 -5 -7 6 23.03 7.36
 -5 -7 7 25.99 6.92
 -5 -7 8 26.83 7.99
 -5 -7 9 40.94 8.76
 -5 -6 -17 38.02 8.03
 -5 -6 -16 211.39 14.37
 -5 -6 -14 64.74 9.37
 -5 -6 -13 12.01 6.01
 -5 -6 -11 41.6 7.65
 -5 -6 -10 13.95 5.99
 -5 -6 -9 17.47 6.69
 -5 -6 -8 2.22 4.81
 -5 -6 -7 1.16 4.66
 -5 -6 -6 278.52 14.82
 -5 -6 -5 116.79 9.88
 -5 -6 -4 -0.48 4.88
 -5 -6 -3 3.67 4.73
 -5 -6 -1 9.96 5.9
 -5 -6 0 19.74 6.36
 -5 -6 1 14.05 5.32
 -5 -6 3 2.45 4.43
 -5 -6 4 0.81 4.18
 -5 -6 5 121.95 11.1
 -5 -5 -17 49.95 8.44
 -5 -5 -16 24.86 6.53
 -5 -5 -15 25.94 6.34
 -5 -5 -14 98.7 9.65
 -5 -5 -13 3.55 4.79
 -5 -5 -12 16.49 5.71
 -5 -5 -8 18.48 5.68
 -5 -5 -7 25.55 6.39
 -5 -5 -6 14.09 5.98
 -5 -5 -5 10.51 4.87
 -5 -5 -4 106.65 8.88
 -5 -5 -3 18.74 5.71
 -5 -5 -1 19.45 5.44
 -5 -5 2 109.17 9.09
 -5 -4 -17 127.66 10.55
 -5 -4 -16 128.76 9.88
 -5 -4 -15 23.7 5.99
 -5 -4 -13 94.84 9.44
 -5 -4 -12 90.17 8.46
 -5 -4 -11 13.92 4.96
 -5 -4 -9 11.77 4.93
 -5 -4 -8 81.08 7.73
 -5 -4 -7 26.96 5.75
 -5 -4 -6 88.39 8.43
 -5 -4 -5 18.54 5.76
 -5 -4 -4 17.61 5.46
 -5 -4 -3 96.96 8.68
 -5 -4 -2 11.19 5
 -5 -4 0 387.96 14.85
 -5 -3 -17 19.58 5.57
 -5 -3 -16 15.57 4.77
 -5 -3 -14 18.17 4.86
 -5 -3 -13 10.62 4.96
 -5 -3 -12 9.02 4.28
 -5 -3 -10 96.79 8.1
 -5 -3 -9 149.63 9.13
 -5 -3 -8 150.29 9.49
 -5 -3 -7 20.89 4.78
 -5 -3 -6 37.17 5.8
 -5 -3 -5 246.98 11.67
 -5 -3 -4 71.42 6.99
 -5 -3 -3 97.36 7.69
 -5 -3 -2 25.59 5.58
 -5 -2 -16 7.42 3.76
 -5 -2 -15 116.06 7.93
 -5 -2 -14 255.99 10.9
 -5 -2 -13 107.34 7.5
 -5 -2 -12 18.07 4.28
 -5 -2 -11 74.92 6.71
 -5 -2 -10 89.9 7.22
 -5 -2 -9 87.45 7.11
 -5 -2 -6 129.17 7.89
 -5 -2 -5 143.6 8.35
 -5 -1 -15 131.23 7.47
 -5 -1 -14 56.54 5.55
 -5 -1 -13 13.31 3.46
 -5 -1 -12 5.12 3
 -5 -1 -11 5.39 3.24
 -5 -1 -10 40.01 4.73
 -5 -1 -9 29 4.19
 -5 0 -10 124.32 6.26
 -5 0 -9 105 5.84
 -5 0 -8 118.15 6.34
 -5 0 -7 105.57 6.13
 -5 0 -6 150.25 7.11
 -5 1 -10 45.37 3.37
 -5 1 -8 250.83 7.15
 -5 1 -7 168.93 6.27
 -5 1 -5 34.93 3.71
 -5 2 -7 57.55 3.04
 -5 2 -6 132.63 4.72
 -5 3 -4 70.18 3.41
 -4 -10 -6 -0.47 7.48
 -4 -10 -5 46.18 9.29
 -4 -10 -4 -0.53 5.93
 -4 -10 -3 14.57 7.5
 -4 -10 -2 16.51 7.35
 -4 -10 0 97 11.54
 -4 -10 1 -6.17 4.55
 -4 -10 2 24.5 7.71
 -4 -10 3 3.21 5.68
 -4 -10 5 41.42 8.67
 -4 -10 6 2.11 6.1
 -4 -10 7 38.71 8.35
 -4 -10 8 1.61 5.71
 -4 -9 -12 6.09 6.49
 -4 -9 -11 107.1 13.15
 -4 -9 -10 38.53 9.27
 -4 -9 -9 15.12 7.71
 -4 -9 -8 32.52 8.86
 -4 -9 -7 3.57 6.87
 -4 -9 -6 23.11 8.04
 -4 -9 -5 49.15 9.34
 -4 -9 -3 45.79 8.24
 -4 -9 -2 13 6
 -4 -9 -1 26.93 7.32
 -4 -9 0 11.91 6.9
 -4 -9 1 18.33 6.4
 -4 -9 2 19.35 6.92
 -4 -9 3 50.91 9.3
 -4 -9 4 5.26 5.28
 -4 -9 5 68.14 9.76
 -4 -9 6 24.44 7.23
 -4 -9 7 9.42 5.79
 -4 -9 8 60.3 8.82
 -4 -9 9 3.28 5.38
 -4 -9 10 43.34 7.96
 -4 -9 11 91.24 10
 -4 -9 12 2.79 4.9
 -4 -9 13 32.02 8.32
 -4 -9 14 26.77 7.44
 -4 -8 -16 18.16 8.02
 -4 -8 -15 15.29 6.82
 -4 -8 -14 96.22 11.84
 -4 -8 -13 12.53 7.69
 -4 -8 -12 41.57 8.65
 -4 -8 -11 28.29 7.66
 -4 -8 -10 48.86 9.08
 -4 -8 -9 14.78 6.99
 -4 -8 -8 4.14 5.51
 -4 -8 -7 51.73 8.44
 -4 -8 -6 33.42 7.36
 -4 -8 -4 120.02 11.37
 -4 -8 -3 11.45 6.31
 -4 -8 -2 141.04 11.9
 -4 -8 -1 8.82 6.16
 -4 -8 0 -3.41 5.51
 -4 -8 1 6.71 5.39
 -4 -8 2 148.51 11.3
 -4 -8 3 18.18 6.12
 -4 -8 4 101.46 10.65
 -4 -8 5 14.99 5.83
 -4 -8 6 49.5 8.21
 -4 -8 7 63.25 8.84
 -4 -8 8 6.73 6.31
 -4 -8 9 7.21 5.61
 -4 -8 10 33.13 7.08
 -4 -8 11 29.6 6.48
 -4 -8 12 32 7.1
 -4 -8 14 82.19 10.37
 -4 -8 15 17.46 6.24
 -4 -8 16 31.35 7.53
 -4 -8 17 10.37 5.84
 -4 -7 -16 49.11 8.55
 -4 -7 -15 14.4 7.51
 -4 -7 -14 21.43 6.69
 -4 -7 -13 103.57 11.55
 -4 -7 -12 39.6 7.89
 -4 -7 -11 35.26 8.78
 -4 -7 -9 196.5 13.58
 -4 -7 -8 134.53 10.64
 -4 -7 -7 13.97 5.96
 -4 -7 -6 8.56 5.4
 -4 -7 -5 59.19 7.98
 -4 -7 -4 5.72 5.8
 -4 -7 -3 21.2 6.15
 -4 -7 -2 78.38 8.45
 -4 -7 -1 191.35 12.33
 -4 -7 2 56.35 8.34
 -4 -7 3 16.32 6.46
 -4 -7 4 -0.2 4.69
 -4 -7 5 49.68 7.47
 -4 -7 6 13.13 5.29
 -4 -7 7 14.36 6.16
 -4 -7 8 136.78 10.52
 -4 -6 -17 39.39 8.73
 -4 -6 -16 -1.23 4.97
 -4 -6 -15 63.81 9.01
 -4 -6 -14 87.65 10.54
 -4 -6 -11 63.99 9.46
 -4 -6 -10 243.8 13.7
 -4 -6 -9 10.2 4.66
 -4 -6 -8 100.87 9.53
 -4 -6 -7 40.24 7.28
 -4 -6 -6 7.75 4.6
 -4 -6 -5 28.12 5.96
 -4 -6 -4 5.17 4.71
 -4 -6 -2 3.42 5.03
 -4 -6 -1 7.18 4.2
 -4 -6 0 7.64 4.68
 -4 -6 1 7.42 4.37
 -4 -6 2 11.21 4.65
 -4 -6 3 212.21 11.65
 -4 -6 4 8.54 4.36
 -4 -5 -17 26.83 7.07
 -4 -5 -16 44.79 8.23
 -4 -5 -15 1.92 5.27
 -4 -5 -14 10.37 5.17
 -4 -5 -13 101.66 9.55
 -4 -5 -11 5.47 4.52
 -4 -5 -10 27.64 5.64
 -4 -5 -9 213.18 11.63
 -4 -5 -8 25.06 5.59
 -4 -5 -6 101.85 8.34
 -4 -5 -3 65.9 6.91
 -4 -5 -1 337.65 13.6
 -4 -5 0 -2.08 4.2
 -4 -5 1 269.88 12
 -4 -4 -16 45.88 6.9
 -4 -4 -15 226.51 12.2
 -4 -4 -14 95.38 9.06
 -4 -4 -13 9.84 4.65
 -4 -4 -12 35.99 6.03
 -4 -4 -11 195.46 10.76
 -4 -4 -10 94.67 8.25
 -4 -4 -9 73.84 6.96
 -4 -4 -8 66.39 7.18
 -4 -4 -7 210.78 10.38
 -4 -4 -6 399.75 14.03
 -4 -4 -5 74.96 7.35
 -4 -4 -4 3.09 3.46
 -4 -4 -2 6.6 4.23
 -4 -4 -1 30.72 5.33
 -4 -4 0 15.09 4.09
 -4 -3 -16 15.52 5.07
 -4 -3 -15 16.74 4.55
 -4 -3 -13 80.1 7.16
 -4 -3 -12 274.8 11.72
 -4 -3 -11 16.81 4.84
 -4 -3 -10 299.63 11.84
 -4 -3 -8 40.76 5.38
 -4 -3 -7 368.97 12.48
 -4 -3 -6 290.66 11.18
 -4 -3 -5 139.86 8.06
 -4 -3 -4 238.02 10.46
 -4 -3 -3 76.57 6.46
 -4 -3 -2 174.59 8.73
 -4 -2 -15 212.92 10.15
 -4 -2 -14 147.18 8.51
 -4 -2 -12 22.19 4.58
 -4 -2 -11 75.55 6.21
 -4 -2 -10 101.48 6.6
 -4 -1 -8 1097.72 17.6
 -4 -1 -7 375.64 10.59
 -4 -1 -6 460.44 11.75
 -4 -1 -5 130.1 6.51
 -4 -1 -4 306.78 9.75
 -4 0 -13 0.81 2.32
 -4 0 -12 22.34 3.24
 -4 0 -11 338.6 9.04
 -4 0 -10 7.5 2.51
 -4 0 -9 967.01 14.6
 -4 0 -8 692.33 12.31
 -4 0 -6 456.03 10.31
 -4 0 -5 29.34 3.4
 -4 1 -11 25.19 2.52
 -4 1 -10 91.55 4.04
 -4 1 -9 248.49 6.27
 -4 1 -8 1061.24 12.53
 -4 1 -7 384.38 7.86
 -4 1 -6 457.78 8.9
 -4 1 -5 134.86 5.13
 -4 2 -6 555.39 7.35
 -4 2 -5 52.38 2.85
 -4 3 -5 139.56 2.31
 -3 -11 -2 19.67 7.84
 -3 -11 -1 110.51 10.98
 -3 -11 0 8.44 7.32
 -3 -11 1 91.82 10.85
 -3 -11 2 11.83 6.04
 -3 -11 3 37.24 7.64
 -3 -11 4 -3.05 5.93
 -3 -11 5 1.22 5.78
 -3 -11 6 0.57 5.65
 -3 -10 -9 4.94 6.31
 -3 -10 -8 -0.21 5.75
 -3 -10 -7 9.35 6.26
 -3 -10 -6 10.92 7.01
 -3 -10 -5 11.74 7.53
 -3 -10 -4 172.08 13.28
 -3 -10 -3 5.7 5.69
 -3 -10 -2 77.11 11.03
 -3 -10 -1 8.94 6.03
 -3 -10 0 49.98 8.77
 -3 -10 1 14.24 6.25
 -3 -10 2 71.23 9.21
 -3 -10 3 7.9 5.51
 -3 -10 4 142.07 11.73
 -3 -10 5 29.17 6.82
 -3 -10 6 5.79 5.02
 -3 -10 7 19.64 6.07
 -3 -10 8 4.51 5.22
 -3 -10 9 7.62 4.96
 -3 -10 10 14.79 5.65
 -3 -10 11 68.33 8.64
 -3 -10 12 13.68 5.84
 -3 -9 -14 5.64 7.11
 -3 -9 -13 102.03 12.33
 -3 -9 -12 18.72 8
 -3 -9 -11 125.86 12.59
 -3 -9 -10 17.2 7.53
 -3 -9 -9 2.88 5.91
 -3 -9 -7 33.68 8.04
 -3 -9 -6 31.37 8.07
 -3 -9 -5 55.18 9.63
 -3 -9 -4 23.39 7.38
 -3 -9 -3 33.58 8.08
 -3 -9 -2 23.9 6.76
 -3 -9 -1 128.97 10.48
 -3 -9 0 11.29 5.25
 -3 -9 2 25.92 7.08
 -3 -9 3 42.51 7.59
 -3 -9 5 52.16 7.8
 -3 -9 6 27.56 7.11
 -3 -9 7 31.85 7.09
 -3 -9 8 78.65 9.31
 -3 -9 9 4.42 5
 -3 -9 10 9.36 5.73
 -3 -9 11 92.91 9.71
 -3 -9 12 24.03 6.19
 -3 -9 13 74.27 9.04
 -3 -9 14 1.27 4.16
 -3 -9 15 16.02 5.6
 -3 -8 -14 5.44 7.22
 -3 -8 -13 48.28 8.96
 -3 -8 -12 1.28 5.52
 -3 -8 -10 47.93 9
 -3 -8 -9 47.39 8.23
 -3 -8 -8 66.21 9.12
 -3 -8 -6 94.08 9.86
 -3 -8 -4 118.4 10.28
 -3 -8 -2 13 5.25
 -3 -8 -1 9.35 4.86
 -3 -8 0 25.68 5.79
 -3 -8 1 2.99 4.36
 -3 -8 2 10.39 4.96
 -3 -8 3 150.28 10.72
 -3 -8 4 120.52 10.12
 -3 -8 5 26.84 6.43
 -3 -8 6 112.63 9.23
 -3 -8 7 75.56 9.23
 -3 -8 8 66.96 8.46
 -3 -8 10 36.2 6.94
 -3 -8 11 64.18 8.32
 -3 -8 12 2.15 4.5
 -3 -8 14 4.34 5.18
 -3 -8 15 88.07 9.02
 -3 -8 16 8.1 5.2
 -3 -8 17 85.18 8.96
 -3 -8 18 12.8 5.76
 -3 -7 -15 27.66 7.46
 -3 -7 -14 4.33 5.16
 -3 -7 -12 -0.31 4.23
 -3 -7 -10 17.31 5.83
 -3 -7 -9 64.65 9.34
 -3 -7 -8 19.99 5.5
 -3 -7 -6 63.06 7.71
 -3 -7 -5 101.73 9.24
 -3 -7 -4 11.53 4.55
 -3 -7 -3 216.41 11.74
 -3 -7 -2 69.49 8.52
 -3 -7 -1 101.64 8.38
 -3 -7 0 19.66 5.21
 -3 -7 1 105.42 9.15
 -3 -7 2 65.25 7.77
 -3 -7 3 226.93 11.85
 -3 -7 4 11.04 4.72
 -3 -7 6 45.31 6.72
 -3 -7 7 56.3 7.62
 -3 -7 8 18.48 5.19
 -3 -7 9 65.62 8.7
 -3 -6 -16 4.15 5.08
 -3 -6 -15 142.86 11.25
 -3 -6 -14 38.43 7.84
 -3 -6 -12 90.27 9.46
 -3 -6 -11 21.28 6.3
 -3 -6 -10 24.71 5.82
 -3 -6 -8 300.24 13.58
 -3 -6 -7 196.3 11.28
 -3 -6 -6 104.14 8.28
 -3 -6 -5 44.34 6.21
 -3 -6 -4 65.07 7.26
 -3 -6 -3 343.84 13.85
 -3 -6 -2 40.88 6.04
 -3 -6 -1 13.29 4.28
 -3 -6 0 31.72 6.03
 -3 -6 1 7 3.6
 -3 -6 2 31.16 6.01
 -3 -6 3 329.48 13
 -3 -6 4 53.44 6.65
 -3 -6 5 43.01 6.53
 -3 -5 -16 10.42 5.13
 -3 -5 -15 48.22 6.98
 -3 -5 -14 85.93 8.1
 -3 -5 -13 18.2 5.17
 -3 -5 -12 209.11 11.36
 -3 -5 -11 38.4 6.26
 -3 -5 -9 47.06 6.41
 -3 -5 -7 59.37 6.26
 -3 -5 -6 102.5 7.8
 -3 -5 -5 156.9 9.19
 -3 -5 -4 1.76 3.23
 -3 -5 -3 83.91 6.93
 -3 -5 -2 49.45 5.93
 -3 -5 0 38.85 5.41
 -3 -5 1 76.01 6.45
 -3 -4 -15 47.92 6.9
 -3 -4 -14 84.51 7.91
 -3 -4 -13 24.47 5.03
 -3 -4 -12 184.91 10.11
 -3 -4 -11 47.75 6.7
 -3 -4 -10 204.18 10.02
 -3 -4 -9 9.1 4.09
 -3 -4 -8 684.36 16.82
 -3 -4 -7 98.72 7.29
 -3 -4 -6 183.33 8.97
 -3 -4 -5 338.84 11.73
 -3 -4 -4 252.02 10.31
 -3 -4 -3 186.42 8.66
 -3 -3 -15 82.95 7.12
 -3 -3 -13 0.95 3.09
 -3 -3 -12 236.53 10.46
 -3 -3 -11 49.18 5.88
 -3 -3 -10 43.69 5.26
 -3 -2 -14 69.91 5.89
 -3 -2 -13 13.36 3.46
 -3 -2 -8 544.94 12.68
 -3 -2 -7 357.99 10.31
 -3 -2 -6 247.97 8.71
 -3 -2 -5 305.3 9.4
 -3 -2 -4 262.3 8.64
 -3 -2 -3 425.99 10.75
 -3 -1 -12 140.81 6.56
 -3 -1 -11 108.4 6.1
 -3 -1 -10 37.49 4.16
 -3 -1 -7 506.34 10.81
 -3 -1 -6 132.16 5.89
 -3 -1 -5 40.63 3.49
 -3 -1 -4 341.71 8.82
 -3 0 -11 46.51 3.63
 -3 0 -10 49.85 3.71
 -3 0 -9 58.22 3.66
 -3 0 -7 5.02 1.92
 -3 0 -6 213.42 6.22
 -3 0 -5 64.43 3.86
 -3 0 -4 896.54 12.36
 -3 1 -9 255.32 5.54
 -3 1 -8 198.81 4.86
 -3 1 -7 506.56 7.39
 -3 1 -5 41.54 2.59
 -3 2 -6 244.92 3.06
 -3 2 -5 301.8 4.13
 -3 3 -3 80.22 2.38
 -3 4 -3 216.7 3.56
 -2 -11 -7 6.36 6.19
 -2 -11 -5 -1.46 5.26
 -2 -11 -3 40.01 7.83
 -2 -11 -1 7.69 6.23
 -2 -11 0 3.5 4.99
 -2 -11 2 44.72 8.03
 -2 -11 4 36.44 7.24
 -2 -11 5 6.79 4.72
 -2 -11 6 82.31 8.8
 -2 -10 -10 78.55 11.1
 -2 -10 -9 33.75 8.04
 -2 -10 -8 58.87 9.1
 -2 -10 -7 43.1 8.16
 -2 -10 -6 62.05 9.75
 -2 -10 -5 78.03 10.05
 -2 -10 -4 29.05 6.91
 -2 -10 -3 40.02 8.16
 -2 -10 -2 49.67 8.31
 -2 -10 -1 39.1 7.39
 -2 -10 0 -0.7 5.45
 -2 -10 2 49.51 8.1
 -2 -10 4 22.46 5.64
 -2 -10 5 66.12 8.55
 -2 -10 6 77.85 8.59
 -2 -10 7 48.22 7.23
 -2 -10 8 59.49 7.62
 -2 -10 9 34.15 5.93
 -2 -9 -12 21.23 7.39
 -2 -9 -11 32.9 8.22
 -2 -9 -9 138.62 12.17
 -2 -9 -8 25.37 7.36
 -2 -9 -7 23.34 7.42
 -2 -9 -6 6.47 5.99
 -2 -9 -5 34.12 7.35
 -2 -9 -4 12.51 5.35
 -2 -9 -3 18.26 5.93
 -2 -9 -2 101.17 9.14
 -2 -9 -1 96.39 9.07
 -2 -9 0 56.18 7.93
 -2 -9 1 100.86 9.29
 -2 -9 2 103.07 8.66
 -2 -9 3 30.1 6.23
 -2 -9 5 45.45 6.64
 -2 -9 6 -0.06 4.56
 -2 -9 7 21.66 5.54
 -2 -9 8 21.78 5.33
 -2 -9 9 133.31 9.78
 -2 -9 10 59.42 7.93
 -2 -9 11 33.12 6.35
 -2 -9 12 43.45 6.3
 -2 -8 -13 37.61 8
 -2 -8 -11 104.13 10.03
 -2 -8 -9 35.68 7.42
 -2 -8 -7 37.21 6.96
 -2 -8 -6 -0.84 3.83
 -2 -8 -5 24.89 5.85
 -2 -8 -4 11.55 5.06
 -2 -8 -3 302.91 14.05
 -2 -8 -2 72.16 8.2
 -2 -8 -1 26.07 5.82
 -2 -8 0 13.19 4.79
 -2 -8 1 45.85 6.53
 -2 -8 2 62 7.28
 -2 -8 3 315.8 13.38
 -2 -8 4 16.99 4.95
 -2 -8 5 18.25 5.52
 -2 -8 6 3.97 4.08
 -2 -8 8 91.24 8.29
 -2 -8 9 44.59 6.53
 -2 -8 10 26.94 5.91
 -2 -8 11 86.53 7.96
 -2 -8 12 52.7 7.12
 -2 -8 14 16.26 4.76
 -2 -8 15 9.34 4.2
 -2 -7 -11 61.13 7.85
 -2 -7 -10 10.29 5.69
 -2 -7 -9 291.14 13.8
 -2 -7 -7 266.8 12.83
 -2 -7 -6 0.98 3.89
 -2 -7 -5 138.23 9.43
 -2 -7 -4 64.73 6.99
 -2 -7 -3 9.01 4.1
 -2 -7 -2 35.4 5.47
 -2 -7 -1 80.09 7.64
 -2 -7 0 -0.34 3.12
 -2 -7 1 81.18 7.68
 -2 -7 2 36.72 5.72
 -2 -7 4 65.48 6.66
 -2 -7 5 127.53 8.82
 -2 -7 6 -0.65 3.86
 -2 -7 7 271.81 11.73
 -2 -7 8 29.58 5.28
 -2 -7 10 6.99 4.49
 -2 -7 11 54.77 6.77
 -2 -6 -14 70.67 8.04
 -2 -6 -13 24.36 6.46
 -2 -6 -12 120.38 9.22
 -2 -6 -11 33.34 6.28
 -2 -6 -10 81.66 8.19
 -2 -6 -9 12.56 4.25
 -2 -6 -7 118.81 8.92
 -2 -6 -6 71.49 7.05
 -2 -6 -4 71.99 6.41
 -2 -6 -3 349.82 12.6
 -2 -6 -2 109.77 7.81
 -2 -6 -1 106.48 7.69
 -2 -6 0 11.5 4.09
 -2 -6 1 102.54 7.08
 -2 -6 2 108.32 7.39
 -2 -6 3 344.24 12.32
 -2 -6 5 90.25 7.09
 -2 -5 -14 2.41 3.89
 -2 -5 -12 155.73 9.89
 -2 -5 -11 1.97 3.37
 -2 -5 -8 29.03 4.95
 -2 -5 -6 59.5 5.75
 -2 -5 -5 79.47 6.55
 -2 -5 -3 243.12 9.8
 -2 -4 -14 362.48 13.83
 -2 -4 -13 155.16 9.39
 -2 -4 -11 96.73 7.08
 -2 -4 -10 18.22 3.99
 -2 -4 -9 3.44 3.57
 -2 -4 -2 143.93 7.06
 -2 -4 -1 277.67 9.4
 -2 -4 0 404.28 11.11
 -2 -4 1 284.15 9.46
 -2 -3 -12 17.11 3.99
 -2 -3 -7 15.32 3.07
 -2 -3 -6 510.58 11.97
 -2 -3 -5 435.88 10.99
 -2 -3 -4 31.94 4.15
 -2 -3 -3 143.15 6.56
 -2 -3 -2 220.24 7.68
 -2 -3 -1 933.43 15.16
 -2 -2 -11 85.1 5.82
 -2 -2 -10 397.57 10.85
 -2 -2 -8 399.84 10.14
 -2 -2 -6 926.7 14.28
 -2 -2 -5 83.8 4.84
 -2 -2 -3 560.14 10.95
 -2 -2 -2 850.45 13.07
 -2 -1 -11 10.17 2.77
 -2 -1 -10 201.62 6.99
 -2 -1 -9 431.15 9.63
 -2 -1 -8 50.43 3.76
 -2 -1 -7 106.11 4.66
 -2 -1 -6 1286.08 14.84
 -2 -1 -5 354.89 7.79
 -2 -1 -3 269.32 6.66
 -2 0 -9 25.39 2.65
 -2 0 -8 769.02 10.5
 -2 0 -7 0.17 1.25
 -2 0 -6 1050.07 11.19
 -2 0 -4 217.98 5.03
 -2 1 -7 99.48 2.95
 -2 1 -6 1328.65 9.43
 -2 1 -5 347.85 4.58
 -2 1 -4 129.27 2.99
 -2 3 -2 215.91 3.78
 -1 -11 -5 44.64 8.54
 -1 -11 -4 92.89 10.4
 -1 -11 -3 5.11 5.15
 -1 -11 -2 16.24 6.47
 -1 -11 -1 13.3 6.03
 -1 -11 0 7.27 5.32
 -1 -11 1 22.55 5.55
 -1 -11 2 9.68 4.22
 -1 -11 3 -2.25 2.94
 -1 -10 -6 -4.12 4.37
 -1 -10 -4 5.01 4.77
 -1 -10 -3 12.26 5.41
 -1 -10 -2 47.95 6.97
 -1 -10 0 2.34 4.23
 -1 -10 1 7.3 5.42
 -1 -10 2 66.89 8.24
 -1 -10 3 21.56 5.09
 -1 -10 5 111.08 8.46
 -1 -10 6 -2.06 2.49
 -1 -10 7 0.78 2.29
 -1 -9 -9 82.65 9.22
 -1 -9 -7 68.45 9.05
 -1 -9 -6 18.99 6.53
 -1 -9 -3 43.52 6.94
 -1 -9 -2 52.41 7.56
 -1 -9 -1 8.94 5.45
 -1 -9 0 4.37 4.06
 -1 -9 2 62.23 7.47
 -1 -9 3 43.33 6.28
 -1 -9 4 110.3 8.3
 -1 -9 5 63.09 6.63
 -1 -9 7 76.77 6.52
 -1 -9 8 65.29 6.09
 -1 -8 -10 3.6 5.7
 -1 -8 -9 161.58 11.38
 -1 -8 -7 88.2 8.94
 -1 -8 -6 24.71 5.59
 -1 -8 -5 91.71 8.4
 -1 -8 -4 60.18 7.23
 -1 -8 -3 103.46 8.24
 -1 -8 -2 155.05 9.46
 -1 -8 -1 18.25 4.61
 -1 -8 0 4.19 3.61
 -1 -8 1 19.84 4.67
 -1 -8 2 152.8 8.94
 -1 -8 3 89.55 6.99
 -1 -8 4 70.17 6.34
 -1 -8 5 86.14 6.96
 -1 -8 6 20.72 4.52
 -1 -8 7 87.05 7.01
 -1 -8 8 46.2 5.55
 -1 -8 9 162.91 8.74
 -1 -8 10 1.32 2.44
 -1 -8 11 13.18 3.69
 -1 -7 -10 96.59 9.03
 -1 -7 -9 5.96 4.23
 -1 -7 -8 52.56 6.48
 -1 -7 -7 62.88 7.15
 -1 -7 -6 21.3 5.21
 -1 -7 -5 188.94 10.05
 -1 -7 -4 11.3 4.48
 -1 -7 -3 8.97 3.65
 -1 -7 -1 45.91 5.84
 -1 -7 0 47.28 5.37
 -1 -7 2 36.19 4.89
 -1 -7 3 8.13 3.62
 -1 -7 4 16.45 4.15
 -1 -7 5 177.8 8.53
 -1 -7 6 13.71 3.83
 -1 -7 7 77.53 6.32
 -1 -7 8 36.14 4.97
 -1 -7 9 6.66 3.07
 -1 -7 10 83.28 6.01
 -1 -7 11 71.26 6.12
 -1 -7 12 225.04 9.45
 -1 -7 13 91.69 6.51
 -1 -6 -11 171.14 10.29
 -1 -6 -10 11.63 4.16
 -1 -6 -9 56.38 6.43
 -1 -6 -8 176.05 9.51
 -1 -6 -7 241.4 11.15
 -1 -6 -4 237.82 10.24
 -1 -6 -3 250.52 10.25
 -1 -6 -2 327.67 11.27
 -1 -5 -12 85.09 7.05
 -1 -5 -10 83.01 7
 -1 -5 -9 541.32 15.07
 -1 -5 -8 198.05 9.32
 -1 -5 -1 298.25 9.62
 -1 -5 0 83.55 5.82
 -1 -5 1 301.12 9.49
 -1 -5 2 119.37 6.41
 -1 -5 3 297.85 9.32
 -1 -5 4 35.11 4.29
 -1 -4 -11 350.62 11.97
 -1 -4 -6 828.94 16.07
 -1 -4 -5 11.67 2.85
 -1 -4 -3 865.66 14.9
 -1 -4 -2 246.84 8.27
 -1 -4 -1 406.22 10.04
 -1 -4 0 1475.5 18.77
 -1 -4 1 411.36 9.85
 -1 -4 2 247.5 7.8
 -1 -3 -9 930.2 16.5
 -1 -3 -7 39.72 4.02
 -1 -3 -6 59.6 4.34
 -1 -3 -5 109.47 5.27
 -1 -3 -4 969.95 14.3
 -1 -3 -3 388.86 9.03
 -1 -3 -2 453.2 9.77
 -1 -3 -1 1320.47 15.77
 -1 -3 1 1350.61 15.88
 -1 -2 -10 265.51 8.54
 -1 -2 -9 606.53 12.23
 -1 -2 -8 126 5.57
 -1 -2 -7 891.44 13.77
 -1 -2 -6 1376.8 16.37
 -1 -2 -4 291.26 7.03
 -1 -2 -3 1259.33 14.03
 -1 -2 -1 636.33 9.72
 -1 -1 -8 182.71 6.01
 -1 -1 -7 940.34 12.14
 -1 -1 -6 1639.99 15.26
 -1 -1 -5 2216.24 16.78
 -1 -1 -4 14.01 2.23
 -1 -1 -3 307.06 5.81
 -1 -1 -2 982.01 9.99
 -1 0 -6 6109.9 24.23
 -1 0 -5 1080.22 9.4
 -1 0 -3 912.67 7.3
 -1 0 -2 574.28 5.64
 -1 2 0 9062.86 24.54
 0 -10 -2 94.75 8.54
 0 -10 -1 29.33 5.53
 0 -10 0 -3.48 3.32
 0 -10 1 32.89 5.64
 0 -10 3 -0.89 2.4
 0 -9 -5 1.06 4.47
 0 -9 -4 29.31 5.81
 0 -9 -3 12.63 5.26
 0 -9 -2 43.94 6.03
 0 -9 -1 70.86 7.33
 0 -9 1 68.21 6.76
 0 -9 2 53.4 5.9
 0 -9 3 8.35 3.44
 0 -9 4 32.29 5.06
 0 -9 5 -1.79 1.81
 0 -9 7 -0.77 1.39
 0 -8 -5 271.29 12.46
 0 -8 -4 45.58 5.98
 0 -8 -3 90.35 7.25
 0 -8 -2 5.11 3.39
 0 -8 -1 102.36 7.78
 0 -8 1 94.51 7.01
 0 -8 2 3.22 2.92
 0 -8 3 91.11 6.48
 0 -8 4 42.26 5.13
 0 -8 5 255.19 9.57
 0 -8 6 14.37 3.07
 0 -7 -7 63.88 7.14
 0 -7 -6 9.35 3.95
 0 -7 -4 31.06 4.87
 0 -7 -2 172.89 8.75
 0 -7 -1 106.07 7.19
 0 -6 -7 132.56 7.9
 0 -6 -6 412.8 13.02
 0 -6 1 453.2 11.35
 0 -6 2 319.72 9.46
 0 -6 3 14.58 3.24
 0 -6 4 342.91 9.5
 0 -6 5 38.84 4
 0 -6 6 425 10.28
 0 -6 7 137.19 6.03
 0 -6 9 303.41 8.64
 0 -6 10 9.82 2.52
 0 -6 11 5.9 2.2
 0 -5 -8 45.78 5.07
 0 -5 -4 82.79 5.42
 0 -5 -3 340.77 9.96
 0 -5 -2 2.14 2.07
 0 -5 1 321.82 8.7
 0 -5 2 4.2 2.05
 0 -5 3 331.47 8.4
 0 -5 4 95.08 4.78
 0 -5 5 416.78 9.26
 0 -5 6 10.35 2.18
 0 -5 7 51.11 3.74
 0 -5 8 48.88 3.71
 0 -4 -7 326.24 9.98
 0 -4 -6 109.93 5.9
 0 -4 -5 221.27 7.74
 0 -4 -4 178.86 7.04
 0 -4 -3 946.38 14.82
 0 -4 -2 1890.94 19.7
 0 -4 -1 1144.53 14.81
 0 -4 0 173.4 5.88
 0 -4 1 1130.97 14
 0 -4 2 1855.39 17.55
 0 -4 3 928.72 12.33
 0 -4 4 172.16 5.44
 0 -4 5 213.86 6.02
 0 -3 -7 319.69 9.11
 0 -3 -6 62.6 4.27
 0 -3 -5 577.18 11.04
 0 -3 -3 1465.16 15.85
 0 -3 -2 1.66 1.65
 0 -3 -1 426.68 8.06
 0 -3 1 418.11 7.54
 0 -3 2 2.91 1.72
 0 -3 3 1434.03 13.01
 0 -2 -5 957.81 12.52
 0 -2 -4 1774.36 15.67
 0 -2 -3 3619.65 21.21
 0 -2 -2 1945.86 14.58
 0 -2 -1 3794.12 18.86
 0 -2 0 9999 29.24
 0 -2 1 3805.63 17.32
 0 -1 -3 800.68 8.24
 0 -1 -2 0.18 1.08
 0 -1 -1 262.18 3.78
 0 1 1 275.78 3.93
 0 1 2 0.08 1.53
 1 -8 1 19.58 3.8
 1 -8 2 143.92 7.11
 1 -7 2 37.31 3.9
 1 -7 3 13.12 2.59
 1 -7 4 9.07 2.3
 1 -6 -1 123.35 6.42
 1 -6 0 459.36 10.82
 1 -6 1 126.23 5.77
 1 -6 2 315.18 8.33
 1 -6 6 100.33 4.26
 1 -6 7 246.17 6.08
 1 -5 -1 302.92 8.21
 1 -5 0 76.67 4.41
 1 -5 1 317.2 7.65
 1 -5 6 81.51 3.25
 1 -5 7 21.68 1.86
 1 -5 8 181.04 4.45
 1 -5 9 527.46 7.4
 1 -5 10 84.62 3.1
 1 -5 11 143.99 3.96
 1 -4 -1 404.82 8.4
 1 -4 0 1417.46 14.5
 1 -4 1 409.48 7.46
 1 -4 4 315.53 5.5
 1 -4 5 9.03 1.25
 1 -4 6 822.05 8.16
 1 -4 7 177.05 3.84
 1 -4 8 220.68 4.32
 1 -4 9 166.05 3.87
 1 -3 0 118.41 3.8
 1 -3 3 364.6 4.84
 1 -3 4 937.83 6.91
 1 -3 5 106.4 2.33
 1 -3 6 57.21 1.79
 1 -1 6 1655.56 9.97
 1 0 3 946.31 7.44
 1 0 4 352.64 5.11
 2 -2 10 389.66 4.96
 -8 -4 1 4.47 8.71
 -8 -4 2 24.91 9.43
 -8 -4 4 38.67 10.34
 -8 -3 2 206.58 14.95
 -8 -3 3 9.54 7.21
 -8 -3 5 9.27 7.51
 -8 -3 7 161.02 14.29
 -8 -3 8 -2.07 6.02
 -8 -3 9 5.63 6.99
 -8 -2 3 25.13 7.86
 -8 -2 4 7.21 7.73
 -8 -2 5 28.93 7.64
 -8 -2 6 1.55 7.23
 -8 -2 7 9.37 6.5
 -8 -2 9 67.62 10.55
 -8 -2 10 -0.34 5.45
 -8 -2 11 6.74 6.18
 -8 -2 12 16.63 7.58
 -8 -1 4 15.39 7.14
 -8 -1 5 9.12 5.89
 -8 -1 6 25.56 7.6
 -8 -1 7 11.95 6.91
 -8 -1 8 9.19 6.35
 -8 -1 9 6.77 6.01
 -8 -1 10 96.63 10.43
 -8 -1 11 15.98 6.46
 -8 -1 12 5.38 5.26
 -8 -1 13 39.19 7.71
 -8 0 4 10.9 6.79
 -8 0 5 8.35 6.8
 -8 0 6 -2.68 5.69
 -8 0 7 3.61 6.39
 -8 0 9 11.98 6.41
 -8 0 10 42.28 7.17
 -8 1 4 12.08 5.59
 -8 1 5 7.76 5.17
 -8 1 6 18.59 6.16
 -7 -6 -1 4.54 8
 -7 -6 0 129.18 13.76
 -7 -6 1 14.55 7.87
 -7 -6 2 -5.19 6.17
 -7 -6 3 8.33 7.02
 -7 -6 4 12.06 7
 -7 -6 5 38.56 8.92
 -7 -6 6 44.2 9.65
 -7 -6 7 13.71 7.62
 -7 -6 8 7.43 8.3
 -7 -5 3 2.91 6.88
 -7 -5 4 51.62 9.25
 -7 -5 5 77.57 10.76
 -7 -5 6 -1.88 5.52
 -7 -5 7 8.58 7.37
 -7 -5 8 7.15 6.93
 -7 -5 9 13.04 7.12
 -7 -5 10 7.59 7.36
 -7 -5 11 27.56 8.7
 -7 -5 12 57.27 10.48
 -7 -4 2 88.34 11.46
 -7 -4 3 20.32 8.58
 -7 -4 4 16.56 7.1
 -7 -4 5 0.95 5.58
 -7 -4 6 -1.3 7.06
 -7 -4 7 17.01 7.07
 -7 -4 9 13.74 7.14
 -7 -4 10 55.9 10.15
 -7 -4 11 21.11 7.59
 -7 -4 12 84.34 12
 -7 -4 13 55.54 9.61
 -7 -3 4 1.76 5.42
 -7 -3 5 39.8 8.19
 -7 -3 7 101.48 10.44
 -7 -3 8 43.28 9.27
 -7 -3 10 -2.96 5.28
 -7 -3 11 9 7.73
 -7 -3 12 28.23 8.18
 -7 -3 13 30.27 7.63
 -7 -3 14 181.01 13.76
 -7 -3 15 79.02 11.25
 -7 -3 16 15.12 7.26
 -7 -2 4 8.83 5.87
 -7 -2 5 -2.27 4.8
 -7 -2 6 16.68 7.45
 -7 -2 7 32.73 7.8
 -7 -2 8 17.62 6.61
 -7 -2 9 30.95 7.22
 -7 -2 10 4.2 5.39
 -7 -2 11 34.35 7.45
 -7 -2 13 18.94 6.95
 -7 -2 14 19.87 7.4
 -7 -2 15 43.15 9.03
 -7 -2 16 19.62 7.55
 -7 -2 17 70.05 10.49
 -7 -2 18 46.3 9.51
 -7 -1 5 45.76 8.18
 -7 -1 6 21.78 6.79
 -7 -1 7 7.37 6.19
 -7 -1 8 5.3 6.43
 -7 -1 9 63.62 9.22
 -7 -1 10 10.38 5.79
 -7 -1 11 6.47 5.23
 -7 -1 12 9.99 5.44
 -7 -1 13 141.78 11.36
 -7 -1 15 6.81 6.63
 -7 -1 16 10.37 6.29
 -7 0 5 15.83 6.13
 -7 0 6 5.63 4.76
 -7 0 7 8.72 5.19
 -7 0 8 16.3 6.43
 -7 0 9 17.76 5.47
 -7 0 10 2.27 4.83
 -7 0 11 8.93 5.16
 -7 0 12 1.83 4.75
 -7 0 14 85.71 8.82
 -7 1 5 28.99 6.25
 -7 1 6 35.62 6.55
 -7 1 7 2.06 4.18
 -7 1 8 12.93 5.63
 -7 1 10 18.39 5.33
 -7 1 11 2.27 4.2
 -7 2 5 6.19 4.21
 -7 2 6 24.46 5.16
 -6 -8 -7 11.66 7.88
 -6 -8 -6 105.9 11.91
 -6 -8 -5 20.37 7.77
 -6 -8 -4 18.68 8.46
 -6 -8 -3 21.14 7.43
 -6 -8 -2 39.66 8.9
 -6 -8 -1 61.92 10.24
 -6 -8 0 21.07 7.38
 -6 -8 1 56.95 10.08
 -6 -8 3 12.42 7.18
 -6 -8 4 13.9 6.78
 -6 -8 5 14.77 7.13
 -6 -8 6 86 11.54
 -6 -8 7 10.07 7.38
 -6 -7 -3 -1.72 5.44
 -6 -7 -2 9.63 7.92
 -6 -7 0 -2.88 5.27
 -6 -7 1 79.36 10.45
 -6 -7 2 14.15 6.53
 -6 -7 4 91.25 11.28
 -6 -7 5 78.57 10.18
 -6 -7 6 -1.33 5.59
 -6 -7 7 18.19 6.89
 -6 -7 8 3.15 5.99
 -6 -7 9 21.26 7.59
 -6 -7 10 33.57 8.9
 -6 -7 11 140.16 14.08
 -6 -6 0 5.36 7.22
 -6 -6 1 153.66 13.28
 -6 -6 2 -0.35 6.86
 -6 -6 3 29.01 7.56
 -6 -6 5 61.09 9.04
 -6 -6 6 17.18 6.94
 -6 -6 7 7.4 7.79
 -6 -6 8 2.64 5.77
 -6 -6 9 22.51 7.25
 -6 -6 10 38.04 9.15
 -6 -6 11 24.37 8.19
 -6 -6 12 17.74 7.28
 -6 -6 13 98.5 11.87
 -6 -5 3 -0.06 4.85
 -6 -5 4 -1.78 4.92
 -6 -5 6 44.52 8.22
 -6 -5 8 32.67 7.51
 -6 -5 9 55.7 9.65
 -6 -5 10 56.86 9.07
 -6 -5 11 49.84 9.64
 -6 -5 12 38.09 8
 -6 -5 13 -0.56 5.64
 -6 -5 14 11.46 6.87
 -6 -5 16 113.06 12.73
 -6 -5 17 0.68 6.32
 -6 -4 3 43.96 8.2
 -6 -4 5 88.43 10.19
 -6 -4 6 21.75 6.29
 -6 -4 7 158.66 12.25
 -6 -4 8 31.18 8.01
 -6 -4 9 39.94 7.68
 -6 -4 10 27.61 7.49
 -6 -4 11 25.24 7.68
 -6 -4 12 28.47 7.32
 -6 -4 13 34.9 8.2
 -6 -4 14 23.14 7.95
 -6 -4 15 38.3 7.73
 -6 -4 16 2.21 6.59
 -6 -4 17 44.94 9.5
 -6 -4 18 73.93 10.44
 -6 -4 19 17.29 8.83
 -6 -3 4 16.86 5.63
 -6 -3 5 213.81 13.05
 -6 -3 6 10.09 6.1
 -6 -3 7 17.11 7.04
 -6 -3 8 28.31 7.1
 -6 -3 9 29.4 6.64
 -6 -3 10 41.06 7.34
 -6 -3 11 1.92 4.7
 -6 -3 13 7.69 6.18
 -6 -3 14 147.87 12.31
 -6 -3 15 95.95 11.14
 -6 -3 16 14.91 6.54
 -6 -3 17 10.55 6.06
 -6 -3 18 16.75 6.86
 -6 -3 20 55.81 10.14
 -6 -2 6 14.75 6.11
 -6 -2 7 -4.99 4.39
 -6 -2 8 131.07 10.31
 -6 -2 9 12.6 4.99
 -6 -2 10 40.5 7.01
 -6 -2 12 36.03 7.06
 -6 -2 15 4.73 6.19
 -6 -2 16 5.27 6.33
 -6 -2 17 -0.47 6.07
 -6 -2 18 17.6 7.53
 -6 -2 19 -0.37 5.6
 -6 -1 7 13.63 5.74
 -6 -1 8 2.31 4.22
 -6 -1 9 48.6 7.32
 -6 -1 10 13.84 5.46
 -6 -1 11 9.76 4.83
 -6 -1 12 78.27 8.97
 -6 -1 13 19.08 5.54
 -6 -1 14 174.57 11.41
 -6 -1 15 39.99 7.78
 -6 -1 17 70.24 8.63
 -6 -1 18 23.34 6.2
 -6 -1 19 31.61 7.19
 -6 -1 20 21.47 6.78
 -6 0 7 65 6.9
 -6 0 9 49.5 7.33
 -6 0 10 33.35 5.96
 -6 0 11 11.28 4.45
 -6 0 13 141.71 9.9
 -6 0 14 26.92 5.61
 -6 0 15 100.83 9.09
 -6 0 16 33.33 5.99
 -6 0 17 11.14 5.5
 -6 0 18 77.44 8.29
 -6 1 6 9.57 4.85
 -6 1 8 6.25 4.09
 -6 1 9 43.04 5.83
 -6 1 10 10.71 3.92
 -6 1 11 13.3 4.2
 -6 1 12 78.35 7.42
 -6 1 13 10.35 4.21
 -6 1 14 182.15 9.88
 -6 1 15 30.1 5.59
 -6 2 6 8.82 3.62
 -6 2 7 -1.42 3.51
 -6 2 9 13.4 3.78
 -6 2 10 26.66 4.7
 -6 2 11 131.67 7.83
 -6 3 5 183.33 8.65
 -5 -9 -9 2.59 4.19
 -5 -9 -8 -3.4 3.93
 -5 -9 -7 -0.84 4.42
 -5 -9 -6 16.56 6.51
 -5 -9 -4 2.55 6.06
 -5 -9 -3 53.2 8.47
 -5 -9 -2 30.63 7.94
 -5 -9 -1 63.75 8.86
 -5 -9 0 10.17 6.96
 -5 -9 1 69.66 9.68
 -5 -9 2 41.58 7.94
 -5 -9 4 2.87 6.42
 -5 -9 6 16.03 6.66
 -5 -9 7 1.24 5.46
 -5 -9 8 4.79 6.59
 -5 -8 -6 8.06 5.48
 -5 -8 -5 46.89 9.09
 -5 -8 -4 62.24 8.95
 -5 -8 -3 1.58 5.52
 -5 -8 -2 -2.72 5.62
 -5 -8 -1 23.21 6.48
 -5 -8 0 117.55 10.39
 -5 -8 1 25.6 6.47
 -5 -8 2 8.16 6.18
 -5 -8 3 -2.62 6.12
 -5 -8 4 66.71 9.77
 -5 -8 6 12.04 7.46
 -5 -8 7 13.96 7.57
 -5 -8 8 1.93 7.02
 -5 -8 9 3.39 7.21
 -5 -8 11 16.29 7.59
 -5 -8 12 29.81 8.17
 -5 -7 -1 154.5 12.28
 -5 -7 0 8.3 5.97
 -5 -7 1 171.24 12.35
 -5 -7 2 59.31 8.59
 -5 -7 3 118.08 10.41
 -5 -7 4 68.07 9.23
 -5 -7 5 68.42 9.23
 -5 -7 6 40.37 8.63
 -5 -7 7 25.47 8.03
 -5 -7 8 28.04 7.19
 -5 -7 10 29.32 7.52
 -5 -7 11 7.75 6.64
 -5 -7 12 5.8 6.5
 -5 -7 13 20.2 7.3
 -5 -7 14 22.97 7.63
 -5 -7 15 0.13 6.7
 -5 -7 16 10.55 8.51
 -5 -6 1 9.05 5.25
 -5 -6 2 28.97 6.45
 -5 -6 3 1.75 5.52
 -5 -6 4 2.21 4.68
 -5 -6 5 111.77 9.85
 -5 -6 6 280.53 15.09
 -5 -6 7 3.09 4.81
 -5 -6 8 5.11 5.8
 -5 -6 10 15.47 6.15
 -5 -6 11 43.04 8.91
 -5 -6 12 58.06 9.06
 -5 -6 13 8.84 6.63
 -5 -6 14 64.46 9.44
 -5 -6 15 62.19 9.51
 -5 -6 16 194.75 14.72
 -5 -6 17 31.7 8.11
 -5 -6 18 46.06 9.7
 -5 -5 3 18.23 5.54
 -5 -5 4 107.81 9.47
 -5 -5 6 6.48 4.47
 -5 -5 7 36.49 7.35
 -5 -5 8 23.29 6.31
 -5 -5 10 137.03 11.42
 -5 -5 11 40.01 7.44
 -5 -5 12 11.64 5.93
 -5 -5 13 7.86 5.96
 -5 -5 14 99.12 10.18
 -5 -5 15 39.56 8.85
 -5 -5 16 44.92 8.37
 -5 -5 17 56.18 9.98
 -5 -5 18 65.56 9.75
 -5 -5 19 -8.49 6.4
 -5 -5 20 4.95 6.36
 -5 -4 4 20.54 5.33
 -5 -4 5 17.32 5.16
 -5 -4 7 21.37 5.66
 -5 -4 8 88.67 9.3
 -5 -4 9 14.14 6.15
 -5 -4 11 15.26 5.5
 -5 -4 12 81.91 8.61
 -5 -4 14 40.22 8.11
 -5 -4 15 19.65 6.13
 -5 -4 16 151.8 11.6
 -5 -4 18 13.1 6.48
 -5 -4 19 26.28 7.18
 -5 -4 21 95.62 10.86
 -5 -4 22 11.38 7.39
 -5 -3 6 34.38 5.99
 -5 -3 7 15.15 4.89
 -5 -3 8 150.44 10.37
 -5 -3 10 112.44 9.77
 -5 -3 12 7.02 4.84
 -5 -3 13 10.4 5.2
 -5 -3 14 14.06 5.65
 -5 -3 15 64.53 8.98
 -5 -3 16 22.46 7.3
 -5 -3 17 23 6.89
 -5 -3 18 34.57 7.56
 -5 -3 19 2.19 5.33
 -5 -3 20 13.72 6.39
 -5 -3 21 -0.79 6.37
 -5 -3 22 65.92 9.78
 -5 -3 23 7.94 6.17
 -5 -2 7 65.44 7.32
 -5 -2 9 105.81 8.27
 -5 -2 10 102.03 8.84
 -5 -2 11 83.18 7.66
 -5 -2 12 19.14 5.04
 -5 -2 13 128.06 10.09
 -5 -2 15 133.28 10.36
 -5 -2 16 3.25 4.32
 -5 -2 17 187.33 11.55
 -5 -2 19 103.16 9.64
 -5 -2 20 25.06 6.67
 -5 -2 22 82.27 10.36
 -5 -2 23 10.44 6.71
 -5 -2 24 16.28 6.44
 -5 -1 7 181.08 9.81
 -5 -1 8 270.31 11.86
 -5 -1 9 39.5 6.76
 -5 -1 10 45.3 5.93
 -5 -1 11 2.61 3.43
 -5 -1 12 6.79 4.88
 -5 -1 13 12.27 4.48
 -5 -1 14 48.84 7.16
 -5 -1 17 0.98 5.19
 -5 -1 18 56.39 7.96
 -5 -1 20 147.5 10.59
 -5 -1 21 17 5.76
 -5 -1 22 19.43 5.87
 -5 -1 23 26.24 6.36
 -5 0 8 114.58 8.12
 -5 0 9 99.61 7.53
 -5 0 10 133.87 8.37
 -5 0 11 70.34 6.57
 -5 0 12 -1.01 3.14
 -5 0 14 599.4 16.75
 -5 0 15 296.63 12.34
 -5 0 17 33.21 6.1
 -5 0 18 250.76 12.01
 -5 0 19 -0.62 3.74
 -5 0 20 8.15 4.88
 -5 0 21 4.31 5.2
 -5 1 10 35.43 4.75
 -5 1 11 5.56 3.64
 -5 1 12 6.64 3.41
 -5 1 13 19.23 4.19
 -5 1 14 53.05 6.05
 -5 1 15 140.35 8.29
 -5 1 16 74.63 6.77
 -5 1 17 5.12 3.41
 -5 1 18 57.95 6.52
 -5 2 14 250.96 9.21
 -5 3 6 38.15 4.2
 -5 3 8 154.27 6.34
 -5 3 9 134.99 5.91
 -4 -10 -3 3.05 4.01
 -4 -10 -1 -2.25 3.15
 -4 -10 1 -0.49 4.41
 -4 -10 2 10.91 5.28
 -4 -10 3 11.12 6.31
 -4 -10 4 0.74 4.79
 -4 -10 5 40.36 7.83
 -4 -10 6 -0.46 5.48
 -4 -10 8 8.69 6.53
 -4 -9 -7 1.71 3.4
 -4 -9 -4 10.59 4.61
 -4 -9 -2 13.3 5.3
 -4 -9 -1 18.56 5.85
 -4 -9 0 14.78 6.26
 -4 -9 1 26 6.73
 -4 -9 2 20.92 6.2
 -4 -9 6 12.93 6.71
 -4 -9 7 10.57 6.18
 -4 -9 8 48.06 8.11
 -4 -9 9 6.35 5.51
 -4 -9 10 35.28 7.91
 -4 -9 12 8.75 7.05
 -4 -9 13 23.38 8.42
 -4 -8 -6 30.17 6.34
 -4 -8 -5 21.95 5.5
 -4 -8 -3 21.16 5.96
 -4 -8 -2 140.01 10.48
 -4 -8 -1 6.13 5.57
 -4 -8 0 2.18 5.08
 -4 -8 2 159.86 11.56
 -4 -8 3 21 6.84
 -4 -8 4 104.59 10.38
 -4 -8 5 15.89 6.8
 -4 -8 6 45.39 8.03
 -4 -8 7 44.08 7.74
 -4 -8 8 6.85 5.29
 -4 -8 10 33.4 7.21
 -4 -8 11 19.23 6.41
 -4 -8 12 29.08 7.32
 -4 -8 13 25.26 7.86
 -4 -8 14 84.61 11.29
 -4 -8 15 10.65 7.18
 -4 -8 16 30.47 9.22
 -4 -7 -2 80.49 8.48
 -4 -7 0 129.62 10.06
 -4 -7 1 189.94 10.99
 -4 -7 2 61.15 7.79
 -4 -7 3 18.56 6.26
 -4 -7 4 -2.09 4.12
 -4 -7 5 47.8 7.3
 -4 -7 6 8.22 5.1
 -4 -7 8 127.15 9.97
 -4 -7 9 205.21 12.79
 -4 -7 11 51.6 8.39
 -4 -7 12 28.08 6.59
 -4 -7 13 87.33 10.39
 -4 -7 14 16.54 7.71
 -4 -7 15 6.4 5.92
 -4 -7 16 55.34 8.89
 -4 -7 18 9.92 7.2
 -4 -7 19 28.29 9.55
 -4 -6 0 4.97 3.86
 -4 -6 1 6.49 5.09
 -4 -6 2 5.67 4.07
 -4 -6 3 190.32 11.12
 -4 -6 4 4.53 4.02
 -4 -6 7 30.02 5.9
 -4 -6 8 122.62 10.07
 -4 -6 9 13.03 4.93
 -4 -6 10 229.6 13.25
 -4 -6 11 65.24 8.57
 -4 -6 12 8.26 5.48
 -4 -6 13 199.71 12.91
 -4 -6 14 82.09 10.13
 -4 -6 16 13.42 6.43
 -4 -6 17 38.04 8.51
 -4 -6 19 3.67 5.9
 -4 -6 20 73.32 11.03
 -4 -5 2 74.14 7.3
 -4 -5 3 73.38 7.07
 -4 -5 4 35.25 5.62
 -4 -5 5 288.54 12.66
 -4 -5 6 99.17 8.57
 -4 -5 7 205.18 11.37
 -4 -5 8 30.67 5.76
 -4 -5 9 207.81 11.28
 -4 -5 10 32.84 6.06
 -4 -5 11 -0.88 4.51
 -4 -5 12 85.93 8.29
 -4 -5 13 89.7 9.31
 -4 -5 14 9.01 5.77
 -4 -5 15 4.34 5.03
 -4 -5 16 33.06 8.08
 -4 -5 17 39.94 7.79
 -4 -5 18 36.25 8.94
 -4 -5 19 -1.47 5.48
 -4 -5 20 66.23 10.2
 -4 -5 21 35.08 8.23
 -4 -5 22 15.04 7.28
 -4 -4 4 4.99 3.27
 -4 -4 5 66.44 6.31
 -4 -4 6 407.89 14.1
 -4 -4 7 226.84 11.06
 -4 -4 9 59.15 7.18
 -4 -4 10 84.4 8.15
 -4 -4 11 217.54 11.89
 -4 -4 12 45.7 7.27
 -4 -4 13 11.71 4.84
 -4 -4 14 88.22 8.42
 -4 -4 16 42.03 8.14
 -4 -4 17 163.82 12.24
 -4 -4 18 9.31 5.49
 -4 -4 19 31.23 8.19
 -4 -4 20 2.48 5.44
 -4 -4 21 78.88 10.92
 -4 -4 22 149.03 12.39
 -4 -4 23 93.24 11.52
 -4 -3 5 149.37 8.76
 -4 -3 6 282.89 11.48
 -4 -3 8 54.14 5.84
 -4 -3 9 32.51 5.9
 -4 -3 10 304.08 12.43
 -4 -3 11 25.27 5.08
 -4 -3 12 270.34 12.62
 -4 -3 15 17.53 6.34
 -4 -3 17 25.63 6.37
 -4 -3 18 43.91 7.53
 -4 -3 19 59.92 8.32
 -4 -3 21 9.12 5.72
 -4 -3 22 130.1 11.77
 -4 -3 23 45.81 8.86
 -4 -3 24 55.21 9.13
 -4 -2 7 198.53 9.58
 -4 -2 8 655.48 16.58
 -4 -2 9 52.89 5.82
 -4 -2 11 84.32 7.63
 -4 -2 12 24.73 4.89
 -4 -2 13 40.15 6.23
 -4 -2 14 154.64 9.95
 -4 -2 15 214.39 11.38
 -4 -2 16 99.81 8.23
 -4 -2 17 18.81 5.13
 -4 -2 18 155.98 10.27
 -4 -2 19 17.22 5.44
 -4 -2 20 45.39 7.54
 -4 -2 21 6.02 6.13
 -4 -2 22 39.18 7.75
 -4 -2 23 159.52 11.59
 -4 -2 24 116.51 11.56
 -4 -2 25 16.67 6.96
 -4 -2 26 5.39 5.79
 -4 -1 11 22.07 4.66
 -4 -1 13 13.5 4.11
 -4 -1 17 26.77 5.44
 -4 -1 18 23.74 5.26
 -4 -1 19 12.4 4.84
 -4 -1 21 210.7 11.73
 -4 -1 22 139.14 10.73
 -4 -1 23 10.94 6.36
 -4 -1 24 114.64 10.94
 -4 -1 25 7.28 5.35
 -4 -1 26 45.82 8.18
 -4 0 6 443.27 12.23
 -4 0 7 323.22 10.58
 -4 0 13 -3.13 3.42
 -4 0 14 444.52 13.48
 -4 0 15 32.31 4.98
 -4 0 16 28.18 5.41
 -4 0 17 52.41 5.92
 -4 0 18 20.33 5.35
 -4 0 19 294.11 12.46
 -4 0 21 128.01 9.65
 -4 0 22 -4.66 4.71
 -4 0 23 6.25 5.74
 -4 0 24 108.14 9.78
 -4 1 6 441.95 11.22
 -4 1 7 378.83 10.46
 -4 1 8 1110.33 17.52
 -4 1 9 273.03 9.06
 -4 1 10 89.64 5.94
 -4 1 15 109.07 6.96
 -4 1 16 57.08 5.9
 -4 1 17 22.64 4.24
 -4 1 18 23.45 5.04
 -4 1 19 12.15 4.11
 -4 1 20 113.56 8.13
 -4 1 21 197.26 10.22
 -4 2 7 180.97 6.68
 -4 2 8 643.38 12.01
 -4 2 9 48.33 3.97
 -4 2 10 100.59 5.39
 -4 2 11 70.45 4.73
 -4 2 12 18.56 3.05
 -4 2 13 39.4 4.09
 -4 2 17 20.8 3.76
 -4 3 6 271.28 6.91
 -4 3 7 380.07 7.98
 -4 3 8 44.04 3.13
 -4 3 9 41.41 3.11
 -4 3 10 300.18 6.95
 -4 3 11 15.09 2.33
 -4 4 5 73.3 3.11
 -4 4 6 411.31 5.89
 -3 -11 7 1.01 4.52
 -3 -10 3 -3.56 3.16
 -3 -10 4 137.18 10.28
 -3 -10 5 22.81 5.96
 -3 -10 6 8.39 6.51
 -3 -10 7 15.75 6.16
 -3 -10 8 1.72 4.97
 -3 -10 9 -1.58 5.8
 -3 -10 11 67.51 9.74
 -3 -10 12 18.08 7.71
 -3 -9 -1 98.25 8.2
 -3 -9 0 8.37 4.44
 -3 -9 2 34.68 6.3
 -3 -9 5 48.37 8.03
 -3 -9 6 34.44 7.43
 -3 -9 7 22.48 6.48
 -3 -9 8 76.03 8.71
 -3 -9 9 14.93 6.02
 -3 -9 10 15.16 6.1
 -3 -9 11 94.02 10.75
 -3 -9 12 39.4 8.89
 -3 -9 13 83.07 10.85
 -3 -9 14 2.3 5.8
 -3 -9 15 14.11 6.58
 -3 -8 -5 30.76 5.16
 -3 -8 -4 121.93 8.4
 -3 -8 -3 136.94 9
 -3 -8 -2 12.21 4.31
 -3 -8 -1 9.96 4.28
 -3 -8 0 36.37 5.94
 -3 -8 2 12.5 4.44
 -3 -8 3 131.84 9.6
 -3 -8 4 111.8 9.37
 -3 -8 5 26.69 6.52
 -3 -8 6 99.02 9.52
 -3 -8 7 63.43 8.48
 -3 -8 8 61.56 8.47
 -3 -8 9 55.81 7.73
 -3 -8 10 40.37 7.32
 -3 -8 11 59 8.19
 -3 -8 12 0.98 5.14
 -3 -8 13 49.84 8.24
 -3 -8 14 2.97 5.53
 -3 -8 15 83.16 9.8
 -3 -8 16 11.71 6.24
 -3 -8 17 87.32 11.06
 -3 -8 18 10.35 6.58
 -3 -7 -4 11.78 3.98
 -3 -7 -3 231.32 11.03
 -3 -7 -2 63.64 6.57
 -3 -7 -1 99.55 7.79
 -3 -7 0 21.8 5.28
 -3 -7 1 102 7.58
 -3 -7 2 59.28 7.12
 -3 -7 3 216.36 10.73
 -3 -7 4 17.5 4.96
 -3 -7 5 95.39 8.53
 -3 -7 6 52.17 6.92
 -3 -7 7 64.87 8.86
 -3 -7 8 27.74 5.85
 -3 -7 9 65.04 7.55
 -3 -7 10 28.21 7.06
 -3 -7 11 38.52 7.39
 -3 -7 12 0.25 4.49
 -3 -7 13 28.34 6.72
 -3 -7 14 3.55 5.49
 -3 -7 16 81.15 10.57
 -3 -7 17 8.71 6.2
 -3 -7 18 6.85 5.79
 -3 -7 20 10.78 6.75
 -3 -6 -1 12.69 3.95
 -3 -6 0 29.29 5.46
 -3 -6 1 9.92 3.62
 -3 -6 2 26.39 4.77
 -3 -6 4 45.11 6.42
 -3 -6 5 35.25 5.7
 -3 -6 6 120.28 8.3
 -3 -6 7 204.13 10.91
 -3 -6 8 305.86 13.19
 -3 -6 10 27.34 6.1
 -3 -6 11 15.99 5
 -3 -6 12 108.85 9.78
 -3 -6 13 81.06 9.02
 -3 -6 14 42.35 7.11
 -3 -6 15 153.07 12.11
 -3 -6 16 3.58 5
 -3 -6 17 84.89 9.33
 -3 -6 18 12.21 6.59
 -3 -6 19 17.01 7.83
 -3 -6 20 50.94 9.11
 -3 -6 21 8.22 6.42
 -3 -6 22 39.02 9.14
 -3 -5 1 75.13 6.53
 -3 -5 2 45.85 5.82
 -3 -5 3 78.99 6.38
 -3 -5 4 1.12 2.87
 -3 -5 7 56.84 5.92
 -3 -5 8 321.98 12.53
 -3 -5 10 155.12 9.75
 -3 -5 11 39.08 6.6
 -3 -5 12 205.63 11.45
 -3 -5 13 15.61 4.8
 -3 -5 14 108.17 9.86
 -3 -5 15 57.59 7.83
 -3 -5 17 13.66 5.63
 -3 -5 18 159.27 12.31
 -3 -5 20 215.88 13.57
 -3 -5 21 -2.17 5.55
 -3 -5 23 42.2 8.99
 -3 -5 24 3.8 7.08
 -3 -4 7 98.59 6.84
 -3 -4 8 703.5 17.43
 -3 -4 9 8.25 4.16
 -3 -4 11 52.79 6.59
 -3 -4 12 180.78 10.35
 -3 -4 13 23.94 5.52
 -3 -4 14 75.07 8.39
 -3 -4 15 49.58 6.99
 -3 -4 17 17.61 5.9
 -3 -4 18 63.85 8.34
 -3 -4 19 18.6 6.93
 -3 -4 21 69.54 9.84
 -3 -4 22 26.15 7.54
 -3 -4 23 77.15 10.47
 -3 -4 24 7.66 7.62
 -3 -4 25 14.58 7.02
 -3 -3 9 76.1 6.3
 -3 -3 10 40.05 5.39
 -3 -3 11 43.5 6.25
 -3 -3 12 250.02 10.96
 -3 -3 13 5.18 3.4
 -3 -3 14 77.1 7.16
 -3 -3 15 80.61 7.27
 -3 -3 16 69.41 7.5
 -3 -3 17 26.77 6.44
 -3 -3 18 106.21 9.65
 -3 -3 19 -0.48 3.93
 -3 -3 20 129.12 10.88
 -3 -3 21 63.94 8.52
 -3 -3 23 90.54 9.79
 -3 -3 25 28.25 7.96
 -3 -3 26 59.41 9.89
 -3 -2 5 309.03 10.09
 -3 -2 6 252.71 9.03
 -3 -2 7 328.23 10.66
 -3 -2 12 88.56 6.74
 -3 -2 13 14.07 4.16
 -3 -2 14 70.95 7.29
 -3 -2 15 46.56 6
 -3 -2 16 61.77 7.18
 -3 -2 17 40.87 6.52
 -3 -2 18 60.92 7.97
 -3 -2 19 77.17 8.32
 -3 -2 20 9.49 4.64
 -3 -2 21 190.01 12.06
 -3 -2 22 51.39 8.04
 -3 -2 23 132.35 11.32
 -3 -2 24 17.67 7.05
 -3 -2 25 1.5 5.42
 -3 -1 6 137.85 6.53
 -3 -1 8 205.44 7.96
 -3 -1 14 116.52 7.6
 -3 -1 16 8.48 3.71
 -3 -1 17 14.84 4.25
 -3 -1 18 19.25 4.67
 -3 -1 19 61.8 7.29
 -3 -1 20 47.27 7.03
 -3 -1 21 51.97 7.67
 -3 -1 22 9.59 5.07
 -3 -1 23 91.27 9.75
 -3 -1 24 174.4 11.91
 -3 -1 25 28.8 7.22
 -3 0 6 207.71 7.36
 -3 0 8 453.05 10.72
 -3 0 10 48.51 4.26
 -3 0 15 28.19 4.21
 -3 0 16 112.39 7.49
 -3 0 18 -1.16 3.14
 -3 0 19 5.29 3.91
 -3 0 20 -0.25 4.38
 -3 0 21 499.27 16.38
 -3 0 22 4.89 4.22
 -3 0 23 107.45 9.31
 -3 1 8 212.36 6.88
 -3 1 9 271.83 7.87
 -3 1 10 37.93 3.78
 -3 1 11 116.06 5.81
 -3 1 13 370.67 10.13
 -3 1 14 113.22 6.25
 -3 1 17 19.69 4.47
 -3 1 18 23.54 4.84
 -3 1 19 66.5 6.46
 -3 1 21 69.95 6.69
 -3 2 6 247.43 6.17
 -3 2 7 351.09 7.34
 -3 2 9 543.26 9.45
 -3 2 10 14.89 2.54
 -3 2 11 116.19 5.07
 -3 2 12 75.9 4.42
 -3 2 13 13.62 2.56
 -3 2 14 67.48 4.57
 -3 2 15 52.42 4.42
 -3 2 16 52.24 4.71
 -3 3 5 94.62 3.25
 -3 3 6 616.7 7.46
 -3 3 7 962.6 9.11
 -3 3 8 211.07 4.42
 -3 3 10 40.73 2.43
 -3 3 11 50.97 2.83
 -3 3 12 237.1 5.7
 -3 3 13 1.65 1.46
 -3 5 2 42.21 1.9
 -2 -11 10 -6.15 3.79
 -2 -10 1 -1 2.6
 -2 -10 8 71.18 8.39
 -2 -10 9 29.15 6.38
 -2 -10 10 72.53 9.66
 -2 -10 11 42.3 8.04
 -2 -10 12 8.65 5.82
 -2 -10 14 42.74 8.27
 -2 -9 3 31.07 5.26
 -2 -9 4 24.29 5.07
 -2 -9 5 53.06 7.31
 -2 -9 6 -2.11 4.09
 -2 -9 7 17.66 5.35
 -2 -9 8 28.91 6.14
 -2 -9 9 141.49 10.91
 -2 -9 10 63.29 9.06
 -2 -9 12 44.63 7.77
 -2 -9 13 34.92 8.09
 -2 -9 15 8.71 5.93
 -2 -9 16 23.6 7.33
 -2 -9 17 45.18 9.79
 -2 -8 -6 1.27 1.89
 -2 -8 -2 67 5.84
 -2 -8 -1 38.41 5.07
 -2 -8 0 19.93 4.21
 -2 -8 2 61.56 6.53
 -2 -8 4 23.63 5.75
 -2 -8 5 29.51 6.13
 -2 -8 6 7.3 4.93
 -2 -8 7 39.29 6.9
 -2 -8 8 94.92 9.01
 -2 -8 11 90.84 9.71
 -2 -8 12 64.92 9.62
 -2 -8 13 44.4 8.36
 -2 -8 14 10.25 5.54
 -2 -8 15 7.93 5.75
 -2 -8 16 22.25 6.87
 -2 -8 17 158.71 12.52
 -2 -8 19 14.52 8.39
 -2 -8 20 -1.56 7.46
 -2 -7 -1 78.02 6.12
 -2 -7 0 0.36 3.2
 -2 -7 2 29.01 5.26
 -2 -7 3 5.94 3.36
 -2 -7 4 67.39 6.87
 -2 -7 5 135.99 8.75
 -2 -7 6 1.91 3.54
 -2 -7 8 41.43 6.09
 -2 -7 9 298.15 12.92
 -2 -7 10 10.22 4.62
 -2 -7 11 57.87 8.14
 -2 -7 12 23.92 6.88
 -2 -7 13 86.45 9.54
 -2 -7 14 8.88 5.69
 -2 -7 15 73.07 9.14
 -2 -7 16 8.01 5.68
 -2 -7 17 82.11 9.91
 -2 -7 18 152 12.48
 -2 -7 19 27.76 7.75
 -2 -7 20 49.29 9.5
 -2 -7 21 7.88 7.52
 -2 -7 22 3.79 7.8
 -2 -6 4 73.81 6.62
 -2 -6 5 97.83 7.24
 -2 -6 6 64.32 5.96
 -2 -6 7 110.61 7.87
 -2 -6 8 5.88 3.8
 -2 -6 9 17 4.49
 -2 -6 10 90.47 8.03
 -2 -6 12 124.18 9.12
 -2 -6 13 17.87 5.84
 -2 -6 14 75.72 8.76
 -2 -6 16 3.23 4.67
 -2 -6 17 59.51 8.14
 -2 -6 18 -2.62 5.13
 -2 -6 19 70.8 10.76
 -2 -6 20 27.49 8.64
 -2 -6 21 74.93 11.11
 -2 -6 22 75.23 11.4
 -2 -6 23 133.43 13.36
 -2 -5 0 50.76 4.49
 -2 -5 7 584.09 15.37
 -2 -5 8 30.35 5.26
 -2 -5 10 32.96 5.06
 -2 -5 11 5.99 3.67
 -2 -5 12 152.19 9.62
 -2 -5 13 331.92 13.59
 -2 -5 14 0.56 3.81
 -2 -5 15 26.94 5.9
 -2 -5 16 10.17 4.82
 -2 -5 17 37.27 6.81
 -2 -5 18 60.18 8.78
 -2 -5 19 121.67 10.92
 -2 -5 20 38.41 7.5
 -2 -5 21 1.53 5.38
 -2 -5 22 18.61 7.13
 -2 -5 23 5.35 6.86
 -2 -5 24 -2.08 7.33
 -2 -5 25 5.02 8.07
 -2 -4 4 83.3 5.83
 -2 -4 5 200.93 8.5
 -2 -4 10 14.19 3.79
 -2 -4 12 32.36 5.05
 -2 -4 15 102.35 8.02
 -2 -4 16 28.29 6
 -2 -4 17 40.84 6.57
 -2 -4 18 7.42 5.32
 -2 -4 19 29.03 6.49
 -2 -4 20 85.17 8.99
 -2 -4 21 179.27 12.84
 -2 -4 22 53.69 9.66
 -2 -4 23 102.38 11.49
 -2 -4 25 10.15 6.85
 -2 -3 3 143.46 6.34
 -2 -3 4 33.71 3.83
 -2 -3 12 19.25 3.79
 -2 -3 14 19.44 4.82
 -2 -3 17 83 8.08
 -2 -3 18 39.8 6.36
 -2 -3 19 21.23 6.43
 -2 -3 20 193.01 11.57
 -2 -3 21 20 6.13
 -2 -3 22 87.15 10.28
 -2 -3 23 39.91 7.61
 -2 -3 25 3.38 5.73
 -2 -2 4 314.01 8.55
 -2 -2 5 76.7 4.9
 -2 -2 6 930.79 15.22
 -2 -2 7 319.48 9.28
 -2 -2 10 387.75 11.34
 -2 -2 14 53.15 5.86
 -2 -2 15 94.76 7.32
 -2 -2 16 58.45 7.03
 -2 -2 18 4.8 3.72
 -2 -2 19 9.5 4.64
 -2 -2 20 8.33 4.74
 -2 -2 22 5.15 6.15
 -2 -2 23 14.65 5.93
 -2 -2 24 18.61 5.86
 -2 -1 4 130.74 5.51
 -2 -1 5 356.82 8.69
 -2 -1 6 1310.56 16.48
 -2 -1 7 110.79 5.24
 -2 -1 8 49.21 3.91
 -2 -1 9 434.38 10.58
 -2 -1 10 205.62 7.64
 -2 -1 11 10.09 2.8
 -2 -1 12 158.8 7.64
 -2 -1 15 22.48 4.42
 -2 -1 16 14.68 3.94
 -2 -1 18 123.59 8.49
 -2 -1 19 3.14 3.59
 -2 -1 20 120.31 9.36
 -2 -1 21 91.6 8.17
 -2 -1 22 171.69 11.38
 -2 -1 23 26.68 6.39
 -2 0 5 92.34 4.35
 -2 0 6 1039.77 13.2
 -2 0 7 1.39 1.61
 -2 0 8 763.65 12.26
 -2 0 9 28.97 3.14
 -2 0 10 106.97 5.45
 -2 0 11 2.29 2.02
 -2 0 12 532.13 11.94
 -2 0 13 13.44 3.11
 -2 0 17 107.73 7.34
 -2 0 18 24.86 4.58
 -2 0 19 0.75 3.82
 -2 0 20 43.83 5.98
 -2 0 21 9.3 4.58
 -2 1 5 360.81 6.67
 -2 1 6 1350.87 13.12
 -2 1 7 106.31 4.14
 -2 1 8 50.61 3.27
 -2 1 9 433.69 8.65
 -2 1 11 10.8 2.48
 -2 1 12 164.07 6.4
 -2 1 13 96.44 5.17
 -2 1 14 202.82 7.64
 -2 1 15 23.22 3.61
 -2 1 18 116.96 7.3
 -2 2 4 307.78 4.96
 -2 2 5 76.18 2.6
 -2 2 6 924.69 8.71
 -2 2 7 299.07 5.36
 -2 2 8 390.21 6.45
 -2 2 9 303.71 6.12
 -2 2 11 85.74 4.05
 -2 2 12 216.35 6.4
 -2 2 13 52.36 3.84
 -2 2 14 55.73 4.17
 -1 -10 6 -0.14 2.41
 -1 -10 7 2.12 3.04
 -1 -10 8 1.34 3.34
 -1 -10 11 54.02 8.18
 -1 -10 12 -6.09 5.07
 -1 -10 14 2.46 5.88
 -1 -10 15 9.79 7.1
 -1 -9 0 1.65 1.94
 -1 -9 1 1.38 1.63
 -1 -9 3 1.65 2.53
 -1 -9 6 11.37 3.78
 -1 -9 7 79 7.58
 -1 -9 9 64.82 7.72
 -1 -9 10 54.32 7.65
 -1 -9 11 43.57 7.38
 -1 -9 12 -4.23 4.59
 -1 -9 13 108.41 10.36
 -1 -9 14 10.66 5.96
 -1 -9 15 14.44 6.79
 -1 -9 16 -1.68 5.14
 -1 -9 17 50.08 9.37
 -1 -9 18 -0.74 5.65
 -1 -8 1 17.91 3.41
 -1 -8 2 167.65 8.19
 -1 -8 3 105 7.01
 -1 -8 4 66.78 6.37
 -1 -8 6 25.09 4.8
 -1 -8 7 105.01 7.71
 -1 -8 8 46.28 6.52
 -1 -8 9 149.22 9.93
 -1 -8 10 3.67 4.03
 -1 -8 11 18.9 5.47
 -1 -8 15 27.88 7.94
 -1 -8 16 26.91 6.99
 -1 -8 17 20.69 7.06
 -1 -8 20 11.35 6.88
 -1 -8 21 14.5 8.27
 -1 -7 -9 0.85 1.19
 -1 -7 -2 36.77 3.9
 -1 -7 -1 53.33 4.39
 -1 -7 0 55.5 4.97
 -1 -7 4 12.33 3.45
 -1 -7 5 189 9.03
 -1 -7 6 15.32 4.01
 -1 -7 7 68.73 6.28
 -1 -7 8 41.93 5.62
 -1 -7 9 5.96 3.66
 -1 -7 10 85.03 7.32
 -1 -7 11 79.76 7.32
 -1 -7 12 237.82 11.89
 -1 -7 15 108.18 10.47
 -1 -7 16 9.08 5.33
 -1 -7 17 32.1 7.32
 -1 -7 18 55.36 8.77
 -1 -7 20 42.86 9.05
 -1 -7 21 14.17 7.02
 -1 -7 22 10.52 6.88
 -1 -7 23 8.13 7.45
 -1 -6 -5 58.76 4.14
 -1 -6 -4 248.82 7.71
 -1 -6 -3 242.92 7.77
 -1 -6 -2 316.47 8.87
 -1 -6 -1 128.23 6.18
 -1 -6 0 466.76 11.28
 -1 -6 1 123.73 6.34
 -1 -6 7 226.54 9.78
 -1 -6 8 166.02 8.6
 -1 -6 9 58.8 6.43
 -1 -6 10 17.21 4.96
 -1 -6 11 184.03 10.08
 -1 -6 12 41.42 5.88
 -1 -6 13 56.39 6.9
 -1 -6 14 30.3 5.85
 -1 -6 15 38.81 6.55
 -1 -6 16 6.76 4.51
 -1 -6 17 59.79 8.43
 -1 -6 19 1.66 6.54
 -1 -6 20 59.66 9.76
 -1 -6 21 17.9 7.11
 -1 -6 22 4.64 5.98
 -1 -6 23 7.97 6.5
 -1 -5 1 314.07 8.89
 -1 -5 2 124.58 6.07
 -1 -5 3 306.36 9.25
 -1 -5 4 32.93 3.62
 -1 -5 5 41.32 4.56
 -1 -5 6 73.05 5.47
 -1 -5 12 84.53 7.34
 -1 -5 13 26.94 5.26
 -1 -5 14 240.84 11.37
 -1 -5 15 27.69 5.45
 -1 -5 16 136.56 9.53
 -1 -5 17 20.34 5.39
 -1 -5 18 4.24 4.7
 -1 -5 20 8.95 5.19
 -1 -5 21 57.09 8.58
 -1 -5 22 97.87 10.17
 -1 -5 23 121.95 11.97
 -1 -4 0 1412.27 16.71
 -1 -4 2 239.49 7.33
 -1 -4 7 168.96 7.35
 -1 -4 12 0.63 2.82
 -1 -4 13 36.35 5.22
 -1 -4 16 28.49 5.27
 -1 -4 17 44.99 6.38
 -1 -4 18 114.92 9.47
 -1 -4 20 47.82 8.17
 -1 -4 21 20.92 6.96
 -1 -4 22 42.06 8.63
 -1 -4 23 0.75 5.26
 -1 -3 1 1344.42 15.14
 -1 -3 2 419.03 8.69
 -1 -3 4 942.46 14
 -1 -3 6 60.48 4.25
 -1 -3 7 42.82 3.88
 -1 -3 13 355.97 11.75
 -1 -3 14 20.97 4.27
 -1 -3 15 41.7 5.6
 -1 -3 17 117.85 8.7
 -1 -3 19 56 7.6
 -1 -3 20 129.58 10.63
 -1 -3 21 124.31 10.82
 -1 -3 22 115.93 10.95
 -1 -2 3 1280.22 13.95
 -1 -2 4 294.8 7.19
 -1 -2 6 1358.81 16.36
 -1 -2 7 884.01 13.7
 -1 -2 9 619.03 12.64
 -1 -2 15 260.21 10.7
 -1 -2 16 7.26 3.35
 -1 -2 17 28.74 5.18
 -1 -2 18 -0.96 3.97
 -1 -2 21 43.2 6.83
 -1 -1 4 18.16 2.61
 -1 -1 5 2162.85 17.51
 -1 -1 6 1624.4 16.09
 -1 -1 7 956.94 13.07
 -1 -1 8 189.08 6.42
 -1 -1 9 627.02 11.82
 -1 -1 10 513.55 11.01
 -1 -1 11 162.69 6.79
 -1 -1 13 12.57 3.01
 -1 -1 16 116.29 7.69
 -1 -1 19 15.79 4.51
 -1 -1 20 68.86 6.92
 -1 0 3 917.41 8.58
 -1 0 4 345.86 5.88
 -1 0 5 1109.32 10.92
 -1 0 6 6110.27 27.18
 -1 0 7 3146.17 20.83
 -1 0 8 555.32 9.52
 -1 0 9 89.23 4.51
 -1 0 10 1267.88 15.89
 -1 0 11 97.78 4.9
 -1 0 13 29.29 3.69
 -1 0 14 64.17 5.5
 -1 1 3 294.68 3.71
 -1 1 4 15.12 1.31
 -1 1 6 1603.06 11.81
 -1 1 7 913.07 9.82
 -1 1 8 178.37 4.86
 -1 1 9 614.48 9.56
 -1 1 11 160.91 5.89
 -1 1 12 632.92 11.7
 -1 1 13 13.08 2.78
 -1 1 14 90.27 5.55
 -1 2 0 9307.47 21.78
 -1 2 1 656.93 4.76
 0 -9 3 1.85 1.57
 0 -9 5 -1.23 1.59
 0 -9 7 3.65 2.78
 0 -9 9 1.14 3.16
 0 -9 10 7.97 4.1
 0 -9 11 17.25 5.2
 0 -9 12 10.84 5.17
 0 -9 15 31.63 7.17
 0 -9 16 0.43 5.52
 0 -8 -2 -0.21 0.83
 0 -8 4 39.42 4.47
 0 -8 5 264.05 10.03
 0 -8 6 21.61 4.56
 0 -8 7 167.06 8.8
 0 -8 8 33.33 5.22
 0 -8 9 13.89 4.82
 0 -8 10 1.48 4.11
 0 -8 11 46.09 6.58
 0 -8 12 2.31 4.23
 0 -8 13 227.48 12.99
 0 -8 14 -0.16 4.59
 0 -8 15 92.4 10.07
 0 -8 16 1.6 5.41
 0 -7 1 99.42 5.34
 0 -7 2 183.85 7.17
 0 -7 3 25.85 3.91
 0 -7 7 62.94 5.98
 0 -7 8 65.99 5.92
 0 -7 9 15.4 4.88
 0 -7 10 251.79 11.06
 0 -7 11 143.71 9.56
 0 -7 12 -2.14 3.24
 0 -7 13 57.99 8.24
 0 -7 15 3.17 5.55
 0 -7 16 15.7 5.82
 0 -7 17 174.45 12.6
 0 -7 19 188.63 13.77
 0 -6 -1 465.39 9.19
 0 -6 1 472.8 10.1
 0 -6 2 326.92 8.91
 0 -6 3 10.09 2.83
 0 -6 4 347.92 9.96
 0 -6 5 33.43 4.32
 0 -6 9 298.69 11.24
 0 -6 10 8.42 3.57
 0 -6 11 4.46 3.49
 0 -6 12 35.61 6.02
 0 -6 13 -0.06 3.47
 0 -6 14 5.69 4.83
 0 -6 15 45.43 6.73
 0 -6 16 5.5 4.73
 0 -6 17 18.9 6.91
 0 -6 18 56.65 8.06
 0 -6 19 51.49 8.89
 0 -5 -6 8.83 1.53
 0 -5 -5 417.7 6.9
 0 -5 -4 91.25 3.47
 0 -5 -3 343.25 6.7
 0 -5 -2 3.74 1.31
 0 -5 -1 312.29 6.96
 0 -5 4 90.3 5.13
 0 -5 6 5.6 2.24
 0 -5 7 48.93 4.61
 0 -5 11 4.42 3.19
 0 -5 12 36.06 5.62
 0 -5 13 99.44 8.1
 0 -5 14 727.6 19.02
 0 -5 15 253.19 12.31
 0 -5 16 383.05 15.42
 0 -5 17 6.54 4.48
 0 -5 18 320.27 14.87
 0 -5 19 14.36 6.27
 0 -4 -3 936.25 9.71
 0 -4 -2 1889.54 14.17
 0 -4 -1 1167.47 11.87
 0 -4 0 170.64 4.92
 0 -4 1 1134.26 12.93
 0 -4 2 1846.6 17.33
 0 -4 3 910.08 12.83
 0 -4 4 180.56 6.26
 0 -4 8 38.38 4.19
 0 -4 9 661.3 14.2
 0 -4 12 0.49 2.3
 0 -4 14 -3.59 2.84
 0 -4 15 25.13 4.81
 0 -4 16 61.82 6.53
 0 -4 17 7.02 4.85
 0 -4 18 -0.65 4.13
 0 -4 19 0.14 3.77
 0 -3 -2 1.49 1.07
 0 -3 -1 424.2 6.19
 0 -3 1 413.81 6.99
 0 -3 2 1.48 1.77
 0 -3 3 1445.22 14.49
 0 -3 4 205.38 6.17
 0 -3 5 584.93 10.58
 0 -3 7 311.24 8.45
 0 -3 16 166.87 9.69
 0 -3 17 54.41 6.1
 0 -2 -1 3812.25 14.48
 0 -2 0 9855.44 25.11
 0 -2 1 3785.05 17.08
 0 -2 2 1949.43 13.6
 0 -2 3 3628.65 20.02
 0 -2 4 1797.3 15.36
 0 -2 5 958.68 12.02
 0 -2 6 1208.54 14.26
 0 -2 7 1406.02 16.32
 0 -2 8 148.39 5.76
 0 -2 9 224.36 7.51
 0 -2 16 50.59 5.74
 0 -2 17 13.68 4.69
 0 -1 2 -0.92 0.93
 0 -1 3 832.5 8.3
 0 -1 5 958.53 10.62
 0 -1 6 1725.66 15.37
 0 -1 7 845.87 11.69
 0 -1 9 110.24 5.26
 0 -1 10 44.62 4.01
 0 -1 11 5.24 2.08
 0 -1 12 2341.44 25.68
 0 -1 13 249.22 9.25
 0 0 -2 476.92 4.25
 0 0 4 1563.92 11
 0 0 6 2.83 1.46
 0 0 8 1.32 1.69
 0 1 -2 0.92 1.14
 0 1 -1 295.19 3.88
 1 -8 8 54.73 5.77
 1 -8 9 153.15 8.96
 1 -7 2 37.02 3.24
 1 -7 3 10.83 2.49
 1 -7 4 13.89 3.05
 1 -7 8 34.59 4.93
 1 -7 9 7.07 3.33
 1 -7 10 88.24 7.44
 1 -7 11 78.77 7.62
 1 -6 -2 324.34 5.35
 1 -6 1 123.58 4.83
 1 -6 2 329.61 8.11
 1 -6 3 238.38 7.43
 1 -6 6 101.88 6.02
 1 -6 9 55.48 5.84
 1 -6 10 10.78 4.35
 1 -6 11 182.62 10.01
 1 -6 12 39.64 6.18
 1 -6 13 68.93 7.53
 1 -5 -2 126.72 3.04
 1 -5 -1 309.63 5.51
 1 -5 0 77.99 3.28
 1 -5 1 308.9 6.78
 1 -5 4 37.86 3.46
 1 -5 5 44.35 3.98
 1 -5 6 81.61 5.4
 1 -5 7 21.52 3.47
 1 -4 -10 13.35 1.18
 1 -4 -1 411.77 5.55
 1 -4 0 1448.23 11.75
 1 -4 1 401.29 6.95
 1 -4 2 250.17 6.1
 1 -4 3 864.1 11.93
 1 -4 4 309.47 7.72
 1 -4 7 162.21 6.74
 1 -4 8 224.57 8.27
 1 -4 9 166.68 7.68
 1 -4 12 5.42 2.8
 1 -4 13 30.07 4.66
 1 -3 -8 72.78 2.25
 1 -3 -7 41.87 1.39
 1 -3 3 378.63 7.4
 1 -3 4 932.93 12.26
 1 -3 5 114.42 4.98
 1 -3 6 60.11 4.11
 1 -3 10 54.8 4.57
 -1 -6 0 452.96 4.82
 -1 -6 0 462.39 5.01
 -1 -4 1 403.67 4.53
 -1 -3 1 1383.11 8.9
 -1 -3 2 449.85 4.3
 -1 -2 2 296.29 4.15
 -1 -1 0 5630.26 19.85
 -1 -1 1 2525.75 13.22
 -1 0 -1 352.83 5.72
 -1 0 1 351.95 5.46
 0 -9 -13 -0.13 2.93
 0 -9 -12 -1.88 2.03
 0 -7 -5 125.26 5.88
 0 -7 -3 20.81 2.45
 0 -6 -1 447.2 7.36
 0 -6 0 441.43 6.16
 0 -5 -1 317.24 6.13
 0 -5 1 306.97 4.16
 0 -4 1 1105.3 7.57
 0 3 -5 597.3 5.43
 0 5 -10 3.55 0.88
 1 -9 -19 15.46 8.17
 1 -9 -18 5.05 6.21
 1 -9 -17 52.14 8.41
 1 -9 -15 11.7 5.51
 1 -9 -14 -0.19 3.86
 1 -9 -12 -1.06 2.74
 1 -8 -21 14.16 7.37
 1 -8 -20 9.95 7.46
 1 -8 -19 112.02 11.92
 1 -8 -18 9.68 6.8
 1 -8 -17 14.01 6.92
 1 -8 -16 24.87 6.54
 1 -8 -14 53.53 7.63
 1 -8 -13 66.75 8.34
 1 -8 -12 38.4 6.51
 1 -8 -11 26.29 5.35
 1 -8 -10 -1.17 3.85
 1 -8 -7 98.66 6.57
 1 -7 -10 95.31 7.92
 1 -7 -9 3.72 2.96
 1 -7 -8 37.08 5
 1 -7 -7 72.96 6.23
 1 -7 -4 12.83 2.8
 1 -7 -1 52.05 3.37
 1 -6 -5 55.1 4.97
 1 -6 -3 240.54 7.69
 1 -6 -2 308.31 8.15
 1 -6 1 117.02 4.21
 1 -5 -5 39.84 3.93
 1 -5 -4 40.03 3.96
 1 -5 -1 304.22 7.41
 1 -4 -3 865.33 13.13
 1 -4 -1 409.21 8.14
 1 -4 0 1408.89 14.17
 1 -3 -1 1344.05 13.68
 1 -3 0 119.17 4.14
 1 -3 1 1347.11 12.58
 1 -2 -1 617.41 8.55
 1 -2 0 9251.5 31.34
 1 -2 2 289.12 5.63
 1 -1 -2 977.01 10.42
 1 -1 -1 2493.36 15.58
 1 -1 0 5571.8 22.42
 1 -1 1 2477.5 14.94
 1 0 -3 938.39 9.76
 1 0 -2 606.86 7.56
 1 0 -1 382.31 5.96
 1 1 -4 15.25 1.99
 1 1 -2 947.06 8.27
 1 1 -1 2440.3 12.88
 1 2 -5 106.96 3.32
 1 2 -3 1217.53 8.54
 1 2 -2 281.12 4.02
 1 3 -7 40.67 2.33
 1 3 -6 56.75 2.24
 1 3 -5 105.56 2.51
 1 4 -11 345.61 7.01
 1 4 -10 13.38 1.83
 1 4 -9 165.82 3.98
 1 4 -8 216.69 3.71
 1 5 -14 235.38 6.02
 1 5 -13 25.47 2.28
 2 -9 -18 26.21 7.65
 2 -9 -17 34.12 8.62
 2 -9 -16 31.84 7.57
 2 -9 -15 10.35 5.95
 2 -9 -14 21.18 6.63
 2 -9 -13 26.03 6.23
 2 -9 -12 34.95 6.31
 2 -8 -20 -0.9 6.32
 2 -8 -19 6.27 6.44
 2 -8 -18 1.96 5.95
 2 -8 -17 139.47 12.83
 2 -8 -16 26.77 7.27
 2 -8 -15 9.19 6.6
 2 -8 -14 15.58 6.35
 2 -8 -13 37.49 7.6
 2 -8 -12 51.45 8.22
 2 -8 -11 83.51 8.16
 2 -8 -10 18.64 5.62
 2 -8 -9 36.44 6.04
 2 -8 -6 -0.46 2.88
 2 -7 -22 0.3 6.77
 2 -7 -21 11.94 7.37
 2 -7 -20 39.69 8.85
 2 -7 -19 18.57 7
 2 -7 -18 142.59 12.01
 2 -7 -17 68.61 9.92
 2 -7 -16 12.66 6.91
 2 -7 -15 63.77 9.09
 2 -7 -14 7.81 5.11
 2 -7 -13 76.26 8.94
 2 -7 -12 24.87 5.96
 2 -7 -11 57.62 6.92
 2 -7 -10 4.48 4.95
 2 -7 -9 300.76 12.72
 2 -7 -8 28.24 5.57
 2 -7 -6 4.6 3.13
 2 -7 -5 122.12 7.17
 2 -7 -1 77.73 5.03
 2 -6 -23 131.71 14
 2 -6 -22 40.94 9.04
 2 -6 -21 75.27 10.87
 2 -6 -20 20.89 8.16
 2 -6 -19 71.91 10.78
 2 -6 -18 9.34 7.05
 2 -6 -17 63.66 9.25
 2 -6 -16 2.84 4.39
 2 -6 -15 103.52 9.98
 2 -6 -14 65.94 8.56
 2 -6 -13 19.58 5.62
 2 -6 -12 118.61 9.7
 2 -6 -11 32.53 5.83
 2 -6 -9 14.04 4.24
 2 -6 -8 1.75 3.29
 2 -6 -7 112.22 7.84
 2 -6 -2 103.53 6.11
 2 -6 -1 101.5 5.63
 2 -6 0 12.27 2.56
 2 -6 1 109.59 5.37
 2 -6 2 104.14 5.24
 2 -5 -25 6.43 7.24
 2 -5 -12 144 9.22
 2 -5 -11 8.67 3.94
 2 -5 -10 41.98 6.21
 2 -5 -9 162.03 9.19
 2 -5 -4 227.58 8.66
 2 -5 -3 255.99 8.97
 2 -5 -2 327.58 9.69
 2 -5 -1 142.25 6.45
 2 -5 0 50.03 4.27
 2 -5 1 131.42 5.84
 2 -5 2 320.61 8.54
 2 -4 -9 4.98 2.89
 2 -4 -5 200.3 8.52
 2 -4 -4 76.72 5.31
 2 -4 -3 490.01 11.74
 2 -4 -1 274.26 8.4
 2 -4 0 394.52 9.61
 2 -4 1 265.32 7.8
 2 -3 -7 14.37 3.6
 2 -3 -6 505.25 12.46
 2 -3 -5 439.29 11.38
 2 -3 -4 36.24 4.28
 2 -3 -2 216.3 7.43
 2 -3 -1 974.87 14.7
 2 -3 0 1045.68 15.04
 2 -3 1 971.68 14.24
 2 -3 2 219.03 6.81
 2 -2 -7 309.37 9.78
 2 -2 -6 943.68 16.15
 2 -2 -5 77.83 4.8
 2 -2 -4 300.4 8.69
 2 -2 -3 540.21 11.08
 2 -2 -2 845.31 13.52
 2 -2 -1 627.37 11.44
 2 -2 0 5.91 2.1
 2 -2 1 627.8 11.31
 2 -2 2 844.96 12.72
 2 -1 -7 107.81 5.59
 2 -1 -6 1333.06 18.16
 2 -1 -5 374.52 9.43
 2 -1 -4 131.98 5.79
 2 -1 -3 270.42 7.54
 2 -1 -1 47.05 3.69
 2 -1 0 46.07 3.54
 2 -1 1 50.09 3.76
 2 0 -8 756.3 13.79
 2 0 -7 1.27 2.22
 2 0 -6 1023.65 14.99
 2 0 -5 92.38 5.06
 2 0 -4 222.16 6.99
 2 0 -3 1330.95 15.64
 2 0 -2 1973.01 18.69
 2 0 -1 4.55 2.32
 2 0 0 14.73 2.34
 2 0 1 6.85 2.14
 2 1 -29 63.64 11.42
 2 1 -28 98.93 11.63
 2 1 -27 28.25 7.76
 2 1 -10 192.29 7.53
 2 1 -9 446.89 10.62
 2 1 -8 47.88 3.84
 2 1 -7 100.51 5.12
 2 1 -6 1347.08 16.24
 2 1 -5 361.23 8.35
 2 1 -4 126.58 5.18
 2 1 -2 492.64 9.16
 2 1 -1 54.21 3.64
 2 2 -28 3.77 5.33
 2 2 -27 8.49 5.6
 2 2 -26 58.91 8.45
 2 2 -24 10.88 5.7
 2 2 -13 53.26 5.16
 2 2 -12 217.88 8.16
 2 2 -11 84.42 5.44
 2 2 -10 391.03 9.86
 2 2 -8 383.73 8.94
 2 2 -7 297.9 7.67
 2 2 -6 911.6 12.59
 2 2 -5 76.42 4.03
 2 2 -4 290.52 6.88
 2 2 -3 533.29 8.94
 2 2 -2 853.73 11.1
 2 3 -24 1.13 4.37
 2 3 -23 51.7 7.54
 2 3 -22 80.81 7.76
 2 3 -21 24.1 5.77
 2 3 -20 209.32 10.6
 2 3 -19 14.86 4.49
 2 3 -18 33.94 5.58
 2 3 -17 74.75 6.47
 2 3 -14 14.57 3.5
 2 3 -13 210.5 7.93
 2 3 -12 14.42 2.87
 2 3 -11 173.45 6.76
 2 3 -10 25.89 3.08
 2 3 -9 484.84 9.71
 2 3 -8 409.82 8.49
 2 3 -7 15.41 2.19
 2 3 -6 522.29 8.79
 2 3 -5 432.29 7.71
 2 3 -4 29.33 2.46
 2 4 -19 29.47 4.69
 2 4 -16 25.08 4.09
 2 4 -15 108.59 6.06
 2 4 -14 358.82 9.6
 2 4 -13 142.95 6.01
 2 4 -12 40.58 3.58
 2 4 -11 92.24 4.5
 2 4 -9 -0.42 1.2
 2 4 -8 318.36 6.39
 2 4 -7 181.37 4.54
 2 5 -11 5.69 1.28
 3 -9 -16 36.7 9.21
 3 -9 -14 -3.67 5.08
 3 -9 -13 69.91 10.13
 3 -9 -12 30.48 7.19
 3 -9 -10 8.8 4.3
 3 -8 -19 11.38 7.78
 3 -8 -16 11.01 6.45
 3 -8 -15 92.93 11.49
 3 -8 -14 10.64 6.86
 3 -8 -13 58.28 9.49
 3 -8 -12 -1.11 4.73
 3 -8 -11 63.08 9.03
 3 -8 -10 40.68 7
 3 -8 -8 64.51 7.82
 3 -8 -7 80.11 8
 3 -8 -6 84.82 7.48
 3 -8 -5 23.57 4.69
 3 -8 -1 -1.2 1.61
 3 -7 -21 11.62 8.66
 3 -7 -20 8.32 7.78
 3 -7 -19 204.83 15.51
 3 -7 -18 5.97 6.32
 3 -7 -17 8.02 7.36
 3 -7 -15 21.9 7.19
 3 -7 -13 22.51 7.45
 3 -7 -12 1.87 5.21
 3 -7 -11 28.1 6.32
 3 -7 -10 18.39 5.95
 3 -7 -9 58.45 8.08
 3 -7 -8 18.25 5.89
 3 -7 -7 60.46 7.19
 3 -7 -6 60.49 7.15
 3 -7 -4 11.05 4.15
 3 -7 -2 64.99 5.71
 3 -7 -1 91.08 6.44
 3 -7 0 14.53 3.63
 3 -6 -22 26.4 8.97
 3 -6 -21 2.22 6.63
 3 -6 -20 45.13 9.46
 3 -6 -19 24.93 7.64
 3 -6 -16 1.01 5.3
 3 -6 -15 139.18 12.2
 3 -6 -14 46.13 7.9
 3 -6 -13 77.35 9.64
 3 -6 -12 115.39 10.47
 3 -6 -11 15.69 5.77
 3 -6 -10 29.9 5.95
 3 -6 -6 110.56 8.22
 3 -6 -5 32.52 5.44
 3 -6 -4 49.62 5.98
 3 -6 -3 335.38 12.14
 3 -6 -2 31.93 4.69
 3 -5 -24 -1.72 7.27
 3 -5 -23 52.8 10.75
 3 -5 -21 3.05 7.67
 3 -5 -20 217.86 16
 3 -5 -19 148.96 13.58
 3 -5 -18 162.45 13.61
 3 -5 -17 11.43 6.26
 3 -5 -16 7.85 5.54
 3 -5 -14 97.04 10.19
 3 -5 -13 10.62 6.05
 3 -5 -11 29.83 5.97
 3 -5 -10 148.5 10.21
 3 -5 -8 310.26 12.65
 3 -5 -7 58.87 6.82
 3 -5 -6 106.45 7.62
 3 -5 -5 147.28 8.57
 3 -5 -4 0.32 2.78
 3 -4 -25 13.17 8.49
 3 -4 -24 5.92 8.33
 3 -4 -23 80.36 11.75
 3 -4 -22 14.6 7.23
 3 -4 -20 57.48 10.65
 3 -4 -19 21.29 7.62
 3 -4 -17 23.48 6.54
 3 -4 -16 14.75 6.42
 3 -4 -15 51.93 7.86
 3 -4 -13 19.71 5.9
 3 -4 -12 191.02 11.61
 3 -4 -9 7.48 3.6
 3 -4 -8 697.51 17.9
 3 -4 -7 100.87 7.78
 3 -4 -6 179.6 9.07
 3 -4 0 68.06 5.46
 3 -4 1 250.69 9.28
 3 -4 2 150.02 7.44
 3 -3 -26 50.51 11.32
 3 -3 -25 26.89 9.13
 3 -3 -24 32.4 9.73
 3 -3 -23 71.1 10.86
 3 -3 -22 97.49 11.47
 3 -3 -21 74.68 11.09
 3 -3 -20 128.74 12.83
 3 -3 -19 2.6 6.3
 3 -3 -18 110.93 11.08
 3 -3 -16 80.81 8.42
 3 -3 -15 86.71 9.29
 3 -3 -14 80.59 8.79
 3 -3 -13 -0.92 3.81
 3 -3 -12 265.93 12.48
 3 -3 -11 48.19 6.47
 3 -3 -10 46.02 5.98
 3 -3 -9 83.72 6.6
 3 -3 -3 76.16 6.14
 3 -3 -2 65.1 5.63
 3 -3 -1 108.55 6.37
 3 -3 1 102.18 6.29
 3 -3 2 66.66 5.08
 3 -2 -26 12.18 8.79
 3 -2 -25 4.18 6.93
 3 -2 -24 9.13 6.66
 3 -2 -21 179.53 12.9
 3 -2 -20 11.93 5.93
 3 -2 -19 75.61 8.74
 3 -2 -18 49.65 7.46
 3 -2 -17 33.93 6.68
 3 -2 -16 69.48 8.75
 3 -2 -15 53.61 7.33
 3 -2 -13 9.92 3.89
 3 -2 -12 86.96 7.21
 3 -2 -11 112.08 7.86
 3 -2 -10 14.97 3.95
 3 -2 -5 295.14 10.45
 3 -2 -3 410.63 11.53
 3 -2 -2 529.53 12.99
 3 -2 -1 6.24 2.4
 3 -2 0 698.56 14.32
 3 -2 1 2.31 2.26
 3 -2 2 509.95 12.51
 3 -1 -27 23.67 9.43
 3 -1 -26 19.88 9.56
 3 -1 -25 26.68 7.93
 3 -1 -23 63.81 9.68
 3 -1 -22 7.45 6.58
 3 -1 -21 68.77 9.93
 3 -1 -20 51.17 8.26
 3 -1 -19 50.18 7.99
 3 -1 -18 17.79 5.73
 3 -1 -17 20.21 6.09
 3 -1 -16 6.6 4.27
 3 -1 -15 184.93 10.96
 3 -1 -14 111.79 8.36
 3 -1 -13 355.69 13.44
 3 -1 -12 120.07 8.37
 3 -1 -11 111.92 7.71
 3 -1 -5 36.77 4.22
 3 -1 -4 338.65 10.37
 3 -1 -3 126.28 6.55
 3 -1 0 -0.55 1.78
 3 0 -27 6.31 7.68
 3 0 -26 51.4 9.86
 3 0 -25 9.52 6.52
 3 0 -24 -3.32 6.62
 3 0 -23 101.46 10.43
 3 0 -22 8.99 6.29
 3 0 -21 484.63 19.37
 3 0 -20 0.44 4.84
 3 0 -19 0.83 4.43
 3 0 -18 2.32 4.65
 3 0 -16 112.88 8.62
 3 0 -15 28.56 5.4
 3 0 -12 59.42 5.86
 3 0 -8 456.62 12.62
 3 0 -6 212.14 8.69
 3 0 -5 62.49 5.24
 3 0 -4 885.03 16.05
 3 0 -3 1295.4 18.97
 3 0 -2 109.79 5.92
 3 0 -1 352.63 9.74
 3 1 -28 35.77 9.23
 3 1 -27 22.28 8.09
 3 1 -26 24.53 8.2
 3 1 -25 31.32 7.75
 3 1 -24 178.49 13.61
 3 1 -23 68.63 9.06
 3 1 -22 14.55 6.39
 3 1 -21 77.15 9.57
 3 1 -20 46.87 7.79
 3 1 -19 39.04 6.65
 3 1 -18 23.14 5.96
 3 1 -17 20.98 4.89
 3 1 -16 5.74 4.47
 3 1 -15 192.75 10.41
 3 1 -14 112.48 8.13
 3 1 -13 384.52 13.09
 3 1 -9 289.11 10.29
 3 1 -8 211.79 8.64
 3 1 -7 531.73 12.78
 3 1 -6 137.73 6.81
 3 1 -5 41.86 4.47
 3 1 -4 346.95 9.73
 3 1 -3 122.06 5.95
 3 1 -2 351.9 9.48
 3 2 -27 23.07 7.91
 3 2 -26 4.02 6.19
 3 2 -25 5.7 5.31
 3 2 -24 9.25 6.61
 3 2 -23 130.66 10.65
 3 2 -22 59.96 8.17
 3 2 -20 4.9 5.07
 3 2 -19 83.12 8.28
 3 2 -18 61.18 7.12
 3 2 -17 34.05 5.98
 3 2 -16 51.59 6.99
 3 2 -15 44 6.08
 3 2 -10 18.81 4.19
 3 2 -9 517.87 12.67
 3 2 -8 529.46 12.46
 3 2 -7 349.17 10.02
 3 2 -6 254.58 8.49
 3 2 -3 415.8 10.01
 3 3 -23 83.55 9.05
 3 3 -21 72.82 8.1
 3 3 -20 119.34 9.03
 3 3 -19 0.1 3.55
 3 3 -18 125.21 8.71
 3 3 -17 20.18 4.34
 3 3 -16 74.54 6.27
 3 3 -10 45.25 4.55
 3 3 -9 84.49 5.24
 3 3 -7 968.71 15.32
 3 3 -6 610.61 11.95
 3 3 -5 92.64 5.08
 3 4 -18 74.85 6.57
 3 4 -17 21.73 4.12
 3 4 -14 69.78 5.57
 3 4 -13 30.59 4.32
 3 4 -12 191.22 7.53
 3 4 -11 54.92 4.56
 3 4 -10 198.47 7.11
 3 4 -9 4.61 2.28
 3 4 -8 687.42 11.87
 3 4 -7 105.87 5.09
 3 5 -11 40.34 3.34
 4 -9 -14 20.34 8.32
 4 -9 -13 22.69 7.96
 4 -9 -12 4.88 6.01
 4 -9 -11 100.96 11.17
 4 -9 -8 53.82 7.88
 4 -9 -7 -2.19 3.25
 4 -8 -17 -3.34 5.93
 4 -8 -16 37.54 10.59
 4 -8 -15 23.03 8.25
 4 -8 -14 75.22 11.39
 4 -8 -13 21.33 7.54
 4 -8 -12 32.13 8.82
 4 -8 -11 21.35 6.87
 4 -8 -10 31.74 7.93
 4 -8 -9 6.1 6
 4 -8 -8 6.46 5.89
 4 -8 -7 57.47 8.65
 4 -8 -6 39.26 6.57
 4 -8 -5 24.54 6.48
 4 -8 -4 98.48 8.62
 4 -8 -3 10.55 4.56
 4 -8 -2 149 9.21
 4 -8 -1 2.4 2.92
 4 -7 -19 24.29 9.82
 4 -7 -18 10.58 7.37
 4 -7 -17 4.69 8.05
 4 -7 -16 56.82 10.14
 4 -7 -15 -0.07 5.59
 4 -7 -14 16.93 6.84
 4 -7 -10 61.67 8.57
 4 -7 -9 197.69 13.17
 4 -7 -8 145.95 11.36
 4 -7 -7 13.89 5.5
 4 -7 -5 50.47 7.53
 4 -7 -4 -0.45 3.84
 4 -7 -3 20.14 5.56
 4 -7 -2 75.01 7.56
 4 -7 -1 176.1 9.51
 4 -7 0 123.47 8.55
 4 -6 -20 77.15 12.06
 4 -6 -19 -2.9 5.91
 4 -6 -18 51.68 10.69
 4 -6 -17 43.23 8.84
 4 -6 -16 7.77 6.73
 4 -6 -15 62.88 9.45
 4 -6 -14 75.17 9.83
 4 -6 -12 3.19 5
 4 -6 -11 48.01 8.97
 4 -6 -10 245.96 13.56
 4 -6 -9 11.24 5.53
 4 -6 -8 114.27 10.17
 4 -6 -7 34.22 6.46
 4 -6 -6 16.82 5.19
 4 -6 -3 207.06 11.23
 4 -6 -2 5.6 4.89
 4 -6 -1 6.49 3.83
 4 -6 0 2.8 4.15
 4 -6 1 5.34 3.73
 4 -5 -21 22.66 9.28
 4 -5 -20 61.37 10.79
 4 -5 -19 4.36 6.83
 4 -5 -18 35.69 9.02
 4 -5 -17 33.4 8.37
 4 -5 -14 9.16 5.87
 4 -5 -13 83.5 9.62
 4 -5 -12 85.11 9.06
 4 -5 -11 3.75 4.87
 4 -5 -10 37.27 6.88
 4 -5 -9 213.7 12.71
 4 -5 -8 17.97 6.04
 4 -5 -7 193.86 11.83
 4 -5 -6 104.03 8.56
 4 -5 -5 320.83 13.99
 4 -5 -4 37.42 6.16
 4 -5 -3 82.35 7.62
 4 -5 -1 288.51 11.86
 4 -5 0 4.7 4.09
 4 -5 1 319.12 12.3
 4 -4 -22 146.61 14.78
 4 -4 -21 66.64 11.44
 4 -4 -20 4.94 7.07
 4 -4 -19 27.84 9.56
 4 -4 -18 1 5.63
 4 -4 -17 151.81 13.01
 4 -4 -16 36.66 7.85
 4 -4 -13 7.75 5.24
 4 -4 -12 39.88 7.72
 4 -4 -11 221.5 12.7
 4 -4 -10 84.03 8.86
 4 -4 -9 56.42 7.65
 4 -4 -7 228.67 11.65
 4 -4 -6 413.75 15.33
 4 -4 -5 63.16 6.65
 4 -4 -4 0.16 3.16
 4 -4 -3 70.37 6.79
 4 -4 -2 2.95 3.68
 4 -4 -1 23.53 4.7
 4 -4 0 9.77 4.47
 4 -4 1 30.67 5.36
 4 -3 -23 50.85 10.69
 4 -3 -21 15.25 8.79
 4 -3 -19 59.94 10.01
 4 -3 -18 68.41 9.93
 4 -3 -17 18.42 7.22
 4 -3 -15 15.87 6.15
 4 -3 -14 95.6 9.65
 4 -3 -12 268.56 13.86
 4 -3 -11 20.69 5.44
 4 -3 -9 38.32 6.76
 4 -3 -7 365.69 14.35
 4 -3 -6 291.3 12.37
 4 -3 -5 149.49 8.93
 4 -3 -4 215.32 10.61
 4 -3 -3 75.73 6.58
 4 -3 -2 165.78 9.3
 4 -3 -1 365.39 12.85
 4 -3 0 20.81 4.62
 4 -3 1 358.97 12.52
 4 -2 -25 23.5 8.99
 4 -2 -24 124.77 13.45
 4 -2 -23 166.19 15.41
 4 -2 -21 9.08 7.04
 4 -2 -18 152.19 11.84
 4 -2 -17 25.25 6.98
 4 -2 -16 115.02 10.12
 4 -2 -15 212.24 13.33
 4 -2 -14 150.29 11.34
 4 -2 -13 43.03 7.65
 4 -2 -12 21.67 5.42
 4 -2 -11 81.72 7.8
 4 -2 -6 551.65 16.38
 4 -2 -5 61.1 6.79
 4 -2 -4 270.64 11.41
 4 -2 -3 274.12 11.46
 4 -2 -2 31.64 4.53
 4 -1 -26 39.18 10.05
 4 -1 -25 2.92 7.29
 4 -1 -24 128.29 13.81
 4 -1 -23 22.29 7.92
 4 -1 -22 120.22 11.87
 4 -1 -19 18.81 7.12
 4 -1 -18 16.64 7.2
 4 -1 -17 23.86 6.17
 4 -1 -16 53.88 8.23
 4 -1 -15 111.52 10.26
 4 -1 -14 15.92 5.43
 4 -1 -13 8.38 5.04
 4 -1 -12 139.5 9.84
 4 -1 -11 24.44 5.44
 4 -1 -9 262.27 11.58
 4 -1 -8 1080.75 22.51
 4 -1 -7 385.31 13.68
 4 -1 -6 435.95 14.21
 4 0 -26 32.15 10.01
 4 0 -25 24.89 7.94
 4 0 -24 98.03 11.99
 4 0 -23 12.31 8.18
 4 0 -22 -0.7 6.29
 4 0 -20 161.98 12.96
 4 0 -18 19.46 5.73
 4 0 -17 45.96 8.14
 4 0 -16 29.96 6.27
 4 0 -14 435.43 15.95
 4 0 -13 0.19 3.45
 4 0 -11 336.71 13.58
 4 0 -10 8.77 3.95
 4 0 -9 957.45 21.04
 4 0 -8 657.25 17.23
 4 1 -26 55.87 9.66
 4 1 -24 101.99 10.76
 4 1 -23 10.41 5.99
 4 1 -22 133.7 12.25
 4 1 -20 103.16 10.25
 4 1 -19 14.66 5.61
 4 1 -17 18.92 5.31
 4 1 -15 101.31 8.65
 4 1 -14 10.91 4.29
 4 1 -13 17.43 5.23
 4 1 -12 125.41 8.51
 4 1 -11 22.36 4.91
 4 1 -9 266.57 10.93
 4 2 -25 17.51 7.21
 4 2 -22 35.29 7.46
 4 2 -21 3.5 5.09
 4 2 -20 67.58 9.56
 4 2 -19 18.07 5.47
 4 2 -18 136.13 10.43
 4 2 -17 19.13 5.31
 4 2 -15 214.43 10.97
 4 2 -14 150.68 9.63
 4 2 -13 38.96 5.67
 4 2 -12 22.19 5.34
 4 2 -10 103.58 7.28
 4 3 -21 11.85 5.1
 4 3 -20 13.44 5.65
 4 3 -18 44.43 6.91
 4 3 -17 29.64 6.21
 4 3 -16 13.83 4.99
 4 3 -15 19.37 4.45
 4 3 -12 264.28 10.75
 4 3 -11 14.65 4.47
 4 3 -5 141.9 7.63
 4 4 -16 37.97 5.68
 4 4 -14 90.3 6.83
 4 4 -13 11.74 3.39
 4 4 -8 69.76 5.55
 5 -9 -10 -1.07 5.66
 5 -9 -9 3.85 6.49
 5 -9 -8 9.8 6.54
 5 -9 -7 2.9 5.55
 5 -8 -13 65.41 10.99
 5 -8 -12 32.85 8.65
 5 -8 -11 14.42 7.14
 5 -8 -10 91.2 11.46
 5 -8 -9 14.47 7.72
 5 -8 -8 -4.38 5.09
 5 -8 -7 22.51 7.12
 5 -8 -6 4.09 5.47
 5 -8 -5 25.15 7.13
 5 -8 -4 56.86 8.22
 5 -8 -3 3.95 5.46
 5 -7 -16 21.67 8.36
 5 -7 -15 -5.46 6.81
 5 -7 -14 25.98 9.26
 5 -7 -13 19.69 8.96
 5 -7 -12 13.09 6.94
 5 -7 -11 10.99 6.44
 5 -7 -9 42.73 8.13
 5 -7 -7 19.76 6.48
 5 -7 -6 42.46 8.04
 5 -7 -5 55.14 8.05
 5 -7 -3 96.82 9.53
 5 -7 -2 81.67 8.52
 5 -7 -1 160.97 11.15
 5 -6 -18 37.45 10.24
 5 -6 -17 43.63 9.81
 5 -6 -15 52.13 10.35
 5 -6 -14 71.03 11.19
 5 -6 -13 15.85 7.43
 5 -6 -10 16.97 6.62
 5 -6 -9 21.13 6.92
 5 -6 -8 7.52 6.42
 5 -6 -7 -2.44 5.14
 5 -6 -6 287.61 15.49
 5 -6 -4 6.61 4.91
 5 -6 -2 24.95 6.02
 5 -6 -1 10.68 5.15
 5 -5 -20 13.73 8.44
 5 -5 -19 0.3 7.14
 5 -5 -18 57.31 12.2
 5 -5 -17 48.94 10.02
 5 -5 -16 40.33 9.21
 5 -5 -15 23.43 8.82
 5 -5 -14 90.04 12.18
 5 -5 -12 20.81 8.18
 5 -5 -11 35.83 7.74
 5 -5 -10 138.65 12.16
 5 -5 -9 129.2 10.95
 5 -5 -7 34.39 7.74
 5 -5 -6 14.15 5.83
 5 -5 -5 19.69 5.95
 5 -5 -4 100.46 9.96
 5 -5 -3 13.65 5.11
 5 -5 -2 125.09 10.28
 5 -5 -1 31.06 7.03
 5 -5 0 272.01 13.68
 5 -4 -21 95.29 13.75
 5 -4 -20 99.05 12.46
 5 -4 -18 17.81 8.7
 5 -4 -17 126.51 12.37
 5 -4 -16 142.41 13.87
 5 -4 -15 19.64 8.02
 5 -4 -14 32.12 8.1
 5 -4 -13 87.99 11.18
 5 -4 -11 5.56 5.42
 5 -4 -10 -1.66 4.71
 5 -4 -9 12.59 5.34
 5 -4 -8 80.55 9.99
 5 -4 -7 27.55 6.96
 5 -4 -6 89.34 9.56
 5 -4 -5 25.73 6.01
 5 -4 -4 18.79 5.91
 5 -4 -3 87.32 8.16
 5 -4 -2 6.34 4.26
 5 -4 0 401.53 15.81
 5 -3 -22 59.83 11.02
 5 -3 -21 -0.23 6.61
 5 -3 -19 -6.09 7.59
 5 -3 -18 43.52 9.32
 5 -3 -17 30.41 9.27
 5 -3 -15 59.71 9.49
 5 -3 -14 16.56 6.57
 5 -3 -13 9.65 5.73
 5 -3 -12 7.72 5.63
 5 -3 -10 96.66 9.53
 5 -3 -9 140.15 11.34
 5 -3 -7 19.73 6.06
 5 -3 -6 43.72 7.71
 5 -3 -5 264.41 13.11
 5 -3 -4 84.31 8.69
 5 -3 -2 23.03 5.27
 5 -3 -1 337.01 14.18
 5 -3 0 84.94 8.19
 5 -2 -23 9.73 8.38
 5 -2 -22 77.44 12.01
 5 -2 -21 118.65 13.56
 5 -2 -19 109.61 13.3
 5 -2 -18 66.7 10.28
 5 -2 -16 1.34 5.62
 5 -2 -15 125.73 11.08
 5 -2 -14 254.52 14.59
 5 -2 -13 129.05 10.7
 5 -2 -12 18.67 6.6
 5 -2 -11 85.06 9.34
 5 -2 -10 82.22 9.03
 5 -2 -9 90.81 8.83
 5 -2 -8 46.34 7.03
 5 -2 -7 63.78 7.41
 5 -2 -6 137.76 10.07
 5 -2 -5 139.71 9.93
 5 -2 -4 101.32 8.44
 5 -2 -3 39.1 6.12
 5 -2 -1 38.83 6.23
 5 -1 -24 18.96 8.8
 5 -1 -23 23.39 8.28
 5 -1 -22 21.97 8.04
 5 -1 -21 24.7 8
 5 -1 -20 143.73 13.73
 5 -1 -19 25.18 8.67
 5 -1 -18 55.55 9.17
 5 -1 -17 0.1 6.33
 5 -1 -16 65.48 9.69
 5 -1 -15 155.36 11.87
 5 -1 -14 56.04 8.26
 5 -1 -13 11.02 5.43
 5 -1 -11 0.39 3.99
 5 -1 -10 46.91 7.81
 5 -1 -8 254.56 13.31
 5 -1 -6 313.72 13.69
 5 -1 -5 32.71 5.93
 5 -1 -4 64.36 6.62
 5 -1 -1 420.99 15.2
 5 0 -24 33.83 9.09
 5 0 -23 266.84 17.48
 5 0 -22 90.53 12.54
 5 0 -21 3.53 6.7
 5 0 -20 9.65 6.65
 5 0 -19 -1.95 5.5
 5 0 -18 258.32 15.51
 5 0 -17 35.98 8.33
 5 0 -16 49.22 7.78
 5 0 -15 292.15 14.87
 5 0 -14 589.23 20.22
 5 0 -13 151.01 11.25
 5 0 -12 3.4 4.68
 5 0 -10 126.25 9.49
 5 0 -9 103.06 8.98
 5 0 -8 117.7 8.96
 5 0 -7 94.84 8.13
 5 0 -6 164.5 10.45
 5 0 -5 23.76 4.95
 5 0 -2 13.05 5.1
 5 1 -24 13.97 7.07
 5 1 -23 32.95 8.23
 5 1 -22 30.27 8.46
 5 1 -21 32.06 8.29
 5 1 -20 148.89 13.03
 5 1 -19 29.08 7.2
 5 1 -18 36.91 8.03
 5 1 -17 0.91 4.73
 5 1 -16 75.17 8.65
 5 1 -15 137.46 10.56
 5 1 -14 50.02 7.37
 5 1 -13 21.96 6.39
 5 1 -12 11.69 4.87
 5 1 -11 1.07 4.92
 5 1 -10 45.07 6.96
 5 1 -9 36.38 6.35
 5 1 -8 230.42 12.08
 5 1 -7 165.12 10.23
 5 1 -6 295.49 12.67
 5 1 -5 33.62 5.35
 5 1 -4 62.62 7.7
 5 1 -3 27.69 5.74
 5 2 -23 11.6 6.69
 5 2 -22 96.31 10.8
 5 2 -21 120.43 10.89
 5 2 -20 21.28 6.92
 5 2 -19 109.18 10.87
 5 2 -17 203.39 12.34
 5 2 -16 4.86 4.79
 5 2 -15 126.51 9.75
 5 2 -14 262.09 13.31
 5 2 -13 111.16 9.54
 5 2 -12 20.32 5.5
 5 2 -10 92.14 7.93
 5 2 -9 85.79 7.6
 5 2 -7 59.14 7
 5 2 -6 133.63 9.04
 5 2 -5 128.98 8.41
 5 3 -19 7.06 5.03
 5 3 -18 33.98 7.22
 5 3 -17 23.6 6.48
 5 3 -16 16.34 5.81
 5 3 -15 45.24 6.99
 5 3 -14 18.27 5.12
 5 3 -13 18.72 5.61
 5 3 -12 8.65 4.18
 5 3 -11 62.12 6.63
 5 3 -10 92.84 7.46
 5 3 -9 132.5 8.7
 5 3 -8 147.91 9.02
 5 3 -7 16.17 4.4
 5 4 -15 18.02 4.83
 5 4 -13 91.01 7.45
 5 4 -12 77.22 6.85
 5 4 -11 12.21 3.74
 6 -8 -8 9.83 6.96
 6 -8 -7 13.26 7.89
 6 -8 -6 94.14 11.98
 6 -8 -5 19.73 7.46
 6 -7 -12 -6.27 6.13
 6 -7 -11 124.33 13.89
 6 -7 -10 26.88 8.39
 6 -7 -9 13.21 7.26
 6 -7 -8 0.52 5.67
 6 -7 -7 7.54 7.65
 6 -7 -6 6.91 6.79
 6 -7 -4 82.59 11.31
 6 -7 -3 7.71 6.02
 6 -6 -14 24.65 8.92
 6 -6 -12 25.47 8.11
 6 -6 -11 33.12 9.01
 6 -6 -9 20.23 7.81
 6 -6 -8 1.51 6.74
 6 -6 -7 12.85 7.44
 6 -6 -6 26.16 7.85
 6 -6 -5 73.59 10.15
 6 -6 -3 34.14 8.81
 6 -6 -2 4.1 5.51
 6 -5 -15 111.54 14.65
 6 -5 -14 15.88 9.01
 6 -5 -13 3.32 7.38
 6 -5 -12 48.74 10.94
 6 -5 -11 41.41 9.37
 6 -5 -10 46.28 9.21
 6 -5 -9 54.97 10.74
 6 -5 -8 20.02 7.13
 6 -5 -7 30.63 7.85
 6 -5 -6 45.62 8.81
 6 -5 -5 96.44 11.16
 6 -5 -4 4.02 5.48
 6 -5 -3 5.01 5.35
 6 -5 -2 17.09 7.03
 6 -4 -18 69.78 12.85
 6 -4 -17 39.82 10.33
 6 -4 -16 2.49 6.44
 6 -4 -14 15.77 9.27
 6 -4 -13 32.07 9.96
 6 -4 -12 27.07 8.98
 6 -4 -10 24.51 7.6
 6 -4 -9 45.91 8.72
 6 -4 -8 25.68 8.09
 6 -4 -7 130.6 11.38
 6 -4 -5 102.43 9.91
 6 -4 -4 64.64 9.13
 6 -4 -3 39.45 8.41
 6 -4 -2 2.73 5.15
 6 -3 -19 4.95 7.69
 6 -3 -18 2.5 8.06
 6 -3 -17 9.2 7.26
 6 -3 -15 92.4 13.12
 6 -3 -14 155.63 14.32
 6 -3 -13 0.7 6.34
 6 -3 -11 0.21 6.02
 6 -3 -9 33.22 8.28
 6 -3 -8 27.89 7.56
 6 -3 -7 25.49 7.08
 6 -3 -6 11.03 5.63
 6 -3 -5 168.64 11.81
 6 -3 -4 15.69 5.9
 6 -3 -3 16.2 7.02
 6 -3 -2 91.54 9.65
 6 -2 -20 76.93 12.28
 6 -2 -19 3.01 7.57
 6 -2 -18 10.7 7.3
 6 -2 -17 -5.28 6.66
 6 -2 -15 -1.84 5.99
 6 -2 -14 73.19 10.68
 6 -2 -13 48.68 9.12
 6 -2 -12 45.34 8.8
 6 -2 -11 122.95 12.17
 6 -2 -10 30.46 7.58
 6 -2 -7 3.85 4.81
 6 -2 -6 13.17 5.95
 6 -2 -5 10.9 5.41
 6 -2 -4 18.69 5.83
 6 -2 -3 28.95 6.51
 6 -2 -2 63.64 8.87
 6 -1 -21 20.55 8.7
 6 -1 -20 22.35 8.42
 6 -1 -19 15.24 8.41
 6 -1 -18 22.24 8.11
 6 -1 -16 87.04 11.47
 6 -1 -15 31.08 8.1
 6 -1 -14 157.72 12.9
 6 -1 -13 7.04 5.66
 6 -1 -12 91.53 11.29
 6 -1 -11 16.56 6.92
 6 -1 -10 13.2 6.06
 6 -1 -9 39.75 8.04
 6 -1 -8 4.55 5.46
 6 -1 -7 13.15 5.76
 6 -1 -6 8.89 5.36
 6 -1 -5 7.9 5.31
 6 -1 -4 85.75 9.55
 6 -1 -3 60.08 8.32
 6 0 -20 29.06 8.21
 6 0 -19 2.61 6.71
 6 0 -18 68.73 10.62
 6 0 -17 19.92 8.23
 6 0 -16 40.42 8.71
 6 0 -14 27.03 7.53
 6 0 -13 143.93 11.86
 6 0 -12 -2.49 5.34
 6 0 -11 20.15 6.37
 6 0 -10 21.08 6.75
 6 0 -9 48.58 7.68
 6 0 -8 12.39 5.41
 6 0 -6 121.55 10.4
 6 0 -5 0.73 4.13
 6 0 -4 0.93 4.02
 6 1 -22 22.48 8.05
 6 1 -21 9.64 7.33
 6 1 -20 28.2 9
 6 1 -19 16.03 7.2
 6 1 -18 9.75 8.07
 6 1 -16 67.6 9.55
 6 1 -14 177.57 12.64
 6 1 -13 16.1 6.31
 6 1 -11 17.81 5.93
 6 1 -10 14.48 6.68
 6 1 -9 35.34 6.56
 6 1 -8 -0.02 3.87
 6 1 -6 9.83 4.93
 6 1 -5 1.77 4.26
 6 2 -21 10.97 6.67
 6 2 -20 63.29 10.09
 6 2 -18 14.08 6.92
 6 2 -17 -3.66 4.85
 6 2 -16 15.23 6.16
 6 2 -15 2.12 4.82
 6 2 -14 65.8 8.95
 6 2 -12 39.66 7.62
 6 2 -11 111.91 9.71
 6 2 -10 33.14 6.81
 6 2 -9 8.62 5.9
 6 2 -8 116.51 10.19
 6 2 -7 6.59 5.07
 6 3 -17 4.17 5.15
 6 3 -16 20.13 6.18
 6 3 -15 69.06 8.62
 6 3 -14 133.8 10.68
 6 3 -13 8.24 5.53
 6 3 -12 62.91 7.63
 6 3 -11 10.64 5.83
 6 3 -10 38 6.67
 7 -6 -8 -3.72 7.44
 7 -6 -7 13.72 7.62
 7 -6 -6 57.63 10.66
 7 -5 -11 15.75 8.21
 7 -5 -10 9.05 8.6
 7 -5 -9 7.46 7.44
 7 -5 -8 -0.47 6.27
 7 -5 -7 10.88 7.1
 7 -5 -5 67.66 10.83
 7 -4 -13 49.1 11.01
 7 -4 -12 81.25 12.84
 7 -4 -11 16.19 9.09
 7 -4 -10 61.83 10.95
 7 -4 -9 20.17 8.14
 7 -4 -8 28.96 9.69
 7 -4 -7 18.2 7.48
 7 -4 -6 0.11 5.81
 7 -4 -5 2.23 7.71
 7 -4 -4 20.38 8.69
 7 -3 -15 85.48 14.32
 7 -3 -14 179.94 16.35
 7 -3 -13 34.62 9.81
 7 -3 -12 38.86 9.95
 7 -3 -11 -3.37 7.49
 7 -3 -10 2.73 6.92
 7 -3 -9 11.08 6.92
 7 -3 -7 99.39 11.21
 7 -3 -6 15.11 7.14
 7 -3 -5 34.85 9.13
 7 -3 -4 3.58 7.6
 7 -2 -16 16.96 8.85
 7 -2 -15 45.41 10.25
 7 -2 -14 15.99 7.88
 7 -2 -12 -2.25 6.07
 7 -2 -11 34.19 8.85
 7 -2 -10 2.16 6.97
 7 -2 -9 32.51 8.39
 7 -2 -8 14 7.34
 7 -2 -7 35.71 8.52
 7 -2 -6 30.57 8.98
 7 -1 -16 0.98 8.29
 7 -1 -15 10.71 7.36
 7 -1 -14 45.42 9.94
 7 -1 -12 14.67 7.56
 7 -1 -10 13.5 7.03
 7 -1 -9 54.01 9.53
 7 -1 -8 7.56 6.45
 7 -1 -7 5.13 6.01
 7 -1 -6 27.95 7.69
 7 -1 -5 28.21 7.57
 7 0 -17 49.9 10.27
 7 0 -16 82.29 12.33
 7 0 -15 -0.05 6.66
 7 0 -14 89.43 11.91
 7 0 -13 84.73 11.61
 7 0 -12 2.2 6.68
 7 0 -11 11.15 7.71
 7 0 -10 10.91 6.44
 7 0 -9 16.01 7.42
 7 0 -8 9.62 6.09
 7 0 -7 15.76 8.14
 7 1 -18 0.11 6.04
 7 1 -17 39.85 9.8
 7 1 -16 16.56 7.79
 7 1 -15 7 6.39
 7 1 -14 38.87 8.36
 7 1 -13 134.71 12.36
 7 1 -12 10.66 6.58
 7 1 -10 6.24 6.06
 7 1 -8 11.6 6.39
 7 2 -18 22.47 6.94
 7 2 -17 67.04 10.48
 7 2 -16 14.94 6.86
 7 2 -15 48.27 8.29
 7 2 -14 12.08 6.34
 7 2 -13 9.1 5.94
 7 2 -12 -2.21 5.17
 7 2 -11 22.68 7.44
 8 -2 -10 4.94 8.85
 8 -2 -9 70.02 11.7
 8 -1 -11 16.78 8.41
 8 -1 -10 87.75 12.44
 8 0 -12 6.62 7.46
 8 0 -11 34.17 9.33
 -5 -5 -2 113.42 6.66
 -5 -5 -1 22.29 4.01
 -5 -5 0 267.94 9.73
 -5 -5 1 26.82 4.1
 -5 -5 2 116.48 6.89
 -5 -5 3 15.52 3.3
 -5 -5 4 113.26 6.95
 -5 -5 5 10.82 3.66
 -5 -4 -4 18.22 4.07
 -5 -4 -3 92.31 6.73
 -5 -4 -2 8.05 3.23
 -5 -4 -1 54.25 5.49
 -5 -4 0 401.67 12.68
 -5 -4 1 51.07 5.68
 -5 -4 2 8.12 3.33
 -5 -4 3 78.9 6.25
 -5 -4 4 25.41 5.17
 -5 -4 5 25.31 4.54
 -5 -3 -5 248.12 10.94
 -5 -3 -4 74.81 6.29
 -5 -3 -3 90.43 7.17
 -5 -3 -2 28.61 5.54
 -5 -3 -1 357.55 12.42
 -5 -3 0 82.92 6.57
 -5 -3 2 24.26 4.76
 -5 -3 3 90.96 7.24
 -5 -3 4 74.93 6.81
 -5 -2 -4 89.36 7
 -5 -2 -3 35.41 5.81
 -5 -2 -2 4.65 3.83
 -5 -2 -1 44.74 5.77
 -5 -2 0 228.48 10.64
 -5 -2 1 41.65 5.67
 -5 -2 2 8.32 3.71
 -5 -2 3 38.02 5.57
 -5 -1 -4 62.55 6.82
 -5 -1 -3 31.95 5.61
 -5 -1 -2 679.88 17.5
 -5 -1 0 -0.82 3.06
 -5 -1 2 705.44 17.99
 -5 0 1 296.75 12.17
 -5 0 2 12.83 4.26
 -4 -5 -1 296.93 8.68
 -4 -5 0 1.09 1.64
 -4 -5 1 306.68 8.83
 -4 -5 2 76.6 4.96
 -4 -5 4 33.1 3.78
 -4 -5 5 304 9.49
 -4 -4 -3 64.42 4.74
 -4 -4 -2 4.08 2.6
 -4 -4 -1 25.93 3.95
 -4 -4 0 15.34 3.21
 -4 -4 1 30.23 3.88
 -4 -4 2 4.9 2.34
 -4 -4 3 67 5.17
 -4 -4 4 2.7 2.72
 -4 -3 -3 78.27 5.85
 -4 -3 -2 175.03 7.97
 -4 -3 -1 352.98 10.62
 -4 -3 0 24.93 3.86
 -4 -2 -6 539.51 14.16
 -4 -2 -5 57.63 5.64
 -4 -2 -4 269.69 9.84
 -4 -2 -3 278.79 10.23
 -4 -2 -2 34.12 4.58
 -4 -2 1 159.4 7.65
 -4 -1 -7 386.36 12.31
 -4 -1 -6 449.51 13.08
 -4 -1 -4 301.54 10.89
 -4 -1 -3 47.29 5.25
 -4 -1 -2 16.22 3.71
 -4 -1 0 76.65 6.01
 -4 -1 1 273.86 10.23
 -4 0 -8 668.26 16.12
 -4 0 -6 460.35 13.42
 -4 0 -5 27.56 4.56
 -4 0 -2 14.63 3.53
 -4 0 -1 2.87 3.22
 -4 0 0 10.63 3.55
 -4 0 1 1.78 2.61
 -4 1 -7 384.72 12.71
 -4 1 -6 439.54 13.46
 -4 1 -5 133.26 7.71
 -4 1 -4 297.97 10.97
 -4 1 -3 58.43 5.62
 -4 1 -2 13.14 4.48
 -4 1 -1 270.59 10.42
 -4 1 1 276.35 10.42
 -4 2 -8 649.79 16.47
 -4 2 -7 194.02 9.73
 -4 2 -6 550.68 15.29
 -4 2 -4 265.87 10.92
 -4 2 -3 277.13 10.85
 -4 2 -2 27.47 4.51
 -4 2 -1 166.7 8.41
 -4 2 0 12.79 3.71
 -4 2 1 159.8 8.36
 -4 3 -8 37.21 5.27
 -4 3 -7 375.06 13.12
 -4 3 -5 159.95 8.85
 -4 3 -3 76.39 6.64
 -4 3 -2 176.35 9.07
 -4 3 -1 336.1 11.99
 -4 3 0 21.62 4.43
 -4 4 -7 220.01 10.59
 -4 4 -6 409.14 13.57
 -4 4 -5 68.95 6.1
 -4 4 -4 0.95 2.96
 -4 4 -3 68.19 6.43
 -4 4 -2 2.72 3.34
 -4 4 -1 26.22 5.19
 -4 4 1 24.46 4.57
 -4 4 2 1.83 2.87
 -4 5 -5 306.57 11.8
 -4 5 -4 39.39 5.81
 -4 5 -2 80.28 6.37
 -4 5 -1 307.07 11.53
 -4 5 0 1.38 3.56
 -4 5 2 77.81 6.39
 -4 5 3 69.51 6.87
 -4 6 -2 5.45 3.95
 -4 6 -1 6.55 3.35
 -4 6 1 4.44 3.89
 -4 6 2 10 3.79
 -3 -5 0 37.79 2.75
 -3 -5 1 79.64 3.75
 -3 -5 2 42.25 2.98
 -3 -4 -2 155.07 5.74
 -3 -4 1 251.72 7.19
 -3 -4 2 157.21 5.87
 -3 -3 -4 10.45 2.39
 -3 -3 -3 86.63 5.01
 -3 -3 -2 74.17 4.62
 -3 -3 -1 103.46 5.19
 -3 -3 0 298.21 8.28
 -3 -3 1 98.01 4.88
 -3 -2 -5 295.21 8.82
 -3 -2 -4 278.32 8.71
 -3 -2 -3 430.6 10.33
 -3 -2 -2 515.41 11.17
 -3 -2 0 713.88 13.25
 -3 -1 -6 128.23 6.53
 -3 -1 -5 46.1 4.52
 -3 -1 -4 330.69 9.75
 -3 -1 -2 357.79 9.69
 -3 -1 -1 526.27 11.6
 -3 -1 0 1.51 2.02
 -3 0 -7 4.42 2.52
 -3 0 -6 223.7 8.47
 -3 0 -4 876.9 15.61
 -3 0 -3 1248.45 18.57
 -3 0 -2 104.48 5.97
 -3 0 -1 359.62 9.99
 -3 1 -7 508.77 12.88
 -3 1 -5 43.15 4.36
 -3 1 -4 332.31 9.95
 -3 1 -2 365.94 10.24
 -3 1 -1 538.55 12.48
 -3 1 0 -1.24 2.16
 -3 2 -7 339.62 10.78
 -3 2 -4 256.06 9.18
 -3 2 -3 408.33 11.12
 -3 2 -2 515.23 12.3
 -3 2 -1 0.86 2.84
 -3 2 0 714.49 14.35
 -3 3 -7 910.58 17.07
 -3 3 -6 601.81 14.19
 -3 3 -5 92.26 5.9
 -3 3 -4 8.66 2.92
 -3 3 -2 72.05 5.29
 -3 3 -1 100.93 5.95
 -3 3 0 305.16 9.93
 -3 4 -6 178.47 7.97
 -3 4 -5 363.77 11.12
 -3 4 -4 260.37 9.25
 -3 4 -3 221.97 8.75
 -3 4 -2 163.14 7.73
 -3 4 1 261.04 9.48
 -3 5 -5 154.34 7.76
 -3 5 -4 0.41 2.35
 -3 5 -3 83.46 6.09
 -3 5 -2 39.24 4.85
 -3 5 2 36.82 4.37
 -3 6 -4 44.93 4.94
 -3 6 -3 337.96 10.5
 -3 6 -2 32.3 4.41
 -3 6 -1 7.87 2.74
 -3 6 0 23.34 4.14
 -3 6 1 8.07 2.83
 -3 6 2 31.12 4.33
 -3 6 3 336.3 10.66
 -3 6 4 55.63 5.29
 -3 7 -2 61.13 4.92
 -3 7 -1 100.06 6.04
 -3 7 0 12.85 3.04
 -3 7 1 95.99 5.97
 -3 7 2 56.46 4.85
 -3 7 3 208.16 8.45
 -3 7 4 8.57 3.24
 -3 7 5 88.79 6.2
 -3 7 6 50.87 5.24
 -2 -5 3 258.54 4.49
 -2 -4 0 391.72 6.24
 -2 -4 1 265.28 5.31
 -2 -4 2 141.28 4.1
 -2 -3 -2 215.2 5.48
 -2 -3 -1 930.45 10.95
 -2 -2 -2 826.54 11.38
 -2 -2 -1 610.04 9.76
 -2 -1 -4 131.25 5.22
 -2 -1 -2 482.39 9.29
 -2 -1 -1 53.68 3.75
 -2 0 -3 1295.25 15.42
 -2 0 -2 1856.95 18.19
 -2 0 -1 4.7 2.05
 -2 1 -5 352.52 9.01
 -2 1 -4 128.57 5.56
 -2 1 -3 268.21 7.44
 -2 1 -2 487.81 9.8
 -2 1 -1 52.41 3.7
 -2 2 -4 305.74 8.31
 -2 2 -2 869.13 13.3
 -2 2 -1 638.49 11.4
 -2 3 -5 434.82 10.12
 -2 3 -4 34.83 3.77
 -2 3 -3 149.42 5.94
 -2 3 -2 227.5 7.07
 -2 3 -1 938.73 13.85
 -2 3 0 1052.85 14.82
 -2 4 -4 81.98 4.67
 -2 4 -3 455.8 10.03
 -2 4 -2 140.63 6
 -2 4 -1 274.17 7.83
 -2 4 0 389.14 9.2
 -2 4 1 288.45 8.02
 -2 5 -3 258.98 7.75
 -2 5 -2 320.09 8.45
 -2 5 -1 135.21 5.84
 -2 5 0 52.67 4.04
 -2 5 1 132.29 5.76
 -2 6 -2 113.07 5.27
 -2 6 -1 106.01 5.04
 -2 6 0 8.41 2.18
 -2 6 1 104.72 5.16
 -2 6 2 103.24 5.19
 -2 6 3 338.1 8.97
 -2 7 0 0.41 1.56
 -2 7 1 82.58 4.32
 -2 7 2 37.9 3.3
 -2 7 3 7.45 2.18
 -2 7 4 73.77 4.5
 -2 7 5 128.86 5.85
 -1 -5 5 42.1 1.89
 -1 -1 -2 953 8.99
 -1 -1 -1 2467.45 13.83
 -1 0 -3 887.74 9.85
 -1 0 -2 594.9 7.65
 -1 0 -1 380.67 5.92
 -1 1 -2 990.3 10.2
 -1 2 -3 1275.56 12.6
 -1 2 -1 626.29 8.32
 -1 3 -3 376.99 7.07
 -1 3 -2 436.03 7.34
 -1 3 -1 1317.04 12.4
 -1 3 0 112.57 3.85
 -1 4 -2 241.36 5.53
 -1 4 -1 397.54 6.99
 -1 4 0 1418.84 12.97
 -1 5 0 73.58 3.14
 -1 5 1 302.47 6.18
 -1 6 1 124.57 3.69
 -1 6 2 318.46 6.17
 -1 6 3 241.86 5.76
 -1 7 3 13.05 1.5
 -1 7 4 9.36 1.62
 -1 7 5 174.72 5.01
 0 -6 13 -0.82 1.34
 0 -6 14 -1.35 1.46
 0 -5 5 412.99 6.4
 0 -5 6 9.47 1.65
 0 -5 9 118.68 5.12
 0 -5 10 2.7 1.94
 0 -5 11 7.4 2.27
 0 -5 12 43.24 4.15
 0 -5 13 96.34 5.85
 0 -5 14 668.42 14.67
 0 -4 4 169.48 3.93
 0 -4 5 210.49 4.92
 0 -4 6 110.1 4.04
 0 -4 7 321.1 7.12
 0 -3 2 1.77 0.64
 0 -3 3 1456.65 10.02
 0 -3 4 214.52 4.56
 0 -2 2 1951.16 9.64
 0 7 7 61.06 2.82
 1 -6 9 53.05 3.94
 1 -6 10 16.14 2.72
 1 -6 12 33.5 3.91
 1 -5 7 21.71 2.82
 1 -5 8 202.83 6.98
 1 -5 9 526.74 11.51
 1 -5 10 87.2 5.32
 1 -5 11 149.15 7.12
 1 -5 12 77.47 5.78
 1 -5 13 25.18 3.93
 1 -5 14 234.52 9.45
 1 -4 5 10.58 2.02
 1 -4 11 359.01 10.51
 1 -4 12 8.73 2.87
 1 -4 13 36.48 4.33
 1 -4 14 229.76 9.67
 1 -4 15 173.54 8.87
 1 -3 4 978.67 12.12
 1 -3 5 107.14 4.48
 1 -3 6 62.2 4.01
 1 -3 7 43.13 3.61
 1 -3 10 53.28 4.47
 1 -3 11 22.75 3.55
 1 -3 12 312.09 9.99
 1 -3 14 17.58 3.78
 1 -2 2 293.56 6.07
 1 -2 3 1270.17 12.76
 1 -2 4 299.33 6.86
 1 -2 5 104.38 4.6
 1 -2 6 1384.61 15.65
 1 -2 7 922.85 13.49
 1 -1 3 305.79 6.24
 1 -1 5 2192.31 18.16
 1 -1 6 1643.21 16.59
 1 0 1 371.85 5.95
 1 0 2 603.11 7.82
 1 0 4 353.9 6.81
 1 0 5 1118.04 12.58
 1 1 1 2513.96 13.95
 1 1 2 992.89 9.41
 1 1 3 308.79 5.84
 1 1 4 17.31 2.15
 1 2 2 295.36 4.92
 1 2 3 1272.41 11.06
 1 2 4 295.09 6.04
 1 3 2 433.13 5.52
 1 3 3 382.89 5.93
 1 3 5 110.08 3.94
 1 4 3 857.8 7.78
 1 4 4 329.37 5.77
 1 4 5 9.57 1.63
 1 4 6 848.07 11.12
 1 5 4 38.06 1.91
 1 5 5 41.03 2.38
 1 5 6 80.87 3.57
 1 5 7 22.41 2.58
 1 5 8 190.48 6.18
 1 6 6 89.2 3.11
 1 6 7 229.72 5.64
 1 6 8 164.38 5.47
 1 6 10 14.57 2.87
 1 6 11 174.14 6.96
 1 6 12 41.38 4.44
 1 6 13 62.82 5.31
 1 6 14 24.28 4
 1 6 15 29.88 4.54
 2 -6 11 36.32 4.81
 2 -6 12 103.92 6.66
 2 -6 13 21.39 3.89
 2 -5 8 21.19 3.47
 2 -5 9 149.81 7.24
 2 -5 10 37.78 4.29
 2 -5 11 7.16 3.55
 2 -5 12 144.28 8.11
 2 -5 13 320.55 11.6
 2 -5 14 0 3.3
 2 -4 7 184.53 7.56
 2 -4 9 -0.41 2.13
 2 -4 10 19.04 3.73
 2 -4 11 100.66 6.43
 2 -4 12 35.2 4.96
 2 -4 13 146.19 8.33
 2 -3 8 407.07 11.11
 2 -3 9 475.78 12.26
 2 -3 10 27.71 4.72
 2 -3 11 168.47 8.35
 2 -3 12 18.54 3.77
 2 -3 13 204.38 9.39
 2 -3 14 16.85 4.17
 2 -3 15 57.38 6.32
 2 -2 4 307.62 8.38
 2 -2 6 903.68 15.02
 2 -2 9 313.29 9.82
 2 -2 10 397.82 11.38
 2 -2 11 86.86 6.08
 2 -2 12 224.81 9.3
 2 -2 14 53.87 5.51
 2 -2 15 91.95 7.67
 2 -1 3 263.73 7.41
 2 -1 4 135.92 5.79
 2 -1 5 347.5 8.97
 2 -1 6 1377 18.14
 2 -1 7 95.39 5.31
 2 -1 8 50.2 4.38
 2 -1 12 165.31 8.14
 2 -1 13 91.63 6.39
 2 -1 14 198.68 9.3
 2 0 3 1284.94 15.64
 2 0 4 229.5 7.14
 2 0 5 94.53 4.86
 2 0 6 1040.12 15.43
 2 0 7 -1.18 1.86
 2 0 13 12.4 3.43
 2 0 14 2.28 3
 2 0 15 5.95 3.38
 2 1 4 125.86 5.52
 2 1 5 378.98 8.9
 2 1 6 1355.45 17.34
 2 1 7 105.38 5.42
 2 1 9 432.34 10.98
 2 1 10 195.66 7.86
 2 1 11 7.32 3.03
 2 1 12 161.29 8.2
 2 1 14 198.88 9.56
 2 1 15 21.68 4.41
 2 2 3 527.96 9.51
 2 2 5 74.52 4.11
 2 2 6 956.44 14.33
 2 2 7 300.22 8.59
 2 2 8 381.5 10.06
 2 2 9 321.86 9.43
 2 2 10 379.3 10.68
 2 2 11 89.4 6.01
 2 2 12 201.72 8.81
 2 2 13 57.25 5.28
 2 2 14 53.52 6.12
 2 2 15 101.56 7.18
 2 3 4 29.21 2.97
 2 3 5 435.83 9.1
 2 3 6 522.8 10.46
 2 3 7 10.91 2.49
 2 3 8 419.72 10.34
 2 3 9 472.99 11.31
 2 3 10 26.2 3.71
 2 3 11 179.08 7.88
 2 3 12 18.02 3.56
 2 3 13 200.1 8.84
 2 3 14 15.13 4.46
 2 3 15 67.87 6.18
 2 4 6 295.96 7.66
 2 4 7 182.73 6.52
 2 4 8 346.65 9.26
 2 4 9 1.53 2.13
 2 4 10 17.17 3.15
 2 4 11 86.49 5.59
 2 4 12 29.95 4.47
 2 4 13 144.13 7.96
 2 4 14 366.24 12.08
 2 4 15 104.08 7.53
 2 5 6 62.43 3.74
 2 5 7 588.45 10.82
 2 5 8 30.86 3.6
 2 5 9 148.12 6.44
 2 5 10 34.78 4.28
 2 5 11 7.05 3.19
 2 5 12 154.03 7.6
 2 5 13 338.83 11.18
 2 5 14 0.38 3.03
 2 5 15 24.38 4.8
 2 6 8 3.2 1.94
 2 6 9 11.95 2.56
 2 6 10 84.67 5.13
 2 6 11 29.55 3.9
 2 6 12 113.16 6.53
 3 -5 11 37.67 5.36
 3 -4 9 9.97 3.49
 3 -4 11 49.32 6.68
 3 -4 12 171.15 9.8
 3 -3 7 941.42 18.13
 3 -3 11 46.05 5.26
 3 -3 12 232.17 10.83
 3 -2 6 236.46 9.27
 3 -2 7 360.06 11.25
 3 -2 9 536.83 14.48
 3 -2 10 13.69 4.2
 3 -2 12 75.12 6.53
 3 -2 13 15.31 5.08
 3 -1 9 284.51 10.39
 3 -1 10 36.65 4.9
 3 -1 12 137.05 8.48
 3 -1 13 380.26 13.21
 3 0 9 56.09 5.18
 3 0 11 41.97 5.22
 3 0 12 58.02 6.07
 3 0 13 8.19 4.52
 3 1 5 41.69 4.55
 3 1 6 141.27 7.09
 3 1 7 498.12 12.61
 3 1 8 195.31 8.56
 3 1 9 264.17 10.09
 3 1 10 50.61 6.19
 3 1 13 357.33 12.68
 3 2 5 299.19 9.15
 3 2 6 245.87 8.83
 3 2 8 550.82 13.31
 3 2 9 528.73 13.58
 3 2 10 9.01 3.23
 3 2 11 112.16 7.08
 3 2 12 87.3 7.29
 3 2 13 13.4 3.99
 3 3 6 591.84 12.94
 3 3 8 213.22 8.4
 3 3 9 81.87 5.93
 3 3 10 43.97 5.32
 3 3 11 49.63 5.75
 3 3 12 254.37 10.32
 3 3 13 -1.7 3.81
 3 4 7 109.53 6.23
 3 4 8 732.4 14.98
 3 4 10 197.09 8.59
 3 4 13 26.58 4.53
 3 5 9 48.48 4.72
 3 5 10 155.6 7.67
 3 5 13 11 3.46
 4 -1 9 255.76 11.26
 4 -1 10 93.44 7.93
 4 0 8 678.08 16.85
 4 0 9 952.76 20.58
 4 0 10 4.85 4.27
 4 1 8 1064.21 20.82
 4 1 9 251.42 11.11
 4 1 10 85.93 7.14
 4 2 10 113.82 7.68
 4 2 11 81.8 7.03
 4 3 10 311.32 11.96
 4 3 11 17.37 4.84
 -3 -4 -6 188.69 3.9
 -2 -7 -6 0.4 1.02
 -2 -6 -6 66.35 3.53
 -2 -6 -5 91.57 3.65
 -2 -6 -1 99.83 2.65
 -2 -5 -4 249.57 5.03
 -2 -5 -3 262.84 4.41
 -2 -2 -3 556.49 5.77
 -2 -1 -2 480.85 6.19
 -1 -8 -10 -0.96 1.76
 -1 -7 -5 182.02 7.3
 -1 -7 -4 16.44 3.19
 -1 -7 2 37.72 3.63
 -1 -7 3 10.04 2.4
 -1 -6 -5 57.21 4.14
 -1 -6 -4 255.99 7.78
 -1 -6 3 250.81 7.3
 -1 -5 3 303.52 7.19
 -1 -3 -1 1342.43 9.72
 -1 0 -2 598.64 6.57
 -1 0 -1 364.45 4.7
 0 -9 -13 -1.23 4.07
 0 -9 -11 23.71 5.97
 0 -9 -10 6.66 4.16
 0 -9 -9 3.19 3.23
 0 -9 -8 99.77 7.73
 0 -9 -7 3 3.43
 0 -9 -6 10.73 3.98
 0 -9 -5 5.29 3.38
 0 -9 -4 40.78 5.76
 0 -9 -3 11.89 3.69
 0 -9 -2 50.89 5.59
 0 -9 -1 74.41 6.43
 0 -9 1 63.41 6.05
 0 -9 2 53.3 5.7
 0 -9 3 14.83 4.19
 0 -9 5 3.95 3.3
 0 -8 -9 10.98 3.88
 0 -8 -8 34.33 5.89
 0 -8 -7 154.83 9.04
 0 -8 -6 21.81 4.4
 0 -8 -5 265.93 10.65
 0 -8 -4 35.28 5.2
 0 -8 -3 84.39 6.75
 0 -8 -2 4.15 2.93
 0 -8 -1 92.91 6.65
 0 -8 0 159.87 8.11
 0 -8 1 90.65 6.5
 0 -8 2 0.94 3.08
 0 -8 3 80.19 6.47
 0 -8 4 47.13 5.38
 0 -8 5 274.42 10.85
 0 -8 6 20.5 4.24
 0 -7 -6 12.07 3.73
 0 -7 5 130.05 7.5
 0 -7 6 15.03 3.56
 0 -6 -4 355.87 10.65
 0 -6 -3 12.8 3.13
 0 -6 -1 458.24 11.47
 0 -6 0 454.63 11.48
 0 -6 2 322.93 9.69
 0 -6 3 13.08 3.13
 0 -6 4 334.81 10.12
 0 -5 -2 2.97 2.54
 0 -5 -1 314.98 8.66
 0 -5 2 4.79 2.19
 0 -5 3 337.56 9.01
 0 -5 4 83.42 5.24
 0 -5 5 425.51 10.62
 0 -5 6 10.5 3.21
 0 -5 7 46.82 4.57
 0 -4 -1 1134.8 14.62
 0 -4 0 174.94 5.88
 0 -4 1 1105.49 14.16
 0 -4 2 1854.67 18.45
 0 -4 3 902.12 13.03
 0 -4 4 175.19 6.25
 0 -4 5 213.03 6.98
 0 -3 1 414.6 7.62
 0 -3 2 1.57 1.8
 0 -3 3 1432.27 14.42
 0 -3 5 568.61 10.15
 0 -2 0 9925.4 29.19
 0 -2 1 3771.07 18.15
 0 -2 2 1960.39 13.57
 0 -2 3 3648.56 19.56
 0 -2 4 1757.87 14.62
 0 -1 1 278.71 3.77
 0 -1 2 0.52 1.28
 0 1 -2 0.72 0.98
 0 1 -1 286.84 3.91
 1 -10 -16 50.43 9.12
 1 -10 -15 8.31 6.16
 1 -10 -14 -3.53 5.42
 1 -10 -13 27.5 6.85
 1 -10 -12 3.98 5.55
 1 -10 -11 55.23 8.32
 1 -10 -10 46.25 7.52
 1 -10 -9 93.22 9.27
 1 -10 -8 1.83 4.35
 1 -10 -7 42.15 7.38
 1 -10 -5 99.14 9.39
 1 -10 -4 8.37 5.05
 1 -10 -3 12.74 5.23
 1 -10 -2 56.54 8.01
 1 -10 -1 10.06 4.75
 1 -10 0 0.36 3.92
 1 -10 1 4.59 4.98
 1 -10 2 76.16 9.47
 1 -10 3 15.84 5.25
 1 -10 4 7.01 4.46
 1 -10 5 94.22 9
 1 -10 6 5.33 5.51
 1 -9 -13 105.66 10.08
 1 -9 -12 1.12 4.79
 1 -9 -11 46.13 7.52
 1 -9 -10 50.4 8.08
 1 -9 -9 55.9 7.88
 1 -9 -8 74.38 7.99
 1 -9 -7 87.95 8.76
 1 -9 -4 82.89 8.28
 1 -9 -3 42.02 6.31
 1 -9 -2 61.53 7.32
 1 -9 -1 8.2 4.35
 1 -9 1 10.07 4.51
 1 -9 2 48.18 6.55
 1 -9 3 42.98 6.35
 1 -9 4 97.29 8.42
 1 -9 5 57.06 7.03
 1 -9 6 9.52 4.86
 1 -9 7 79.68 8.04
 1 -9 8 79.42 7.94
 1 -8 -8 49.34 6.87
 1 -8 -7 93.21 8.67
 1 -8 -4 60.55 6.92
 1 -8 -3 87.62 7.93
 1 -8 -2 162.12 9.82
 1 -8 -1 19.62 4.97
 1 -8 0 1.46 3.29
 1 -8 2 160.15 9.46
 1 -8 3 102.6 8.26
 1 -8 5 93.51 7.59
 1 -8 7 102.15 8.88
 1 -8 8 49.52 7.34
 1 -7 -6 15.99 4.51
 1 -7 -5 196.23 10.11
 1 -7 -4 10.89 3.86
 1 -7 -3 11.01 4.37
 1 -7 -2 38.81 5.42
 1 -7 -1 45.11 5.71
 1 -7 0 50.82 6.39
 1 -7 1 45.21 6.29
 1 -7 2 36.72 5.36
 1 -7 3 9.02 3.66
 1 -7 4 9.89 3.92
 1 -7 6 16.99 4.33
 1 -7 7 79.65 7.5
 1 -7 8 51.92 6.48
 1 -7 9 7.8 3.91
 1 -6 5 65.22 5.99
 1 -6 6 91.82 7.09
 1 -6 7 245.71 10.58
 1 -6 8 158.75 8.6
 1 -6 9 47.59 6.43
 1 -5 -2 132.28 7.09
 1 -5 -1 323.18 10.2
 1 -5 0 80.48 5.57
 1 -5 1 304.48 9.82
 1 -5 2 128.04 7.04
 1 -5 3 297.07 9.95
 1 -5 4 32.21 4.48
 1 -5 9 519.89 14.08
 1 -4 -1 399.58 10.33
 1 -4 0 1428.72 18.74
 1 -4 1 397.31 10.09
 1 -4 2 245.87 8.19
 1 -4 3 888.51 15.21
 1 -4 4 314.73 9.39
 1 -4 5 7.55 2.46
 1 -4 6 846.3 15.62
 1 -4 7 164.46 7.67
 1 -3 0 122.28 5.57
 1 -3 1 1332.25 16
 1 -3 2 427.23 9.5
 1 -3 3 386.62 9.1
 1 -3 4 959.48 14.42
 1 -3 5 107.84 5.38
 1 -3 6 58.2 4.48
 1 -3 7 40.26 4.18
 1 -3 8 68.12 4.56
 1 -2 0 9221.3 36.89
 1 -2 1 628.47 9.72
 1 -2 3 1224.53 14.09
 1 -2 4 289.72 7.26
 1 -2 5 108.94 4.89
 1 -2 6 1340.38 16.45
 1 -1 0 5627.19 23.35
 1 -1 1 2491.42 15.77
 1 -1 2 994 10.42
 1 -1 4 15.44 2.38
 1 -1 5 2230.11 18.12
 1 0 1 365.51 4.8
 1 0 2 575.05 6.34
 1 0 3 925.48 8.79
 1 2 -3 1216.28 9.21
 1 2 -2 293.2 4.04
 2 -11 -9 5.65 6.38
 2 -11 -8 28.49 8.13
 2 -11 -7 8.73 6.62
 2 -11 -5 4 5.91
 2 -11 -3 41.76 8.83
 2 -11 -2 57.85 9.76
 2 -11 -1 16.66 6.89
 2 -11 0 7.14 5.73
 2 -11 1 8.82 6.19
 2 -11 2 51.21 8.87
 2 -11 3 42.44 7.99
 2 -11 6 96.19 11.07
 2 -11 7 -0.09 5.96
 2 -10 -14 36.75 8.39
 2 -10 -13 0.31 6.05
 2 -10 -12 9.03 7.36
 2 -10 -11 49.68 8.52
 2 -10 -10 68.86 10.34
 2 -10 -9 32.55 8.13
 2 -10 -8 68.07 10.05
 2 -10 -7 43.76 8.15
 2 -10 -6 87.74 10.09
 2 -10 -3 45.41 8.01
 2 -10 -2 57.62 8.74
 2 -10 -1 40.49 8.44
 2 -10 0 3.08 4.74
 2 -10 1 41.42 8.65
 2 -10 2 56.87 8.31
 2 -10 3 33.6 7.73
 2 -10 4 29.48 7.2
 2 -10 5 85.88 10.1
 2 -10 6 80.58 10.83
 2 -10 7 54.4 8.75
 2 -10 8 61.38 9.54
 2 -9 -14 25.76 8.47
 2 -9 -13 22.59 7.11
 2 -9 -11 29.27 7.72
 2 -9 -10 49.39 8.93
 2 -9 -9 125.42 11.27
 2 -9 -8 26.55 6.83
 2 -9 -6 10.55 5.93
 2 -9 -5 56.93 8.29
 2 -9 -4 25.23 6.39
 2 -9 -3 22.98 7.02
 2 -9 -2 84.22 8.91
 2 -9 -1 91.94 9.6
 2 -9 0 64.88 9.29
 2 -9 1 93.01 9.32
 2 -9 2 93.81 8.71
 2 -9 5 31.26 7.19
 2 -9 7 19.46 6.13
 2 -9 8 27.26 7.53
 2 -9 9 160.15 12.31
 2 -8 -10 28.79 6.48
 2 -8 -7 43.07 7.78
 2 -8 -6 1.42 4.33
 2 -8 -4 19.44 5.31
 2 -8 -3 290.45 13.67
 2 -8 -2 77.85 8.49
 2 -8 -1 39.2 6.74
 2 -8 0 16.38 5.36
 2 -8 2 71.29 8.02
 2 -8 3 283.54 13.36
 2 -8 4 17.53 5.23
 2 -8 5 21.77 5.9
 2 -8 6 4.21 4.9
 2 -8 7 39.26 8.03
 2 -8 9 39.55 7.24
 2 -7 -7 259.82 12.57
 2 -7 -6 2.8 3.76
 2 -7 -5 136.46 9.58
 2 -7 -4 72.25 7.7
 2 -7 -3 8.53 4.82
 2 -7 -2 33.28 5.88
 2 -7 -1 81.09 7.6
 2 -7 0 4.69 3.78
 2 -7 1 81.42 8.23
 2 -7 2 41.13 6.54
 2 -7 3 7.97 3.99
 2 -7 4 74.44 7.8
 2 -7 6 2.53 3.85
 2 -7 7 281.6 13.25
 2 -7 8 33.72 6.89
 2 -7 9 291.56 13.82
 2 -7 10 7.73 4.82
 2 -6 -5 87.32 7.11
 2 -6 -4 75.82 7.25
 2 -6 -2 105.59 7.29
 2 -6 -1 115.18 7.94
 2 -6 0 9.94 3.89
 2 -6 1 102.11 7.38
 2 -6 2 118.46 8.03
 2 -6 3 329 12.62
 2 -6 4 73.2 7.18
 2 -6 5 90.66 7.21
 2 -6 7 109.09 7.91
 2 -6 8 0.47 4.35
 2 -6 9 14.74 4.56
 2 -5 5 70.33 6.4
 2 -5 6 66.25 6.28
 2 -5 9 168.75 9.24
 2 -4 -1 278.5 9.67
 2 -4 1 275.55 9.74
 2 -4 2 136.12 7.3
 2 -4 8 315.91 11.45
 2 -4 9 0.41 2.28
 2 -4 10 14.98 3.77
 2 -3 -1 963.61 16.03
 2 -3 1 953.38 16
 2 -3 5 439.18 11.5
 2 -3 6 514.68 12.54
 2 -2 0 7.28 2.7
 2 -2 1 632.31 11.96
 2 -2 2 863.78 13.99
 2 -2 4 300.27 8.57
 2 -2 5 78.41 5.13
 2 -2 6 929.28 15.33
 2 -2 8 387.93 10.8
 2 -1 0 45.1 3.56
 2 -1 2 473.91 9.04
 2 -1 3 277.71 7.12
 2 -1 5 348.33 8.37
 2 -1 6 1377.83 17.02
 2 -1 7 104.54 5.17
 2 0 0 16.41 1.98
 2 0 1 5.31 1.49
 2 0 2 1919.97 15.11
 2 0 3 1297.77 12.76
 2 0 4 231.61 5.98
 2 1 1 46.15 2
 2 1 2 474.06 5.98
 2 3 -3 151.29 3.08
 3 -11 -4 -7.96 7.01
 3 -11 -3 19.37 8.46
 3 -11 -2 20.73 8.5
 3 -11 -1 76.42 11.29
 3 -11 0 9.03 7.82
 3 -11 1 75.97 10.78
 3 -11 2 10.99 6.37
 3 -11 3 18.65 7.49
 3 -11 4 1.74 6.67
 3 -10 -11 57.37 10.69
 3 -10 -10 8.63 6.21
 3 -10 -9 4.05 6.29
 3 -10 -8 9.51 6.25
 3 -10 -7 16.26 7.31
 3 -10 -6 5.53 7.42
 3 -10 -4 160.12 13.46
 3 -10 -2 67.72 10.23
 3 -10 -1 15.23 6.5
 3 -10 0 37.71 7.99
 3 -10 3 13.08 6.2
 3 -10 4 155.62 13.27
 3 -10 5 20.74 7.26
 3 -10 6 7.16 6.55
 3 -10 8 2.69 5.88
 3 -10 9 -0.93 7.05
 3 -9 -14 -4.61 5.94
 3 -9 -13 76.88 11.07
 3 -9 -12 27.35 8.67
 3 -9 -11 99.03 11.54
 3 -9 -9 8.2 6.09
 3 -9 -8 55.72 9.21
 3 -9 -5 40.23 8.82
 3 -9 -4 22.17 7.66
 3 -9 -3 39.99 7.99
 3 -9 -2 28.73 7.4
 3 -9 -1 107 11.34
 3 -9 0 9.84 5.73
 3 -9 2 27.82 6.87
 3 -9 3 47.44 9.08
 3 -9 4 19.83 6.57
 3 -9 6 39.93 8.31
 3 -9 7 34.08 7.99
 3 -9 9 6.95 5.94
 3 -8 -11 69.97 10.35
 3 -8 -10 48.02 8.76
 3 -8 -9 58.15 9.88
 3 -8 -8 61.65 9.95
 3 -8 -6 90.03 10.12
 3 -8 -5 21.5 6.38
 3 -8 -4 108.46 9.34
 3 -8 -3 157.63 11.74
 3 -8 -2 10.87 5.28
 3 -8 -1 5.36 5.68
 3 -8 0 28.01 6.35
 3 -8 1 9.75 5.38
 3 -8 2 15.74 6.68
 3 -8 3 128.02 10.54
 3 -8 5 32.66 6.91
 3 -8 7 80.04 9.99
 3 -8 8 72.01 9.3
 3 -8 9 63.03 9.15
 3 -8 10 47.63 9.53
 3 -8 11 58.86 8.97
 3 -7 -8 21.14 5.99
 3 -7 -6 48.73 8
 3 -7 -5 83.12 8.27
 3 -7 -4 15.55 5.89
 3 -7 -3 208.07 11.54
 3 -7 -2 59.97 7.77
 3 -7 -1 107.74 9.48
 3 -7 1 93.08 9.43
 3 -7 2 71.46 8.64
 3 -7 3 222.99 12.49
 3 -7 4 7.92 5.34
 3 -7 5 90.33 9.39
 3 -7 10 15.49 6.03
 3 -7 11 37.77 7.37
 3 -6 -5 43.41 6.98
 3 -6 -3 339.5 13.52
 3 -6 -2 37.6 5.79
 3 -6 -1 7.23 3.97
 3 -6 0 27.83 5.33
 3 -6 1 6.63 4.49
 3 -6 3 345.66 13.79
 3 -6 5 45.15 6.95
 3 -6 6 100.68 8.22
 3 -6 7 198.6 11.06
 3 -6 8 333.71 14.62
 3 -6 9 49.85 7.52
 3 -6 10 22.27 6.81
 3 -6 11 20.69 6.75
 3 -5 -4 4.51 3.68
 3 -5 -3 75.94 6.65
 3 -5 -2 41.02 5.89
 3 -5 0 34.76 5.2
 3 -5 2 50.53 6.69
 3 -5 3 77.78 6.9
 3 -5 4 1.29 3.43
 3 -5 5 171.33 9.95
 3 -5 7 54.97 7.22
 3 -5 8 300.97 12.71
 3 -5 9 51.91 7.65
 3 -5 11 35.71 6.1
 3 -4 3 197.2 9.36
 3 -4 4 254.78 10.49
 3 -4 5 363.96 12.43
 3 -4 6 187.46 9.21
 3 -4 7 100.32 7.31
 3 -4 9 10.24 3.97
 3 -4 10 190.28 10.42
 3 -4 11 61.12 6.58
 3 -3 9 89.61 6.82
 3 -3 10 38.63 5.29
 3 -2 0 712.03 14.3
 3 -2 1 4.98 2.42
 3 -2 2 516.33 12.41
 3 -2 3 442.68 11.56
 3 -2 4 264.54 9
 3 -2 5 297.18 9.56
 3 -2 6 247.62 9.1
 3 -1 0 -1.48 2.22
 3 -1 3 122.89 5.76
 3 -1 4 321.25 8.91
 3 -1 5 42.3 4.3
 3 -1 6 136.3 6.63
 3 -1 7 531.98 12.44
 3 0 -1 351.66 8.24
 3 0 1 363.51 8.02
 3 0 2 102.7 4.57
 3 0 3 1289.69 15.26
 3 0 4 861.29 12.69
 3 0 5 60.8 4
 3 0 6 219.23 7.25
 3 1 -1 511.87 8.16
 3 1 0 0.44 1.19
 3 1 1 528.9 8.03
 3 1 2 362.09 6.69
 3 1 3 124.01 4.26
 3 1 4 320.78 6.79
 3 2 -1 3.3 0.92
 3 2 0 674.7 5.79
 3 3 -4 8.04 1.19
 3 4 -5 354.15 4.96
 4 -10 -6 2.17 6.7
 4 -10 -4 -5.35 6.77
 4 -10 -3 10.09 8.28
 4 -10 -2 23.36 9.17
 4 -10 -1 -2.84 6.8
 4 -10 0 82.28 12.07
 4 -10 1 2.85 7.6
 4 -10 2 15.89 7.52
 4 -10 3 3.59 6.28
 4 -10 4 2.43 6.27
 4 -10 5 48.78 10.06
 4 -10 6 8.33 8
 4 -9 -12 11.14 8.12
 4 -9 -11 83.85 12.33
 4 -9 -10 31.5 8.32
 4 -9 -9 11.97 8.83
 4 -9 -7 9.73 6.68
 4 -9 -6 22.23 8.56
 4 -9 -5 71.45 11.37
 4 -9 -4 0.86 6.22
 4 -9 -3 54.11 9.77
 4 -9 -2 18.77 8.05
 4 -9 -1 20.96 8.1
 4 -9 0 14.69 6.9
 4 -9 1 19.56 6.8
 4 -9 2 20.21 7.16
 4 -9 3 58.96 10.36
 4 -9 4 9.29 6.24
 4 -9 5 57.34 10.13
 4 -9 6 22.5 7.85
 4 -9 7 0.32 5.88
 4 -9 9 7.69 6.82
 4 -9 10 49.39 10.1
 4 -9 11 102.53 11.39
 4 -8 -15 23.26 7.79
 4 -8 -14 78.94 11.54
 4 -8 -12 37.68 9.94
 4 -8 -11 28.04 8.47
 4 -8 -10 47.68 9.29
 4 -8 -9 0.96 5.67
 4 -8 -8 13.08 7.73
 4 -8 -7 51.89 9.04
 4 -8 -6 39.73 7.98
 4 -8 -5 22.2 6.76
 4 -8 -4 101.69 10.64
 4 -8 -3 14.16 6.63
 4 -8 -2 166.75 13.04
 4 -8 -1 3.13 5.41
 4 -8 1 1.77 5.86
 4 -8 2 170.54 12.67
 4 -8 3 18.94 7
 4 -8 4 129.52 11.59
 4 -8 5 18.79 7.16
 4 -8 6 45.97 9.4
 4 -8 8 -1.43 6.72
 4 -8 9 19.96 7.38
 4 -8 10 48.57 10.11
 4 -8 11 35.48 8.85
 4 -7 -11 46.9 8.27
 4 -7 -10 56.75 9.98
 4 -7 -6 10.9 5.47
 4 -7 -5 52.46 7.99
 4 -7 -4 -2.22 4.51
 4 -7 -3 23.09 6.83
 4 -7 -2 64.96 8.65
 4 -7 -1 161.93 12.12
 4 -7 0 131.47 10.52
 4 -7 1 179.57 12.07
 4 -7 2 80.25 10.48
 4 -7 3 22.1 6.19
 4 -7 4 -1.96 4.35
 4 -7 5 59.34 9.04
 4 -7 6 11.19 6.25
 4 -7 7 25.72 6.77
 4 -7 9 184.39 13.75
 4 -7 10 67.51 9.91
 4 -7 11 43.77 8.28
 4 -7 12 37.78 8.33
 4 -6 -8 122.5 10.83
 4 -6 -6 13.04 5.42
 4 -6 -5 22.19 6.09
 4 -6 -4 0.87 4.99
 4 -6 -2 4.05 4.18
 4 -6 -1 4.83 5.14
 4 -6 1 3.07 4.31
 4 -6 2 11.09 4.9
 4 -6 3 205.35 11.77
 4 -6 4 9.01 4.86
 4 -6 5 23.64 5.68
 4 -6 6 13.57 5.27
 4 -6 7 42.97 7.28
 4 -6 8 109.25 9.48
 4 -6 9 12.64 5.66
 4 -6 10 256.29 14.54
 4 -6 11 58.05 9.85
 4 -6 12 10.68 5.87
 4 -5 -6 88.79 8.14
 4 -5 -5 328.52 14.76
 4 -5 -3 74.97 7.27
 4 -5 -2 73.36 7.24
 4 -5 0 1.11 3.37
 4 -5 1 292.08 12.92
 4 -5 2 73.07 7.81
 4 -5 3 67.8 8.2
 4 -5 4 39.12 6.38
 4 -5 5 319.54 13.65
 4 -5 8 23.13 6.58
 4 -5 9 195.34 12.03
 4 -5 10 29.34 6.58
 4 -5 11 5.15 5.13
 4 -5 12 76.62 8.96
 4 -4 -5 59.97 6.31
 4 -4 -4 3.82 3.49
 4 -4 -3 73.79 6.97
 4 -4 -2 6.8 3.51
 4 -4 -1 25.95 5.48
 4 -4 0 14.33 4.02
 4 -4 1 24.36 5.25
 4 -4 2 2.42 3
 4 -4 3 47.54 6.43
 4 -4 4 1.48 3.38
 4 -4 5 70.72 7.36
 4 -4 6 409.42 14.7
 4 -4 7 224.21 11.61
 4 -4 9 72.16 8.25
 4 -4 10 91.88 8.71
 4 -4 11 205.98 11.83
 4 -3 -4 202.77 9.41
 4 -3 -3 77.03 7.25
 4 -3 -2 173.02 8.96
 4 -3 -1 347.88 12.13
 4 -3 1 360.25 12.69
 4 -3 2 175.69 9.38
 4 -3 3 71.82 6.86
 4 -3 4 230.85 10.6
 4 -3 5 150.68 9.02
 4 -3 6 281.43 11.53
 4 -3 7 369.4 13.14
 4 -3 8 42.91 6.61
 4 -3 9 40.58 5.92
 4 -3 11 19.06 4.79
 4 -2 6 524.87 14.4
 4 -2 7 187.33 9.27
 4 -2 9 53.89 6.23
 4 -2 10 99.32 7.51
 4 -1 -3 45.22 4.52
 4 -1 -2 14.57 3.22
 4 -1 -1 278.08 9.28
 4 -1 0 79.04 5.3
 4 -1 1 288.16 9.51
 4 -1 2 11.15 3.45
 4 -1 3 49.46 5.08
 4 -1 4 306.18 9.98
 4 -1 5 121.27 6.79
 4 0 -3 0.74 1.83
 4 0 -1 0.72 2.13
 4 0 0 6.66 2.29
 4 0 1 2.6 2
 4 0 2 10.49 2.5
 4 0 3 0.75 1.87
 4 0 4 359.68 9.65
 4 0 6 444.56 11.17
 4 0 7 313.77 9.41
 4 1 -3 46.93 3.89
 4 1 -2 13.76 2.39
 4 1 -1 272.54 7.14
 4 1 0 76.51 4.2
 4 1 1 274.6 7.01
 4 1 2 11.84 2.42
 4 1 3 51.91 3.67
 4 1 4 294.71 7.63
 4 2 -3 274.47 6.31
 4 2 -2 33.43 2.52
 4 2 -1 160.64 4.29
 4 2 0 10.35 1.51
 4 2 1 164.32 4.18
 4 3 -4 230.99 4.23
 5 -9 -7 3.69 7.19
 5 -9 -5 74.71 11.46
 5 -9 -4 0.83 6.69
 5 -9 -3 45.21 10.12
 5 -9 -2 43.58 10.46
 5 -9 -1 54.99 11.02
 5 -9 0 -0.89 7.78
 5 -9 1 60.67 10.66
 5 -9 2 36.95 8.61
 5 -9 3 51.58 9.56
 5 -9 4 2.35 6.37
 5 -9 5 89.86 12.47
 5 -9 6 21.56 9.59
 5 -9 7 0.68 6.75
 5 -8 -12 34.75 10.99
 5 -8 -11 10.39 7.9
 5 -8 -10 88.76 12.3
 5 -8 -9 6.37 8.76
 5 -8 -8 5.58 6.57
 5 -8 -7 16.62 7.52
 5 -8 -6 0.55 7.48
 5 -8 -5 34.44 9.09
 5 -8 -4 62.76 10
 5 -8 -3 2.72 5.96
 5 -8 -2 8.27 6.65
 5 -8 0 104.24 12.18
 5 -8 1 25.21 8.3
 5 -8 2 4.55 5.99
 5 -8 3 7.61 6.41
 5 -8 5 38.14 8.27
 5 -8 6 15.78 7.68
 5 -8 7 10.58 7.57
 5 -8 8 6.56 6.33
 5 -8 9 6.97 8.12
 5 -8 10 98.55 12.15
 5 -8 11 15.68 8.55
 5 -7 -15 -1.98 6.3
 5 -7 -13 24.29 8.54
 5 -7 -12 8.82 7.7
 5 -7 -11 15.74 8.34
 5 -7 -10 21.25 7.74
 5 -7 -8 18.31 7.59
 5 -7 -7 25.17 7.48
 5 -7 -6 32.25 7.85
 5 -7 -5 65.63 9.39
 5 -7 -4 62.46 9.27
 5 -7 -3 100.62 10.43
 5 -7 -1 156.38 13.11
 5 -7 0 9.47 6.36
 5 -7 1 147.39 11.77
 5 -7 2 58.97 10.26
 5 -7 4 53.45 9.84
 5 -7 5 72.88 10.07
 5 -7 7 29.99 7.44
 5 -7 8 31.78 8.69
 5 -7 9 49.59 9.16
 5 -7 10 27.92 8.12
 5 -7 11 16.52 7.75
 5 -7 12 19.21 7.52
 5 -6 -11 49.91 9.27
 5 -6 -10 20.06 7.37
 5 -6 -9 22.34 7.58
 5 -6 -8 2.84 6.47
 5 -6 -7 -2 6.74
 5 -6 -6 279.5 15.93
 5 -6 -5 119.24 11.38
 5 -6 -4 -1.35 4.94
 5 -6 -3 1.81 4.77
 5 -6 -2 29.58 7.34
 5 -6 -1 6.78 5.36
 5 -6 0 21.9 6.88
 5 -6 1 5.72 5.23
 5 -6 2 33.98 8.03
 5 -6 3 -2.14 4.07
 5 -6 4 -1.98 4.15
 5 -6 5 121.01 11.49
 5 -6 6 294.69 15.64
 5 -6 7 -0.54 5.1
 5 -6 8 10.17 6.1
 5 -6 9 15.5 7.49
 5 -6 10 10.62 6.31
 5 -6 11 41.47 8.41
 5 -6 12 49.86 9.68
 5 -5 -8 26.84 7.09
 5 -5 -7 30.94 7.17
 5 -5 -6 4.13 5.27
 5 -5 -5 20.51 6.88
 5 -5 -4 107.43 9.44
 5 -5 -3 24.09 7.05
 5 -5 -2 125 9.9
 5 -5 -1 20.65 5.99
 5 -5 0 277.58 14.37
 5 -5 1 24.63 6.15
 5 -5 2 102.7 9.14
 5 -5 3 10.41 5.07
 5 -5 4 106.49 9.38
 5 -5 6 8.71 5.38
 5 -5 7 25.17 6.92
 5 -5 8 24.08 7.27
 5 -5 9 115.6 11.32
 5 -5 10 169.05 12.4
 5 -5 11 34.87 7.62
 5 -5 12 16.48 6.36
 5 -4 -7 23.21 5.96
 5 -4 -6 84.51 9.37
 5 -4 -5 22.02 5.68
 5 -4 -2 5.44 3.95
 5 -4 -1 51.48 6.86
 5 -4 0 380.18 15.01
 5 -4 1 59.9 7.82
 5 -4 2 5.83 4.35
 5 -4 3 93.93 9.04
 5 -4 4 21.48 6.39
 5 -4 5 25.56 6.09
 5 -4 6 84.48 8.31
 5 -4 7 29.88 6.09
 5 -4 8 87.71 8.36
 5 -4 9 10.33 4.97
 5 -4 11 13.03 5.33
 5 -3 -6 32.36 5.78
 5 -3 -5 251.99 12.82
 5 -3 -4 83.37 8.48
 5 -3 -3 95.4 8.58
 5 -3 -2 30.83 5.57
 5 -3 -1 325.75 13.02
 5 -3 0 76.86 7.86
 5 -3 1 361.34 14.05
 5 -3 2 25.8 5.11
 5 -3 3 97.34 8.52
 5 -3 4 79.49 7.14
 5 -3 7 23.12 5.43
 5 -3 10 105.87 8.83
 5 -3 11 58.56 7.45
 5 -2 -5 146.68 9.03
 5 -2 -3 42.18 6.52
 5 -2 -2 7.73 3.72
 5 -2 0 228.98 10.82
 5 -2 2 6.02 3.39
 5 -2 3 28.34 4.91
 5 -2 4 96.76 7.55
 5 -2 5 128.93 8.83
 5 -2 8 42.53 6.03
 5 -2 9 83.91 8.28
 5 -2 10 96.47 8.04
 5 -1 -5 32.93 4.82
 5 -1 -4 63.56 6.49
 5 -1 4 58.97 5.43
 5 -1 5 33.14 4.69
 5 -1 6 311.03 11.18
 5 -1 7 172.43 9.07
 5 -1 8 268.23 11.22
 5 0 -3 13.31 3.57
 5 0 -2 8.46 3.6
 5 0 1 295.11 9.78
 5 0 2 18.53 3.42
 5 0 3 15.3 3.33
 5 1 -4 56.72 4.92
 5 1 -3 32.86 3.75
 5 1 -2 721.9 13.42
 5 1 -1 438.78 10.27
 5 1 0 0.08 1.9
 5 1 1 436.47 9.93
 5 1 2 695.74 12.53
 5 1 3 39.62 3.91
 5 1 4 56.14 4.48
 5 2 -6 130.44 5.94
 5 2 -5 137.53 5.8
 5 2 -4 92.93 4.66
 5 2 -3 34.5 3.18
 5 2 -2 9 2.06
 5 2 -1 43.66 3.03
 5 2 0 225.47 5.67
 5 2 1 43.47 2.98
 6 -8 -5 17.63 7.95
 6 -8 -4 20.17 8.2
 6 -8 -3 10.21 8
 6 -8 0 38.64 10.11
 6 -8 1 73.73 12.3
 6 -8 2 37.41 10.58
 6 -8 3 13.49 7.99
 6 -8 4 18.09 7.73
 6 -8 5 15.62 7.84
 6 -7 -11 135.09 14.98
 6 -7 -10 37.7 9.35
 6 -7 -9 25.05 10.21
 6 -7 -8 6.14 7.2
 6 -7 -7 15.73 8.43
 6 -7 -6 1.38 7.2
 6 -7 -5 80.33 11.18
 6 -7 -4 89.43 11.64
 6 -7 -3 9.79 6.75
 6 -7 -2 17 7.51
 6 -7 0 -2.04 5.95
 6 -7 1 94.94 12.05
 6 -7 2 10.4 8.01
 6 -7 4 86.81 10.41
 6 -7 5 75.48 11.4
 6 -7 7 17.51 7.38
 6 -7 8 -0.71 7.65
 6 -7 9 22.08 8.1
 6 -7 10 26.31 9.07
 6 -7 11 146.68 14.58
 6 -6 -14 18.52 8.8
 6 -6 -13 84.54 12.68
 6 -6 -12 27.16 9.2
 6 -6 -11 20.53 9.47
 6 -6 -10 39.38 9.77
 6 -6 -9 27.35 8.76
 6 -6 -8 0.21 5.84
 6 -6 -7 13.67 7.25
 6 -6 -6 12.8 8.1
 6 -6 -5 70.88 11.24
 6 -6 -4 19.27 8.05
 6 -6 -3 27.34 8.82
 6 -6 -1 139.8 12.43
 6 -6 0 6.65 6.02
 6 -6 1 124.06 12.69
 6 -6 2 -2.12 5.25
 6 -6 3 27.77 8.2
 6 -6 4 9.2 6.71
 6 -6 5 67.85 9.77
 6 -6 6 10.03 6.96
 6 -6 7 12.06 6.52
 6 -6 8 9.18 7.19
 6 -6 9 27.7 8.35
 6 -6 10 21.71 8.06
 6 -5 -13 6.22 7.76
 6 -5 -12 52.06 9.76
 6 -5 -11 49.79 10.01
 6 -5 -10 62.39 10.23
 6 -5 -8 23.38 7.48
 6 -5 -7 24.65 7.2
 6 -5 -5 89.99 9.75
 6 -5 -4 -0.52 5.34
 6 -5 -3 5.31 6.66
 6 -5 -2 28.92 7.47
 6 -5 -1 116.8 11.09
 6 -5 0 17.96 7.29
 6 -5 1 130.24 11.35
 6 -5 2 29.53 7.57
 6 -5 3 -1.4 5.13
 6 -5 4 7.13 5.68
 6 -5 6 36.89 7.77
 6 -5 7 23.08 6.78
 6 -5 8 24.32 8.28
 6 -5 9 65.55 9.75
 6 -5 10 47.29 8.42
 6 -5 11 54.52 10.1
 6 -4 -11 20.6 8.15
 6 -4 -10 30.43 8.02
 6 -4 -9 52.47 8.71
 6 -4 -8 32.34 7.76
 6 -4 -7 158.82 12.49
 6 -4 -6 20.44 6.48
 6 -4 -4 60.07 9.4
 6 -4 -3 31.31 6.88
 6 -4 -1 19.55 5.91
 6 -4 0 54.68 8.37
 6 -4 1 23.6 7.47
 6 -4 2 10.36 5.37
 6 -4 5 89.34 9.65
 6 -4 6 21.65 7.18
 6 -4 7 161.28 12.22
 6 -4 8 24.07 6.41
 6 -4 10 17.88 6.37
 6 -3 -9 30.68 7.16
 6 -3 -8 20.97 6.4
 6 -3 -7 9.14 5.49
 6 -3 -6 11.03 5.41
 6 -3 -4 20.02 5.79
 6 -3 -3 22.32 5.91
 6 -3 -1 56.49 8.2
 6 -3 0 25.49 6.78
 6 -3 1 51.6 8.06
 6 -3 2 104.92 9.58
 6 -3 3 26.5 6.58
 6 -3 5 178.94 11.52
 6 -3 6 4.58 4.58
 6 -3 7 17.9 5.69
 6 -3 9 22.65 6.47
 6 -3 10 37.14 7.72
 6 -2 -9 14.79 5.17
 6 -2 -8 124.86 10.34
 6 -2 -7 -0.34 4.85
 6 -2 -6 14.77 5.15
 6 -2 -5 5.79 4.32
 6 -2 -4 16.28 5.2
 6 -2 -3 28.74 5.94
 6 -2 -2 75.1 7.8
 6 -2 -1 14.73 4.66
 6 -2 0 494.53 16.35
 6 -2 1 9.63 5.06
 6 -2 3 34.19 5.95
 6 -2 4 9.41 5.28
 6 -2 5 5.91 3.98
 6 -2 6 11.99 4.67
 6 -2 7 2.82 4.33
 6 -2 8 120.18 9.77
 6 -2 9 15.28 5.97
 6 -1 -8 3.63 4.55
 6 -1 -7 12.77 4.63
 6 -1 -6 9.94 4.41
 6 -1 -5 8.32 4.04
 6 -1 -4 99.08 7.95
 6 -1 -2 77.99 6.87
 6 -1 -1 44.28 6.42
 6 -1 0 66.18 6.72
 6 -1 1 36.86 5.43
 6 -1 2 66.89 6.86
 6 -1 3 52.01 6.04
 6 -1 4 100.75 7.65
 6 -1 5 1.36 3.45
 6 -1 6 5.54 3.66
 6 -1 7 13.29 4.52
 6 -1 8 8.9 4.64
 6 0 -8 14.27 4.96
 6 0 -6 111.93 8
 6 0 -5 2.76 3.33
 6 0 -4 2.73 2.95
 6 0 -3 4.19 3.12
 6 0 -2 243.65 10.07
 6 0 -1 7.61 3.35
 6 0 1 6.31 3.04
 6 0 2 246.77 9.74
 6 0 3 1.88 3.13
 6 0 4 1.64 2.97
 6 0 5 1.44 2.99
 6 0 6 105.42 7.13
 6 1 -8 6.18 3.38
 6 1 -7 20.57 4.19
 6 1 -1 52.34 4.75
 6 1 0 72.87 5.31
 6 1 1 44.09 4.49
 6 1 2 74.42 5.23
 6 1 3 51.08 4.79
 7 -6 -8 5.31 7.52
 7 -6 -7 13.86 8.48
 7 -6 -6 63.79 10.88
 7 -6 -5 40.35 9.39
 7 -6 -3 1.69 8.49
 7 -6 -2 2.6 7.81
 7 -6 -1 7.69 8.63
 7 -6 1 6.5 7
 7 -6 2 10.53 7.07
 7 -6 3 6.6 6.79
 7 -6 4 18.69 8.79
 7 -6 5 42.02 10.04
 7 -6 6 55.23 9.89
 7 -6 7 20.86 8.31
 7 -6 8 4.62 8.44
 7 -5 -12 53.93 11
 7 -5 -11 30.49 8.87
 7 -5 -10 10.16 8.5
 7 -5 -9 10.74 6.97
 7 -5 -8 7.25 8.36
 7 -5 -7 10.09 7.35
 7 -5 -6 -0.5 6.36
 7 -5 -5 66.95 9.84
 7 -5 -4 47.71 9.19
 7 -5 -3 3.77 6.51
 7 -5 -2 70.4 10.14
 7 -5 -1 122 12.56
 7 -5 0 67.43 11.35
 7 -5 1 135.21 12.74
 7 -5 2 52.47 8.98
 7 -5 3 -2.31 6.83
 7 -5 5 67.46 10.21
 7 -5 7 9.72 7.2
 7 -5 8 10.16 7.6
 7 -5 9 12.26 6.94
 7 -5 10 1.76 7.46
 7 -4 -14 2.43 7.25
 7 -4 -13 40.08 9.79
 7 -4 -12 70.15 11.82
 7 -4 -11 10.7 6.76
 7 -4 -10 60.25 10.27
 7 -4 -9 28.06 7.84
 7 -4 -8 20.06 7.53
 7 -4 -7 16.05 7.99
 7 -4 -6 12.4 8.11
 7 -4 -5 -1.9 6.91
 7 -4 -4 12.44 6.97
 7 -4 -2 70.13 10.22
 7 -4 -1 159.12 13.34
 7 -4 0 146.12 11.73
 7 -4 1 161.78 12.87
 7 -4 2 89 9.56
 7 -4 3 36.15 8.63
 7 -4 5 1.36 6.21
 7 -4 6 10.54 6.22
 7 -4 7 18.34 6.72
 7 -4 8 23.06 8.29
 7 -4 9 26.8 7.64
 7 -4 10 62.49 9.82
 7 -3 -14 184.38 14.35
 7 -3 -13 32 8.77
 7 -3 -11 11.3 7.18
 7 -3 -10 2.2 6.05
 7 -3 -8 33.27 8.15
 7 -3 -7 93.7 10.92
 7 -3 -6 18.88 7.37
 7 -3 -5 44.41 7.91
 7 -3 -4 9.52 5.98
 7 -3 -3 136.48 11.91
 7 -3 -2 22.6 6.37
 7 -3 -1 59.47 8.93
 7 -3 0 6.19 5.44
 7 -3 1 59.41 8.06
 7 -3 2 18.68 6.73
 7 -3 3 156.34 11.68
 7 -3 4 11.72 5.5
 7 -3 5 32.92 7.07
 7 -3 6 24.62 7.17
 7 -3 7 94.59 10.48
 7 -3 8 45.85 7.98
 7 -3 9 18.74 6.4
 7 -2 -14 11.72 7.75
 7 -2 -13 14.89 6.58
 7 -2 -12 -2.65 6.05
 7 -2 -11 39.69 7.98
 7 -2 -10 0.98 5.32
 7 -2 -9 31.92 7.33
 7 -2 -8 18.98 6.1
 7 -2 -7 34.44 6.83
 7 -2 -6 25.01 6.68
 7 -2 -5 0.64 4.68
 7 -2 -4 3.41 5.45
 7 -2 -3 18.78 5.64
 7 -2 -2 275.29 13.79
 7 -2 -1 4.11 5.6
 7 -2 0 24.54 6.66
 7 -2 1 12.85 5.51
 7 -2 2 276.99 13.43
 7 -2 4 3.58 4.79
 7 -2 5 9.84 5.26
 7 -2 6 24.9 6.2
 7 -2 7 27.56 6.11
 7 -2 8 15.07 5.22
 7 -1 -12 12.58 6.51
 7 -1 -11 6 6.57
 7 -1 -10 6.33 6.04
 7 -1 -9 52.71 8.09
 7 -1 -7 1.62 4.91
 7 -1 -6 31.7 5.92
 7 -1 -5 28.31 5.81
 7 -1 -4 125.91 9.68
 7 -1 -3 12.18 5.3
 7 -1 -2 28 6.04
 7 -1 0 4.11 3.79
 7 -1 2 27.13 5.92
 7 -1 3 16.49 5.48
 7 -1 4 148.27 9.5
 7 -1 5 32 5.56
 7 -1 6 27.56 5.71
 7 0 -12 -2.49 4.29
 7 0 -11 10.42 5.1
 7 0 -10 0.36 4.61
 7 0 -9 14.92 5.61
 7 0 -8 13 4.99
 7 0 -7 7.59 4.22
 7 0 -6 7.34 4.1
 7 0 -5 16.41 4.75
 7 0 -4 9.09 4.29
 7 0 -3 34.38 5.34
 7 0 -2 16.07 4.56
 7 0 -1 37.94 5.25
 7 0 1 39.92 5.26
 7 0 2 13.41 4.43
 7 0 4 10.94 4.5
 8 -4 -8 5.37 7.23
 8 -4 -7 5.35 6.93
 8 -4 -6 10.59 8.29
 8 -4 -5 72.51 11.78
 8 -4 -4 54.01 10.72
 8 -4 -3 56.2 10.85
 8 -4 -2 42.21 9.79
 8 -4 -1 5.96 6.73
 8 -4 0 65.34 9.3
 8 -4 1 0.85 5.92
 8 -4 2 43.6 9.23
 8 -4 3 58.96 9.74
 8 -4 4 62.57 10.07
 8 -4 5 58.38 10.7
 8 -4 6 4.03 6.38
 8 -4 7 5.57 7.28
 8 -4 8 4.47 6.71
 8 -3 -11 1.56 7.53
 8 -3 -10 13.57 7.25
 8 -3 -8 -6.72 6.82
 8 -3 -7 147.7 13.07
 8 -3 -6 2.15 6.18
 8 -3 -5 13.13 7.19
 8 -3 -4 16.47 7.71
 8 -3 -3 0.71 6.03
 8 -3 -2 211.38 13.54
 8 -3 -1 30.5 7.78
 8 -3 1 32.49 7.64
 8 -3 2 179.98 13.09
 8 -3 3 7.36 5.7
 8 -3 4 22.25 7.92
 8 -3 5 9.26 5.93
 8 -3 7 153.08 12.39
 8 -2 -9 62.69 9.2
 8 -2 -8 94.96 10.77
 8 -2 -7 1.21 5.76
 8 -2 -6 4.76 5.44
 8 -2 -5 29.99 6.89
 8 -2 -4 3.4 5.94
 8 -2 -3 32.85 6.96
 8 -2 -2 90.53 9.76
 8 -2 -1 41.82 7.04
 8 -2 0 38.96 7.51
 8 -2 1 32.66 6.68
 8 -2 2 105.02 9.9
 8 -2 3 35.71 7.49
 8 -2 4 9.68 5.39
 8 -2 5 31.94 7.11
 0 -6 5 41.76 3.89
 0 -6 6 430.27 10.64
 0 -6 9 294.28 10.53
 0 -6 10 9.42 3.38
 0 -5 1 310.73 5.88
 0 -5 4 88.41 4.45
 0 -5 5 419.01 9.34
 0 -5 7 46.76 4.6
 0 -5 10 7.54 3.28
 0 -5 11 9.57 3.25
 0 -5 12 45.62 5.56
 0 -5 13 90.35 7.6
 0 -5 14 680.52 18.02
 0 -4 -1 1130.05 7.26
 0 -4 0 170.29 3.62
 0 -4 2 1870.02 14.5
 0 -4 3 905.57 11.07
 0 -4 4 170.2 5.39
 0 -4 5 212.22 6.52
 0 -4 6 113.1 5.2
 0 -4 7 332.7 9.01
 0 -4 8 30.9 4.02
 0 -4 12 -0.27 3.47
 0 -4 14 0.77 3.39
 0 -4 15 25.78 5.23
 0 -4 16 47.69 6.29
 0 -3 -7 307.28 4.66
 0 -3 2 1.39 1.19
 0 -3 3 1399.51 12.66
 0 -3 4 205.84 5.54
 0 -3 5 580.49 9.67
 0 -3 6 56.2 3.73
 0 -3 7 309.35 8.2
 0 -3 8 21.81 3.23
 0 -3 9 372.36 10.01
 0 -3 10 60.53 5.27
 0 -3 13 87.17 6.77
 0 -3 15 1116.39 22.19
 0 -3 16 158.17 9.14
 0 -2 -5 977.02 7.29
 0 -2 -4 1823.73 8.17
 0 -2 2 1931.48 11.83
 0 -2 4 1760.77 14.22
 0 -2 5 959.07 11.35
 0 -2 6 1180.27 13.74
 0 -2 7 1448.22 16.27
 0 -2 8 150.41 5.83
 0 -2 9 236.91 7.77
 0 -2 10 4.85 2.38
 0 -2 11 391.98 10.74
 0 -2 14 172.23 8.49
 0 -2 15 149.75 8.9
 0 -1 -4 522.12 5.44
 0 -1 2 0.23 0.93
 0 -1 3 833.45 7.94
 0 -1 4 511.28 7.2
 0 -1 6 1713.97 15.27
 0 -1 8 28.37 3.18
 0 -1 9 107.89 5.08
 0 -1 10 40.05 3.96
 0 -1 11 7.35 2.44
 0 -1 15 1012.27 19.72
 0 -1 16 1645.62 25.7
 0 0 -2 486.73 4.27
 0 0 4 1650.04 11.05
 0 0 6 3.96 2.01
 0 0 8 0.71 1.76
 0 0 10 401.94 9.36
 0 1 -2 -0.36 1.15
 0 1 -1 281.47 3.37
 0 1 4 494.59 5.42
 0 1 5 984.54 8.7
 0 1 6 1756.38 13.07
 0 1 7 886.84 10.32
 0 1 8 28.78 2.87
 0 1 9 110.9 4.8
 0 1 11 5.24 2.39
 0 2 -1 3883.67 14.55
 1 -8 7 100.44 6.47
 1 -8 8 45.83 5.38
 1 -8 9 153.43 8.64
 1 -8 10 2.33 3.25
 1 -8 11 18.78 5.47
 1 -8 12 43.76 6.81
 1 -7 1 48.97 3.09
 1 -7 7 79.82 5.85
 1 -7 8 40.05 5.34
 1 -7 9 2.16 3.66
 1 -7 10 96.5 7.43
 1 -7 11 94.48 7.89
 1 -7 12 212.97 10.99
 1 -7 13 98.84 8.93
 1 -7 14 271.75 13.25
 1 -7 15 119.42 10.43
 1 -7 16 13.05 6.42
 1 -7 17 33.08 7.31
 1 -6 -4 251.07 3.39
 1 -6 -3 242.91 4.16
 1 -6 -2 315.77 5.39
 1 -6 -1 115.81 3.78
 1 -6 0 477.64 8.08
 1 -6 2 312.74 7.54
 1 -6 3 238.3 7.09
 1 -6 4 248.86 7.67
 1 -6 5 64.59 4.73
 1 -6 9 51.61 5.29
 1 -6 10 15.03 4.41
 1 -6 11 161.52 9.07
 1 -6 12 44.91 5.91
 1 -6 13 57.65 6.94
 1 -6 14 25.12 6.13
 1 -6 15 38.64 6.59
 1 -6 16 13.53 5.49
 1 -6 18 47.39 7.81
 1 -5 -4 35.92 1.95
 1 -5 -3 300.72 5.11
 1 -5 -2 125.27 3.67
 1 -5 2 120.91 4.76
 1 -5 3 304.34 7.57
 1 -5 4 37.12 3.57
 1 -5 6 78.99 5.22
 1 -5 10 77.17 5.99
 1 -5 11 148.25 8.3
 1 -5 12 89.51 7.38
 1 -5 13 23.59 4.72
 1 -5 14 237.89 11.48
 1 -5 15 22.95 5.17
 1 -5 17 12.68 5.05
 1 -5 18 8.41 5.96
 1 -5 20 9.38 6.98
 1 -4 0 1395.2 12.61
 1 -4 1 399.47 7.31
 1 -4 2 247.97 6.23
 1 -4 3 851.65 11.93
 1 -4 4 324.63 7.93
 1 -4 5 9.18 2.66
 1 -4 6 805.65 13.49
 1 -4 7 173.8 7.02
 1 -4 8 210.53 8.02
 1 -4 11 357.11 11.5
 1 -4 12 5 3.28
 1 -4 14 225.08 10.51
 1 -4 15 175.25 9.94
 1 -4 16 31.52 5.72
 1 -4 17 44.78 6.73
 1 -4 18 120.83 10.17
 1 -4 19 12.6 5.3
 1 -4 21 20.16 7.95
 1 -3 1 1342.08 12.68
 1 -3 3 373.71 7.58
 1 -3 4 933.86 12.48
 1 -3 6 59.27 4.2
 1 -3 7 41.88 4.08
 1 -3 8 65.23 4.38
 1 -3 9 939.54 15.83
 1 -3 13 371.05 11.93
 1 -3 14 24.56 4.56
 1 -3 15 41.29 5.52
 1 -3 16 631.85 17.33
 1 -3 17 116.39 9.33
 1 -3 18 64.47 7.97
 1 -3 19 62.52 7.24
 1 -3 20 132.75 10.47
 1 -3 21 153.75 11.85
 1 -3 22 122.62 11.13
 1 -2 3 1247.44 12.51
 1 -2 4 294.49 6.83
 1 -2 5 106.3 4.83
 1 -2 6 1410.07 16.05
 1 -2 7 890.97 13.33
 1 -2 8 130.36 5.87
 1 -2 9 605.48 12.12
 1 -2 14 432.16 12.8
 1 -2 15 267.88 10.73
 1 -2 16 6.88 3.7
 1 -2 17 35.33 5.67
 1 -2 18 1.58 3.68
 1 -2 19 9 4.52
 1 -2 20 149.18 10.73
 1 -2 22 28.74 6.87
 1 -1 4 17.99 2.53
 1 -1 5 2237.35 17.5
 1 -1 7 938.74 12.97
 1 -1 8 189.38 6.5
 1 -1 9 629.63 11.74
 1 -1 10 482.34 10.69
 1 -1 11 167.34 7.02
 1 -1 15 732.4 16.57
 1 -1 17 130.74 8.59
 1 -1 18 81.37 7.81
 1 0 4 339.66 6.31
 1 0 5 1105.77 11.39
 1 0 6 6059.59 28.16
 1 0 7 3212.31 22.06
 1 0 8 548.24 10.01
 1 0 9 84.27 4.72
 1 0 10 1285.98 16.51
 1 0 11 104.59 5.56
 1 0 16 247.6 10.15
 1 0 17 118.25 8.02
 1 0 18 5.45 3.95
 1 0 19 47.53 6.69
 1 0 21 28.95 6.93
 1 1 5 2170.08 14.38
 1 1 6 1632.19 13.55
 1 1 7 935.25 11.07
 1 1 9 610.3 10.23
 1 1 11 170.7 6.3
 1 1 12 665.13 12.54
 1 1 16 108.07 6.98
 1 1 17 130.4 7.94
 1 1 18 92.53 7.4
 1 1 19 16.21 4.61
 1 2 5 108.42 3.13
 1 2 6 1343.8 10.83
 1 2 7 870.79 9.55
 1 2 8 123.24 4.21
 1 2 9 611.12 9.38
 1 2 10 258.88 6.71
 1 2 12 236.07 7.29
 1 2 13 291.68 8.49
 1 2 14 434.52 10.86
 1 3 4 922.06 5.74
 1 3 5 110.96 2.42
 1 3 6 58.05 2.07
 1 3 7 39.63 2.07
 1 3 8 68.98 2.9
 1 3 9 969.66 10.51
 1 3 10 45.33 3.03
 1 3 11 26.7 2.84
 1 3 12 308.79 7.65
 1 3 13 367.66 8.83
 1 3 14 22.2 3.42
 1 4 1 390.02 4.58
 2 -9 11 44.4 7.16
 2 -9 14 25.88 6.74
 2 -9 15 14.47 6.46
 2 -8 6 6.33 3.19
 2 -8 7 36.2 5.24
 2 -8 8 84.54 6.89
 2 -8 9 42.13 5.86
 2 -8 10 35.43 5.67
 2 -8 11 95.96 8.2
 2 -8 13 42.23 7.84
 2 -8 14 21.68 6.38
 2 -8 16 18.02 6.94
 2 -8 19 1.74 6.69
 2 -7 1 82 4.77
 2 -7 5 128.49 6.97
 2 -7 6 1.17 2.62
 2 -7 8 33.57 5
 2 -7 9 284.76 11.44
 2 -7 10 0.83 3.49
 2 -7 11 53.96 7.38
 2 -7 12 28.21 5.51
 2 -7 14 8.44 4.91
 2 -7 16 16.2 6
 2 -7 17 70.3 10.27
 2 -7 18 140.52 11.55
 2 -7 19 23.73 8.82
 2 -7 20 48.65 9.18
 2 -7 21 6.61 8.58
 2 -6 0 12.06 2.46
 2 -6 1 112.75 5.42
 2 -6 2 123.66 5.95
 2 -6 3 318.92 9.41
 2 -6 6 67.99 5.62
 2 -6 8 7.61 3.33
 2 -6 9 18.01 4.13
 2 -6 10 68.91 6.27
 2 -6 11 46.77 6.18
 2 -6 13 25.17 5.62
 2 -6 15 113.64 9.79
 2 -6 16 2.61 5.35
 2 -6 17 80.73 8.69
 2 -6 18 -0.84 5.64
 2 -6 19 86.15 10.74
 2 -6 20 18.32 6.91
 2 -6 21 66.84 10.78
 2 -6 23 107.08 11.64
 2 -5 0 54.44 4.03
 2 -5 1 128.28 5.64
 2 -5 2 334.08 8.91
 2 -5 3 256.93 8.22
 2 -5 4 249.27 8.44
 2 -5 9 159.78 8.25
 2 -5 10 39.94 5.89
 2 -5 11 7.31 4.28
 2 -5 12 158.05 9.43
 2 -5 13 316.51 12.94
 2 -5 14 -3.43 4.45
 2 -5 15 26.33 6.29
 2 -5 17 39.1 7.08
 2 -5 18 77.28 8.49
 2 -5 19 122.52 10.98
 2 -5 20 42.34 9.05
 2 -5 22 23.74 7.67
 2 -5 23 13.28 7.22
 2 -5 24 0.53 7.58
 2 -4 3 466.86 10.45
 2 -4 4 84.48 5.24
 2 -4 5 199.38 7.4
 2 -4 6 272.34 9.01
 2 -4 9 2.94 2.61
 2 -4 10 15.37 4.2
 2 -4 11 92.27 6.77
 2 -4 12 42.4 5.4
 2 -4 14 378.2 13.85
 2 -4 15 110.39 8.47
 2 -4 17 31.8 6.22
 2 -4 18 8.24 4.91
 2 -4 19 31.95 6.9
 2 -4 20 60.18 9.06
 2 -4 21 179.82 13.27
 2 -4 22 66.69 10.77
 2 -4 23 86.88 11.7
 2 -4 24 56.08 10.08
 2 -4 25 16.15 7.63
 2 -3 4 31.12 3.37
 2 -3 5 437.48 10.27
 2 -3 6 506.59 11.3
 2 -3 7 13.78 3.25
 2 -3 11 169.28 8.39
 2 -3 13 208.46 9.61
 2 -3 14 10.3 4.38
 2 -3 15 69.13 7.31
 2 -3 16 83.49 7.3
 2 -3 17 84.65 7.93
 2 -3 19 26.94 6.82
 2 -3 23 57.63 9.57
 2 -3 25 7.43 7.28
 2 -2 6 905.01 14.7
 2 -2 7 297.96 8.87
 2 -2 8 379.65 10.34
 2 -2 13 57.31 5.83
 2 -2 14 56.76 5.52
 2 -2 15 98.95 7.59
 2 -2 16 70.99 6.95
 2 -2 17 166.72 9.98
 2 -2 18 1.46 4.82
 2 -2 19 14.72 5.5
 2 -2 21 269.13 13.56
 2 -2 22 7.25 5.18
 2 -2 23 10.98 5.85
 2 -2 24 11.86 6.41
 2 -2 25 21.48 7.33
 2 -1 7 102.28 5.46
 2 -1 8 48.49 3.97
 2 -1 9 443.34 10.8
 2 -1 10 196.65 7.9
 2 -1 13 97.28 6.8
 2 -1 14 202.27 9.15
 2 -1 15 30.46 4.67
 2 -1 16 11.97 4.52
 2 -1 17 31.19 5.32
 2 -1 18 113.9 9.02
 2 -1 19 0.32 4.01
 2 -1 20 108.03 8.79
 2 -1 21 91.23 9.15
 2 -1 23 22.81 7.88
 2 -1 24 67.22 10.12
 2 -1 25 0.68 6.58
 2 0 7 2.16 2.12
 2 0 9 25.02 3.32
 2 0 14 3.2 3.07
 2 0 15 7.12 3.94
 2 0 16 114.83 7.62
 2 0 17 101.77 7.5
 2 0 18 25.78 5.3
 2 0 19 4.49 4.1
 2 0 20 50.98 6.7
 2 0 21 5.01 4.81
 2 0 23 69.98 8.99
 2 0 24 15.77 6.21
 2 1 8 43.36 3.73
 2 1 9 443.99 9.85
 2 1 11 10.04 2.77
 2 1 12 157.21 7.1
 2 1 15 22.47 3.98
 2 1 16 12.08 3.46
 2 1 17 28.34 4.79
 2 1 18 126.41 8.43
 2 1 19 2 3.81
 2 1 20 120.55 8.88
 2 1 21 95.82 8.8
 2 1 23 25.05 6.25
 2 2 7 319.6 7.33
 2 2 8 398.09 8.44
 2 2 9 314.31 7.91
 2 2 10 392.99 9.12
 2 2 11 92.34 5.22
 2 2 12 225.27 7.78
 2 2 13 59.58 4.66
 2 2 16 50.06 5.35
 2 2 17 179.24 8.6
 2 2 18 5.51 4.01
 2 2 19 9.28 3.83
 2 2 20 11.76 5.09
 2 2 21 270.53 11.95
 2 2 22 10.22 4.85
 2 3 7 12.91 2.07
 2 3 8 404.86 7.86
 2 3 9 476.19 8.8
 2 3 11 177.24 6.15
 2 3 12 18.33 2.77
 2 3 13 195.39 7
 2 3 14 14.51 3.05
 2 3 17 80.55 6.11
 2 3 18 34.49 4.8
 2 3 19 19.2 4.38
 2 3 20 209.93 9.89
 2 4 6 294.71 5.36
 2 4 7 188.57 4.49
 2 4 8 352.94 6.36
 2 4 9 2.6 1.47
 2 4 10 14.94 2.14
 2 4 11 95.85 4.18
 2 4 12 38.41 3.2
 2 4 14 352.91 8.69
 2 4 16 30.27 3.91
 2 5 4 243.35 3.71
 2 5 5 82.65 1.93
 3 -9 10 12.21 5.07
 3 -9 12 19.52 5.89
 3 -9 13 77.69 9.31
 3 -9 14 11 7.21
 3 -9 15 6.83 6.19
 3 -9 16 43.87 8.78
 3 -8 4 116.65 7.11
 3 -8 5 29.15 5.13
 3 -8 6 97.01 7.21
 3 -8 7 76.12 7.16
 3 -8 8 53.57 6.38
 3 -8 9 35.64 6.52
 3 -8 10 43.28 6.53
 3 -8 11 69.57 8.38
 3 -8 12 0.45 4.34
 3 -8 13 48.33 8.32
 3 -8 14 0.7 4.84
 3 -8 15 99.34 10.73
 3 -8 16 2.29 5.86
 3 -8 17 73.86 10.4
 3 -8 18 8.75 6.66
 3 -8 19 14.57 7.62
 3 -7 0 18.99 3.76
 3 -7 1 86.53 5.93
 3 -7 2 65.21 5.7
 3 -7 3 220.3 9.22
 3 -7 4 17.36 3.92
 3 -7 5 92.94 6.9
 3 -7 6 62.34 6.44
 3 -7 7 53.34 6.58
 3 -7 8 28.45 5.89
 3 -7 9 67.52 7.53
 3 -7 10 24.74 5.89
 3 -7 11 27.23 5.73
 3 -7 12 0.4 4.26
 3 -7 13 36.65 7.64
 3 -7 14 -0.18 4.92
 3 -7 15 32.28 6.96
 3 -7 16 70.75 9.37
 3 -7 17 -0.3 6.96
 3 -7 18 7.09 6.3
 3 -7 19 191.68 13.8
 3 -7 20 17.4 8.73
 3 -7 21 7.19 8.3
 3 -6 3 332.94 10.8
 3 -6 4 64.11 6.02
 3 -6 6 113.71 7.61
 3 -6 7 205.74 10.08
 3 -6 8 304.83 11.96
 3 -6 9 49.47 6.28
 3 -6 10 30.95 5.5
 3 -6 12 96.22 8.71
 3 -6 13 65.29 7.98
 3 -6 14 46.02 7.42
 3 -6 15 137.76 10.53
 3 -6 16 7.79 5.57
 3 -6 17 80.55 9.64
 3 -6 18 9.92 6.2
 3 -6 19 33.3 8.81
 3 -6 20 48.77 10.39
 3 -6 21 -0.21 6.89
 3 -6 22 38.12 9.62
 3 -5 4 3 3.54
 3 -5 6 110.03 7.17
 3 -5 7 56.93 5.77
 3 -5 8 306.47 11.84
 3 -5 9 45.49 5.78
 3 -5 11 37.15 5.79
 3 -5 12 211.19 11.01
 3 -5 13 17.74 5.84
 3 -5 14 100.82 9.29
 3 -5 15 48.36 7.53
 3 -5 17 13.49 5.71
 3 -5 18 139.35 11.1
 3 -5 19 146.35 11.72
 3 -5 20 238.32 14.6
 3 -5 21 0.91 6.14
 3 -5 22 106.19 12.06
 3 -5 23 60.64 10.87
 3 -5 24 -0.35 8.33
 3 -4 7 100.67 6.88
 3 -4 8 678.43 16.22
 3 -4 9 11.01 4.21
 3 -4 10 204.19 10.16
 3 -4 11 48.43 5.85
 3 -4 12 175.47 10.13
 3 -4 13 32.53 5.82
 3 -4 15 43.27 6.58
 3 -4 16 12.41 5.17
 3 -4 17 22.42 6.71
 3 -4 18 73.87 9.71
 3 -4 21 59.4 8.87
 3 -4 22 16.07 6.91
 3 -4 24 6.58 6.9
 3 -4 25 17.52 7.88
 3 -3 8 209.01 9.15
 3 -3 9 80.22 6.37
 3 -3 10 38.62 5.26
 3 -3 11 53.08 6.02
 3 -3 12 247.46 11.2
 3 -3 13 5.23 4.42
 3 -3 14 69.4 6.81
 3 -3 15 71.04 7.62
 3 -3 16 66.15 7.27
 3 -3 18 108.48 9.79
 3 -3 19 -4.73 4.43
 3 -3 20 122.56 11.3
 3 -3 21 62.35 9.96
 3 -3 23 83.5 10.49
 3 -3 24 32.98 8.37
 3 -3 25 35.81 9.21
 3 -3 26 59.23 11.04
 3 -2 10 19.18 3.98
 3 -2 12 79.92 7.04
 3 -2 13 14.08 4.68
 3 -2 14 72.57 7.34
 3 -2 15 48.49 6.28
 3 -2 16 56.25 7.45
 3 -2 19 88.7 9.02
 3 -2 20 7.13 6.23
 3 -2 21 208.15 13.12
 3 -2 23 133.61 12.62
 3 -2 24 19 8.36
 3 -2 25 5.61 6.64
 3 -2 26 0.81 6.26
 3 -1 12 133.28 7.75
 3 -1 13 375.16 12.57
 3 -1 14 126.96 8.28
 3 -1 15 174.51 9.53
 3 -1 16 4.51 3.72
 3 -1 17 12.56 4.73
 3 -1 18 22.29 5.94
 3 -1 19 43.07 6.61
 3 -1 20 53.65 8.51
 3 -1 21 71.12 8.79
 3 -1 22 12.84 5.94
 3 -1 23 65.72 9.89
 3 -1 25 20.54 7.74
 3 -1 26 18.49 8.49
 3 -1 27 8.13 7.9
 3 0 12 66.68 5.87
 3 0 14 2.31 3.12
 3 0 16 119.81 8.25
 3 0 18 2.25 4.15
 3 0 19 -1.18 4.89
 3 0 20 -2.25 4.01
 3 0 21 511.01 17.96
 3 0 22 4.85 5.14
 3 0 23 92.9 10.44
 3 0 24 -2.92 5.12
 3 0 25 -4.82 5.91
 3 0 26 42.9 9.26
 3 0 27 8.1 6.65
 3 1 9 266.63 8.92
 3 1 13 366.92 11.71
 3 1 14 135.6 7.93
 3 1 15 176.03 8.99
 3 1 16 5.33 3.62
 3 1 17 15.23 4.5
 3 1 18 15.2 4.67
 3 1 19 62.08 6.81
 3 1 20 47.45 6.96
 3 1 21 64.31 8.35
 3 1 22 11.79 5.16
 3 1 23 69.49 9.37
 3 1 24 174.05 12.05
 3 1 25 27.26 7.76
 3 1 26 16.62 7.37
 3 2 9 545.26 12.03
 3 2 10 12.18 3.17
 3 2 14 78.03 5.98
 3 2 15 50.82 5.82
 3 2 16 64.53 6.11
 3 2 17 43.33 5.52
 3 2 18 49.37 5.85
 3 2 20 14.74 5.62
 3 2 21 194.34 11.01
 3 2 22 77.84 8.23
 3 2 24 13.6 5.7
 3 2 25 7.35 6.43
 3 3 11 45.44 4.6
 3 3 12 233.74 8.32
 3 3 15 89.11 6.21
 3 3 16 65.83 5.89
 3 3 17 20.98 4.11
 3 3 18 113.99 7.52
 3 3 19 1.79 3.42
 3 3 20 114.42 8.23
 3 3 21 57.69 7.09
 3 3 23 83.66 8.53
 3 4 9 3.78 2.24
 3 4 10 190.77 6.55
 3 4 11 54.37 4.14
 3 4 12 191.82 6.92
 3 4 13 19.75 3.4
 3 4 17 12.01 3.67
 3 4 18 76.92 6.18
 3 5 7 57 3.36
 3 5 8 317.43 6.79
 3 5 9 45.83 3.19
 3 5 10 160.15 5.08
 3 5 11 33.92 3.05
 4 -9 7 -3.16 3.69
 4 -9 9 10.45 5.08
 4 -9 10 47.99 8.04
 4 -9 12 6.17 6.76
 4 -9 13 28.17 7.36
 4 -9 14 25.54 8.07
 4 -8 -1 -1.13 2.25
 4 -8 0 -0.16 2.22
 4 -8 1 -0.79 2.4
 4 -8 3 23.73 5.23
 4 -8 5 26.43 5.61
 4 -8 6 38.8 6.76
 4 -8 7 62.88 7.77
 4 -8 8 4.64 4.42
 4 -8 9 5.29 5.71
 4 -8 10 47.57 8.21
 4 -8 11 24.42 5.97
 4 -8 12 46.65 8.2
 4 -8 13 20.23 7.22
 4 -8 14 102.58 10.22
 4 -8 15 24.91 7.77
 4 -8 16 42.71 9.79
 4 -7 -1 177.39 8.8
 4 -7 0 115.29 7.54
 4 -7 1 183.39 9.26
 4 -7 2 71.96 6.71
 4 -7 3 25.25 5.74
 4 -7 4 -4.5 4.1
 4 -7 5 54.47 7.23
 4 -7 6 17.18 5.22
 4 -7 7 15.07 5.15
 4 -7 9 188.86 11.58
 4 -7 10 67.53 8.67
 4 -7 11 43.14 7.87
 4 -7 12 37.04 8.12
 4 -7 14 16.41 6.71
 4 -7 15 6.72 5.95
 4 -7 16 55.4 9.02
 4 -7 17 17.94 7.1
 4 -7 18 7.22 7.38
 4 -7 19 27.81 9.93
 4 -6 2 8.57 3.96
 4 -6 3 190.45 9.96
 4 -6 4 4.26 3.74
 4 -6 5 30.65 5.65
 4 -6 6 13.79 5.42
 4 -6 7 48.97 6.63
 4 -6 8 112.8 9.05
 4 -6 9 9.63 5.87
 4 -6 10 265.15 13.11
 4 -6 11 55.89 7.68
 4 -6 12 2.06 4.75
 4 -6 13 204.66 12.29
 4 -6 14 82.84 9.54
 4 -6 15 64.4 9.17
 4 -6 17 42.06 8.42
 4 -6 18 42.37 8.6
 4 -6 19 7.58 6.88
 4 -6 20 75.98 10.84
 4 -5 5 298.66 12.19
 4 -5 6 110.92 7.79
 4 -5 7 193.48 10.59
 4 -5 8 21.32 5.11
 4 -5 9 193.86 10.93
 4 -5 10 34.74 6.04
 4 -5 11 5.26 5.33
 4 -5 12 77.85 7.89
 4 -5 14 10.89 6.56
 4 -5 15 -0.07 5.17
 4 -5 16 37.25 7.26
 4 -5 19 4.29 6.61
 4 -5 20 85.97 12.06
 4 -5 21 18.84 9.27
 4 -5 22 10.84 8.95
 4 -4 6 407.55 13.64
 4 -4 7 221.48 10.63
 4 -4 8 61.4 6.75
 4 -4 9 68.54 7.72
 4 -4 10 100.89 8.44
 4 -4 11 197.82 11.08
 4 -4 12 33.85 7.35
 4 -4 13 8.42 4.74
 4 -4 14 86.41 9.46
 4 -4 16 45.77 7.69
 4 -4 17 160.01 12.31
 4 -4 18 2.87 5.36
 4 -4 19 29.15 7.45
 4 -4 20 0.57 6.53
 4 -4 22 153.1 13.85
 4 -4 23 77.07 11.29
 4 -3 9 43.36 5.79
 4 -3 10 310.07 12.62
 4 -3 12 280.13 13.07
 4 -3 13 86.06 8.62
 4 -3 14 97.73 8.47
 4 -3 15 20.02 6.66
 4 -3 17 23.5 7.52
 4 -3 18 45.73 7.81
 4 -3 19 73.14 10.28
 4 -3 20 19.13 7.06
 4 -3 21 18.23 7.08
 4 -3 24 37.81 9.19
 4 -2 9 54.85 6.54
 4 -2 10 105.03 7.62
 4 -2 11 70.51 6.6
 4 -2 12 23.27 5.05
 4 -2 13 37.87 5.89
 4 -2 14 141.14 9.5
 4 -2 16 102.5 9.85
 4 -2 17 28.59 6.25
 4 -2 18 139.33 10.92
 4 -2 19 19.3 6.41
 4 -2 21 8.34 5.95
 4 -2 22 39.66 9.33
 4 -2 23 154.49 12.52
 4 -2 24 119.49 12.79
 4 -2 25 10.98 8.96
 4 -1 11 21.33 4.58
 4 -1 12 140.56 9.44
 4 -1 13 16.46 5.02
 4 -1 14 12.74 4.72
 4 -1 15 100.64 9.09
 4 -1 16 51.92 7.75
 4 -1 18 27.13 6.02
 4 -1 21 206.85 12.82
 4 -1 22 133.81 12.19
 4 -1 23 9.7 6.48
 4 -1 24 104.59 11.91
 4 -1 25 0.23 6.67
 4 -1 26 46.8 9.79
 4 0 10 9.39 4.24
 4 0 12 21.64 5.34
 4 0 13 0.86 3.49
 4 0 14 451.02 15.07
 4 0 15 33.02 6.3
 4 0 16 33.47 6.71
 4 0 18 14.78 5.62
 4 0 19 278.25 13.35
 4 0 20 171.1 11.68
 4 0 21 115.81 10.94
 4 0 22 -1.79 4.91
 4 0 23 2.63 6.63
 4 0 24 114.55 11.71
 4 0 26 25.45 8.18
 4 1 10 82.51 6.59
 4 1 11 24.83 4.47
 4 1 13 6.48 3.66
 4 1 14 11.39 4.78
 4 1 15 96.59 7.73
 4 1 16 61.12 7
 4 1 18 25.59 6.05
 4 1 19 20.21 5.83
 4 1 20 103.91 9.3
 4 1 21 224.21 12.62
 4 1 22 138.77 11.32
 4 1 23 17.22 7.13
 4 1 24 114.21 10.83
 4 1 25 9.17 7.88
 4 1 26 37.72 8.03
 4 2 10 107.83 7.26
 4 2 11 83.01 6.62
 4 2 12 20.94 4.86
 4 2 14 155.41 8.85
 4 2 15 223.79 10.61
 4 2 17 17.32 4.99
 4 2 18 145.04 9.65
 4 2 19 21.43 6.27
 4 2 21 8.97 5.43
 4 2 22 42.65 7.28
 4 2 23 162.75 11.34
 4 2 24 123.82 10.76
 4 2 25 23.94 7.48
 4 3 11 17.77 3.82
 4 3 12 277.54 10.16
 4 3 13 77.08 6.31
 4 3 15 13.53 4.17
 4 3 16 15.92 4.3
 4 3 17 26.88 5.26
 4 3 18 68.67 7.08
 4 3 19 65.01 7.15
 4 3 20 17.48 5.01
 4 3 21 17.29 5.3
 4 4 13 15.44 3.66
 4 4 14 85.31 6.22
 4 4 15 217.6 8.98
 4 4 16 37.49 5.29
 4 4 17 152.79 8.39
 4 5 8 21.75 3.54
 4 5 9 214.64 7.46
 4 5 10 42.44 4.25
 4 5 11 3.49 2.66
 5 -9 8 6.96 6.34
 5 -9 9 5.23 5.53
 5 -9 10 0.86 6.42
 5 -8 1 22.64 5.19
 5 -8 2 7.7 4.78
 5 -8 3 3.15 4.46
 5 -8 4 64.01 7.62
 5 -8 5 36.09 7.38
 5 -8 6 3.7 5.84
 5 -8 7 6.31 5.35
 5 -8 8 5.31 5.32
 5 -8 10 86.51 10.17
 5 -8 11 10.67 6.21
 5 -8 12 42.96 7.88
 5 -8 13 67.75 9.73
 5 -7 0 16.07 4.84
 5 -7 1 160.4 10.1
 5 -7 2 76.99 7.9
 5 -7 3 108.35 9.05
 5 -7 4 61.79 7.9
 5 -7 5 79.74 8.55
 5 -7 6 31.79 6.81
 5 -7 7 33.45 6.91
 5 -7 9 53.8 8.25
 5 -7 10 22.6 6.67
 5 -7 11 10.97 6
 5 -7 12 7.53 5.78
 5 -7 13 24.84 7.04
 5 -7 14 25.54 7.16
 5 -7 15 -4.17 5.88
 5 -7 16 13.35 7.63
 5 -6 3 -0.83 4.52
 5 -6 4 1.55 3.97
 5 -6 6 266.63 13.43
 5 -6 7 3.26 5.1
 5 -6 8 5.78 4.82
 5 -6 9 17.8 6.03
 5 -6 10 11.05 6.18
 5 -6 11 29.53 8.17
 5 -6 12 56.9 9.81
 5 -6 13 15.29 7.26
 5 -6 14 59.83 9.28
 5 -6 15 62.23 9.59
 5 -6 16 227.59 14.49
 5 -6 17 28.45 7.98
 5 -6 18 49.75 9.27
 5 -5 6 16.64 5.87
 5 -5 8 18.16 5.89
 5 -5 10 146.79 10.65
 5 -5 12 14.33 6.63
 5 -5 13 6.22 5.46
 5 -5 14 96.06 10.85
 5 -5 15 27.48 8.7
 5 -5 16 27.45 8.11
 5 -5 17 46.93 8.55
 5 -5 18 62.38 9.51
 5 -5 19 1.72 6.68
 5 -4 7 23.51 6.54
 5 -4 8 80.81 7.88
 5 -4 9 9.13 5.02
 5 -4 10 11.02 5.45
 5 -4 11 17.47 5.81
 5 -4 13 101.65 10.23
 5 -4 14 44.7 8.27
 5 -4 15 20.89 7.92
 5 -4 16 146.95 11.68
 5 -4 17 137.06 12.52
 5 -4 18 18.63 8.56
 5 -4 19 26.34 7.59
 5 -4 20 109.04 12.23
 5 -3 9 136.87 10.28
 5 -3 11 67.79 8.31
 5 -3 13 22.49 6.19
 5 -3 14 19.97 6.8
 5 -3 15 62 9.05
 5 -3 16 23.96 7.12
 5 -3 17 16.55 6.86
 5 -3 18 38.98 8.68
 5 -3 19 1.71 5.82
 5 -3 20 11.52 8.58
 5 -3 21 -1.57 5.87
 5 -3 22 57.29 10.22
 5 -2 10 88.27 8.76
 5 -2 11 88.03 8.76
 5 -2 12 20.23 5.76
 5 -2 13 104.92 9
 5 -2 15 122.68 11.17
 5 -2 16 1.2 5.15
 5 -2 18 49.63 8.95
 5 -2 19 98.75 10.81
 5 -2 22 79.06 11.58
 5 -2 23 19.82 8.33
 5 -1 10 41.2 7.19
 5 -1 11 4.17 5.4
 5 -1 12 1.81 5.23
 5 -1 15 151.32 11.47
 5 -1 16 82.52 9.35
 5 -1 17 -2.47 4.91
 5 -1 19 19.53 6.97
 5 -1 20 134.47 11.42
 5 -1 21 28.85 9.03
 5 -1 22 25.73 7.5
 5 0 11 68.24 7.9
 5 0 12 -4.12 4.68
 5 0 13 156.09 10.57
 5 0 14 607.89 18.82
 5 0 15 283.29 13.79
 5 0 18 268.46 14.48
 5 0 19 -3.59 5.94
 5 0 20 10.74 6.29
 5 0 23 253.7 15.37
 5 0 24 28.68 8.19
 5 1 12 4.59 4.38
 5 1 13 13.99 5.19
 5 1 15 153.61 10.56
 5 1 16 75.66 8.73
 5 1 17 5.21 5.72
 5 1 18 48.16 8.16
 5 1 19 22.17 6.53
 5 1 21 17.67 6.14
 5 1 22 12.08 6.31
 5 1 23 34.12 9.03
 5 1 24 11.79 7.29
 5 2 11 86.41 8.16
 5 2 12 16.96 4.72
 5 2 13 106.32 8.72
 5 2 14 258.24 12.07
 5 2 15 143.45 10.12
 5 2 16 6.39 4.75
 5 2 17 201 11.42
 5 2 20 15.51 5.8
 5 2 23 25.5 6.95
 5 3 10 100.51 7.75
 5 3 11 71.6 6.93
 5 3 12 5.15 3.57
 5 3 13 16.41 4.74
 5 3 14 18.99 5.3
 5 3 15 70.63 7.37
 5 3 16 27.48 6.25
 5 3 17 15.51 4.92
 5 3 18 27.14 5.5
 5 3 19 0.05 4.67
 5 3 20 11.45 5.83
 5 4 10 1.83 3.13
 5 4 11 12.13 3.85
 5 4 12 71.69 6.73
 5 4 13 101.62 7.5
 5 4 14 28.51 4.97
 5 4 15 15.98 4.41
 5 5 9 117.98 7.19
 5 5 10 130.6 7.77
 6 -8 0 35.03 7.26
 6 -8 1 81.49 8.79
 6 -8 2 46.21 7.9
 6 -8 3 15.74 6.29
 6 -8 4 19.01 6.44
 6 -8 5 14.8 6.69
 6 -8 6 97.38 10.47
 6 -8 7 12.33 6.36
 6 -8 8 11.92 6.25
 6 -7 0 -0.99 5.29
 6 -7 1 94.45 9.55
 6 -7 2 9.61 5.58
 6 -7 3 -0.2 4.83
 6 -7 4 81.61 9.65
 6 -7 5 72.07 9.85
 6 -7 6 9.76 6.8
 6 -7 7 7.27 6.65
 6 -7 8 7.17 6.53
 6 -7 9 14.69 7.18
 6 -7 10 29.44 7.8
 6 -7 11 139.66 12.32
 6 -6 3 29.45 6.76
 6 -6 4 23.01 6.61
 6 -6 5 62.6 8.66
 6 -6 6 18.1 6.6
 6 -6 7 5.52 6.34
 6 -6 8 7.41 6.87
 6 -6 9 22.52 8.13
 6 -6 10 23 8.58
 6 -6 12 31.83 8.65
 6 -5 6 40.19 8.68
 6 -5 7 28.7 6.68
 6 -5 9 58.09 9.46
 6 -5 10 53.82 9.79
 6 -5 11 49.82 8.74
 6 -5 12 43.01 8.42
 6 -5 13 4 6.5
 6 -5 14 14.5 8.44
 6 -5 15 108.81 12.63
 6 -5 16 111.46 12.48
 6 -4 8 34.59 7.45
 6 -4 9 58.67 9.42
 6 -4 11 18.38 7.47
 6 -4 12 30.2 7.66
 6 -4 13 27.56 7.84
 6 -4 14 6.82 8.13
 6 -4 15 23.87 7.87
 6 -4 16 8.25 6.77
 6 -4 18 51.35 9.72
 6 -3 9 33.78 8.17
 6 -3 10 39.4 7.52
 6 -3 11 2.21 6.47
 6 -3 12 68.76 9.11
 6 -3 13 2.62 6.96
 6 -3 14 146.69 12.11
 6 -3 15 84.14 11.52
 6 -3 16 28.35 7.94
 6 -3 17 1.19 7.51
 6 -3 19 15.34 7.96
 6 -2 11 124.54 11.27
 6 -2 12 35.81 7.14
 6 -2 13 58.38 9.69
 6 -2 14 65.23 9.34
 6 -2 15 -1.65 5.42
 6 -2 16 12.06 7.4
 6 -2 17 -1.76 5.81
 6 -2 18 25.44 9.24
 6 -2 19 9.21 7.04
 6 -2 20 72.93 11.67
 6 -1 11 14.45 6.85
 6 -1 13 7.73 5.65
 6 -1 15 30.8 8.13
 6 -1 16 73.12 10.23
 6 -1 18 10.84 7.23
 6 -1 20 24.76 7.81
 6 -1 21 24.37 9.42
 6 0 11 13.45 6.63
 6 0 12 -2.05 5.71
 6 0 14 24.29 6.88
 6 0 15 100.58 10.36
 6 0 16 31 7.58
 6 0 17 23.52 7.37
 6 0 18 66.31 10.3
 6 0 19 3.02 6.62
 6 0 20 22.42 7.16
 6 0 21 -10.13 6.04
 6 1 11 16.79 5.84
 6 1 12 82.38 9.37
 6 1 13 7.47 5.72
 6 1 16 97.59 10.73
 6 1 17 63.53 9.11
 6 1 18 20.14 7.03
 6 1 19 23.72 7.12
 6 1 20 19.41 6.8
 6 1 21 10.49 6.84
 6 1 22 24.39 8.31
 6 2 11 129.11 10.52
 6 2 12 44.24 6.9
 6 2 14 78.72 9.31
 6 2 15 -0.35 5.9
 6 2 16 21.07 7.04
 6 2 17 5.45 6.29
 6 2 18 13.3 6.61
 6 2 19 1.42 5.85
 6 2 21 9.04 6.83
 6 3 11 2.67 4.4
 6 3 12 69.05 8.29
 6 3 13 3.52 4.62
 6 3 14 150.29 10.53
 6 3 15 94.08 9.5
 6 3 16 19.67 5.66
 6 4 10 25.95 5.68
 6 4 11 17.38 5.69
 6 4 12 18.35 5.37
 6 4 13 35.52 6.16
 7 -7 0 -0.46 5.66
 7 -7 1 15.75 7.41
 7 -7 2 4.32 6.83
 7 -7 3 32.76 7.69
 7 -7 4 19.91 7.06
 7 -6 3 -0.26 6.4
 7 -6 4 22.95 8.33
 7 -6 5 31.92 9.12
 7 -6 6 49.36 10.09
 7 -6 7 30.7 8.93
 7 -6 8 3.89 7.06
 7 -5 6 1.1 5.9
 7 -5 7 4.6 6.08
 7 -5 8 4.79 6.59
 7 -5 9 5.57 6.93
 7 -5 10 3.52 7.61
 7 -5 11 15.95 8.97
 7 -4 7 13.96 8.4
 7 -4 8 20.98 7.64
 7 -4 9 34.81 8.05
 7 -4 10 68.42 10.02
 7 -4 11 20.22 8.32
 7 -4 12 94.61 12.64
 7 -4 13 56.69 9.88
 7 -3 9 17.97 6.97
 7 -3 11 10.31 7.07
 7 -3 12 21.27 7.47
 7 -3 14 178.47 14.51
 7 -3 15 74.55 10.91
 7 -2 10 0.69 5.92
 7 -2 12 -2.86 5.75
 7 -2 13 17.38 8.72
 7 -2 14 19.83 7.76
 7 -2 16 12.77 7.31
 7 -1 12 5.67 7.08
 7 -1 14 49.12 8.99
 7 -1 15 3.12 7.36
 7 -1 16 10.79 6.97
 7 -1 17 51.38 11.23
 7 0 11 12.69 6.46
 7 0 12 9.66 6.48
 7 0 15 1.74 5.93
 7 0 17 41.3 9.4
 7 1 11 4.58 6.55
 7 1 12 17.64 8.06
 7 1 13 149.66 12.9
 7 1 14 37.21 8.25
 7 1 15 3.6 6.38
 7 1 16 3.63 6.03
 7 1 17 31.93 8.62
 7 1 18 8.75 8.35
 7 2 11 37.75 7.65
 7 2 12 1.64 5.8
 7 2 14 8.52 6.03
 7 2 15 40.24 7.79
 7 2 16 25.82 7.35
 7 2 18 23.02 7.13
 7 3 11 7.57 6.78
 7 3 12 40.99 8.34
 7 3 13 23.23 6.85
 7 3 15 85.88 10.15
 7 4 10 62.18 8.68
 8 -2 9 67.13 11.86
 8 -1 10 73.37 11.38
 8 -1 11 17.08 9.36
 8 0 10 47.87 9.93
 8 0 11 41.39 9.45
 8 1 11 19.42 9.12
 8 2 10 1.75 6.88
 8 2 11 13.09 6.76
 8 2 12 34.52 8.46
 8 3 10 1.48 6.53
 8 3 11 13.26 6.88
 -2 -6 8 0.07 0.64
 -2 -4 3 472.34 5.88
 -1 -6 16 1.52 2.08
 -1 -6 19 0.14 2.5
 -1 -6 22 3.49 3.68
 -1 -6 25 2.75 4.23
 -1 -5 4 33.93 1.5
 -1 -5 5 41.02 2.14
 -1 -5 6 78.46 3.27
 -1 -5 26 0.94 5.62
 -1 -5 27 22.97 8.12
 -1 0 1 346.95 5.69
 0 -7 15 -1.19 1.28
 0 -6 3 9.49 1.48
 0 -6 7 134.16 5.21
 0 -6 8 5.26 1.78
 0 -6 10 8.58 2.65
 0 -6 14 -0.06 2.9
 0 -6 16 5.83 3.23
 0 -6 17 29.54 5.37
 0 -6 18 57.94 6.48
 0 -6 19 43.95 6.5
 0 -6 20 18.44 5.16
 0 -6 21 27.64 5.71
 0 -6 22 -1.56 3.78
 0 -6 23 2.77 4.81
 0 -6 25 32.68 6.98
 0 -6 26 11.57 6.29
 0 -5 2 3.65 1.05
 0 -5 3 327.79 6.12
 0 -5 4 86.41 3.55
 0 -5 5 407.5 7.92
 0 -5 8 45.66 3.75
 0 -5 10 3.21 2.03
 0 -5 11 4.5 2.24
 0 -5 14 661.32 15.92
 0 -5 15 244.24 10.4
 0 -5 16 383.39 13.47
 0 -5 17 -0.65 4.33
 0 -5 18 311.03 13.34
 0 -5 19 24.8 5.75
 0 -5 20 43.57 6.84
 0 -5 21 5.03 5.49
 0 -5 22 45.59 7.39
 0 -5 23 32.55 8.09
 0 -5 24 10.04 6.13
 0 -5 25 45.07 8.3
 0 -5 26 33.44 7.86
 0 -5 27 1.49 6.29
 0 -4 1 1095.95 9.11
 0 -4 2 1847.03 12.71
 0 -4 3 907.98 9.71
 0 -4 4 174.81 4.73
 0 -4 5 213.13 5.65
 0 -4 6 107.55 4.54
 0 -4 25 -1.29 5.34
 0 -4 27 26.91 7.54
 0 -3 1 407.25 5.13
 0 -3 2 3.56 1.03
 0 -3 3 1417.55 11.36
 0 -3 4 210.29 5
 0 -3 5 588.81 9.06
 0 -2 2 1968.68 10.91
 0 3 2 1.17 1.15
 0 4 0 174.72 3.62
 0 4 1 1148.11 9.1
 1 -7 9 0.77 1.66
 1 -7 21 3.67 4.17
 1 -7 22 0.49 3.57
 1 -6 2 328.32 8.26
 1 -6 3 238.43 7.25
 1 -6 4 242.2 7.55
 1 -6 5 58.87 4.29
 1 -6 6 98.2 5.47
 1 -6 7 238.26 8.37
 1 -6 8 162.35 7.2
 1 -6 9 50.05 4.71
 1 -6 12 37.47 4.96
 1 -6 13 72.2 6.38
 1 -6 14 19.96 4.87
 1 -6 15 33.73 5.88
 1 -6 16 10.84 5.07
 1 -6 17 62.89 7.8
 1 -6 18 56.92 7.44
 1 -6 19 1.31 4.51
 1 -6 20 54.37 8.22
 1 -6 21 13.77 6.94
 1 -6 22 6.85 6.4
 1 -6 23 16.58 6.46
 1 -6 24 91.85 11.44
 1 -6 25 19.87 8.09
 1 -5 5 42.47 3.63
 1 -5 6 79.95 4.89
 1 -5 7 19.53 3.42
 1 -5 8 180.06 7.47
 1 -5 10 78.6 5.89
 1 -5 13 29.56 5.03
 1 -5 15 26.57 5.21
 1 -5 17 12.45 4.86
 1 -5 18 6.58 5.34
 1 -5 19 98.27 9.88
 1 -5 20 10.64 6.55
 1 -5 21 48.32 8.38
 1 -5 22 90.36 10.21
 1 -5 23 131.12 11.98
 1 -5 24 130.24 12.51
 1 -5 25 7.86 6.61
 1 -5 26 4.55 6.27
 1 -4 0 1411.09 15.21
 1 -4 2 249.25 6.81
 1 -4 3 858.46 12.7
 1 -4 4 316.6 8.06
 1 -4 8 223.54 8.18
 1 -4 10 14.63 3.85
 1 -4 14 221.94 10.29
 1 -4 16 31.4 5.53
 1 -4 17 49.97 6.55
 1 -4 18 117.86 8.91
 1 -4 19 9.94 4.79
 1 -4 20 45.4 7.17
 1 -4 21 16.66 6.33
 1 -4 22 34.62 7.17
 1 -4 23 0.56 5.59
 1 -4 24 27.71 7.39
 1 -4 26 16.18 7.55
 1 -4 27 25.89 8.23
 1 -3 -1 1306.7 13.94
 1 -3 0 121.54 4.64
 1 -3 1 1348.08 14.24
 1 -3 2 443.3 8.53
 1 -3 3 376.53 7.98
 1 -3 4 945.08 12.85
 1 -3 5 106.46 5.03
 1 -3 6 53.84 4.19
 1 -3 7 36.46 4.08
 1 -3 10 49.78 4.44
 1 -3 21 150.88 11.22
 1 -3 23 12.87 6.03
 1 -3 24 1.89 5.67
 1 -3 25 1.3 6.92
 1 -3 26 169.45 14.39
 1 -3 27 35.6 9.64
 1 -3 28 64.77 11.52
 1 -2 -1 614.58 8.87
 1 -2 0 9087.55 33.1
 1 -2 1 630.68 8.95
 1 -2 2 295.39 6.55
 1 -2 4 287.91 7.05
 1 -2 6 1403.81 16.18
 1 -2 7 890.55 13.74
 1 -2 8 126.2 5.81
 1 -2 26 -1.96 6.24
 1 -2 27 63.32 10.41
 1 -2 28 64.85 11.2
 1 -1 -1 2500.67 15.9
 1 -1 0 5747.48 23.89
 1 -1 1 2479.58 15.81
 1 -1 2 988.5 10.27
 1 -1 3 312.19 6.55
 1 -1 5 2155.96 18.01
 1 0 -1 358.41 5.57
 1 0 2 583.35 7.4
 1 0 3 940.68 9.82
 1 0 4 350.82 6.89
 1 1 1 2418.57 11.81
 1 1 2 978.76 8.38
 1 1 3 297.82 5.23
 1 2 2 283.4 3.99
 1 5 4 35.55 1.46
 2 -8 15 3.3 3.39
 2 -7 3 11.66 3.01
 2 -7 8 32.37 4.85
 2 -7 10 10.01 3.97
 2 -7 11 63.6 6.2
 2 -7 12 33.91 5.47
 2 -7 14 9.41 4.31
 2 -7 15 66.66 7.33
 2 -7 16 10.68 4.87
 2 -7 17 65.39 8.3
 2 -7 18 142.8 10.55
 2 -7 19 28.09 6.31
 2 -7 20 31.95 7.36
 2 -7 21 3.75 4.68
 2 -7 22 10.3 5.2
 2 -7 23 15.02 6
 2 -6 1 103.94 6.33
 2 -6 2 120.63 6.64
 2 -6 3 321.21 10.31
 2 -6 4 70.6 5.72
 2 -6 5 91.83 6.37
 2 -6 9 13.47 4.21
 2 -6 10 74.55 6.73
 2 -6 11 38.72 6.01
 2 -6 12 117.1 8.55
 2 -6 13 15.77 4.94
 2 -6 14 70.01 7.49
 2 -6 15 122.81 9.2
 2 -6 16 6.16 4.64
 2 -6 17 59.54 7.86
 2 -6 18 0.83 4.73
 2 -6 20 12.9 6.74
 2 -6 21 75.75 9.94
 2 -6 22 60.25 9.22
 2 -6 24 36.49 8.46
 2 -5 0 48.14 4.44
 2 -5 1 128.23 6.67
 2 -5 2 324.28 9.94
 2 -5 3 262.3 9.09
 2 -5 5 79.05 5.57
 2 -5 6 64.78 5.37
 2 -5 11 8.65 4.4
 2 -5 13 322.82 12.69
 2 -5 14 -3.25 3.43
 2 -5 15 35.81 6.62
 2 -5 16 15.64 5.48
 2 -5 17 33.76 6.59
 2 -5 18 69.27 9.2
 2 -5 19 128.96 11.07
 2 -5 21 15.38 6.33
 2 -5 22 22.7 7.14
 2 -5 23 3.87 5.78
 2 -5 24 2.31 6.34
 2 -5 25 0.46 7.16
 2 -4 4 85.85 5.42
 2 -4 6 268 9.43
 2 -4 7 184.1 8.37
 2 -4 8 311.25 10.67
 2 -4 12 36.59 5.87
 2 -4 13 155.71 9.36
 2 -4 14 382.07 14.08
 2 -4 15 107.46 8.53
 2 -4 16 37.99 7.02
 2 -4 17 37.39 6.65
 2 -4 18 13.78 6.3
 2 -4 19 22.76 6.31
 2 -4 21 184.3 13.29
 2 -4 22 60.51 9.93
 2 -4 23 86.84 11.56
 2 -4 24 51.34 9.43
 2 -4 25 5.39 7.14
 2 -4 26 7.38 7.1
 2 -3 -1 947.66 15.13
 2 -3 0 1074.98 16.04
 2 -3 1 961.81 15.17
 2 -3 2 222.08 7.61
 2 -3 3 152.21 6.76
 2 -3 7 15.02 3.51
 2 -3 8 400.96 11.55
 2 -3 9 479.04 12.93
 2 -3 13 216.85 10.35
 2 -3 14 19.88 4.81
 2 -3 15 58.83 7.09
 2 -3 16 91.85 8.52
 2 -3 17 86.22 8.55
 2 -3 18 44.47 6.99
 2 -3 19 24.23 6.16
 2 -3 20 227.65 13.24
 2 -3 21 17.9 6.31
 2 -3 22 83.42 11.47
 2 -3 23 45.95 8.47
 2 -3 24 -2.14 5.79
 2 -3 26 40.74 9.67
 2 -3 27 25.85 8.74
 2 -2 -2 889.15 14.42
 2 -2 -1 651.97 12.09
 2 -2 0 5.5 2.54
 2 -2 2 833.82 13.82
 2 -2 4 292.65 8.42
 2 -2 5 75.21 4.73
 2 -2 6 889.91 15.22
 2 -2 10 393.56 12.08
 2 -2 14 60.1 6.73
 2 -2 15 96.86 7.51
 2 -2 16 65.41 7.62
 2 -2 17 178.45 10.79
 2 -2 18 0.5 3.87
 2 -2 19 8.97 4.99
 2 -2 20 18.68 6.65
 2 -2 21 257.33 14.55
 2 -2 22 11.75 5.92
 2 -2 24 14.33 6.67
 2 -2 25 20.59 7.98
 2 -2 26 68.91 11.49
 2 -2 27 8.23 7.37
 2 -1 -2 471.23 10.02
 2 -1 -1 49.57 4.01
 2 -1 0 43.92 4.03
 2 -1 1 44.98 3.94
 2 -1 2 476.44 9.88
 2 -1 3 272.12 7.75
 2 -1 4 132.28 5.75
 2 -1 7 93.93 5.52
 2 -1 14 201.49 9.64
 2 -1 16 15.32 4.5
 2 -1 17 35.25 5.96
 2 -1 18 128.39 9.25
 2 -1 19 4.71 4.48
 2 -1 20 106.87 9.99
 2 -1 21 91.87 9.14
 2 -1 24 61.65 10.2
 2 -1 25 5.44 6.36
 2 -1 26 12.41 7.13
 2 -1 27 27.16 8.38
 2 0 -1 6.14 2.05
 2 0 1 6.42 2.1
 2 0 2 1960.27 18.18
 2 0 3 1307.79 15.1
 2 0 4 217.32 6.82
 2 0 6 1022.46 15.17
 2 0 7 0.83 2.17
 2 0 8 783.82 14.3
 2 0 9 29.29 3.9
 2 0 10 113.02 6.3
 2 0 11 1.92 2.81
 2 0 22 65.47 9.59
 2 0 23 79.06 10.31
 2 0 24 15.92 7.08
 2 0 26 9.61 6.99
 2 0 27 105.59 12.42
 2 0 28 8.74 7.24
 2 1 -1 45.48 2.96
 2 1 1 50.33 3.28
 2 1 2 484.65 8.71
 2 1 3 267.44 6.56
 2 1 5 360.77 8.34
 2 1 6 1316.85 16.3
 2 1 7 105.61 5.45
 2 1 9 447.67 10.99
 2 1 10 205.14 8.41
 2 1 24 74.7 11.48
 2 1 25 5.74 6.55
 2 1 26 11.7 6.49
 2 1 27 32.49 9.06
 2 1 28 83.97 11.53
 2 2 0 8.22 1.59
 2 2 1 633.38 8.62
 2 2 2 844.3 10.25
 2 2 3 540.49 8.54
 2 2 5 74.9 4.23
 2 2 6 937.44 13.28
 2 2 7 298.95 8.04
 2 2 8 392.25 9.51
 2 2 9 315.65 9.08
 2 2 25 23.8 8.15
 2 2 26 49.98 10.37
 2 2 27 11.47 8.23
 2 2 28 6.4 8.59
 2 3 1 930.98 8.66
 2 3 2 223.53 4.72
 2 3 3 145.76 4.12
 2 3 4 29.88 2.47
 2 3 5 430.62 8.03
 2 3 6 519.78 9.55
 2 3 7 15.8 2.57
 2 3 8 384.21 9.1
 2 3 9 493.55 11.03
 2 3 25 2.81 6.38
 2 3 26 43.75 9.2
 2 3 27 20.08 8.15
 2 4 3 475.58 5.71
 2 4 5 196.39 4.97
 2 4 6 282.72 6.53
 2 4 7 181.89 5.83
 2 4 8 342.38 8.3
 2 4 9 1.82 2.23
 2 4 10 12.12 2.8
 2 4 24 47.83 8.75
 2 4 25 17.66 7.6
 2 4 26 -1.41 6.66
 2 4 27 61.93 10.22
 2 5 5 83.65 2.61
 2 5 6 63.59 2.89
 2 5 7 585.06 8.99
 2 5 8 25.82 2.92
 2 5 9 143.02 5.71
 2 5 10 35.94 3.79
 2 5 11 4.85 2.41
 2 5 12 154.95 7.32
 2 5 21 3.34 5.39
 2 5 22 23.07 6.45
 2 5 23 4.83 5.52
 2 5 24 -1.82 5.75
 2 5 25 1.09 5.71
 2 5 26 100.95 11.1
 2 6 8 3.4 1.44
 2 6 9 12.79 2.28
 2 6 10 75.83 4.35
 2 6 11 38.3 3.93
 2 6 15 117.66 7.21
 2 6 16 1.29 3.11
 2 6 17 71.22 6.88
 2 6 18 2.89 4.17
 2 6 19 77.12 7.75
 2 6 20 18.13 5.3
 3 -8 12 -1.54 3.42
 3 -8 14 -1.2 2.95
 3 -8 16 2.97 4.14
 3 -8 18 -1.58 3.69
 3 -8 19 -3.74 4.33
 3 -7 3 215.62 10.37
 3 -7 5 92.21 7.35
 3 -7 6 63.18 6.4
 3 -7 7 55.5 6.56
 3 -7 8 19.77 5.18
 3 -7 9 81.25 7.79
 3 -7 10 22.77 6.03
 3 -7 11 30.48 6.47
 3 -7 12 -0.13 4.79
 3 -7 13 36.43 6.88
 3 -7 14 -4.18 4.01
 3 -7 15 34.02 7.09
 3 -7 16 66.27 9.18
 3 -7 17 6.03 5.88
 3 -7 18 6.37 5.66
 3 -7 19 183.96 13.43
 3 -7 20 12.91 7.38
 3 -7 21 6.08 6.67
 3 -7 22 77.45 10.74
 3 -6 1 8.72 3.89
 3 -6 2 33.26 5.59
 3 -6 3 357.67 12.81
 3 -6 4 54.01 6.44
 3 -6 5 38.85 5.62
 3 -6 6 111.77 8.23
 3 -6 7 204.35 10.68
 3 -6 9 44.46 7.01
 3 -6 11 16.37 5.01
 3 -6 12 109.05 9.41
 3 -6 13 68.78 8.75
 3 -6 14 36.49 6.97
 3 -6 15 153.3 10.94
 3 -6 16 1.86 4.86
 3 -6 17 81.14 9.15
 3 -6 18 10.08 6.28
 3 -6 19 35.46 8.65
 3 -6 20 48.53 8.86
 3 -6 21 3.82 6.19
 3 -6 22 25.98 8.91
 3 -6 23 7.26 7.94
 3 -5 6 103.02 7.49
 3 -5 8 309.84 12.85
 3 -5 9 55.72 6.89
 3 -5 10 154.62 10.06
 3 -5 11 45.58 7.22
 3 -5 13 15.95 5.03
 3 -5 14 85.3 8.84
 3 -5 15 59.07 8.33
 3 -5 16 4.37 5.32
 3 -5 17 5.63 5.38
 3 -5 18 142.84 11.65
 3 -5 20 226.14 14.83
 3 -5 21 6.52 6.42
 3 -5 22 114.91 11.39
 3 -5 23 54.58 9.51
 3 -5 24 0.99 6.31
 3 -4 0 63.76 5.93
 3 -4 8 697.27 17.65
 3 -4 9 9.73 4.32
 3 -4 11 56.09 7.33
 3 -4 12 199.93 11.13
 3 -4 13 31.52 6.26
 3 -4 14 74.96 7.68
 3 -4 18 85.73 9.89
 3 -4 19 29.52 7.62
 3 -4 20 40.09 7.98
 3 -4 21 81.31 10.67
 3 -4 22 11.35 6.73
 3 -4 24 5.93 6.96
 3 -4 25 16.72 8.55
 3 -3 -1 95.39 6.45
 3 -3 0 301.26 10.48
 3 -3 1 102.86 6.35
 3 -3 2 70.21 5.85
 3 -3 3 82.94 5.95
 3 -3 5 89.71 6.45
 3 -3 10 37.08 5.38
 3 -3 11 52.76 5.97
 3 -3 12 254.83 11.95
 3 -3 13 4.48 3.85
 3 -3 14 71 7.38
 3 -3 15 79.8 7.9
 3 -3 16 76.02 8.11
 3 -3 18 117.34 10.12
 3 -3 19 -6.83 5.29
 3 -3 20 115.43 11.67
 3 -3 21 74.19 10.49
 3 -3 22 90.55 12.35
 3 -3 24 25.47 8.08
 3 -3 26 43.05 11.15
 3 -2 11 116.07 8.28
 3 -2 12 85.57 7.39
 3 -2 13 19.44 5.07
 3 -2 15 51.42 7.39
 3 -2 16 54.27 7.64
 3 -2 17 44.69 7.22
 3 -2 18 53.68 8.22
 3 -2 19 87.17 10.21
 3 -2 20 4.28 6.09
 3 -2 22 51.36 10.04
 3 -2 23 145.28 13.44
 3 -2 24 17.9 7.45
 3 -2 26 4.91 7.14
 3 -1 -2 371.84 10.71
 3 -1 0 -3.53 2.71
 3 -1 1 514.04 12.14
 3 -1 2 364.21 10.51
 3 -1 3 118.35 6.35
 3 -1 12 141.7 8.62
 3 -1 14 126.31 9.26
 3 -1 15 195.15 11.48
 3 -1 16 5.04 4.22
 3 -1 17 25.31 6.71
 3 -1 18 23.52 6.06
 3 -1 19 61.96 8.69
 3 -1 20 44.61 8.06
 3 -1 21 78.22 9.2
 3 -1 22 11.62 6.3
 3 -1 24 188.68 14.58
 3 -1 26 17.08 7.86
 3 -1 27 9.29 8.83
 3 0 -1 339.63 9.42
 3 0 1 365.5 9.81
 3 0 3 1306.58 18.86
 3 0 4 888.45 15.7
 3 0 5 61.71 5.04
 3 0 6 215.08 8.39
 3 0 8 466.98 12.62
 3 0 12 68.47 6.94
 3 0 13 11.77 4.12
 3 0 15 33.88 6.41
 3 0 17 175.6 11.51
 3 0 18 -1.16 3.95
 3 0 19 -3.31 4.02
 3 0 20 -0.96 4.69
 3 0 21 482.95 19.55
 3 0 22 8.95 6.92
 3 0 23 96.99 11.34
 3 0 24 -2.25 5.71
 3 0 25 3.5 7.25
 3 0 26 48.21 10.19
 3 0 27 9.3 7.7
 3 1 -1 529.61 11.04
 3 1 0 -1.34 1.92
 3 1 1 529.39 11.27
 3 1 2 365.37 9.54
 3 1 3 126.24 6.22
 3 1 4 319.33 9.16
 3 1 5 43.28 4.05
 3 1 6 133.79 6.66
 3 1 9 254.93 9.42
 3 1 14 129.69 8.61
 3 1 15 174.2 10.09
 3 1 16 5.29 4.81
 3 1 18 18.56 5.41
 3 1 19 54.14 8.16
 3 1 20 59.07 8.42
 3 1 21 59.25 8.63
 3 1 22 14.87 7.17
 3 1 23 63.84 9.84
 3 1 24 188.92 14.64
 3 2 0 679.01 11.68
 3 2 1 3.24 1.89
 3 2 2 503.4 10.46
 3 2 3 418.8 9.66
 3 2 5 304.59 8.73
 3 2 6 244.87 8.2
 3 2 7 329.92 9.69
 3 2 9 539.42 13.09
 3 2 10 12.42 4.09
 3 2 13 17.6 4.93
 3 2 14 76.37 7.59
 3 2 17 42.23 6.77
 3 2 18 51.46 7.95
 3 2 19 75.28 9.86
 3 2 20 4.48 6.27
 3 2 21 201.16 13.35
 3 2 23 142.63 12.92
 3 2 24 9.92 6.69
 3 2 25 2.32 6.72
 3 2 26 1.73 6.34
 3 2 27 13.65 7.82
 3 3 1 100.42 4.46
 3 3 2 65.42 3.85
 3 3 3 84.49 4.48
 3 3 4 9.19 2.23
 3 3 5 90.96 4.98
 3 3 6 579.37 11.55
 3 3 7 896.84 14.98
 3 3 8 220.01 8.13
 3 3 10 34.89 4.74
 3 3 14 72.64 6.69
 3 3 15 91.25 7.82
 3 3 16 76.52 8.18
 3 3 17 24.92 5.74
 3 3 18 112.36 9.08
 3 3 19 3.28 4.69
 3 3 20 117.39 9.85
 3 3 21 77.83 9.22
 3 3 22 76.89 10.44
 3 3 24 25.01 7.61
 3 3 26 60.46 11.3
 3 4 3 209.65 5.62
 3 4 4 258.37 6.59
 3 4 5 371.42 8.24
 3 4 6 192.77 6.48
 3 4 7 102.22 5.23
 3 4 8 707.79 13.05
 3 4 9 8.81 2.9
 3 4 16 13.79 4.65
 3 4 17 19.98 5.52
 3 4 18 66.79 8.48
 3 4 20 57.97 8.3
 3 4 22 27.53 7.89
 3 4 23 81.7 9.82
 3 4 24 -1.39 6.08
 3 4 25 17.84 7.08
 3 4 26 48.57 9.56
 3 5 5 156.42 4.46
 3 5 6 95.32 4.1
 3 5 7 54.9 3.77
 3 5 8 303.07 7.99
 3 5 9 53.77 4.14
 3 5 10 149.28 6.62
 3 5 11 39.43 4.44
 3 5 14 103.82 7.32
 3 5 15 52 5.91
 3 5 16 19.77 4.81
 3 5 17 16.17 5.26
 3 5 19 160.56 10.76
 3 5 20 229.13 12.69
 3 5 21 9.26 5.86
 3 5 22 116.12 10.32
 3 5 23 38.11 8.03
 3 5 24 4.24 6.34
 4 -8 5 24.85 5.91
 4 -8 6 40.21 6.99
 4 -8 8 6.95 5.16
 4 -8 9 11.2 5.39
 4 -8 12 41.64 7.55
 4 -8 13 22.23 6.44
 4 -8 14 80.55 10.18
 4 -8 17 -3.98 5.36
 4 -8 18 10 6.76
 4 -7 3 14.19 5.76
 4 -7 5 65.11 8.14
 4 -7 6 15.57 5.65
 4 -7 7 20.3 5.83
 4 -7 8 126.45 10.85
 4 -7 9 202.67 12.97
 4 -7 10 59.81 9.38
 4 -7 11 40.77 8.54
 4 -7 12 37.2 7.59
 4 -7 13 106.01 11.36
 4 -7 15 16.05 7.07
 4 -7 17 15.32 7.05
 4 -7 18 4.1 5.98
 4 -7 19 21.55 7.85
 4 -7 20 27.53 8.9
 4 -6 1 4.74 4.7
 4 -6 2 1.7 4.83
 4 -6 3 218.86 12.23
 4 -6 4 8.04 5.06
 4 -6 7 35.77 7.16
 4 -6 9 12.93 5.29
 4 -6 10 266.61 14.34
 4 -6 11 46.63 8.62
 4 -6 12 10.32 6.26
 4 -6 13 214.91 13.64
 4 -6 15 54.29 9.75
 4 -6 16 8.81 7.66
 4 -6 17 41.44 9.53
 4 -6 19 9.47 7.15
 4 -6 20 82.69 11.23
 4 -6 21 63.63 11.53
 4 -5 0 2.67 3.53
 4 -5 1 328.43 13.69
 4 -5 2 75.75 8.15
 4 -5 3 62.21 7.4
 4 -5 4 32.73 6.05
 4 -5 6 107.02 9.08
 4 -5 7 206.03 11.49
 4 -5 8 27.95 6.21
 4 -5 11 7.98 5.44
 4 -5 12 87.15 9.23
 4 -5 13 109.08 11.02
 4 -5 14 13.65 6.09
 4 -5 15 3.45 5.37
 4 -5 16 36.58 7.77
 4 -5 17 30.23 8.05
 4 -5 18 28.33 9.01
 4 -5 19 11.42 6.71
 4 -5 20 66.35 11.7
 4 -5 21 23.44 8.06
 4 -5 22 14.49 7.57
 4 -5 23 68.43 10.95
 4 -4 0 17.35 4.44
 4 -4 2 0.13 3.46
 4 -4 3 68.89 7.41
 4 -4 4 0.65 4.27
 4 -4 5 77 8.06
 4 -4 6 421.46 15.45
 4 -4 8 67.69 8.29
 4 -4 9 75.43 8.36
 4 -4 10 81.46 9.58
 4 -4 11 218.28 12.9
 4 -4 12 37.88 6.94
 4 -4 13 16.19 6.76
 4 -4 16 47.22 8.6
 4 -4 17 181.77 13.61
 4 -4 19 26.9 7.72
 4 -4 20 3.32 6.31
 4 -4 22 183.09 15.31
 4 -4 23 88.12 12.9
 4 -4 24 52.04 10.89
 4 -3 -1 354.51 13.3
 4 -3 0 27.62 5.13
 4 -3 2 171.34 9.6
 4 -3 4 231.35 11.23
 4 -3 5 141.54 9.44
 4 -3 6 282.76 12.67
 4 -3 8 49.37 6.91
 4 -3 9 37.65 6.27
 4 -3 10 315.75 13.69
 4 -3 11 12.36 4.78
 4 -3 12 288.04 14.2
 4 -3 13 85.54 8.46
 4 -3 14 92.46 9.17
 4 -3 15 24.45 6.8
 4 -3 16 19.51 5.96
 4 -3 17 29.08 7.14
 4 -3 18 54.03 9.61
 4 -3 20 19.09 8.47
 4 -3 21 6.25 7.03
 4 -3 22 122.4 13.21
 4 -3 23 58.88 10.5
 4 -3 24 45.33 10.59
 4 -2 6 528.37 15.73
 4 -2 7 188.05 9.92
 4 -2 8 626.98 17.86
 4 -2 10 99.1 8.04
 4 -2 11 72.15 7.77
 4 -2 12 23.74 5.73
 4 -2 13 37.2 6.31
 4 -2 16 94.24 9.26
 4 -2 17 19 6.37
 4 -2 18 138.51 11.87
 4 -2 19 12.83 6.64
 4 -2 21 14.1 6.91
 4 -2 22 32.04 8.48
 4 -2 23 162.09 14.28
 4 -2 24 99.94 11.69
 4 -2 25 17.39 8.3
 4 -1 7 383.64 13.37
 4 -1 8 1108.24 22.67
 4 -1 10 87.35 7.38
 4 -1 11 22.58 4.94
 4 -1 12 125.56 9.49
 4 -1 13 15.72 4.83
 4 -1 14 13.51 4.99
 4 -1 15 103.5 9.44
 4 -1 16 54.21 7.75
 4 -1 17 25.12 6.35
 4 -1 18 22.48 6.99
 4 -1 19 8.44 5.85
 4 -1 20 102.59 10.56
 4 -1 22 133.12 12.79
 4 -1 23 10.57 7.06
 4 -1 25 5.41 7.98
 4 0 -1 0.81 2.55
 4 0 0 10.83 3.44
 4 0 1 -0.43 2.58
 4 0 2 14.15 4.32
 4 0 3 3.14 3.14
 4 0 9 939.43 20.43
 4 0 10 9.1 4.05
 4 0 11 341.94 13.46
 4 0 12 26.74 5.5
 4 0 13 0.3 4.62
 4 0 15 36.05 6.71
 4 0 16 24.62 6.82
 4 0 17 51.8 8.28
 4 0 18 16.61 5.99
 4 0 20 167.05 13.35
 4 0 21 118.63 12.2
 4 0 22 -3.93 6.42
 4 0 23 -1.48 7.47
 4 0 24 117.07 13.05
 4 0 25 20.11 8.23
 4 1 -1 273.81 10.09
 4 1 0 81.22 6.09
 4 1 1 268.62 9.93
 4 1 2 12.7 3.38
 4 1 3 51.29 5.48
 4 1 4 306.63 10.69
 4 1 9 246.23 11.05
 4 1 10 88.11 7.43
 4 1 11 25.59 4.94
 4 1 12 131.98 9.2
 4 1 13 9.93 4.17
 4 1 14 9.23 5.19
 4 1 15 94.37 9.28
 4 1 16 57.95 8.12
 4 1 17 25.02 6.24
 4 1 22 120.29 12.6
 4 1 24 131.83 12.78
 4 1 25 13.2 8.11
 4 2 0 8.86 3.06
 4 2 1 157.45 7.16
 4 2 4 270.21 9.84
 4 2 5 53.9 5.12
 4 2 10 104.69 7.77
 4 2 11 83.13 7.48
 4 2 12 28.24 5.43
 4 2 13 34.69 5.64
 4 2 14 148.17 9.95
 4 2 16 115.1 9.73
 4 2 18 142.93 11.43
 4 2 19 16.47 6.06
 4 2 20 54.55 8.56
 4 2 22 29.82 8.21
 4 2 23 170.1 13.64
 4 2 24 118.85 12.14
 4 2 25 16.41 8.22
 4 3 1 366.97 10
 4 3 2 175.72 7.29
 4 3 3 73.16 5.24
 4 3 4 236.49 8.67
 4 3 6 274.09 9.63
 4 3 7 360.71 11.2
 4 3 11 20.66 4.57
 4 3 12 268.82 11.28
 4 3 13 76.21 7.59
 4 3 14 95.73 7.67
 4 3 15 17.29 5.38
 4 3 16 17.27 5.62
 4 3 17 22.52 5.85
 4 3 20 17.97 7.18
 4 3 21 20.68 7.36
 4 3 22 117.18 11.94
 4 3 23 52.07 9.76
 4 3 24 59.1 9.53
 4 3 25 6.21 6.89
 4 4 4 0.06 1.9
 4 4 5 65.33 4.79
 4 4 6 409.5 10.76
 4 4 7 222.37 8.49
 4 4 8 70.35 5.57
 4 4 12 41.67 5.28
 4 4 13 10.63 3.86
 4 4 14 87.13 7.78
 4 4 15 218.32 10.86
 4 4 18 -0.39 4.32
 4 4 19 23.42 6.52
 4 4 20 -3.54 4.92
 4 4 21 65.11 8.92
 4 4 22 164.23 12.24
 4 4 23 88.56 10.45
 4 4 24 82.25 10.55
 4 4 25 16.93 7.37
 4 5 5 288.3 7.46
 4 5 6 97.74 5
 4 5 8 24.13 3.61
 4 5 9 200.79 7.98
 4 5 12 82.97 6.45
 4 5 13 95.61 7.14
 4 5 14 5.71 3.87
 4 5 15 -0.41 3.6
 4 5 16 39.18 6.38
 4 5 17 35.49 6.56
 4 5 18 35.52 6.71
 4 5 19 3.17 4.89
 5 -8 6 7.87 5.91
 5 -8 7 5.12 5.47
 5 -8 8 10.35 6.13
 5 -8 9 2.01 6.04
 5 -8 10 103.64 11.65
 5 -8 11 16.33 7.02
 5 -8 12 29.27 8.5
 5 -8 13 75.68 10.56
 5 -8 14 -6.43 5.34
 5 -7 4 63.77 9.7
 5 -7 6 36.47 7.61
 5 -7 7 30.48 7.53
 5 -7 8 38.9 8.27
 5 -7 9 50.97 9.21
 5 -7 10 29.75 8.61
 5 -7 11 15.96 7.16
 5 -7 12 15.05 7.14
 5 -7 13 29.72 8.29
 5 -7 15 6.99 8.18
 5 -7 16 15.33 8.77
 5 -7 17 20.29 9.19
 5 -6 2 39.78 8.22
 5 -6 3 5.61 5.29
 5 -6 4 4.45 6.15
 5 -6 5 112.87 10.14
 5 -6 6 278.57 15.23
 5 -6 7 0.16 5.75
 5 -6 8 11.71 6.77
 5 -6 9 13.71 6.62
 5 -6 10 11.59 6.51
 5 -6 11 49.33 9.58
 5 -6 12 71.41 10.38
 5 -6 14 72.23 10.92
 5 -6 15 55.34 9.67
 5 -6 17 29.89 8.75
 5 -6 19 11.66 7.94
 5 -5 1 21.02 5.96
 5 -5 2 121.74 10.11
 5 -5 3 17.46 6.62
 5 -5 4 105.44 9.39
 5 -5 5 15.37 6.55
 5 -5 6 17.2 6.09
 5 -5 7 22.85 6.27
 5 -5 8 22.98 6.51
 5 -5 10 159.36 12.11
 5 -5 12 16.29 6.68
 5 -5 13 3.29 7.09
 5 -5 14 107.07 12.29
 5 -5 15 37.56 8.75
 5 -5 16 24.68 7.83
 5 -5 19 0.98 6.69
 5 -5 20 8.73 9.12
 5 -4 1 62.48 8.23
 5 -4 3 77.44 8.88
 5 -4 4 26.21 6.24
 5 -4 5 27.67 6.7
 5 -4 6 76.61 8.53
 5 -4 7 28.63 7
 5 -4 8 78.95 10.21
 5 -4 9 9.2 6.71
 5 -4 10 5.59 5.54
 5 -4 11 21.28 6.97
 5 -4 13 104.7 10.84
 5 -4 14 40.2 8.53
 5 -4 15 26.39 7.95
 5 -4 16 124.57 12.29
 5 -4 17 140.44 12.81
 5 -4 19 36.03 9.58
 5 -4 20 115.13 13.51
 5 -4 21 114 12.86
 5 -3 0 90.94 8.59
 5 -3 1 373.85 15.1
 5 -3 7 23.07 6.01
 5 -3 10 95.54 9.29
 5 -3 11 66.37 8.99
 5 -3 13 18.79 6.51
 5 -3 14 24.06 6.91
 5 -3 15 55.65 8.98
 5 -3 16 22.11 7.21
 5 -3 17 24.29 7.85
 5 -3 19 2.08 6.35
 5 -3 20 11.2 8.75
 5 -3 21 -1.22 6.43
 5 -3 22 66.04 11.14
 5 -2 -1 49.21 7.28
 5 -2 1 50.03 6.46
 5 -2 2 10.87 4.39
 5 -2 3 35.87 5.99
 5 -2 5 145.27 9.76
 5 -2 6 135.15 10.36
 5 -2 7 57.19 7.54
 5 -2 8 48.13 7.19
 5 -2 9 80.37 8.97
 5 -2 10 90.58 8.8
 5 -2 11 85.54 8.7
 5 -2 13 109.4 9.96
 5 -2 14 258.88 14.8
 5 -2 15 132.11 11.76
 5 -2 16 -0.56 5.25
 5 -2 17 179.63 13.13
 5 -2 18 62.58 9.88
 5 -2 19 101.33 12.05
 5 -2 20 14.76 7.89
 5 -2 21 113.54 13.48
 5 -2 22 83.99 12.12
 5 -2 23 19.2 8.43
 5 -1 0 -1.71 3.07
 5 -1 1 428.6 15.33
 5 -1 3 33.74 5.7
 5 -1 4 64.92 7.03
 5 -1 5 34.74 6.02
 5 -1 6 307.45 13.92
 5 -1 9 35.02 7.09
 5 -1 10 49.36 7.57
 5 -1 11 -0.92 5.3
 5 -1 13 19.9 7.16
 5 -1 14 61.42 8.42
 5 -1 15 134.48 11.03
 5 -1 17 -0.39 5.83
 5 -1 18 47.5 8.93
 5 -1 19 28.84 7.84
 5 -1 20 128.88 13.07
 5 -1 22 19.13 8.5
 5 -1 23 34.43 9.68
 5 0 1 286.19 12.05
 5 0 3 11.35 4.64
 5 0 4 58.29 6.51
 5 0 6 171.96 10.09
 5 0 7 112.89 9.3
 5 0 8 124 9.11
 5 0 10 133.88 10.57
 5 0 11 73.86 8.55
 5 0 12 -3.06 3.84
 5 0 13 156.88 11.53
 5 0 14 604.44 20.65
 5 0 15 283.28 14.79
 5 0 16 53.93 8.36
 5 0 17 29.12 7.55
 5 0 18 259.09 15.58
 5 0 19 -2.52 5.48
 5 0 20 11.99 7.29
 5 0 21 2.36 7.67
 5 0 22 94.11 12.92
 5 0 23 278.69 17.71
 5 1 0 -0.66 3.03
 5 1 1 423.38 13.79
 5 1 2 706.13 17.8
 5 1 3 35.86 5.71
 5 1 4 57.48 6.66
 5 1 5 30.71 5.34
 5 1 6 328.63 13.06
 5 1 7 180.23 10
 5 1 8 266.47 12.62
 5 1 9 36.97 6.09
 5 1 11 7.47 4.73
 5 1 12 10.56 5.03
 5 1 14 48.46 7.51
 5 1 16 65.33 8.77
 5 1 17 -0.47 5.01
 5 1 18 50.36 9.04
 5 1 19 16.51 6.66
 5 1 20 148.82 13.29
 5 1 21 22.92 7.24
 5 1 22 17 7.62
 5 1 23 26.97 8.08
 5 1 24 14.07 7.68
 5 2 4 90.48 7.46
 5 2 5 141.11 8.45
 5 2 6 131.45 8.82
 5 2 7 69.54 7.44
 5 2 8 40.56 5.97
 5 2 10 98.23 8.51
 5 2 11 86.28 8.52
 5 2 12 24.66 5.68
 5 2 13 112.99 9.59
 5 2 14 250.83 13.35
 5 2 15 139.38 11.09
 5 2 17 192.73 13.3
 5 2 19 95.82 10.68
 5 2 20 17.81 7
 5 2 21 128.09 12.58
 5 2 22 69.88 10.35
 5 2 23 13.86 7.01
 5 3 6 37.99 5.23
 5 3 7 21.36 4.88
 5 3 8 164.17 9.5
 5 3 9 153.42 9.35
 5 3 10 106.06 8.45
 5 3 11 66.53 7.19
 5 3 12 5.03 4.46
 5 3 14 17.1 5.8
 5 3 15 70.85 7.95
 5 3 16 21.13 6.11
 5 3 19 -4.52 5.54
 5 3 20 10.7 5.9
 5 3 21 2.29 6.92
 5 3 22 64.83 10.26
 5 4 8 83.08 6.8
 5 4 9 7.47 3.45
 5 4 10 0.84 3.34
 5 4 11 21.06 5.45
 5 4 12 81.94 7.73
 5 4 13 108.78 8.59
 5 4 14 36.12 6.57
 5 4 16 136.2 10.48
 5 4 17 126.56 10.52
 5 4 18 18.59 6.69
 5 4 19 13.01 6.29
 5 4 20 103.86 10.43
 5 4 21 102.07 10.77
 6 -8 8 8.93 7.26
 6 -8 9 17.95 8.95
 6 -7 6 0.95 6.54
 6 -7 7 5.15 7.81
 6 -7 9 22.18 7.72
 6 -7 10 30.95 9.76
 6 -7 11 129.81 13.05
 6 -7 12 4.17 7.1
 6 -6 4 16.06 8.41
 6 -6 5 64.15 10.69
 6 -6 6 20.01 8.49
 6 -6 7 10.69 7.57
 6 -6 8 1.9 6.12
 6 -6 9 21.46 7.92
 6 -6 10 36.17 9.6
 6 -6 11 27.63 8.66
 6 -6 12 24.7 8.42
 6 -6 13 103.86 13.79
 6 -6 14 30.51 9.47
 6 -6 15 30.8 10.11
 6 -5 3 0.08 5.51
 6 -5 4 12.32 7.75
 6 -5 6 40.23 9.38
 6 -5 7 23.49 8.8
 6 -5 8 28.2 8.96
 6 -5 9 47.85 9.39
 6 -5 10 57.74 10.58
 6 -5 11 42.31 9.2
 6 -5 12 28.15 9
 6 -5 13 12.39 7.44
 6 -5 14 15.12 7.74
 6 -5 15 120.81 13
 6 -5 16 109.52 12.66
 6 -5 17 11.78 8.77
 6 -4 2 3.08 5.04
 6 -4 3 51.24 9.28
 6 -4 4 83.68 10.82
 6 -4 5 73.46 9.98
 6 -4 7 145.49 12.84
 6 -4 8 16.55 6.7
 6 -4 9 46.96 8.74
 6 -4 10 23.86 8.81
 6 -4 11 18.89 7.1
 6 -4 12 27.38 9.42
 6 -4 13 32.14 9.2
 6 -4 14 15.56 7.81
 6 -4 15 32.06 9.23
 6 -4 16 4.83 7.2
 6 -4 17 31.52 9.56
 6 -4 18 46.85 11.11
 6 -3 1 61.19 8.63
 6 -3 2 101.29 9.9
 6 -3 4 10.37 5.88
 6 -3 7 16.59 6.5
 6 -3 9 31.03 7.43
 6 -3 10 37.52 8.44
 6 -3 11 4.94 6.12
 6 -3 12 77.69 11.42
 6 -3 13 6.63 6.66
 6 -3 14 142.55 13.54
 6 -3 15 83.19 11.75
 6 -3 16 23.84 8.34
 6 -3 18 11.34 8.02
 6 -2 1 11.03 5.31
 6 -2 4 14.15 5.69
 6 -2 5 10.75 5.72
 6 -2 7 -2.18 4.64
 6 -2 10 31.12 7.92
 6 -2 12 33.47 9.05
 6 -2 14 70.72 10.14
 6 -2 15 4.81 6.42
 6 -2 16 26.62 8.25
 6 -2 17 -3.26 6.08
 6 -2 19 1.71 6.8
 6 -1 1 43.28 7.66
 6 -1 3 57.06 7.92
 6 -1 4 100.15 10.28
 6 -1 5 6.26 4.89
 6 -1 6 8.81 5.27
 6 -1 9 38.13 8.44
 6 -1 10 12.97 6.35
 6 -1 11 10.05 5.7
 6 -1 12 80.29 11.23
 6 -1 13 18.88 6.9
 6 -1 14 178.59 13.5
 6 -1 15 28.3 8.19
 6 -1 16 83.1 11.07
 6 -1 17 67.17 10.42
 6 -1 18 20.74 8.27
 6 -1 19 24.53 9.37
 6 -1 20 17.78 8.43
 6 -1 21 21.6 9.06
 6 0 1 5.04 5.43
 6 0 2 268.67 13.76
 6 0 3 7.85 5.14
 6 0 4 6.6 4.81
 6 0 6 122.72 10.15
 6 0 7 56.8 8.67
 6 0 8 8.3 5.6
 6 0 9 38.89 7.7
 6 0 10 33.26 8.34
 6 0 11 19.86 6.91
 6 0 12 -4.37 4.84
 6 0 13 146.65 12.84
 6 0 16 31.59 8.26
 6 0 18 69.98 11.58
 6 0 19 10.36 7.26
 6 0 20 28.35 10.15
 6 0 21 -5.79 6.54
 6 1 2 77.91 8.03
 6 1 4 100.11 9.21
 6 1 5 6.95 5.57
 6 1 6 12.61 5.06
 6 1 7 9.35 5.75
 6 1 8 6.69 4.75
 6 1 9 45.84 7.19
 6 1 10 7.29 5.26
 6 1 11 10.48 5.54
 6 1 12 90.97 10.54
 6 1 13 18.61 6.57
 6 1 14 176.42 13.67
 6 1 15 33.37 8.68
 6 1 16 74.32 10.69
 6 1 18 12.07 7.93
 6 1 19 16.21 7
 6 1 20 26.19 9.42
 6 1 21 10.73 6.91
 6 2 2 74.35 7.77
 6 2 3 23.7 5.7
 6 2 4 11.24 5.17
 6 2 5 8.6 4.87
 6 2 6 11.62 4.78
 6 2 7 -0.37 4.63
 6 2 10 49.01 8.68
 6 2 13 65.41 9.16
 6 2 15 3.23 6.29
 6 2 16 5.56 6.29
 6 2 17 -2.37 5.51
 6 2 18 6.1 7.27
 6 2 19 3.54 6.19
 6 2 20 61.34 10.85
 6 2 21 6.71 6.82
 6 3 4 18.18 5.5
 6 3 5 188.26 10.57
 6 3 6 8.27 4.86
 6 3 7 9.77 5.32
 6 3 8 20.31 5.3
 6 3 9 27.58 6.27
 6 3 10 39.96 6.86
 6 3 11 4.18 4.79
 6 3 12 68.37 8.19
 6 3 13 2.82 4.96
 6 3 14 155.94 11.88
 6 3 15 96.83 10.5
 6 3 16 21.19 6.72
 6 3 17 15.89 6.33
 6 3 18 1.2 5.95
 6 3 19 10.41 7.21
 6 3 20 49.04 9
 6 3 21 27.51 8.55
 6 4 6 20.55 4.93
 6 4 7 140.91 9.04
 6 4 10 23.4 5.48
 6 4 11 23.72 5.42
 6 4 12 20.54 5.85
 6 4 13 31.24 6.17
 6 4 14 20.77 6.15
 7 -6 6 42.62 10.64
 7 -6 7 23 8.57
 7 -6 8 -1.4 6.95
 7 -6 9 8.04 8
 7 -5 5 64.73 11.89
 7 -5 6 -2.86 6.85
 7 -5 7 2.62 6.54
 7 -5 8 11.88 8.66
 7 -5 9 12.5 7.94
 7 -5 10 1 7.93
 7 -5 11 15.66 8.43
 7 -5 12 98.11 13.86
 7 -4 4 12.83 7.77
 7 -4 6 6.64 8.28
 7 -4 7 22.85 8.07
 7 -4 8 28.07 8.58
 7 -4 10 72.72 11.65
 7 -4 11 28.14 9.34
 7 -4 12 79.36 12.63
 7 -4 13 68.35 11.59
 7 -4 14 5.57 7.9
 7 -3 3 163.81 13.32
 7 -3 8 43.44 9.92
 7 -3 9 20.35 8.18
 7 -3 10 5.39 7.2
 7 -3 11 2.74 6.69
 7 -3 12 24.55 9.74
 7 -3 13 37.83 9.67
 7 -3 14 188.99 16.2
 7 -2 3 14.55 6.75
 7 -2 4 -1.69 5.41
 7 -2 5 2.32 5.8
 7 -2 6 20.54 7.38
 7 -2 8 11.16 7.1
 7 -2 10 4.1 6.33
 7 -2 11 22.11 9.32
 7 -2 12 -1.28 6.26
 7 -2 13 19.23 7.59
 7 -2 14 26.1 9
 7 -2 15 56.59 10.71
 7 -2 16 25.92 8.99
 7 -1 3 17.07 6.63
 7 -1 4 157.74 12.87
 7 -1 6 32.72 9.27
 7 -1 7 -0.82 6.24
 7 -1 8 8.95 6.69
 7 -1 9 51.67 9.12
 7 -1 10 11.96 7.54
 7 -1 11 3.18 6.55
 7 -1 12 10.4 8.61
 7 -1 13 123.37 13.21
 7 -1 14 44.3 9.82
 7 -1 15 6.93 7.25
 7 -1 16 14.87 8.02
 7 -1 17 45.32 10.53
 7 0 4 12.6 6.82
 7 0 5 18.53 6.61
 7 0 6 8.71 5.69
 7 0 8 6.42 6.07
 7 0 9 20.51 7.37
 7 0 10 12.77 7.86
 7 0 11 4.06 6.15
 7 0 12 3.63 7.47
 7 0 13 75.71 10.74
 7 0 15 -1.91 6.33
 7 0 16 87.27 11.92
 7 0 17 47.84 9.92
 7 1 4 127.88 11.11
 7 1 5 29.81 7.98
 7 1 6 29.64 7.34
 7 1 7 0.43 5.1
 7 1 8 3.74 5.3
 7 1 9 65.6 9.06
 7 1 10 4.9 6.16
 7 1 11 3.16 6.66
 7 1 12 12.98 6.71
 7 1 13 150.05 13.44
 7 1 14 43.87 9.84
 7 1 15 11.28 7.44
 7 1 16 2.3 6.95
 7 1 17 25.23 8.21
 7 2 5 8.09 5.31
 7 2 6 28.28 7.22
 7 2 7 28.63 6.89
 7 2 8 16.37 6.09
 7 2 9 28.14 6.63
 7 2 10 -0.49 4.92
 7 2 12 3.37 6.07
 7 2 13 9.99 6.47
 7 2 14 11.96 6.45
 7 2 15 36.55 9.37
 7 2 16 14.71 8.23
 7 2 17 46.19 9.83
 7 3 6 19.06 5.52
 7 3 7 90.58 9.6
 7 3 8 40.55 7.25
 7 3 9 17.99 5.89
 7 3 10 1.84 4.96
 7 3 11 4.35 5.39
 7 3 12 27.88 7.29
 7 3 13 35.4 7.52
 7 3 14 199.96 13.63
 7 3 16 20.91 7.12
 8 -3 6 14.85 8.07
 8 -3 8 0.75 7.31
 8 -2 6 6.02 7.98
 8 -2 7 5.21 8.69
 8 -2 8 111.44 12.4
 8 -2 10 -2.52 7.15
 8 -1 6 27.3 8.74
 8 -1 7 21.72 9.18
 8 -1 8 14.82 7.69
 8 -1 9 10.1 7.83
 8 -1 10 75.28 11.78
 8 0 6 4.02 6.77
 8 0 7 3.39 6.44
 8 0 8 136.19 13.71
 8 0 9 11 8.03
 8 0 10 51.3 10.04
 8 0 11 43.56 10.16
 8 0 12 1.11 7.54
 8 1 7 5.23 7.05
 8 1 8 15.41 8.36
 8 1 9 -2.2 5.77
 8 1 10 98.25 12.17
 8 1 11 10.04 7.22
 8 1 12 10.34 7.78
 8 2 8 98.58 11.26
 8 2 9 74.77 10.05
 8 2 10 0.88 6.17
 8 2 11 12.39 6.9
 -6 -8 7 7.63 5.39
 -6 -8 8 7.78 4.81
 -6 -8 9 17.98 6.52
 -6 -7 8 -0.54 4.58
 -6 -7 9 13.98 5.85
 -6 -7 10 19.56 6.29
 -6 -7 12 -0.77 5.22
 -6 -6 14 29.44 8.46
 -6 -6 15 9.32 6.13
 -5 -9 7 -2.39 3.34
 -5 -9 9 0.11 3.93
 -5 -9 10 6.34 5.19
 -5 -8 2 0.47 2.48
 -5 -8 3 -2.15 1.94
 -5 -8 6 10.34 5.09
 -5 -8 7 11.56 4.78
 -5 -8 8 8.48 5.45
 -5 -8 9 9.87 5.38
 -5 -8 10 102.83 10.45
 -5 -8 11 12.81 6.11
 -5 -8 12 28.73 7.17
 -5 -8 13 68.93 9.56
 -5 -7 5 79.32 7.92
 -5 -7 6 24.13 5.85
 -5 -7 7 12.31 5.47
 -5 -7 8 24.59 6.15
 -5 -7 9 43.6 7.35
 -5 -7 11 13.84 5.74
 -5 -7 12 10.18 5.62
 -5 -7 13 16.56 6.48
 -5 -7 14 23.84 6.79
 -5 -7 15 4.95 5.68
 -5 -7 16 17.25 6.82
 -5 -6 13 12.63 5.9
 -5 -6 14 55.35 9.3
 -5 -6 15 51.71 8.71
 -5 -6 16 198.22 13.6
 -5 -6 17 34.32 9.19
 -5 -6 18 38.38 8.24
 -5 -5 16 33.49 7.69
 -5 -5 17 36.9 7.5
 -5 -5 18 55.12 9.68
 -5 -5 19 -1.24 5.52
 -5 -5 20 6.19 6.26
 -5 -4 19 26.34 6.95
 -5 -4 20 107.92 11.17
 -5 -3 21 4.44 6.01
 -5 -3 22 53.38 9.48
 -5 -2 22 93.47 10.96
 -5 -2 23 28.68 8.44
 -5 -1 23 17.29 6.77
 -5 -1 24 13.08 7.42
 -4 -10 9 -0.03 3.9
 -4 -10 10 -2.98 4.42
 -4 -9 4 2.06 2.63
 -4 -9 8 52.31 7.81
 -4 -9 9 14.78 5.95
 -4 -9 10 33.02 7.45
 -4 -9 11 86.31 9.41
 -4 -9 12 -1.02 5.73
 -4 -9 13 17.95 6.7
 -4 -9 14 18.66 7.56
 -4 -8 0 -0.21 1.43
 -4 -8 1 -0.22 1.49
 -4 -8 5 23.17 5.26
 -4 -8 7 46.09 7.06
 -4 -8 8 4.77 4.42
 -4 -8 10 34.73 6.61
 -4 -8 11 25.34 7.43
 -4 -8 12 39.42 7.59
 -4 -8 13 21.78 6.81
 -4 -8 14 87.61 10.64
 -4 -8 15 26.5 7.94
 -4 -8 16 31.83 8.73
 -4 -7 3 19.66 4.21
 -4 -7 4 1.47 3.11
 -4 -7 5 59.01 6.91
 -4 -7 7 17.63 5.11
 -4 -7 8 146.65 9.88
 -4 -7 9 184.69 11.79
 -4 -7 10 64.68 9.09
 -4 -7 11 43.02 7.67
 -4 -7 12 33.52 6.87
 -4 -7 13 105.09 9.76
 -4 -7 14 12.56 6.06
 -4 -7 15 12.12 6.09
 -4 -7 17 13.28 7.43
 -4 -7 18 1.26 5.56
 -4 -7 19 19.09 7.11
 -4 -6 10 237.67 12.29
 -4 -6 11 42.4 7.12
 -4 -6 12 4.09 4.65
 -4 -6 13 201.29 13.02
 -4 -6 14 85.18 9.87
 -4 -6 15 63.87 8.88
 -4 -6 16 9.97 5.88
 -4 -6 17 37.39 8.54
 -4 -6 18 41.24 7.94
 -4 -6 20 72.51 9.71
 -4 -6 21 81.83 11.14
 -4 -5 14 12.79 5.36
 -4 -5 16 30.59 7.12
 -4 -5 17 29.17 6.81
 -4 -5 18 42.13 8.67
 -4 -5 19 1.2 5.01
 -4 -5 20 67.18 9.39
 -4 -5 21 24.32 7.95
 -4 -5 22 11.83 6.67
 -4 -4 17 169.17 12.35
 -4 -4 18 3.14 4.96
 -4 -4 19 34.49 7.53
 -4 -4 20 4.59 5.43
 -4 -4 21 87.53 10.41
 -4 -4 22 130.04 12.32
 -4 -4 24 69.63 11.19
 -4 -3 19 54.98 8.04
 -4 -3 20 20.69 6.86
 -4 -3 21 22.89 7.07
 -4 -3 22 124.47 11.76
 -4 -3 23 41.21 8.92
 -4 -3 24 44.68 9.24
 -4 -3 25 4.09 6.11
 -4 -2 21 5.79 5.22
 -4 -2 23 146.55 12.11
 -4 -2 24 109.52 10.41
 -4 -2 25 10.59 6.45
 -4 -1 22 131.12 10.52
 -4 -1 23 11.11 6.37
 -4 -1 24 101.08 10.03
 -4 -1 25 8 5.86
 -4 -1 26 35.5 7.15
 -4 0 23 3.58 5.9
 -4 0 25 12.3 5.88
 -4 1 23 7.99 5.15
 -4 1 24 104.4 9.72
 -4 1 25 -0.53 4.4
 -3 -10 8 2.43 3.81
 -3 -10 9 0.72 3.89
 -3 -10 10 8.7 5.28
 -3 -10 11 62.53 8.86
 -3 -10 12 24.12 7.34
 -3 -9 7 30.88 6.07
 -3 -9 9 7.88 5.16
 -3 -9 10 7.68 5.71
 -3 -9 11 100.43 10.6
 -3 -9 12 32.11 7.19
 -3 -9 13 70.33 9.66
 -3 -9 14 -6.56 4.91
 -3 -9 15 14.79 6.89
 -3 -9 16 37.75 8.48
 -3 -8 1 1.01 1.66
 -3 -8 4 121.19 7.92
 -3 -8 5 25.64 5.27
 -3 -8 6 98.61 8.26
 -3 -8 7 71.29 7.51
 -3 -8 8 66.98 7.96
 -3 -8 10 41.03 6.78
 -3 -8 11 53.28 8.28
 -3 -8 12 1.31 4.6
 -3 -8 13 51.54 8.98
 -3 -8 14 -0.97 4.87
 -3 -8 15 86.45 9.75
 -3 -8 16 2.38 5.88
 -3 -8 17 81.71 11.28
 -3 -8 18 8.74 7.56
 -3 -7 3 224.58 9.74
 -3 -7 4 13.9 4.43
 -3 -7 5 100.42 7.73
 -3 -7 6 56.9 6.94
 -3 -7 7 52.44 6.64
 -3 -7 9 60.44 7.28
 -3 -7 10 23.31 6.28
 -3 -7 11 34.03 6.3
 -3 -7 13 23.17 6.23
 -3 -7 14 7.05 5.59
 -3 -7 15 26.64 7.49
 -3 -7 16 68.79 10.25
 -3 -7 17 2.48 5.76
 -3 -7 18 3.88 5.79
 -3 -7 19 186.93 13.44
 -3 -7 20 12.84 6.89
 -3 -7 21 5.28 6.9
 -3 -6 -2 41.89 3.62
 -3 -6 -1 11.36 2.81
 -3 -6 4 46.87 5.07
 -3 -6 5 41.34 5.94
 -3 -6 6 118.77 7.84
 -3 -6 7 208.98 10.38
 -3 -6 8 295.62 12.6
 -3 -6 9 39.46 6.17
 -3 -6 10 24 5.49
 -3 -6 11 17.5 4.84
 -3 -6 12 109.3 9
 -3 -6 13 67.88 8.46
 -3 -6 14 53.08 8.03
 -3 -6 15 143.77 11.13
 -3 -6 16 4.67 5.02
 -3 -6 17 80.61 8.92
 -3 -6 19 17.73 7.32
 -3 -6 20 44.69 8.53
 -3 -6 21 5.97 7.1
 -3 -6 22 34.57 8.13
 -3 -5 11 39.45 6.07
 -3 -5 12 211.58 11.57
 -3 -5 13 8.2 4.38
 -3 -5 14 109.4 8.94
 -3 -5 15 56.09 8.26
 -3 -5 16 13.01 5.24
 -3 -5 18 162.15 11.41
 -3 -5 20 212.95 13.39
 -3 -5 21 3.74 6.09
 -3 -5 22 96.57 11.5
 -3 -5 23 45.67 8.9
 -3 -5 24 7.62 7.55
 -3 -4 15 50.79 7
 -3 -4 16 15.43 5.85
 -3 -4 18 72.81 8.02
 -3 -4 19 27.56 7.15
 -3 -4 20 61.84 9.48
 -3 -4 21 71.9 9.28
 -3 -4 22 24.03 6.56
 -3 -4 24 -0.83 5.97
 -3 -4 25 6.41 7.33
 -3 -3 17 23.09 5.37
 -3 -3 19 2.95 4.57
 -3 -3 22 88.65 9.23
 -3 -3 24 33.18 7.62
 -3 -3 25 31.36 7.66
 -3 -3 26 53.01 8.85
 -3 -2 20 13.98 5.21
 -3 -2 21 178.85 11.53
 -3 -2 22 64.05 8.47
 -3 -2 23 131.51 11.41
 -3 -2 24 5.16 5.51
 -3 -2 25 1.67 5.04
 -3 -2 26 7.86 6.04
 -3 -2 27 18.48 7.51
 -3 -1 20 62.13 7.15
 -3 -1 21 55.59 8.31
 -3 -1 22 13 5.1
 -3 -1 23 89.38 9.57
 -3 -1 24 185.28 11.98
 -3 -1 25 15.07 6.1
 -3 -1 26 15.12 5.78
 -3 -1 27 19.02 6.66
 -3 -1 28 31.71 7.04
 -3 0 21 506.28 17.16
 -3 0 22 5.89 4.49
 -3 0 23 110.43 9.28
 -3 0 25 12.48 5.47
 -3 0 26 43.38 6.99
 -3 1 22 8.68 4.3
 -3 1 23 83.1 7.78
 -3 1 24 185.21 10.8
 -3 1 25 24.41 5.79
 -3 2 23 141.62 9.23
 -2 -11 10 -0.15 3.46
 -2 -10 9 28.32 6.75
 -2 -10 10 61.26 9.31
 -2 -10 11 37.4 7.6
 -2 -10 12 11.14 6.15
 -2 -10 13 -5.51 4.72
 -2 -9 6 10.41 4.64
 -2 -9 7 15.73 5.03
 -2 -9 8 32.9 7.16
 -2 -9 10 53.92 8.34
 -2 -9 11 34.82 7.49
 -2 -9 12 38.61 8.33
 -2 -9 14 32.39 7.61
 -2 -9 15 4.74 6.46
 -2 -9 16 19.75 7.19
 -2 -9 17 25.5 8.42
 -2 -8 3 299.26 11.15
 -2 -8 4 25.49 4.58
 -2 -8 5 21.72 4.57
 -2 -8 6 3.56 4.32
 -2 -8 7 42.56 6.7
 -2 -8 8 78.85 7.7
 -2 -8 9 35.73 6.09
 -2 -8 10 22.78 5.61
 -2 -8 11 101.27 10.07
 -2 -8 12 60.75 8.79
 -2 -8 13 38.29 7.47
 -2 -8 14 14.57 6.81
 -2 -8 15 12.06 6.25
 -2 -8 17 121.65 12.4
 -2 -8 18 -4.56 6.12
 -2 -8 19 1.5 6.25
 -2 -8 20 -1.28 6.14
 -2 -7 0 0.78 1.63
 -2 -7 4 67.24 6.08
 -2 -7 6 2.14 3.67
 -2 -7 7 279.2 12.01
 -2 -7 8 37.39 6.18
 -2 -7 10 9.87 4.37
 -2 -7 11 48.45 7.5
 -2 -7 12 21.98 5.52
 -2 -7 13 91.2 8.92
 -2 -7 14 13.66 6.55
 -2 -7 16 13.55 6.01
 -2 -7 17 77.59 9.67
 -2 -7 18 148.8 11.95
 -2 -7 19 19.43 6.83
 -2 -7 20 33.27 8.15
 -2 -7 21 10.36 6.78
 -2 -7 22 8.1 7.86
 -2 -6 -3 344.74 7.69
 -2 -6 -2 105.9 4.83
 -2 -6 -1 110.78 5.24
 -2 -6 0 10.16 2.22
 -2 -6 1 112.97 5.9
 -2 -6 2 105.48 5.96
 -2 -6 6 56.4 6.11
 -2 -6 7 116.37 7.87
 -2 -6 8 3.05 3.05
 -2 -6 9 13.79 4.48
 -2 -6 10 87.5 7.68
 -2 -6 11 38.88 6.11
 -2 -6 12 112.06 8.71
 -2 -6 13 15.71 5.24
 -2 -6 14 71.81 8.6
 -2 -6 15 101.13 9.78
 -2 -6 16 -0.9 5
 -2 -6 17 68 9.28
 -2 -6 20 18.79 6.88
 -2 -6 21 68.61 10.58
 -2 -6 22 67.33 9.76
 -2 -6 23 128.15 12.86
 -2 -6 24 49.12 9.91
 -2 -5 -6 65.22 2.17
 -2 -5 -5 77.51 2.89
 -2 -5 -1 138.08 5.46
 -2 -5 0 52.19 3.77
 -2 -5 1 130.53 6.04
 -2 -5 2 315.92 9.33
 -2 -5 3 256.87 8.92
 -2 -5 4 239.53 8.87
 -2 -5 8 26.83 4.98
 -2 -5 9 153.29 8.82
 -2 -5 11 7.5 3.88
 -2 -5 12 150.25 9.73
 -2 -5 13 334.25 13.68
 -2 -5 14 -2.09 2.93
 -2 -5 16 9.47 4.64
 -2 -5 17 33.42 7.04
 -2 -5 18 71.64 7.98
 -2 -5 19 123.66 10.58
 -2 -5 20 47.82 8.22
 -2 -5 21 5.95 5.29
 -2 -5 22 25.52 8.38
 -2 -5 23 7.04 5.95
 -2 -5 24 0.75 5.85
 -2 -5 25 6 6.64
 -2 -4 10 19.47 4.18
 -2 -4 11 91.37 6.93
 -2 -4 13 140.21 9.09
 -2 -4 14 363.75 13.68
 -2 -4 15 110 8.59
 -2 -4 16 30.92 5.77
 -2 -4 17 37.53 6.8
 -2 -4 18 13.89 4.97
 -2 -4 19 24.83 6.26
 -2 -4 20 79.84 9.41
 -2 -4 22 50.85 8.55
 -2 -4 23 94.15 10.81
 -2 -4 24 56.62 8.93
 -2 -4 25 15.01 6.89
 -2 -4 26 2.61 6.46
 -2 -3 -10 24.93 1.43
 -2 -3 -9 489.91 5.53
 -2 -3 13 194.72 9.66
 -2 -3 14 16.26 4.33
 -2 -3 15 64.79 6.4
 -2 -3 18 39.02 6.84
 -2 -3 19 19.67 5.79
 -2 -3 21 18.97 5.79
 -2 -3 22 92.18 9.03
 -2 -3 23 48.04 8.01
 -2 -3 24 3.03 5.2
 -2 -3 25 6.4 5.94
 -2 -3 26 53.93 9.27
 -2 -3 27 18.84 7.41
 -2 -2 17 175.98 10.04
 -2 -2 18 -1.23 3.31
 -2 -2 19 15.78 5.28
 -2 -2 21 271.45 13.36
 -2 -2 22 3.7 5.02
 -2 -2 23 20.36 6.06
 -2 -2 24 17.9 5.88
 -2 -2 25 27.71 6.42
 -2 -2 27 16.96 6.75
 -2 -2 28 4.2 6.02
 -2 -1 19 5.45 3.77
 -2 -1 20 126.9 9.05
 -2 -1 21 77.07 8.15
 -2 -1 22 149.85 9.91
 -2 -1 23 18.96 5.37
 -2 -1 24 42.87 7.45
 -2 -1 25 7.75 4.78
 -2 -1 26 15.54 6.16
 -2 -1 27 28.4 6.8
 -2 -1 28 105.56 10.11
 -2 0 18 19.21 4.23
 -2 0 19 -1.28 3.34
 -2 0 20 55.73 6.82
 -2 0 21 4.57 3.49
 -2 0 22 79.99 7.81
 -2 0 23 77.36 7.88
 -2 0 24 17.97 5.01
 -2 0 25 2.4 4.71
 -2 0 26 14.8 5.37
 -2 1 19 5.8 3.38
 -2 1 20 115.91 8.03
 -2 1 21 87 7.35
 -2 1 22 166.26 9.38
 -2 1 23 19.88 4.78
 -2 1 24 59.02 7.11
 -2 2 19 12.2 3.61
 -2 2 20 16.22 3.88
 -2 2 21 266.14 10.51
 -2 2 22 1.5 2.92
 -1 -11 9 7.54 4.59
 -1 -11 11 15.36 5.95
 -1 -10 4 2.53 2.83
 -1 -10 6 1.48 2.96
 -1 -10 7 -1.98 3.47
 -1 -10 8 3.29 4.19
 -1 -10 10 46.13 8.58
 -1 -10 11 51.28 9
 -1 -10 12 0.51 5.11
 -1 -10 13 20.5 6.67
 -1 -10 14 -3.59 5.03
 -1 -10 15 14.73 7.22
 -1 -9 0 0.2 1.6
 -1 -9 1 1.41 1.75
 -1 -9 5 53.18 6.53
 -1 -9 6 12.17 5.04
 -1 -9 7 69.97 8.54
 -1 -9 8 68.31 8.48
 -1 -9 9 51.88 8.1
 -1 -9 10 52.87 7.89
 -1 -9 11 37.17 7.18
 -1 -9 12 -4.34 4.75
 -1 -9 13 102.03 10.78
 -1 -9 14 11.05 6.27
 -1 -9 15 7.72 6.35
 -1 -9 16 -3.95 6.77
 -1 -9 17 59.32 9.78
 -1 -9 18 -3.62 7.05
 -1 -8 2 169.01 8.29
 -1 -8 3 96.07 6.67
 -1 -8 4 70.13 6.66
 -1 -8 5 89.29 7.45
 -1 -8 6 20.67 5.36
 -1 -8 7 84.5 8.23
 -1 -8 9 146.74 10.11
 -1 -8 10 -3.68 4.44
 -1 -8 11 17.51 6.24
 -1 -8 12 35.92 7.21
 -1 -8 13 71.85 8.95
 -1 -8 14 62.61 9.17
 -1 -8 15 19.63 7.66
 -1 -8 16 20.14 6.78
 -1 -8 17 9.46 6.73
 -1 -8 18 17.78 7.33
 -1 -8 19 117.46 11.67
 -1 -8 20 19.46 7.45
 -1 -8 21 15.77 7.86
 -1 -7 -1 52.87 4.1
 -1 -7 0 53.79 4.45
 -1 -7 1 59.48 4.81
 -1 -7 5 191.24 9.16
 -1 -7 7 79.22 7.21
 -1 -7 8 36.65 6.13
 -1 -7 9 6.66 4.27
 -1 -7 10 89.67 8.5
 -1 -7 11 75.74 8.65
 -1 -7 12 224.26 12.6
 -1 -7 13 91.15 8.75
 -1 -7 14 267.26 14.51
 -1 -7 15 128.12 10.86
 -1 -7 16 15.14 5.93
 -1 -7 18 61.74 9.14
 -1 -7 19 7.99 6.09
 -1 -7 20 52.26 8.9
 -1 -7 21 11.8 6.5
 -1 -6 -2 315.6 7.73
 -1 -6 -1 131.52 5.51
 -1 -6 0 470.45 10.61
 -1 -6 1 113.9 5.94
 -1 -6 2 331.37 9.91
 -1 -6 7 246.04 10.2
 -1 -6 8 164.68 8.81
 -1 -6 9 50.47 5.77
 -1 -6 10 16.61 4.53
 -1 -6 12 42.85 6.19
 -1 -6 13 58.3 7.86
 -1 -6 14 26.72 5.79
 -1 -6 15 33.98 6.4
 -1 -6 16 8.8 5.2
 -1 -6 17 66.21 9.49
 -1 -6 18 53.33 9.09
 -1 -6 19 -0.7 5.94
 -1 -6 22 10.4 6.45
 -1 -6 23 11.54 6.61
 -1 -5 -5 41 1.81
 -1 -5 -4 33.36 2.08
 -1 -5 -3 302.88 6.22
 -1 -5 -2 134.19 4.65
 -1 -5 2 125.97 5.74
 -1 -5 3 301.57 8.94
 -1 -5 4 31.83 3.91
 -1 -5 5 44.1 4.33
 -1 -5 9 504.68 14.23
 -1 -5 10 74.98 6.27
 -1 -5 11 145.95 8.81
 -1 -5 12 75.94 7.07
 -1 -5 13 21.87 4.59
 -1 -5 14 239.94 11.52
 -1 -5 15 18.7 4.82
 -1 -5 16 146.39 9.82
 -1 -5 17 12.02 4.68
 -1 -5 18 1.64 4.14
 -1 -5 19 101.07 10.1
 -1 -5 20 7.1 6.25
 -1 -5 21 47.01 8.33
 -1 -5 22 88.1 9.89
 -1 -5 23 129.36 12.47
 -1 -5 25 11.05 7.24
 -1 -5 26 2.81 6.11
 -1 -4 -4 317.03 4.69
 -1 -4 -3 867.23 8.93
 -1 -4 0 1396.33 14.61
 -1 -4 7 171.13 7.64
 -1 -4 11 322.85 11.51
 -1 -4 12 4.75 2.77
 -1 -4 13 33.58 4.92
 -1 -4 14 232.57 10.57
 -1 -4 15 178.81 9.78
 -1 -4 16 23.12 5.09
 -1 -4 17 43.18 6.98
 -1 -4 18 113.92 8.8
 -1 -4 19 14.63 5.35
 -1 -4 20 47.48 8.08
 -1 -4 21 21.21 6.44
 -1 -4 22 48.62 8.6
 -1 -4 23 1.05 5.08
 -1 -4 25 64.73 9.97
 -1 -4 26 5.54 6.09
 -1 -3 -3 357.09 4.86
 -1 -3 4 913.96 13.32
 -1 -3 5 110.95 5.37
 -1 -3 13 368.91 12.35
 -1 -3 14 20.99 4.21
 -1 -3 17 114.24 8.74
 -1 -3 18 62.62 6.58
 -1 -3 19 60.04 8.03
 -1 -3 20 147.59 10.02
 -1 -3 21 119.99 9.99
 -1 -3 22 107.79 10.1
 -1 -3 23 9.89 5.3
 -1 -3 24 15.75 6.14
 -1 -3 25 4.24 6.28
 -1 -3 26 183.53 13.41
 -1 -3 28 79.5 10.82
 -1 -2 11 176.76 7.6
 -1 -2 16 3.91 3.1
 -1 -2 17 33.32 5.54
 -1 -2 18 0.35 3.77
 -1 -2 19 9.93 4.2
 -1 -2 20 130.29 8.89
 -1 -2 21 44.33 6.78
 -1 -2 22 22.41 5.53
 -1 -2 23 122.06 10.17
 -1 -2 24 28.31 7.19
 -1 -2 25 13.68 6.48
 -1 -2 26 2.32 6.1
 -1 -2 27 76.91 9.85
 -1 -2 28 69.09 9.72
 -1 -2 29 103.56 10.33
 -1 -1 12 666.99 13.9
 -1 -1 13 8.75 2.92
 -1 -1 18 84.98 7.03
 -1 -1 19 17.3 4.82
 -1 -1 20 69.16 7.1
 -1 -1 22 332.12 13.75
 -1 -1 23 97.61 8.52
 -1 -1 24 12.81 4.9
 -1 -1 26 110.84 9.98
 -1 -1 27 12.35 5.86
 -1 -1 28 42.03 7.25
 -1 0 14 66.76 4.82
 -1 0 15 246.43 9.14
 -1 0 18 1.82 2.86
 -1 0 19 37.48 5.63
 -1 0 20 5.25 3.41
 -1 0 22 58.22 7.08
 -1 0 23 10.84 4.17
 -1 0 25 115.14 8.99
 -1 1 15 737.78 14
 -1 1 16 113.35 6.21
 -1 1 21 112.4 7.19
 -1 1 22 319.69 11.55
 -1 1 23 94.93 7.14
 -1 1 24 11.05 4.12
 -1 2 15 260.62 7.8
 -1 2 16 1.97 2.23
 -1 2 17 39.14 3.99
 -1 2 18 3.3 2.68
 -1 3 15 42.03 3.34
 -1 3 16 661.93 11.05
 -1 3 17 108.55 4.96
 -1 3 18 66.53 4.22
 -1 3 19 61.89 4.24
 -1 4 14 220.23 5.11
 -1 4 15 172.2 4.58
 0 -11 9 -4.53 4.36
 0 -11 10 15.92 5.93
 0 -11 11 2.63 5.58
 0 -10 3 1.08 2.45
 0 -10 5 1.32 3.08
 0 -10 8 11.92 5.2
 0 -10 9 4 4.91
 0 -10 10 17.93 7.31
 0 -10 12 7.69 6.81
 0 -10 13 39.91 9
 0 -10 15 4.94 6.6
 0 -9 4 35.35 5.62
 0 -9 5 0.69 3.77
 0 -9 6 10.35 4.52
 0 -9 7 -2.21 3.82
 0 -9 9 0.2 4.52
 0 -9 10 7.59 6.01
 0 -9 11 14.12 6.1
 0 -9 12 -2.62 4.59
 0 -9 13 5.44 5.6
 0 -9 14 25.81 7.4
 0 -9 15 29.79 7.6
 0 -9 16 0.81 6.02
 0 -9 17 143.5 13.65
 0 -9 18 4.98 7.15
 0 -8 -2 0.38 1.31
 0 -8 2 7.33 3.27
 0 -8 5 268.95 11.77
 0 -8 7 174.42 10.37
 0 -8 8 30.26 6.01
 0 -8 9 16.78 5.97
 0 -8 10 3.08 4.35
 0 -8 11 34.11 7.21
 0 -8 12 4.9 6.01
 0 -8 13 226.83 14.02
 0 -8 14 0.81 5.96
 0 -8 16 3.76 5.53
 0 -8 17 34.4 8.86
 0 -8 18 5.43 6.12
 0 -8 19 -1.87 6.68
 0 -8 20 67.13 10.41
 0 -8 21 -9.73 5.27
 0 -7 -2 181.29 6.93
 0 -7 -1 102.89 5.68
 0 -7 5 118.05 7.69
 0 -7 6 7.11 3.51
 0 -7 8 66.33 7.52
 0 -7 9 14.01 4.67
 0 -7 10 250.14 12.63
 0 -7 11 148.18 10.66
 0 -7 12 -1.98 3.84
 0 -7 13 45.81 7.57
 0 -7 14 38.17 7.92
 0 -7 15 -0.01 4.43
 0 -7 16 19.78 6.94
 0 -7 17 167.85 12.13
 0 -7 18 139.58 12.23
 0 -7 19 198.17 13.61
 0 -7 21 77.03 11.15
 0 -7 22 141.38 13.64
 0 -7 23 4.23 8.13
 0 -6 -2 323.28 8.33
 0 -6 -1 461.36 10.39
 0 -6 0 453 10.75
 0 -6 1 441.57 10.95
 0 -6 3 12.03 3.46
 0 -6 7 147.21 8.54
 0 -6 8 5.59 3.19
 0 -6 10 9.17 4.26
 0 -6 11 5.35 3.63
 0 -6 12 30.18 5.85
 0 -6 13 3.46 4.65
 0 -6 14 -0.34 3.84
 0 -6 15 46.33 7.59
 0 -6 16 6.04 4.86
 0 -6 17 22.12 7.08
 0 -6 18 58.53 8.77
 0 -6 19 58.9 8.84
 0 -6 20 17.65 6.33
 0 -6 21 19.51 6.75
 0 -6 23 -2.3 5.29
 0 -6 24 0.2 5.82
 0 -6 25 36.75 9.38
 0 -5 -4 86.09 3.54
 0 -5 -3 333.22 7.15
 0 -5 -2 5.32 1.89
 0 -5 4 87.31 5.67
 0 -5 5 430.3 11.8
 0 -5 6 7.81 3.28
 0 -5 10 5.9 3.46
 0 -5 11 7.7 3.83
 0 -5 13 104.06 7.96
 0 -5 14 698.1 19.56
 0 -5 16 379.14 15.27
 0 -5 17 6.15 5.44
 0 -5 19 18.9 6.16
 0 -5 20 40.82 7.68
 0 -5 21 14.54 6.58
 0 -5 22 54.86 9.63
 0 -5 23 33.03 8.31
 0 -5 24 10.04 6.37
 0 -5 26 46.98 10.09
 0 -4 -3 934.35 10.12
 0 -4 -2 1857.44 15.1
 0 -4 -1 1134.11 12.63
 0 -4 0 172.56 5.34
 0 -4 1 1152.36 14.37
 0 -4 2 1879.04 19.25
 0 -4 3 927.87 14.18
 0 -4 8 35.89 4.41
 0 -4 12 1.79 2.93
 0 -4 13 33.75 5.01
 0 -4 14 -1.2 2.92
 0 -4 15 28.45 5.18
 0 -4 16 60.74 6.7
 0 -4 17 9.48 4.42
 0 -4 18 -0.29 3.52
 0 -4 20 108.5 9.46
 0 -4 21 33.58 7.24
 0 -4 22 4.07 6.07
 0 -4 23 44.35 8
 0 -4 24 -0.59 5.08
 0 -4 25 -3.89 5.56
 0 -4 26 121.57 11.66
 0 -4 27 23.84 7.73
 0 -3 -3 1438 9.89
 0 -3 -2 2.39 1.25
 0 -3 -1 425.66 6.64
 0 -3 1 422.47 7.69
 0 -3 2 1.52 1.64
 0 -3 3 1483.47 15.89
 0 -3 4 200.88 6.44
 0 -3 7 314.12 8.77
 0 -3 15 1130.67 22.38
 0 -3 16 168.28 9.76
 0 -3 17 58.94 7.1
 0 -3 18 0.19 3.43
 0 -3 22 28.74 6.33
 0 -3 24 138.04 10.8
 0 -3 25 -0.63 5.53
 0 -3 26 6.49 5.95
 0 -3 27 2.6 5.18
 0 -3 28 72.51 10.03
 0 -3 29 9.65 7.35
 0 -2 -2 1944.76 9.51
 0 -2 -1 3819.17 15.08
 0 -2 0 9905.75 27.13
 0 -2 1 3846.78 18.52
 0 -2 2 1964.25 14.45
 0 -2 3 3584.29 20.86
 0 -2 4 1718.77 15.48
 0 -2 6 1221.63 14.78
 0 -2 7 1378.1 16.44
 0 -2 8 141.56 5.75
 0 -2 9 231.38 7.65
 0 -2 11 408.71 10.88
 0 -2 12 124.8 6.5
 0 -2 16 50.82 5.87
 0 -2 17 8.65 3.66
 0 -2 19 70.44 7.12
 0 -2 21 32.12 6.11
 0 -2 22 20.37 5.69
 0 -2 23 40.63 7.05
 0 -2 24 55.34 8.41
 0 -2 26 40.95 7.32
 0 -2 27 170.02 11.83
 0 -2 28 85.22 9.55
 0 -2 29 8.99 5.42
 0 -1 1 262.71 3.68
 0 -1 2 0.45 1.36
 0 -1 3 819 8.39
 0 -1 4 509.89 7.48
 0 -1 5 982.58 10.86
 0 -1 6 1715.73 15.13
 0 -1 7 870.61 11.67
 0 -1 8 31.07 3.32
 0 -1 9 109.11 5.05
 0 -1 10 44.41 3.9
 0 -1 12 2288.62 23.78
 0 -1 19 17.8 4.25
 0 -1 20 167.54 9.25
 0 -1 21 -1.87 3.87
 0 -1 22 317.67 13.16
 0 -1 23 75.38 7.67
 0 -1 24 -0.64 3.51
 0 -1 25 22.98 5.62
 0 -1 26 69.48 8.62
 0 -1 27 22.67 6.02
 0 0 4 1588.44 10.13
 0 0 6 4.45 1.45
 0 0 8 0.92 1.44
 0 0 10 398.61 8.47
 0 0 12 112.34 5.28
 0 0 14 49.27 4.05
 0 0 16 19.97 3.98
 0 0 22 391.3 13.36
 0 0 24 6.31 4.3
 0 1 -2 -0.75 1.24
 0 1 -1 290.96 4
 0 1 6 1774.06 10.56
 0 1 7 864.37 8.39
 0 1 8 32.62 2.23
 0 1 9 109.73 3.83
 0 1 10 42.25 2.89
 0 1 11 3.56 1.54
 0 1 12 2254.41 19.07
 0 1 13 239.86 6.8
 0 1 14 172.02 6.15
 0 1 15 982.89 14.71
 0 1 16 1670.52 19.94
 0 1 17 113.76 6.07
 0 1 18 74.8 5.24
 0 1 21 2.09 2.63
 0 1 22 304.04 10.64
 0 1 23 76.89 6.41
 0 2 1 3935.47 14.88
 0 2 7 1415.14 7.82
 0 2 8 144.74 3.01
 0 2 9 225.41 4.12
 0 2 10 3.18 1.04
 0 2 11 402.71 6.47
 0 2 12 119 4.02
 0 2 13 33.88 2.69
 0 2 14 158.67 5.17
 0 2 15 146.88 5.27
 0 2 16 46.08 3.59
 0 2 17 11.35 2.4
 0 2 18 263.68 7.8
 0 2 19 71.94 4.68
 0 2 20 125.16 6
 0 2 21 34.3 4.28
 0 3 4 214.61 3.36
 0 3 11 298.87 3.7
 0 3 12 43.42 1.82
 0 3 13 87.53 2.71
 0 3 14 651.93 7.48
 0 3 15 1109.31 10.34
 0 3 16 153.15 4.25
 0 3 17 49 2.84
 1 -11 7 -5.7 3.18
 1 -11 8 2.64 5.06
 1 -11 9 7.71 5.88
 1 -11 10 48.22 9.42
 1 -11 11 12.58 6.7
 1 -10 5 -0.97 3.59
 1 -10 6 4.31 4.53
 1 -10 7 32.34 6.86
 1 -10 8 11.88 6.18
 1 -10 9 103.99 11.01
 1 -10 10 32.58 7.57
 1 -10 11 47.28 8.86
 1 -10 12 -0.7 5.75
 1 -10 13 19.44 8.16
 1 -10 14 -0.46 5.75
 1 -10 15 9.44 7.14
 1 -9 3 40.93 5.88
 1 -9 5 66.98 8.22
 1 -9 6 12.54 5.31
 1 -9 7 81.68 9.73
 1 -9 8 80.29 9.82
 1 -9 11 29.45 7.3
 1 -9 12 -1.51 6.4
 1 -9 13 118.31 12.07
 1 -9 14 -0.97 5.43
 1 -9 15 11.43 6.7
 1 -9 16 -2.7 5.8
 1 -9 17 65.46 10.7
 1 -9 18 1.89 7.16
 1 -8 0 2.97 2.72
 1 -8 1 18.25 3.9
 1 -8 2 156.9 9.02
 1 -8 3 101.96 7.71
 1 -8 4 67.81 7.04
 1 -8 6 22.45 5.98
 1 -8 7 93.05 9.09
 1 -8 8 39 7.28
 1 -8 9 163.19 11.39
 1 -8 10 4.54 5
 1 -8 11 22.44 6.38
 1 -8 12 38.91 7.39
 1 -8 13 83.59 10.71
 1 -8 14 77.35 10.52
 1 -8 15 25.23 8.37
 1 -8 16 34.12 8.68
 1 -8 17 17.36 7.01
 1 -8 18 10.99 6.71
 1 -8 19 112.97 12.93
 1 -8 20 23.94 8.2
 1 -7 -1 57.05 5.28
 1 -7 3 14.43 4.02
 1 -7 4 17.47 4.28
 1 -7 5 185.96 10.14
 1 -7 6 16.74 4.49
 1 -7 8 44.67 6.55
 1 -7 9 5.22 4.15
 1 -7 11 84.04 8.85
 1 -7 12 220.61 12.86
 1 -7 14 262.79 14.59
 1 -7 16 11.52 7.07
 1 -7 17 27.11 7.19
 1 -7 18 60.4 9.74
 1 -7 19 4.62 5.9
 1 -7 20 58.32 10.28
 1 -7 21 15.31 6.79
 1 -7 22 2.56 7.12
 1 -7 23 10.07 8.23
 1 -6 -2 324.16 9.35
 1 -6 0 470.16 11.93
 1 -6 1 131.62 7.19
 1 -6 6 98.32 7.5
 1 -6 7 244.1 10.9
 1 -6 9 60.09 6.85
 1 -6 10 17.49 4.6
 1 -6 11 172.53 10.54
 1 -6 12 44.86 7.53
 1 -6 14 24.18 6.18
 1 -6 15 36.8 7.5
 1 -6 16 9.6 5.16
 1 -6 17 56.9 8.31
 1 -6 18 50.66 8.46
 1 -6 19 7.55 5.38
 1 -6 20 51.35 8.58
 1 -6 21 10.28 7.15
 1 -6 23 7.67 6.93
 1 -5 0 78.86 4.89
 1 -5 1 299.48 9.18
 1 -5 2 127.93 6.35
 1 -5 3 302.89 9.94
 1 -5 4 34.71 4.5
 1 -5 5 44.61 4.58
 1 -5 9 532.97 15.03
 1 -5 10 84.61 7.2
 1 -5 11 160.95 9.14
 1 -5 12 85.51 7.2
 1 -5 13 21.4 4.81
 1 -5 14 241.05 11.84
 1 -5 15 23.41 5.37
 1 -5 16 127.74 10.29
 1 -5 17 14.77 5.08
 1 -5 18 11.6 6.22
 1 -5 19 96.38 9.55
 1 -5 20 10.35 5.4
 1 -5 23 134.87 12.62
 1 -5 26 6.63 6.07
 1 -4 -2 232.03 6.68
 1 -4 -1 390.78 8.77
 1 -4 1 398.5 9.55
 1 -4 2 244.43 7.96
 1 -4 7 170.92 7.69
 1 -4 11 346.97 12.13
 1 -4 13 28.92 4.96
 1 -4 14 230.01 10.86
 1 -4 15 181.53 10.24
 1 -4 17 54.59 7.58
 1 -4 18 108.51 8.81
 1 -4 19 8.33 5.15
 1 -4 20 43.25 7.7
 1 -4 21 14.35 6.26
 1 -4 22 31.11 7.53
 1 -4 23 6.73 6.56
 1 -4 24 29.32 8.34
 1 -4 25 41.73 8.18
 1 -4 26 11.18 6.47
 1 -4 27 16.7 7.95
 1 -3 -1 1376.25 14.67
 1 -3 1 1341.48 15.38
 1 -3 2 454.2 9.5
 1 -3 4 958.57 14.43
 1 -3 5 110.87 5.49
 1 -3 6 57.54 4.35
 1 -3 14 20.33 4.88
 1 -3 15 33.56 5.14
 1 -3 16 638.71 17.65
 1 -3 17 120.7 8.56
 1 -3 19 63.74 7.82
 1 -3 20 128.52 9.92
 1 -3 21 142.19 10.7
 1 -3 22 127.32 10.41
 1 -3 23 9.9 4.96
 1 -3 24 4.13 5
 1 -3 25 5.16 6.17
 1 -3 26 173.68 12.38
 1 -3 27 41.97 8.7
 1 -3 29 45.32 9.24
 1 -2 0 9138.46 33.96
 1 -2 1 654.7 9.7
 1 -2 3 1218.45 13.89
 1 -2 5 112.45 5.15
 1 -2 6 1375.7 16.87
 1 -2 7 898.01 14.03
 1 -2 8 127.12 5.82
 1 -2 10 265.22 8.99
 1 -2 16 4.08 3.07
 1 -2 17 33.8 5.35
 1 -2 18 0.93 4.1
 1 -2 19 8.64 4.83
 1 -2 20 142.5 9.78
 1 -2 21 49.67 7.1
 1 -2 22 24.73 5.64
 1 -2 23 106.62 9.32
 1 -2 24 12.28 5.88
 1 -2 25 4.2 4.66
 1 -2 27 83.1 9.31
 1 -2 28 62.95 8.86
 1 -1 1 2498.19 16.11
 1 -1 3 318.37 6.4
 1 -1 4 17.18 2.29
 1 -1 6 1640.72 16.11
 1 -1 7 948.12 12.92
 1 -1 8 178.26 6.29
 1 -1 9 626.04 11.61
 1 -1 11 160.02 6.62
 1 -1 12 666.72 13.56
 1 -1 13 13.58 3.1
 1 -1 14 85.99 6.11
 1 -1 18 97.76 7.23
 1 -1 19 9.74 4
 1 -1 20 68.7 7.04
 1 -1 21 114.04 8.37
 1 -1 22 333.6 13.04
 1 -1 23 98.95 8.67
 1 -1 24 9.96 4.52
 1 -1 25 21.41 6.04
 1 -1 26 85.4 8.53
 1 0 3 912.34 8.94
 1 0 5 1074.3 10.79
 1 0 6 5990.92 26.36
 1 0 7 3133.02 20.11
 1 0 9 82.2 4.03
 1 0 10 1252.03 14.97
 1 0 11 99.73 5.01
 1 0 12 265.95 7.8
 1 0 13 32.1 3.78
 1 0 14 61.13 4.8
 1 0 15 257.12 8.58
 1 0 16 225.21 8.48
 1 0 20 3.76 3.14
 1 0 21 24.24 4.46
 1 0 22 60.57 6.5
 1 0 23 13.34 4.12
 1 0 24 1.19 3.67
 1 1 7 934.26 9.31
 1 1 9 617.02 8.63
 1 1 10 488.1 8.19
 1 1 11 167.93 5.27
 1 1 12 653.2 10.48
 1 1 13 9.8 2.38
 1 1 14 88.83 4.74
 1 1 15 720.1 12.57
 1 1 16 106.52 5.52
 1 1 17 135.16 6.35
 1 1 18 85.8 5.5
 1 1 22 318.65 10.73
 1 2 10 258.69 4.71
 1 2 12 230.2 5.13
 1 2 13 302.28 6.34
 1 2 14 421.21 7.79
 1 2 16 3.22 1.75
 1 2 17 36.65 3.28
 1 2 18 2.11 1.8
 1 2 19 7.17 2.25
 2 -11 9 -2.1 5.81
 2 -10 6 85.83 9.14
 2 -10 7 30.13 8.1
 2 -10 8 50.29 8.97
 2 -10 9 28.43 7.9
 2 -10 10 46.47 9.37
 2 -10 11 51.09 10.18
 2 -10 12 6.16 6.6
 2 -10 13 4.5 7.28
 2 -10 14 34.19 9.39
 2 -9 4 9.16 5.23
 2 -9 5 46.65 7.34
 2 -9 6 8.9 5.77
 2 -9 7 17.57 6.11
 2 -9 8 16.02 6.38
 2 -9 9 152.58 12.59
 2 -9 10 50.48 8.66
 2 -9 12 22.02 7.97
 2 -9 13 26.45 7.69
 2 -9 14 33.4 8.4
 2 -9 15 7.47 7.85
 2 -9 16 23.08 8.51
 2 -9 17 40.45 10.66
 2 -8 2 56.51 6.46
 2 -8 4 14.4 5.66
 2 -8 7 45.88 7.63
 2 -8 8 96.49 9.99
 2 -8 9 44.69 8.45
 2 -8 10 36.62 7.68
 2 -8 11 97.21 10
 2 -8 12 53.78 9.7
 2 -8 13 38.2 7.86
 2 -8 14 15.73 6.8
 2 -8 15 13.34 7.86
 2 -8 16 31.27 9.22
 2 -8 17 128.11 13.28
 2 -8 18 1.3 6.63
 2 -8 19 8.71 6.95
 2 -8 20 1.39 7.17
 2 -7 2 30.43 5.49
 2 -7 5 126.59 8.88
 2 -7 6 -0.43 3.97
 2 -7 7 285.15 13.12
 2 -7 8 29.4 6.04
 2 -7 9 300.6 14.27
 2 -7 10 -0.48 4.36
 2 -7 11 55.98 8.31
 2 -7 12 26.13 6.49
 2 -7 13 71.53 9.96
 2 -7 14 10.77 5.61
 2 -7 15 61.92 8.71
 2 -7 16 9.22 5.87
 2 -7 17 59.03 9.22
 2 -7 18 132.31 13.21
 2 -7 19 20.88 7.86
 2 -7 20 43.38 9.11
 2 -7 22 8.05 7.15
 2 -6 4 81.25 6.79
 2 -6 5 101.9 7.58
 2 -6 6 69.2 7.23
 2 -6 7 108.37 8.2
 2 -6 8 1.42 4.03
 2 -6 9 15.23 5.27
 2 -6 10 67.45 7.88
 2 -6 11 35.27 6.16
 2 -6 12 130.72 10.38
 2 -6 14 79.22 8.43
 2 -6 15 115.05 9.91
 2 -6 16 0.85 4.53
 2 -6 17 61.33 8.89
 2 -6 18 -1.57 6.06
 2 -6 19 72.04 10
 2 -6 22 60.24 10.41
 2 -6 24 43.93 9.48
 2 -5 1 128.75 7.36
 2 -5 2 324.67 10.93
 2 -5 7 607.98 16.54
 2 -5 8 35.34 5.48
 2 -5 9 167.38 9.44
 2 -5 10 45.86 6.16
 2 -5 11 7.18 4.56
 2 -5 12 140.04 9.27
 2 -5 13 335.8 14.51
 2 -5 14 -3.38 4.37
 2 -5 15 33.1 7.31
 2 -5 16 8.86 6.06
 2 -5 18 66.14 9.02
 2 -5 19 124.49 11.42
 2 -5 21 7.53 7.16
 2 -5 22 21.03 7.35
 2 -5 24 -2.75 5.46
 2 -5 25 1.25 5.88
 2 -4 4 95.59 6.55
 2 -4 5 199.14 8.92
 2 -4 10 15.62 3.81
 2 -4 11 95.57 7.72
 2 -4 12 42.26 5.82
 2 -4 14 377.95 14.79
 2 -4 15 109.78 9.41
 2 -4 16 29.48 6.41
 2 -4 17 34.16 6.54
 2 -4 18 11.91 5.22
 2 -4 19 28.03 6.66
 2 -4 20 59.66 8.68
 2 -4 22 66.6 10.05
 2 -4 24 43.88 9.32
 2 -4 25 12.32 8.01
 2 -4 26 8.45 7.43
 2 -4 27 67.16 9.98
 2 -3 2 218.36 8.08
 2 -3 3 146.14 6.62
 2 -3 4 31.1 3.63
 2 -3 12 22.4 4.51
 2 -3 13 204.19 10.29
 2 -3 14 15.58 4.55
 2 -3 15 65.78 7.27
 2 -3 16 94.37 8.6
 2 -3 17 90.17 8.19
 2 -3 19 24.95 6.26
 2 -3 21 17.8 5.78
 2 -3 23 46.29 8.06
 2 -3 24 6.91 5.66
 2 -3 26 35.18 7.44
 2 -3 28 20.28 7.13
 2 -2 4 318.79 8.92
 2 -2 5 85.66 5.03
 2 -2 6 924.48 15.62
 2 -2 10 378.56 11.52
 2 -2 11 80.91 6.17
 2 -2 14 51.78 6.04
 2 -2 15 99.56 7.43
 2 -2 16 64.17 7
 2 -2 17 188.67 10.48
 2 -2 18 -0.08 3.49
 2 -2 19 15.69 5.47
 2 -2 20 19.1 5.25
 2 -2 22 5.19 4.39
 2 -2 23 9.63 5.32
 2 -2 24 11 5.22
 2 -2 25 18.04 5.81
 2 -2 27 10.4 5.74
 2 -1 4 126.06 5.32
 2 -1 6 1364.59 17.39
 2 -1 7 97.8 5.19
 2 -1 8 45.09 3.87
 2 -1 9 434.4 10.78
 2 -1 11 9.63 3.04
 2 -1 12 160.12 7.78
 2 -1 13 95.49 6.2
 2 -1 17 30.07 5.21
 2 -1 18 123.87 8.01
 2 -1 19 0.1 3.81
 2 -1 20 111.35 8.48
 2 -1 22 162 9.84
 2 -1 23 20.77 5.21
 2 -1 25 2.82 4.81
 2 0 7 3.18 1.9
 2 0 8 737.69 12.37
 2 0 9 29.99 3.56
 2 0 11 1.72 2.18
 2 0 12 514.45 11.76
 2 0 13 10.19 3.21
 2 0 15 7.13 3.13
 2 0 19 1.73 3.5
 2 0 21 4.6 3.42
 2 0 22 78.22 6.96
 2 0 23 71.53 7
 2 0 24 20.19 5.15
 2 1 11 8.28 2.16
 2 1 12 166.36 6.27
 2 1 13 105.77 5.43
 2 1 14 186.97 7.05
 2 1 15 26.18 3.39
 2 1 16 9.32 2.88
 2 1 17 26.39 4.04
 2 1 21 79.37 6.11
 3 -9 9 6.48 6.16
 3 -9 10 6.14 6.01
 3 -9 11 117.92 11.81
 3 -9 12 23.51 8.96
 3 -9 13 70.72 10.82
 3 -9 14 0.36 7.21
 3 -9 15 10.55 7.56
 3 -8 9 30.95 7.67
 3 -8 10 35.76 8.35
 3 -8 11 54.6 10
 3 -8 13 35.32 8.9
 3 -8 14 -5.03 5.54
 3 -8 15 84.38 11.75
 3 -8 16 7.28 8.25
 3 -8 17 67.68 11.49
 3 -8 18 -0.38 8.25
 3 -7 7 48.6 7.42
 3 -7 8 16.77 6.55
 3 -7 10 22.43 6.99
 3 -7 11 34.04 8.17
 3 -7 12 -4.07 4.4
 3 -7 13 34.31 8.44
 3 -7 14 0.2 5.69
 3 -7 15 38.7 8.34
 3 -7 17 -5.68 6.73
 3 -7 18 -0.08 6.74
 3 -7 19 172.19 14.29
 3 -7 20 23.3 8.29
 3 -7 21 2.65 8.31
 3 -6 5 34.69 6.15
 3 -6 7 197.53 11.79
 3 -6 8 326.35 14.49
 3 -6 9 40.59 6.78
 3 -6 10 28.26 6.22
 3 -6 11 13.19 5.36
 3 -6 12 105.84 10.39
 3 -6 13 73.25 8.72
 3 -6 14 47.33 8.58
 3 -6 16 2.11 5.49
 3 -6 18 13.8 7.27
 3 -6 20 48.57 9.37
 3 -6 21 4.18 6.68
 3 -6 22 16.15 7.66
 3 -6 23 12.24 8.17
 3 -5 5 170.47 9.85
 3 -5 6 106.67 8.71
 3 -5 7 61.16 6.6
 3 -5 8 318.43 13.87
 3 -5 9 44.94 6.74
 3 -5 10 166.25 10.56
 3 -5 11 30.49 6.59
 3 -5 12 205.67 12.38
 3 -5 13 11.59 5.01
 3 -5 14 85.25 8.85
 3 -5 15 48.85 8.31
 3 -5 16 7.59 5.67
 3 -5 17 7.11 6.17
 3 -5 18 157.52 13.14
 3 -5 20 226.82 14.6
 3 -5 21 -4.06 6.59
 3 -5 22 112.47 11.61
 3 -5 24 -6.02 6.08
 3 -4 9 8.73 4.07
 3 -4 10 209.85 11.13
 3 -4 11 55.82 7.38
 3 -4 13 26.43 5.67
 3 -4 14 77.22 8.71
 3 -4 15 46.77 7.69
 3 -4 16 13.18 5.52
 3 -4 18 96.36 10.37
 3 -4 19 24.12 6.88
 3 -4 20 38.37 7.72
 3 -4 21 73.52 10.47
 3 -4 22 11.6 6.04
 3 -4 23 60.75 9.66
 3 -4 24 2.64 7.03
 3 -4 25 11.42 6.97
 3 -4 26 25.5 7.76
 3 -3 9 79.26 6.76
 3 -3 10 42 6.25
 3 -3 11 46.76 6.53
 3 -3 13 2.54 3.47
 3 -3 14 69.26 7.8
 3 -3 16 68.34 7.44
 3 -3 17 26.31 5.8
 3 -3 18 104.19 9.3
 3 -3 19 1.31 5.14
 3 -3 20 124.14 10.73
 3 -3 22 86.63 9.92
 3 -3 23 87.9 10.72
 3 -3 24 24.96 7.65
 3 -3 25 39.9 8.47
 3 -3 26 56.15 9.93
 3 -3 27 38.19 8.12
 3 -2 13 14.89 4.07
 3 -2 14 70.43 7.43
 3 -2 15 57.49 6.28
 3 -2 16 62.85 7.09
 3 -2 17 33.89 5.85
 3 -2 18 47.58 6.77
 3 -2 19 74.46 7.95
 3 -2 20 5.26 5.62
 3 -2 21 183.05 11.4
 3 -2 22 44.87 7.93
 3 -2 23 135.7 11.24
 3 -2 25 7.54 5.69
 3 -2 26 3.64 5.6
 3 -1 10 36.55 4.66
 3 -1 14 128.06 8.15
 3 -1 15 182.53 9.72
 3 -1 16 4.77 3.74
 3 -1 18 23.81 5.21
 3 -1 19 47.1 6.32
 3 -1 20 42.95 6.9
 3 -1 21 67.65 7.35
 3 -1 22 8.49 5.02
 3 -1 23 78.94 8.66
 3 -1 24 174.23 11.32
 3 0 18 0.12 3.02
 4 -7 18 0.77 6.29
 4 -6 16 4.57 6.44
 4 -6 18 36.98 8.52
 4 -6 20 75.81 11.41
 4 -6 21 91.2 12.59
 4 -5 13 99.75 9.87
 4 -5 14 8.29 6.43
 4 -5 15 -0.91 4.79
 4 -5 16 31.74 7.41
 4 -5 17 28.33 7.21
 4 -5 18 34.16 7.86
 4 -5 19 2.89 6.01
 4 -5 20 60.13 9.81
 4 -5 22 13.22 6.91
 4 -4 14 88.94 9.31
 4 -4 15 225.29 13.67
 4 -4 16 38.42 8.23
 4 -4 17 167.49 12.86
 4 -4 18 8.01 6.09
 4 -4 19 22.52 7.72
 4 -4 20 3.82 6.68
 4 -4 21 55.4 9.05

_iucr_refine_fcf_details
;
data_fk_03422_int_db
_computing_structure_refinement   'olex2.refine 1.5-alpha (Bourhis et al., 2015)'
_shelx_refln_list_code            4
loop_
  _space_group_symop_id
  _space_group_symop_operation_xyz
  1  x,y,z
  2  x+1/2,-y+1/2,-z
  3  -x,y+1/2,-z+1/2
  4  -x+1/2,-y,z+1/2

_space_group_crystal_system       orthorhombic
_space_group_IT_number            19
_space_group_name_H-M_alt         'P 21 21 21'
_space_group_name_Hall            ' P 2ac 2ab'
_symmetry_space_group_name_H-M    'P 21 21 21'
_symmetry_space_group_name_Hall   ' P 2ac 2ab'
_symmetry_Int_Tables_number       19
_cell_length_a                    5.139(3)
_cell_length_b                    6.880(3)
_cell_length_c                    17.227(8)
_cell_angle_alpha                 90
_cell_angle_beta                  90
_cell_angle_gamma                 90
_cell_volume                      609.1(5)
loop_
  _refln_index_h
  _refln_index_k
  _refln_index_l
  _refln_F_squared_calc
  _refln_F_squared_meas
  _refln_F_squared_sigma
  _refln_F_squared_weight
  _refln_observed_status
-8 -5 -1 18.800 19.433 6.157 16.826 o
-8 -4 -9 32.577 36.441 6.763 13.273 o
-8 -4 -8 7.821 6.592 3.772 45.371 o
-8 -4 -7 5.950 10.387 5.608 21.003 o
-8 -4 -6 5.916 3.384 3.305 59.523 o
-8 -4 -5 47.207 48.330 5.862 15.666 o
-8 -4 -4 43.042 50.474 5.491 17.641 o
-8 -4 -3 46.022 49.088 4.700 22.041 o
-8 -4 -2 26.639 35.603 4.225 30.736 o
-8 -4 -1 3.290 1.448 2.347 118.195 o
-8 -3 -9 7.612 0.549 5.591 21.260 o
-8 -3 -8 0.064 0.693 3.388 58.548 o
-8 -3 -7 116.854 121.565 5.886 8.773 o
-8 -3 -6 3.751 7.817 2.808 81.340 o
-8 -3 -5 10.315 10.121 3.112 63.542 o
-8 -3 -4 14.437 17.677 3.355 52.449 o
-8 -3 -3 2.687 5.009 2.767 85.174 o
-8 -3 -2 138.041 151.515 6.426 6.704 o
-8 -3 -1 27.568 26.872 4.424 29.075 o
-8 -2 -11 11.635 13.914 6.189 17.054 o
-8 -2 -10 0.624 1.414 3.234 63.997 o
-8 -2 -9 55.837 51.124 4.947 19.130 o
-8 -2 -8 70.643 77.405 6.737 10.664 o
-8 -2 -7 2.952 5.242 4.609 31.299 o
-8 -2 -6 3.477 4.015 3.673 48.947 o
-8 -2 -5 25.263 25.318 4.350 30.455 o
-8 -2 -4 7.989 10.029 2.666 85.812 o
-8 -2 -3 27.408 30.420 3.668 39.018 o
-8 -2 -2 70.507 82.034 4.834 16.135 o
-8 -2 -1 31.867 32.946 3.605 38.231 o
-8 -1 -11 10.483 8.406 3.469 52.209 o
-8 -1 -10 58.935 53.914 4.194 22.961 o
-8 -1 -9 3.737 3.713 3.294 60.523 o
-8 -1 -8 8.560 11.271 3.892 42.144 o
-8 -1 -7 9.124 9.823 6.460 15.825 o
-8 -1 -6 19.048 18.649 3.349 50.605 o
-8 -1 -5 11.518 8.088 3.111 63.474 o
-8 -1 -4 9.005 9.884 3.350 55.978 o
-8 -1 -3 40.358 43.969 6.763 12.788 o
-8 -1 -2 70.550 79.402 16.956 2.204 o
-8 -1 -1 117.000 124.764 6.648 7.734 o
-7 -7 -4 16.960 16.088 5.705 19.634 o
-7 -7 -3 23.195 26.471 6.214 16.180 o
-7 -7 -2 8.598 10.588 7.809 10.896 o
-7 -7 -1 21.499 16.772 3.659 43.057 o
-7 -6 -9 16.199 10.504 4.318 33.566 o
-7 -6 -8 2.210 2.145 2.471 107.607 o
-7 -6 -7 14.373 20.818 3.539 47.239 o
-7 -6 -6 36.984 38.521 3.259 40.858 o
-7 -6 -5 29.971 26.735 3.287 45.789 o
-7 -6 -4 17.034 16.065 2.664 76.051 o
-7 -6 -3 6.634 3.973 2.220 125.258 o
-7 -6 -2 3.963 3.223 2.337 117.465 o
-7 -6 -1 10.627 8.352 2.693 82.874 o
-7 -5 -14 3.180 -4.549 4.250 36.971 o
-7 -5 -13 19.831 20.160 6.230 16.396 o
-7 -5 -12 47.841 57.465 20.079 1.631 o
-7 -5 -11 15.422 12.193 3.048 62.860 o
-7 -5 -10 5.222 1.015 2.281 122.756 o
-7 -5 -9 9.004 9.678 2.392 103.226 o
-7 -5 -8 5.044 6.445 2.676 88.730 o
-7 -5 -7 7.718 4.844 2.489 99.893 o
-7 -5 -6 0.429 1.374 2.332 122.747 o
-7 -5 -5 60.859 53.809 3.728 25.834 o
-7 -5 -4 42.942 36.737 3.766 32.202 o
-7 -5 -3 1.449 -0.705 3.017 73.463 o
-7 -5 -2 42.340 51.469 4.527 23.653 o
-7 -5 -1 96.883 106.630 5.068 11.859 o
-7 -4 -14 2.386 1.793 2.819 83.143 o
-7 -4 -13 45.188 50.981 4.250 25.370 o
-7 -4 -12 64.936 68.149 4.637 18.474 o
-7 -4 -11 16.901 21.573 3.497 47.261 o
-7 -4 -10 46.065 50.528 3.648 30.724 o
-7 -4 -9 18.166 21.491 2.747 69.454 o
-7 -4 -8 20.491 18.073 2.576 76.105 o
-7 -4 -7 15.948 15.186 2.363 93.631 o
-7 -4 -6 2.857 5.561 2.823 81.668 o
-7 -4 -5 0.814 5.175 2.829 82.516 o
-7 -4 -4 9.198 7.271 2.710 83.428 o
-7 -4 -3 30.343 28.654 3.631 38.993 o
-7 -4 -2 57.896 61.270 6.277 13.011 o
-7 -4 -1 111.914 128.655 5.864 8.871 o
-7 -3 -15 59.337 60.230 6.547 12.146 o
-7 -3 -14 133.644 150.452 6.034 7.235 o
-7 -3 -13 27.809 28.661 4.151 32.112 o
-7 -3 -12 28.150 21.651 3.076 52.664 o
-7 -3 -11 2.709 4.106 2.375 114.735 o
-7 -3 -10 2.743 2.210 2.297 123.425 o
-7 -3 -9 13.832 14.002 2.441 91.955 o
-7 -3 -8 35.880 35.240 3.400 39.672 o
-7 -3 -7 68.071 78.203 4.990 16.018 o
-7 -3 -6 19.074 20.204 3.282 52.001 o
-7 -3 -5 30.927 28.262 3.279 45.216 o
-7 -3 -4 8.811 9.319 2.599 89.430 o
-7 -3 -3 113.283 125.590 4.951 10.210 o
-7 -3 -2 21.450 19.843 2.828 64.682 o
-7 -3 -1 50.328 48.026 4.104 25.841 o
-7 -2 -18 25.676 18.156 5.608 19.659 o
-7 -2 -17 55.781 54.169 8.468 8.136 o
-7 -2 -16 14.645 16.270 3.139 59.119 o
-7 -2 -15 33.316 41.994 4.435 26.704 o
-7 -2 -14 11.940 14.447 3.032 64.663 o
-7 -2 -13 11.427 12.595 2.636 83.690 o
-7 -2 -12 1.968 -1.524 2.119 147.023 o
-7 -2 -11 25.082 19.095 3.116 53.875 o
-7 -2 -10 1.985 2.586 1.953 169.799 o
-7 -2 -9 25.306 22.852 3.218 50.255 o
-7 -2 -8 11.593 9.111 2.119 123.220 o
-7 -2 -7 28.755 24.994 2.542 66.793 o
-7 -2 -6 24.449 19.139 1.987 101.062 o
-7 -2 -5 5.290 3.851 1.611 227.470 o
-7 -2 -4 2.795 1.980 1.848 187.496 o
-7 -2 -3 14.064 13.779 2.270 103.213 o
-7 -2 -2 211.697 220.856 5.249 4.348 o
-7 -2 -1 4.844 5.758 1.680 209.415 o
-7 -1 -18 5.915 0.089 4.880 27.924 o
-7 -1 -17 33.995 39.520 4.157 29.614 o
-7 -1 -16 6.980 9.701 3.007 69.437 o
-7 -1 -15 6.501 6.173 2.922 74.444 o
-7 -1 -14 31.431 35.810 3.615 37.759 o
-7 -1 -13 97.528 104.770 7.293 7.999 o
-7 -1 -12 8.645 6.366 2.450 101.133 o
-7 -1 -11 3.226 1.825 2.114 144.309 o
-7 -1 -10 10.110 11.588 2.306 107.368 o
-7 -1 -9 54.702 47.617 4.421 22.718 o
-7 -1 -8 4.442 5.848 1.788 188.629 o
-7 -1 -7 3.032 1.055 1.631 238.336 o
-7 -1 -6 26.494 23.823 2.198 83.338 o
-7 -1 -5 24.401 22.218 1.983 98.656 o
-7 -1 -4 102.101 120.402 3.546 13.935 o
-7 -1 -3 9.732 9.942 1.747 171.979 o
-7 -1 -2 21.183 18.893 2.302 88.261 o
-7 -1 -1 82.335 86.457 4.285 16.436 o
-6 -8 -9 8.343 7.326 5.907 18.935 o
-6 -8 -8 6.320 9.229 3.090 66.377 o
-6 -8 -7 8.841 6.434 2.713 83.792 o
-6 -8 -6 76.973 83.424 4.250 17.474 o
-6 -8 -5 15.259 12.573 2.449 90.707 o
-6 -8 -4 15.290 15.197 2.572 82.494 o
-6 -8 -3 12.244 11.442 2.591 85.971 o
-6 -8 -2 35.830 35.919 2.795 50.742 o
-6 -8 -1 48.529 57.672 3.426 31.194 o
-6 -7 -12 1.637 2.217 3.066 70.677 o
-6 -7 -11 97.311 109.075 4.286 13.445 o
-6 -7 -10 21.820 20.796 2.536 75.337 o
-6 -7 -9 14.735 17.086 2.621 79.634 o
-6 -7 -8 1.627 2.547 2.338 120.287 o
-6 -7 -7 9.179 8.527 1.961 145.890 o
-6 -7 -6 5.675 5.455 2.031 147.631 o
-6 -7 -5 54.131 57.068 3.052 33.147 o
-6 -7 -4 68.761 69.051 3.459 24.015 o
-6 -7 -3 3.073 -0.711 1.500 281.532 o
-6 -7 -2 10.364 6.712 2.077 131.891 o
-6 -7 -1 61.580 75.860 4.389 19.605 o
-6 -6 -15 21.133 16.997 6.517 15.066 o
-6 -6 -14 25.777 26.090 4.002 34.847 o
-6 -6 -13 68.397 77.921 5.715 13.506 o
-6 -6 -12 19.344 18.316 3.161 55.669 o
-6 -6 -11 23.892 25.400 4.098 33.981 o
-6 -6 -10 23.822 23.853 3.378 46.991 o
-6 -6 -9 18.336 17.913 2.770 69.760 o
-6 -6 -8 1.259 3.423 2.082 150.545 o
-6 -6 -7 7.909 8.337 2.000 144.014 o
-6 -6 -6 15.462 13.502 2.162 109.279 o
-6 -6 -5 52.382 51.655 2.908 36.430 o
-6 -6 -4 16.723 13.463 2.284 98.764 o
-6 -6 -3 25.045 23.598 2.720 64.423 o
-6 -6 -2 0.729 1.581 2.114 148.382 o
-6 -6 -1 100.698 107.577 5.826 10.103 o
-6 -5 -17 5.433 5.817 3.881 43.462 o
-6 -5 -16 89.609 91.981 5.688 11.558 o
-6 -5 -15 84.545 94.831 4.995 13.566 o
-6 -5 -14 7.260 8.596 2.597 91.221 o
-6 -5 -13 4.721 6.698 2.830 79.914 o
-6 -5 -12 35.997 31.968 3.223 43.281 o
-6 -5 -11 34.856 39.720 2.966 46.747 o
-6 -5 -10 43.691 41.296 2.959 42.011 o
-6 -5 -9 49.961 45.347 3.062 36.906 o
-6 -5 -8 24.860 24.976 2.915 57.967 o
-6 -5 -7 19.074 20.188 2.403 84.709 o
-6 -5 -6 34.713 32.502 2.711 54.467 o
-6 -5 -5 72.151 79.973 4.217 18.538 o
-6 -5 -4 3.071 7.140 2.606 94.556 o
-6 -5 -3 3.406 -0.901 1.969 166.912 o
-6 -5 -2 19.795 18.963 2.894 63.753 o
-6 -5 -1 98.478 97.878 5.178 11.838 o
-6 -4 -18 53.827 42.411 4.789 20.852 o
-6 -4 -17 28.623 25.865 3.889 35.850 o
-6 -4 -16 5.866 5.636 2.676 88.441 o
-6 -4 -15 24.161 20.840 3.510 44.589 o
-6 -4 -14 14.606 10.534 3.240 57.176 o
-6 -4 -13 27.084 28.584 2.874 56.617 o
-6 -4 -12 18.875 24.621 3.195 53.447 o
-6 -4 -11 20.920 17.089 2.952 61.660 o
-6 -4 -10 19.479 18.270 2.540 78.589 o
-6 -4 -9 41.584 40.975 3.126 40.479 o
-6 -4 -8 20.066 23.409 2.587 73.597 o
-6 -4 -7 106.598 125.637 4.850 10.832 o
-6 -4 -6 13.564 14.773 2.199 108.480 o
-6 -4 -5 61.977 65.334 3.492 25.869 o
-6 -4 -4 58.345 63.468 3.501 26.961 o
-6 -4 -3 38.407 38.755 3.399 38.102 o
-6 -4 -2 6.458 4.989 1.930 160.542 o
-6 -4 -1 21.376 20.893 2.788 65.786 o
-6 -3 -20 31.231 24.362 8.007 9.897 o
-6 -3 -19 13.801 13.430 4.472 31.563 o
-6 -3 -18 7.364 10.683 4.826 28.042 o
-6 -3 -17 6.052 3.642 2.902 76.283 o
-6 -3 -16 18.525 18.045 2.705 72.249 o
-6 -3 -15 76.647 62.544 4.809 16.639 o
-6 -3 -14 110.675 115.523 4.224 12.008 o
-6 -3 -13 4.750 3.476 1.844 180.915 o
-6 -3 -12 55.504 55.323 3.701 27.144 o
-6 -3 -11 3.372 3.353 1.782 197.023 o
-6 -3 -10 27.994 31.371 2.754 58.381 o
-6 -3 -9 23.564 21.173 2.447 77.252 o
-6 -3 -8 18.232 16.156 2.887 65.921 o
-6 -3 -7 14.246 13.595 2.361 96.817 o
-6 -3 -6 7.366 2.491 1.883 168.659 o
-6 -3 -5 149.476 148.160 3.874 8.497 o
-6 -3 -4 15.186 11.075 2.322 99.817 o
-6 -3 -3 18.662 16.481 2.216 98.338 o
-6 -3 -2 84.863 80.649 3.053 21.171 o
-6 -3 -1 44.258 42.044 2.149 55.822 o
-6 -2 -21 10.900 6.911 3.861 42.757 o
-6 -2 -20 56.517 55.834 4.997 18.515 o
-6 -2 -19 3.918 5.254 3.260 61.455 o
-6 -2 -18 10.282 16.167 3.817 42.822 o
-6 -2 -17 2.769 -2.021 2.248 130.009 o
-6 -2 -16 13.740 15.580 2.959 66.156 o
-6 -2 -15 2.997 1.085 1.935 172.274 o
-6 -2 -14 55.759 56.494 3.389 29.548 o
-6 -2 -13 46.243 42.284 3.244 36.666 o
-6 -2 -12 30.194 28.768 2.459 66.544 o
-6 -2 -11 97.520 101.419 3.190 16.608 o
-6 -2 -10 31.444 24.568 2.497 66.084 o
-6 -2 -9 14.482 11.421 1.837 143.819 o
-6 -2 -8 95.024 99.633 3.599 15.998 o
-6 -2 -7 0.915 1.248 1.400 331.939 o
-6 -2 -6 10.762 8.390 1.722 174.966 o
-6 -2 -5 6.720 6.146 1.613 215.537 o
-6 -2 -4 9.597 11.191 1.718 174.817 o
-6 -2 -3 24.489 24.409 2.177 86.594 o
-6 -2 -2 56.511 50.487 2.586 38.508 o
-6 -2 -1 12.061 9.345 1.963 138.157 o
-6 -1 -22 14.031 16.358 4.319 33.424 o
-6 -1 -21 13.787 12.537 2.883 70.079 o
-6 -1 -20 19.027 18.912 3.283 52.291 o
-6 -1 -19 16.199 18.532 3.731 42.851 o
-6 -1 -18 16.669 11.414 3.112 60.198 o
-6 -1 -17 51.128 51.195 5.833 15.396 o
-6 -1 -16 69.725 63.115 4.182 20.385 o
-6 -1 -15 26.864 24.132 3.244 48.650 o
-6 -1 -14 127.394 145.428 5.449 8.206 o
-6 -1 -13 10.151 10.492 1.835 157.174 o
-6 -1 -12 61.842 63.649 3.221 28.098 o
-6 -1 -11 8.844 10.272 1.520 215.928 o
-6 -1 -10 9.635 8.930 1.628 194.189 o
-6 -1 -9 36.349 32.011 2.533 57.829 o
-6 -1 -8 4.547 4.061 1.317 326.442 o
-6 -1 -7 14.262 15.971 1.822 140.029 o
-6 -1 -6 8.402 6.923 1.427 249.940 o
-6 -1 -5 6.050 3.395 1.475 262.008 o
-6 -1 -4 72.984 80.761 3.046 23.898 o
-6 -1 -3 49.552 43.923 3.075 37.200 o
-6 -1 -2 62.917 56.954 3.442 27.060 o
-6 -1 -1 40.213 37.601 1.999 65.238 o
-5 -9 -10 4.344 0.695 5.187 24.813 o
-5 -9 -9 2.291 3.397 2.255 127.716 o
-5 -9 -8 5.539 2.050 1.831 183.023 o
-5 -9 -7 1.156 0.716 1.687 231.159 o
-5 -9 -6 11.958 12.966 2.259 107.536 o
-5 -9 -5 54.460 64.234 4.435 21.334 o
-5 -9 -4 1.156 1.812 2.038 158.534 o
-5 -9 -3 40.728 41.560 3.201 39.594 o
-5 -9 -2 32.387 29.174 2.982 50.602 o
-5 -9 -1 50.116 49.033 3.180 34.727 o
-5 -8 -14 0.484 -5.196 4.315 36.122 o
-5 -8 -13 55.992 56.476 4.243 22.939 o
-5 -8 -12 26.240 29.112 2.754 60.432 o
-5 -8 -11 14.067 10.650 2.038 124.894 o
-5 -8 -10 71.756 76.249 4.130 19.265 o
-5 -8 -9 6.360 2.414 1.997 154.041 o
-5 -8 -8 3.018 4.785 1.896 174.619 o
-5 -8 -7 10.780 5.910 1.913 151.340 o
-5 -8 -6 8.902 8.903 1.750 175.927 o
-5 -8 -5 29.463 30.947 2.376 68.944 o
-5 -8 -4 53.394 54.309 3.300 31.432 o
-5 -8 -3 4.972 4.975 1.862 175.155 o
-5 -8 -2 2.451 1.650 1.887 181.401 o
-5 -8 -1 22.892 17.732 2.477 78.360 o
-5 -7 -17 13.887 16.395 7.426 11.892 o
-5 -7 -16 13.535 11.851 2.876 70.767 o
-5 -7 -15 0.659 0.041 2.065 156.752 o
-5 -7 -14 17.270 20.765 2.682 73.148 o
-5 -7 -13 15.451 18.128 2.285 97.248 o
-5 -7 -12 9.185 10.045 2.349 106.155 o
-5 -7 -11 12.722 10.447 1.993 132.292 o
-5 -7 -10 19.929 22.088 2.888 62.862 o
-5 -7 -9 41.266 44.625 2.685 46.954 o
-5 -7 -8 19.273 25.343 2.355 83.947 o
-5 -7 -7 16.930 21.299 1.972 114.233 o
-5 -7 -6 28.770 26.750 2.562 65.367 o
-5 -7 -5 54.670 62.703 2.871 33.653 o
-5 -7 -4 50.919 46.843 2.626 41.791 o
-5 -7 -3 82.957 88.716 3.519 18.940 o
-5 -7 -2 56.869 54.636 2.963 33.462 o
-5 -7 -1 123.238 125.111 4.123 10.739 o
-5 -6 -19 0.875 9.421 6.416 16.250 o
-5 -6 -18 35.426 38.982 4.569 25.390 o
-5 -6 -17 28.912 27.426 2.856 56.308 o
-5 -6 -16 156.718 176.713 6.014 5.992 o
-5 -6 -15 40.438 44.572 3.854 30.840 o
-5 -6 -14 51.678 51.589 3.236 33.104 o
-5 -6 -13 14.780 13.336 2.900 68.533 o
-5 -6 -12 51.276 51.168 4.137 25.075 o
-5 -6 -11 31.710 35.489 3.036 48.087 o
-5 -6 -10 8.926 8.132 2.000 142.070 o
-5 -6 -9 19.047 13.223 2.152 104.488 o
-5 -6 -8 3.697 5.919 1.789 190.588 o
-5 -6 -7 1.300 2.052 1.621 246.291 o
-5 -6 -6 222.339 224.389 5.307 4.082 o
-5 -6 -5 84.532 93.339 3.485 18.410 o
-5 -6 -4 1.858 1.266 1.409 320.821 o
-5 -6 -3 2.228 1.454 1.362 338.219 o
-5 -6 -2 28.857 25.863 2.805 58.241 o
-5 -6 -1 6.645 5.330 1.904 163.632 o
-5 -5 -20 4.094 9.178 4.071 39.549 o
-5 -5 -19 2.001 3.797 2.874 79.733 o
-5 -5 -18 51.984 50.243 4.780 20.630 o
-5 -5 -17 44.405 40.006 4.105 27.902 o
-5 -5 -16 29.509 20.668 3.446 43.973 o
-5 -5 -15 23.874 25.733 3.136 52.295 o
-5 -5 -14 71.138 80.987 4.423 17.739 o
-5 -5 -13 6.529 3.140 2.266 121.295 o
-5 -5 -12 8.981 12.949 2.282 109.877 o
-5 -5 -11 26.323 28.597 3.770 37.928 o
-5 -5 -10 111.348 128.793 4.233 11.371 o
-5 -5 -9 98.412 94.165 4.897 12.622 o
-5 -5 -8 19.127 18.141 2.072 105.816 o
-5 -5 -7 23.635 19.540 2.376 81.257 o
-5 -5 -6 9.854 10.309 1.941 144.756 o
-5 -5 -5 10.035 7.727 1.893 153.472 o
-5 -5 -4 91.050 86.455 3.110 19.167 o
-5 -5 -3 12.424 13.080 1.912 138.689 o
-5 -5 -2 94.563 90.866 3.167 17.982 o
-5 -5 -1 17.736 17.639 1.687 141.787 o
-5 -4 -21 80.037 91.266 7.336 8.806 o
-5 -4 -20 84.095 89.167 5.198 13.300 o
-5 -4 -19 20.936 25.424 3.902 37.616 o
-5 -4 -18 11.518 13.988 3.688 45.607 o
-5 -4 -17 102.331 108.893 4.855 11.780 o
-5 -4 -16 109.459 110.148 4.578 11.690 o
-5 -4 -15 18.370 17.024 2.344 90.640 o
-5 -4 -14 28.916 33.548 3.265 45.214 o
-5 -4 -13 78.533 79.034 3.134 22.369 o
-5 -4 -12 66.122 68.733 3.986 21.565 o
-5 -4 -11 11.521 12.406 1.623 180.405 o
-5 -4 -10 3.193 3.292 2.025 155.452 o
-5 -4 -9 8.110 9.034 1.787 172.452 o
-5 -4 -8 73.342 67.170 2.839 26.799 o
-5 -4 -7 18.840 20.554 1.834 121.702 o
-5 -4 -6 65.985 67.251 3.044 27.633 o
-5 -4 -5 17.576 19.723 1.777 130.760 o
-5 -4 -4 19.107 16.725 1.746 133.479 o
-5 -4 -3 64.735 71.978 2.906 28.245 o
-5 -4 -2 4.913 6.765 1.385 287.052 o
-5 -4 -1 44.396 47.813 2.511 47.021 o
-5 -3 -23 4.541 3.103 5.640 20.968 o
-5 -3 -22 50.303 51.608 5.028 19.312 o
-5 -3 -21 1.047 -0.853 2.983 75.288 o
-5 -3 -20 9.891 8.855 3.768 44.794 o
-5 -3 -19 2.926 4.953 2.171 135.377 o
-5 -3 -18 31.812 29.244 4.485 27.534 o
-5 -3 -17 18.093 17.823 2.421 86.200 o
-5 -3 -16 18.162 15.813 2.181 101.863 o
-5 -3 -15 46.006 45.240 3.406 34.216 o
-5 -3 -14 16.766 16.673 2.098 109.309 o
-5 -3 -13 13.359 12.972 1.904 137.335 o
-5 -3 -12 5.710 7.888 2.100 136.814 o
-5 -3 -11 53.825 53.101 2.833 36.355 o
-5 -3 -10 76.936 77.864 2.792 24.551 o
-5 -3 -9 117.958 111.982 2.988 13.614 o
-5 -3 -8 118.873 122.613 3.378 12.327 o
-5 -3 -7 17.185 16.675 2.039 113.024 o
-5 -3 -6 35.162 30.019 2.148 70.836 o
-5 -3 -5 194.958 197.397 5.333 4.974 o
-5 -3 -4 63.634 59.957 2.584 33.238 o
-5 -3 -3 84.772 79.172 2.399 24.067 o
-5 -3 -2 21.804 18.899 1.433 151.178 o
-5 -3 -1 296.623 291.313 4.120 2.694 o
-5 -2 -24 20.715 20.483 6.262 16.192 o
-5 -2 -23 17.325 15.270 3.144 57.883 o
-5 -2 -22 63.566 70.589 4.062 21.439 o
-5 -2 -21 98.679 95.115 4.768 12.856 o
-5 -2 -20 14.021 13.051 2.951 67.042 o
-5 -2 -19 76.433 83.409 4.472 16.704 o
-5 -2 -18 48.520 45.423 5.360 18.045 o
-5 -2 -17 140.416 153.594 5.954 6.988 o
-5 -2 -16 5.317 3.125 1.704 207.286 o
-5 -2 -15 94.954 99.625 3.599 16.009 o
-5 -2 -14 204.450 208.577 4.294 4.953 o
-5 -2 -13 85.371 86.617 3.266 19.647 o
-5 -2 -12 19.079 15.023 1.899 122.178 o
-5 -2 -11 66.326 65.917 3.240 26.390 o
-5 -2 -10 75.456 74.055 2.496 27.077 o
-5 -2 -9 71.953 68.784 2.660 28.076 o
-5 -2 -8 38.938 37.567 2.731 49.654 o
-5 -2 -7 48.736 45.526 3.208 35.565 o
-5 -2 -6 109.845 106.191 3.146 14.669 o
-5 -2 -5 109.701 111.729 2.466 15.608 o
-5 -2 -4 85.537 76.187 2.388 24.308 o
-5 -2 -3 30.655 27.249 1.534 105.481 o
-5 -2 -2 5.955 6.796 1.027 434.963 o
-5 -2 -1 35.761 38.075 1.594 82.513 o
-5 -1 -24 8.527 10.934 3.386 54.834 o
-5 -1 -23 19.992 25.882 3.342 48.941 o
-5 -1 -22 19.189 19.427 2.895 63.982 o
-5 -1 -21 20.709 23.529 3.388 48.041 o
-5 -1 -20 101.850 111.628 4.385 12.667 o
-5 -1 -19 20.230 19.254 2.823 65.897 o
-5 -1 -18 40.976 40.227 3.143 40.648 o
-5 -1 -17 0.285 1.092 1.681 235.323 o
-5 -1 -16 57.444 62.107 3.742 25.558 o
-5 -1 -15 110.628 111.469 3.377 13.802 o
-5 -1 -14 46.123 43.666 2.450 48.260 o
-5 -1 -13 12.211 15.054 1.640 170.132 o
-5 -1 -12 7.241 5.693 1.175 350.666 o
-5 -1 -11 3.744 2.891 1.097 463.243 o
-5 -1 -10 38.451 35.559 1.606 79.824 o
-5 -1 -9 29.011 25.186 1.614 107.372 o
-5 -1 -8 200.982 201.239 7.267 4.075 o
-5 -1 -7 140.964 138.403 4.484 8.698 o
-5 -1 -6 262.590 251.389 3.804 3.434 o
-5 -1 -5 33.264 29.016 1.604 94.798 o
-5 -1 -4 52.610 49.681 1.659 53.368 o
-5 -1 -3 31.776 25.984 1.492 106.469 o
-5 -1 -2 596.916 562.946 9.408 0.694 o
-5 -1 -1 365.775 347.763 5.089 1.831 o
-4 -10 -10 28.056 26.891 6.844 13.335 o
-4 -10 -9 4.483 1.933 3.491 54.082 o
-4 -10 -8 3.044 4.455 3.336 59.144 o
-4 -10 -7 27.361 23.780 3.590 41.441 o
-4 -10 -6 0.822 2.143 2.694 91.698 o
-4 -10 -5 35.496 35.874 3.224 42.627 o
-4 -10 -4 0.303 1.491 2.612 98.039 o
-4 -10 -3 11.129 5.748 2.307 109.791 o
-4 -10 -2 11.605 14.183 3.000 66.160 o
-4 -10 -1 1.072 0.153 1.914 181.262 o
-4 -9 -14 16.061 20.637 6.521 15.162 o
-4 -9 -13 17.262 20.831 3.609 44.768 o
-4 -9 -12 5.225 5.654 2.723 86.031 o
-4 -9 -11 76.450 82.995 4.826 15.464 o
-4 -9 -10 34.746 37.854 2.771 51.327 o
-4 -9 -9 5.114 8.272 1.884 166.810 o
-4 -9 -8 43.357 37.414 3.337 37.417 o
-4 -9 -7 5.581 1.681 1.389 299.673 o
-4 -9 -6 16.111 20.482 2.207 99.742 o
-4 -9 -5 43.097 48.029 2.974 40.485 o
-4 -9 -4 5.936 5.994 1.640 213.254 o
-4 -9 -3 43.270 44.233 2.773 44.439 o
-4 -9 -2 12.836 12.422 2.050 124.434 o
-4 -9 -1 15.174 16.223 2.237 102.193 o
-4 -8 -18 12.859 8.080 5.462 21.812 o
-4 -8 -17 3.619 -3.216 4.331 35.574 o
-4 -8 -16 25.002 26.528 3.131 51.647 o
-4 -8 -15 17.207 15.456 3.211 55.857 o
-4 -8 -14 66.985 73.648 3.598 23.090 o
-4 -8 -13 18.938 16.514 2.458 84.071 o
-4 -8 -12 32.420 34.308 2.531 60.086 o
-4 -8 -11 22.791 23.798 2.482 75.186 o
-4 -8 -10 34.187 37.524 2.612 55.430 o
-4 -8 -9 10.133 9.765 1.789 164.735 o
-4 -8 -8 5.138 3.339 1.474 268.052 o
-4 -8 -7 45.611 45.349 2.726 43.606 o
-4 -8 -6 32.493 31.109 2.075 75.845 o
-4 -8 -5 19.764 18.975 1.849 120.231 o
-4 -8 -4 85.462 100.363 3.789 16.719 o
-4 -8 -3 15.813 14.565 1.622 160.446 o
-4 -8 -2 128.233 127.399 5.170 8.950 o
-4 -8 -1 4.737 1.715 1.101 453.210 o
-4 -7 -20 20.552 22.245 7.191 12.431 o
-4 -7 -19 20.551 19.646 4.976 24.879 o
-4 -7 -18 1.326 2.843 2.455 109.426 o
-4 -7 -17 8.437 12.302 2.597 88.617 o
-4 -7 -16 36.336 37.429 3.132 43.527 o
-4 -7 -15 8.221 9.808 2.564 91.976 o
-4 -7 -14 13.596 14.412 2.517 87.488 o
-4 -7 -13 72.751 82.648 4.046 18.983 o
-4 -7 -12 28.523 30.538 2.428 68.310 o
-4 -7 -11 31.563 32.864 2.494 62.432 o
-4 -7 -10 52.575 53.202 3.355 31.333 o
-4 -7 -9 155.949 158.530 3.676 8.006 o
-4 -7 -8 101.975 102.630 3.816 14.383 o
-4 -7 -7 13.708 16.061 1.688 156.857 o
-4 -7 -6 10.462 9.509 1.584 197.503 o
-4 -7 -5 41.742 47.219 2.689 45.843 o
-4 -7 -4 0.538 -0.284 1.233 435.923 o
-4 -7 -3 15.782 17.313 1.536 166.108 o
-4 -7 -2 57.383 58.904 2.369 38.336 o
-4 -7 -1 143.148 147.484 3.237 9.456 o
-4 -6 -21 76.980 63.575 11.139 4.753 o
-4 -6 -20 59.580 61.000 3.695 25.536 o
-4 -6 -19 2.303 5.852 2.490 104.332 o
-4 -6 -18 35.560 33.542 3.219 43.203 o
-4 -6 -17 33.267 33.439 3.172 45.122 o
-4 -6 -16 5.895 3.863 2.210 127.418 o
-4 -6 -15 51.011 51.679 3.123 34.550 o
-4 -6 -14 65.617 69.557 3.690 23.279 o
-4 -6 -13 148.279 165.740 5.229 7.037 o
-4 -6 -12 5.759 5.956 1.761 189.378 o
-4 -6 -11 43.829 46.014 2.640 45.782 o
-4 -6 -10 194.224 208.381 3.920 5.362 o
-4 -6 -9 9.846 9.915 1.546 206.497 o
-4 -6 -8 88.216 88.860 2.853 20.374 o
-4 -6 -7 33.366 33.914 1.951 77.230 o
-4 -6 -6 6.711 10.259 1.511 229.019 o
-4 -6 -5 21.492 21.573 1.902 109.791 o
-4 -6 -4 4.636 5.799 1.255 343.879 o
-4 -6 -3 168.751 161.427 3.470 7.416 o
-4 -6 -2 3.900 4.608 1.079 458.097 o
-4 -6 -1 4.223 3.314 1.081 462.347 o
-4 -5 -23 58.820 55.292 8.848 7.469 o
-4 -5 -22 10.793 9.599 2.639 85.317 o
-4 -5 -21 23.802 16.139 3.821 39.442 o
-4 -5 -20 54.941 55.018 3.874 25.933 o
-4 -5 -19 4.455 4.018 2.126 139.148 o
-4 -5 -18 29.029 25.441 3.426 43.662 o
-4 -5 -17 30.127 24.850 3.096 50.321 o
-4 -5 -16 28.951 29.866 2.541 64.553 o
-4 -5 -15 0.107 -0.559 1.494 300.875 o
-4 -5 -14 10.384 9.572 1.826 159.039 o
-4 -5 -13 74.247 81.610 3.667 20.506 o
-4 -5 -12 66.634 62.850 2.886 29.235 o
-4 -5 -11 4.596 3.645 1.576 240.384 o
-4 -5 -10 27.316 26.838 2.279 76.984 o
-4 -5 -9 166.489 163.993 3.615 7.379 o
-4 -5 -8 19.908 19.581 1.973 109.990 o
-4 -5 -7 156.872 162.831 4.112 7.547 o
-4 -5 -6 83.644 84.887 3.056 20.968 o
-4 -5 -5 241.180 246.223 4.674 3.686 o
-4 -5 -4 32.120 29.349 2.229 71.946 o
-4 -5 -3 52.990 55.068 2.688 37.937 o
-4 -5 -2 69.263 61.977 2.717 29.725 o
-4 -5 -1 268.843 253.724 4.582 3.217 o
-4 -4 -24 61.420 56.971 12.476 4.000 o
-4 -4 -23 64.958 62.546 4.199 21.127 o
-4 -4 -22 119.250 134.233 5.027 9.453 o
-4 -4 -21 52.628 44.573 4.269 24.431 o
-4 -4 -20 2.521 3.480 2.436 109.768 o
-4 -4 -19 21.338 23.149 2.805 64.418 o
-4 -4 -18 5.164 3.469 2.208 128.956 o
-4 -4 -17 129.833 135.561 4.143 9.854 o
-4 -4 -16 35.564 35.154 2.213 65.682 o
-4 -4 -15 168.570 187.595 5.276 5.887 o
-4 -4 -14 70.513 75.687 2.663 27.418 o
-4 -4 -13 10.276 9.260 1.500 215.358 o
-4 -4 -12 38.725 28.415 2.442 59.667 o
-4 -4 -11 171.553 165.246 4.182 6.798 o
-4 -4 -10 73.839 73.431 2.590 27.155 o
-4 -4 -9 56.766 57.630 2.300 39.727 o
-4 -4 -8 52.059 54.111 2.492 40.984 o
-4 -4 -7 185.914 178.241 3.627 6.253 o
-4 -4 -6 332.686 331.693 3.369 2.210 o
-4 -4 -5 55.851 59.013 1.753 45.862 o
-4 -4 -4 1.659 1.484 1.444 306.741 o
-4 -4 -3 52.116 47.168 2.466 43.224 o
-4 -4 -2 4.389 2.781 0.667 925.998 o
-4 -4 -1 26.640 22.142 1.423 129.819 o
-4 -3 -25 1.752 7.797 5.745 20.230 o
-4 -3 -24 41.744 33.325 4.298 27.266 o
-4 -3 -23 42.772 44.263 5.728 16.755 o
-4 -3 -22 94.388 101.149 5.739 10.841 o
-4 -3 -21 8.640 9.398 2.324 109.219 o
-4 -3 -20 13.748 10.795 2.344 100.369 o
-4 -3 -19 51.015 55.148 3.644 28.792 o
-4 -3 -18 47.333 38.559 2.766 43.880 o
-4 -3 -17 22.243 22.128 2.369 81.686 o
-4 -3 -16 10.935 11.752 1.882 147.436 o
-4 -3 -15 15.133 14.650 1.454 185.911 o
-4 -3 -14 75.542 80.627 2.828 24.373 o
-4 -3 -13 63.081 68.092 2.451 32.892 o
-4 -3 -12 231.267 223.621 4.066 4.208 o
-4 -3 -11 18.668 12.616 1.147 219.874 o
-4 -3 -10 257.229 244.839 3.358 3.635 o
-4 -3 -9 30.679 32.947 1.744 89.998 o
-4 -3 -8 37.533 35.522 1.778 75.987 o
-4 -3 -7 300.628 304.560 4.089 2.584 o
-4 -3 -6 226.578 226.114 3.397 4.421 o
-4 -3 -5 121.411 112.523 2.766 13.528 o
-4 -3 -4 190.707 188.717 2.560 6.254 o
-4 -3 -3 62.243 61.639 2.604 33.298 o
-4 -3 -2 153.777 141.156 3.243 8.957 o
-4 -3 -1 307.000 293.908 3.842 2.593 o
-4 -2 -26 10.236 15.797 5.947 18.446 o
-4 -2 -25 15.986 11.039 2.790 73.129 o
-4 -2 -24 83.173 87.108 4.707 14.919 o
-4 -2 -23 116.714 133.948 6.113 8.199 o
-4 -2 -22 27.513 28.992 2.948 54.245 o
-4 -2 -21 7.979 6.553 2.727 83.587 o
-4 -2 -20 41.021 50.270 4.087 27.700 o
-4 -2 -19 13.902 14.711 2.340 97.914 o
-4 -2 -18 109.798 111.097 4.464 11.834 o
-4 -2 -17 20.351 19.446 1.699 130.562 o
-4 -2 -16 81.660 77.314 3.530 20.140 o
-4 -2 -15 171.990 174.865 3.734 6.824 o
-4 -2 -14 118.767 118.578 2.920 13.250 o
-4 -2 -13 33.514 30.923 1.537 95.201 o
-4 -2 -12 18.821 16.875 1.291 184.940 o
-4 -2 -11 63.375 58.811 2.121 37.675 o
-4 -2 -10 89.822 83.513 2.029 23.484 o
-4 -2 -9 45.544 41.349 1.990 58.154 o
-4 -2 -8 532.408 521.505 4.602 0.905 o
-4 -2 -7 160.873 151.296 2.516 8.672 o
-4 -2 -6 474.850 433.200 5.974 1.144 o
-4 -2 -5 47.756 46.412 2.126 51.583 o
-4 -2 -4 224.907 218.291 4.657 4.259 o
-4 -2 -3 211.793 222.749 4.339 4.583 o
-4 -2 -2 23.981 27.143 1.784 106.464 o
-4 -2 -1 156.642 129.828 2.305 9.832 o
-4 -1 -26 37.404 41.814 3.873 31.748 o
-4 -1 -25 2.894 2.125 2.115 144.568 o
-4 -1 -24 86.271 85.265 3.871 17.416 o
-4 -1 -23 11.787 8.134 1.989 137.197 o
-4 -1 -22 103.929 108.480 4.877 11.628 o
-4 -1 -21 154.175 161.560 4.780 7.218 o
-4 -1 -20 88.973 89.200 3.185 19.042 o
-4 -1 -19 14.269 10.324 1.713 161.309 o
-4 -1 -18 19.301 20.376 2.099 101.813 o
-4 -1 -17 22.796 17.043 2.056 101.517 o
-4 -1 -16 46.025 46.676 2.832 41.467 o
-4 -1 -15 77.185 85.522 3.007 22.521 o
-4 -1 -14 13.059 10.834 1.870 144.546 o
-4 -1 -13 15.039 13.327 1.680 157.997 o
-4 -1 -12 120.382 106.774 3.128 13.403 o
-4 -1 -11 18.133 17.493 1.906 120.941 o
-4 -1 -10 72.953 70.488 2.527 28.285 o
-4 -1 -9 215.499 214.170 3.748 4.751 o
-4 -1 -8 880.185 895.132 7.822 0.329 o
-4 -1 -7 317.632 307.423 4.646 2.363 o
-4 -1 -6 367.512 359.908 4.306 1.820 o
-4 -1 -5 112.482 101.001 2.235 16.417 o
-4 -1 -4 256.630 244.499 2.852 3.711 o
-4 -1 -3 46.218 39.308 1.417 70.421 o
-4 -1 -2 14.653 11.083 0.899 318.608 o
-4 -1 -1 230.486 226.651 2.538 4.474 o
-3 -11 -4 1.232 1.406 5.389 23.110 o
-3 -11 -3 18.525 15.069 6.052 17.497 o
-3 -11 -2 12.049 12.024 3.995 39.411 o
-3 -11 -1 72.127 77.675 13.954 3.162 o
-3 -10 -13 3.709 5.082 5.648 20.903 o
-3 -10 -12 11.734 10.945 3.138 61.752 o
-3 -10 -11 50.696 42.083 4.217 25.439 o
-3 -10 -10 5.097 6.868 3.626 49.548 o
-3 -10 -9 4.196 3.440 2.145 137.680 o
-3 -10 -8 1.009 -0.753 1.833 197.852 o
-3 -10 -7 9.562 6.363 2.461 99.352 o
-3 -10 -6 7.152 4.963 1.878 166.689 o
-3 -10 -5 16.886 15.504 2.945 64.836 o
-3 -10 -4 113.814 125.782 5.040 10.033 o
-3 -10 -3 6.607 6.594 2.546 95.999 o
-3 -10 -2 56.295 65.788 4.788 19.005 o
-3 -10 -1 8.799 6.200 2.755 81.612 o
-3 -9 -16 36.969 37.395 5.425 19.130 o
-3 -9 -15 8.456 4.840 2.358 109.406 o
-3 -9 -14 1.347 3.369 2.256 128.794 o
-3 -9 -13 62.693 72.121 4.982 16.961 o
-3 -9 -12 23.207 17.660 2.459 78.878 o
-3 -9 -11 82.612 97.558 5.551 12.174 o
-3 -9 -10 10.229 9.268 1.876 153.195 o
-3 -9 -9 7.414 6.076 1.701 194.737 o
-3 -9 -8 60.185 67.035 3.468 26.272 o
-3 -9 -7 22.601 24.143 2.110 92.965 o
-3 -9 -6 27.056 26.415 2.092 85.623 o
-3 -9 -5 43.439 40.837 2.496 50.211 o
-3 -9 -4 20.259 16.701 1.910 116.887 o
-3 -9 -3 35.751 32.202 2.454 60.266 o
-3 -9 -2 21.976 20.060 2.014 102.960 o
-3 -9 -1 94.146 92.156 4.784 13.363 o
-3 -8 -19 10.747 2.339 7.397 12.156 o
-3 -8 -18 6.490 1.880 2.097 140.980 o
-3 -8 -17 64.730 61.013 4.366 20.377 o
-3 -8 -16 3.594 2.814 1.949 166.716 o
-3 -8 -15 68.656 73.151 3.870 21.320 o
-3 -8 -14 1.550 0.714 1.502 287.710 o
-3 -8 -13 35.719 36.545 2.871 49.036 o
-3 -8 -12 1.646 0.550 1.636 243.859 o
-3 -8 -11 47.611 48.789 2.676 42.344 o
-3 -8 -10 35.442 35.273 2.287 63.685 o
-3 -8 -9 40.862 38.981 2.840 46.054 o
-3 -8 -8 50.932 51.686 2.482 42.394 o
-3 -8 -7 59.900 61.373 2.561 34.716 o
-3 -8 -6 75.735 80.879 2.717 24.843 o
-3 -8 -5 21.750 23.130 1.663 124.729 o
-3 -8 -4 92.605 98.687 2.378 19.947 o
-3 -8 -3 113.865 109.698 2.857 14.479 o
-3 -8 -2 9.453 9.802 1.446 229.943 o
-3 -8 -1 6.127 6.889 1.395 274.491 o
-3 -7 -22 65.151 62.581 8.678 7.515 o
-3 -7 -21 6.189 4.336 3.561 51.332 o
-3 -7 -20 14.126 14.860 2.701 77.199 o
-3 -7 -19 141.886 148.900 5.063 7.821 o
-3 -7 -18 4.383 4.489 2.115 140.209 o
-3 -7 -17 0.761 1.354 2.141 144.859 o
-3 -7 -16 57.165 55.091 3.568 27.832 o
-3 -7 -15 23.091 26.001 2.432 75.853 o
-3 -7 -14 0.414 0.774 1.563 271.700 o
-3 -7 -13 25.416 29.443 2.520 68.562 o
-3 -7 -12 2.322 -0.676 1.409 322.316 o
-3 -7 -11 25.355 24.216 1.915 99.059 o
-3 -7 -10 17.676 17.468 1.559 155.935 o
-3 -7 -9 55.694 60.786 2.464 37.728 o
-3 -7 -8 19.978 18.171 1.629 139.829 o
-3 -7 -7 44.715 42.330 2.205 54.224 o
-3 -7 -6 44.153 47.316 1.964 57.179 o
-3 -7 -5 79.120 75.533 2.236 27.008 o
-3 -7 -4 11.115 11.114 1.157 286.212 o
-3 -7 -3 167.043 179.575 2.402 7.572 o
-3 -7 -2 49.309 50.276 1.631 56.603 o
-3 -7 -1 82.152 78.987 1.901 26.942 o
-3 -6 -23 2.499 7.849 4.601 31.334 o
-3 -6 -22 23.570 24.468 3.206 50.984 o
-3 -6 -21 4.554 2.813 2.266 124.083 o
-3 -6 -20 36.895 40.147 3.234 40.970 o
-3 -6 -19 21.774 27.104 3.684 40.959 o
-3 -6 -18 12.994 13.104 2.369 98.118 o
-3 -6 -17 65.299 66.525 4.436 19.512 o
-3 -6 -16 2.229 2.166 1.703 220.451 o
-3 -6 -15 106.036 114.325 3.460 14.005 o
-3 -6 -14 37.471 35.011 2.259 62.627 o
-3 -6 -13 57.564 57.520 2.869 33.563 o
-3 -6 -12 77.612 79.980 2.548 25.275 o
-3 -6 -11 13.682 15.305 1.515 181.867 o
-3 -6 -10 23.797 21.931 1.703 118.049 o
-3 -6 -9 33.281 36.781 1.977 74.569 o
-3 -6 -8 234.908 253.583 4.036 3.849 o
-3 -6 -7 169.814 165.563 2.790 7.618 o
-3 -6 -6 91.253 86.941 2.223 22.042 o
-3 -6 -5 31.841 31.846 1.327 107.019 o
-3 -6 -4 45.698 49.086 1.904 56.035 o
-3 -6 -3 279.936 276.231 3.469 3.044 o
-3 -6 -2 34.937 30.121 1.298 102.819 o
-3 -6 -1 7.816 7.863 0.847 491.944 o
-3 -5 -24 0.879 -1.179 2.542 103.603 o
-3 -5 -23 38.362 44.312 4.087 28.915 o
-3 -5 -22 84.456 91.575 3.949 16.956 o
-3 -5 -21 3.347 1.665 2.082 148.520 o
-3 -5 -20 169.486 183.557 5.286 5.917 o
-3 -5 -19 116.750 115.617 4.833 10.497 o
-3 -5 -18 123.871 120.199 3.586 11.661 o
-3 -5 -17 7.645 6.242 1.829 171.277 o
-3 -5 -16 10.541 7.363 1.674 185.548 o
-3 -5 -15 43.629 40.734 2.544 49.222 o
-3 -5 -14 73.904 73.227 2.713 26.469 o
-3 -5 -13 12.900 13.631 1.509 190.126 o
-3 -5 -12 157.039 165.167 4.131 7.471 o
-3 -5 -11 30.261 30.915 1.478 104.922 o
-3 -5 -10 125.023 130.594 3.593 11.099 o
-3 -5 -9 43.188 39.623 1.893 63.455 o
-3 -5 -8 251.158 250.427 3.887 3.616 o
-3 -5 -7 47.030 48.285 1.978 53.921 o
-3 -5 -6 80.552 81.861 1.836 27.262 o
-3 -5 -5 141.351 130.793 2.012 11.289 o
-3 -5 -4 2.149 1.227 0.757 963.203 o
-3 -5 -3 68.524 62.861 2.040 34.790 o
-3 -5 -2 32.010 34.934 0.967 117.729 o
-3 -5 -1 65.985 60.656 3.163 27.759 o
-3 -4 -26 29.689 20.604 6.270 15.742 o
-3 -4 -25 11.785 12.628 2.651 82.539 o
-3 -4 -24 3.378 3.775 2.315 119.905 o
-3 -4 -23 53.833 47.808 4.534 22.091 o
-3 -4 -22 15.340 11.597 2.302 100.648 o
-3 -4 -21 53.557 54.914 3.521 29.235 o
-3 -4 -20 36.907 37.636 2.678 52.016 o
-3 -4 -19 26.337 25.256 2.647 65.189 o
-3 -4 -18 63.720 66.028 2.708 31.033 o
-3 -4 -17 13.991 14.901 1.900 133.958 o
-3 -4 -16 8.494 9.935 2.143 125.490 o
-3 -4 -15 41.094 38.608 2.383 55.007 o
-3 -4 -14 61.513 62.447 2.420 35.032 o
-3 -4 -13 23.081 22.484 1.625 124.922 o
-3 -4 -12 150.865 150.635 2.965 9.047 o
-3 -4 -11 43.211 43.992 1.593 67.553 o
-3 -4 -10 162.980 161.160 2.939 8.020 o
-3 -4 -9 6.184 6.443 0.996 451.967 o
-3 -4 -8 580.392 565.302 5.742 0.761 o
-3 -4 -7 87.324 82.131 1.952 24.646 o
-3 -4 -6 149.392 151.046 2.296 9.588 o
-3 -4 -5 281.395 286.180 3.271 2.979 o
-3 -4 -4 213.925 202.746 3.781 4.931 o
-3 -4 -3 180.496 153.128 3.679 6.954 o
-3 -4 -2 131.262 123.808 3.672 10.763 o
-3 -4 -1 223.835 206.738 5.358 4.212 o
-3 -3 -27 43.188 30.858 6.561 13.656 o
-3 -3 -26 44.311 42.970 3.661 32.149 o
-3 -3 -25 30.200 29.639 3.194 46.955 o
-3 -3 -24 22.451 22.064 2.631 70.311 o
-3 -3 -23 68.063 67.422 4.070 20.885 o
-3 -3 -22 71.143 72.557 3.392 23.452 o
-3 -3 -21 54.016 59.159 3.047 32.861 o
-3 -3 -20 100.635 97.166 3.371 15.996 o
-3 -3 -19 1.514 -1.811 1.543 275.185 o
-3 -3 -18 92.489 92.638 2.877 19.085 o
-3 -3 -17 23.676 20.587 1.968 102.299 o
-3 -3 -16 58.057 57.928 2.443 37.489 o
-3 -3 -15 62.234 61.470 2.175 37.099 o
-3 -3 -14 56.292 55.068 2.225 41.532 o
-3 -3 -13 0.681 1.512 0.738 1107.980 o
-3 -3 -12 212.594 199.158 3.040 5.211 o
-3 -3 -11 43.441 39.918 1.232 78.137 o
-3 -3 -10 29.690 33.027 1.171 118.685 o
-3 -3 -9 66.503 68.306 1.938 35.194 o
-3 -3 -8 183.764 170.103 2.571 6.930 o
-3 -3 -7 770.070 773.945 6.055 0.434 o
-3 -3 -6 477.708 494.788 4.726 1.071 o
-3 -3 -5 71.581 75.482 2.036 30.770 o
-3 -3 -4 7.888 7.013 0.820 518.042 o
-3 -3 -3 64.585 68.793 3.097 27.451 o
-3 -3 -2 50.330 56.733 1.450 55.051 o
-3 -3 -1 80.704 79.885 1.835 27.555 o
-3 -2 -27 19.118 19.507 3.575 45.116 o
-3 -2 -26 3.116 3.729 2.090 146.175 o
-3 -2 -25 3.978 3.527 2.006 156.365 o
-3 -2 -24 7.821 13.932 2.625 86.780 o
-3 -2 -23 113.577 110.046 3.659 13.027 o
-3 -2 -22 51.481 42.306 3.110 36.314 o
-3 -2 -21 148.150 158.861 4.997 7.370 o
-3 -2 -20 6.162 3.280 1.443 271.457 o
-3 -2 -19 61.026 62.285 3.533 26.191 o
-3 -2 -18 43.328 44.084 2.150 55.719 o
-3 -2 -17 36.828 31.057 1.602 86.390 o
-3 -2 -16 49.577 44.923 1.722 57.488 o
-3 -2 -15 41.679 41.728 1.500 73.231 o
-3 -2 -14 68.807 58.925 1.944 36.330 o
-3 -2 -13 10.428 12.376 1.043 321.064 o
-3 -2 -12 81.130 64.208 1.723 30.853 o
-3 -2 -11 95.330 93.062 2.437 19.799 o
-3 -2 -10 14.870 13.270 1.087 258.710 o
-3 -2 -9 428.150 428.129 6.042 1.306 o
-3 -2 -8 453.030 431.041 5.912 1.218 o
-3 -2 -7 269.680 286.404 3.479 3.113 o
-3 -2 -6 199.256 199.414 2.537 5.754 o
-3 -2 -5 262.079 243.705 3.434 3.553 o
-3 -2 -4 199.380 216.308 3.468 5.233 o
-3 -2 -3 331.898 344.209 3.857 2.141 o
-3 -2 -2 388.479 414.115 4.821 1.541 o
-3 -2 -1 5.361 2.808 0.450 1245.320 o
-3 -1 -28 24.611 29.409 5.078 23.098 o
-3 -1 -27 15.039 13.113 2.755 74.649 o
-3 -1 -26 11.755 13.596 2.771 76.115 o
-3 -1 -25 19.826 18.764 2.530 78.483 o
-3 -1 -24 138.205 146.949 4.058 9.034 o
-3 -1 -23 64.518 59.891 2.923 30.152 o
-3 -1 -22 6.760 9.270 1.687 193.789 o
-3 -1 -21 49.516 56.932 2.234 44.987 o
-3 -1 -20 47.020 40.169 2.278 51.892 o
-3 -1 -19 48.155 44.493 3.073 37.691 o
-3 -1 -18 19.244 19.202 1.396 164.739 o
-3 -1 -17 16.799 16.060 1.346 190.031 o
-3 -1 -16 6.914 4.099 1.077 413.068 o
-3 -1 -15 150.754 149.799 3.179 8.923 o
-3 -1 -14 100.551 97.641 2.327 18.599 o
-3 -1 -13 328.957 302.931 3.321 2.369 o
-3 -1 -12 116.014 108.042 2.241 15.334 o
-3 -1 -11 99.550 89.347 2.019 20.412 o
-3 -1 -10 42.218 30.964 1.542 79.429 o
-3 -1 -9 211.432 227.567 3.713 4.695 o
-3 -1 -8 180.142 169.305 3.504 6.712 o
-3 -1 -7 418.786 418.700 4.278 1.411 o
-3 -1 -6 115.297 107.364 2.330 15.344 o
-3 -1 -5 33.796 34.761 1.246 102.044 o
-3 -1 -4 249.561 270.428 2.972 3.595 o
-3 -1 -3 92.970 97.183 1.708 21.803 o
-3 -1 -2 272.514 286.357 2.893 3.128 o
-3 -1 -1 412.008 420.055 2.918 1.468 o
-2 -11 -9 6.617 -1.697 4.695 30.099 o
-2 -11 -8 16.492 23.861 7.401 11.838 o
-2 -11 -7 2.600 1.921 2.764 86.265 o
-2 -11 -6 66.267 74.430 5.751 13.685 o
-2 -11 -5 4.429 1.927 2.723 87.716 o
-2 -11 -4 26.428 19.845 4.134 33.523 o
-2 -11 -3 26.770 31.924 3.768 37.370 o
-2 -11 -2 43.815 40.993 5.249 19.339 o
-2 -11 -1 9.590 6.672 3.548 50.540 o
-2 -10 -14 32.500 28.422 4.067 32.187 o
-2 -10 -13 3.294 3.014 2.604 96.068 o
-2 -10 -12 6.053 6.309 2.578 94.391 o
-2 -10 -11 41.659 37.957 4.294 26.888 o
-2 -10 -10 53.296 52.580 4.485 22.123 o
-2 -10 -9 25.425 28.225 2.839 58.789 o
-2 -10 -8 45.657 43.944 2.912 41.145 o
-2 -10 -7 36.172 36.643 2.733 51.629 o
-2 -10 -6 59.200 62.026 4.261 21.788 o
-2 -10 -5 59.435 64.123 3.949 23.497 o
-2 -10 -4 25.813 26.840 3.047 53.276 o
-2 -10 -3 31.797 31.570 3.209 45.491 o
-2 -10 -2 41.673 42.844 3.737 32.043 o
-2 -10 -1 36.998 33.649 3.893 32.662 o
-2 -9 -17 31.450 30.649 3.841 35.185 o
-2 -9 -16 22.834 19.160 3.987 36.541 o
-2 -9 -15 7.128 6.657 2.290 115.888 o
-2 -9 -14 18.499 23.300 2.574 75.627 o
-2 -9 -13 27.652 21.044 3.013 54.758 o
-2 -9 -12 35.991 30.522 4.267 28.944 o
-2 -9 -11 29.714 31.779 2.779 56.398 o
-2 -9 -10 39.586 37.989 3.203 40.790 o
-2 -9 -9 113.373 120.584 3.257 13.198 o
-2 -9 -8 19.428 17.894 1.785 127.636 o
-2 -9 -7 13.801 15.394 1.516 181.096 o
-2 -9 -6 4.979 7.051 1.392 283.169 o
-2 -9 -5 36.887 32.615 1.918 74.488 o
-2 -9 -4 16.770 15.370 1.641 153.418 o
-2 -9 -3 20.494 18.715 1.881 116.419 o
-2 -9 -2 79.410 77.940 2.779 23.959 o
-2 -9 -1 74.684 76.558 2.743 25.599 o
-2 -8 -20 0.349 1.123 5.793 20.035 o
-2 -8 -19 5.432 3.718 3.147 65.552 o
-2 -8 -18 0.999 0.220 2.633 96.425 o
-2 -8 -17 102.649 104.478 4.995 11.647 o
-2 -8 -16 20.658 22.024 2.765 66.733 o
-2 -8 -15 8.374 4.332 1.981 149.850 o
-2 -8 -14 15.165 15.854 2.399 91.937 o
-2 -8 -13 31.984 29.913 2.510 62.863 o
-2 -8 -12 42.695 44.797 3.445 34.933 o
-2 -8 -11 73.743 78.402 3.364 22.378 o
-2 -8 -10 24.318 27.077 2.440 73.722 o
-2 -8 -9 28.905 33.764 1.828 88.749 o
-2 -8 -8 67.114 69.499 2.353 31.717 o
-2 -8 -7 32.133 30.755 1.723 90.251 o
-2 -8 -6 2.481 1.204 0.801 860.390 o
-2 -8 -5 18.969 21.310 1.656 135.627 o
-2 -8 -4 16.989 14.778 1.335 193.974 o
-2 -8 -3 234.836 243.618 3.702 4.004 o
-2 -8 -2 47.734 51.180 1.401 61.391 o
-2 -8 -1 31.840 27.130 1.402 109.394 o
-2 -7 -23 20.901 12.136 4.848 26.457 o
-2 -7 -22 7.567 10.410 2.861 75.594 o
-2 -7 -21 6.260 3.023 2.794 82.093 o
-2 -7 -20 30.099 33.012 3.396 42.364 o
-2 -7 -19 17.131 18.517 2.526 81.433 o
-2 -7 -18 107.820 111.237 4.338 12.238 o
-2 -7 -17 52.277 52.404 3.336 31.740 o
-2 -7 -16 10.539 11.175 2.038 131.372 o
-2 -7 -15 56.294 52.068 3.024 33.547 o
-2 -7 -14 8.426 7.721 1.842 165.048 o
-2 -7 -13 63.707 61.486 3.390 26.637 o
-2 -7 -12 18.698 23.103 1.999 107.131 o
-2 -7 -11 44.338 45.902 2.135 54.388 o
-2 -7 -10 3.518 4.145 1.175 407.629 o
-2 -7 -9 233.351 236.307 3.369 4.167 o
-2 -7 -8 31.539 26.612 1.586 101.640 o
-2 -7 -7 212.726 226.719 3.591 4.702 o
-2 -7 -6 1.247 0.260 0.621 1507.760 o
-2 -7 -5 107.276 106.231 1.683 17.803 o
-2 -7 -4 55.416 56.373 1.454 50.537 o
-2 -7 -3 6.592 6.318 0.685 681.267 o
-2 -7 -2 28.597 28.595 1.190 128.098 o
-2 -7 -1 62.548 65.278 1.487 41.610 o
-2 -6 -24 35.076 33.984 4.479 26.669 o
-2 -6 -23 90.249 90.015 5.758 11.423 o
-2 -6 -22 53.395 50.118 4.617 21.444 o
-2 -6 -21 55.177 58.399 4.313 22.453 o
-2 -6 -20 15.349 12.742 2.518 86.545 o
-2 -6 -19 58.397 65.663 4.099 22.599 o
-2 -6 -18 0.722 1.068 1.857 192.112 o
-2 -6 -17 55.165 56.736 2.951 33.833 o
-2 -6 -16 3.070 2.441 1.646 231.313 o
-2 -6 -15 93.259 92.784 3.595 16.741 o
-2 -6 -14 61.552 58.869 2.889 31.642 o
-2 -6 -13 15.528 16.322 1.564 165.452 o
-2 -6 -12 95.910 94.829 2.844 18.359 o
-2 -6 -11 28.904 30.890 1.798 92.591 o
-2 -6 -10 65.835 59.978 2.072 36.548 o
-2 -6 -9 12.237 11.566 0.881 354.612 o
-2 -6 -8 3.491 3.287 0.794 766.414 o
-2 -6 -7 83.270 86.843 1.779 25.770 o
-2 -6 -6 55.773 55.846 1.485 50.114 o
-2 -6 -5 79.087 74.956 1.754 29.389 o
-2 -6 -4 67.894 59.494 1.525 39.803 o
-2 -6 -3 259.314 272.136 2.445 3.471 o
-2 -6 -2 91.562 90.963 1.577 23.314 o
-2 -6 -1 89.894 85.910 1.218 25.448 o
-2 -5 -25 7.630 2.573 2.754 83.604 o
-2 -5 -24 1.250 1.191 2.384 116.783 o
-2 -5 -23 5.436 6.537 3.059 68.613 o
-2 -5 -22 20.287 19.695 2.750 68.437 o
-2 -5 -21 5.890 8.274 2.701 85.956 o
-2 -5 -20 39.960 37.251 4.114 29.052 o
-2 -5 -19 100.645 99.735 3.595 15.256 o
-2 -5 -18 55.499 56.593 3.143 31.867 o
-2 -5 -17 25.512 29.691 2.845 58.067 o
-2 -5 -16 11.515 11.734 2.039 128.747 o
-2 -5 -15 24.440 24.444 2.116 89.668 o
-2 -5 -14 0.203 0.077 1.121 531.486 o
-2 -5 -13 272.789 265.258 3.338 3.232 o
-2 -5 -12 123.676 121.898 2.811 12.686 o
-2 -5 -11 6.921 4.578 0.780 615.816 o
-2 -5 -10 30.542 32.510 1.690 92.944 o
-2 -5 -9 120.019 128.457 2.451 13.199 o
-2 -5 -8 22.584 22.522 1.406 144.163 o
-2 -5 -7 499.025 479.359 3.722 1.048 o
-2 -5 -6 52.259 52.035 1.305 57.339 o
-2 -5 -5 63.560 61.941 1.396 42.737 o
-2 -5 -4 188.399 199.764 3.015 5.993 o
-2 -5 -3 215.001 207.724 2.688 5.096 o
-2 -5 -2 251.220 261.287 2.697 3.676 o
-2 -5 -1 103.324 105.931 1.635 18.669 o
-2 -4 -27 56.440 61.567 8.040 8.780 o
-2 -4 -26 0.894 2.942 2.843 82.222 o
-2 -4 -25 6.705 8.011 2.608 91.166 o
-2 -4 -24 38.194 41.830 3.940 30.797 o
-2 -4 -23 71.558 72.637 4.094 19.748 o
-2 -4 -22 46.233 52.794 3.683 30.012 o
-2 -4 -21 131.667 140.344 5.192 8.400 o
-2 -4 -20 59.213 49.210 3.127 32.008 o
-2 -4 -19 24.171 23.656 2.239 84.528 o
-2 -4 -18 11.444 10.260 1.851 151.922 o
-2 -4 -17 31.777 27.417 2.304 70.808 o
-2 -4 -16 26.112 23.525 1.970 95.338 o
-2 -4 -15 83.191 85.741 2.062 24.926 o
-2 -4 -14 311.359 300.041 3.746 2.524 o
-2 -4 -13 119.477 117.999 2.251 14.164 o
-2 -4 -12 36.644 32.025 1.658 83.906 o
-2 -4 -11 78.868 75.535 1.508 30.425 o
-2 -4 -10 13.114 13.534 0.854 335.265 o
-2 -4 -9 1.247 0.943 0.513 1980.920 o
-2 -4 -8 265.715 254.648 3.661 3.379 o
-2 -4 -7 149.014 151.209 2.138 9.706 o
-2 -4 -6 225.373 223.993 2.880 4.572 o
-2 -4 -5 166.885 157.213 1.909 8.409 o
-2 -4 -4 60.934 68.096 2.561 32.879 o
-2 -4 -3 394.215 378.684 2.877 1.659 o
-2 -4 -2 115.565 115.966 2.499 14.447 o
-2 -4 -1 201.470 226.308 2.359 5.288 o
-2 -3 -28 16.039 20.577 4.368 32.126 o
-2 -3 -27 20.087 27.927 4.170 33.486 o
-2 -3 -26 34.945 31.553 3.427 40.262 o
-2 -3 -25 1.735 5.765 3.212 63.915 o
-2 -3 -24 4.830 1.071 1.887 176.137 o
-2 -3 -23 39.630 42.108 2.761 47.294 o
-2 -3 -22 74.672 67.205 3.863 20.805 o
-2 -3 -21 14.613 15.902 1.979 123.905 o
-2 -3 -20 163.574 174.854 4.847 6.528 o
-2 -3 -19 19.590 17.049 1.700 135.971 o
-2 -3 -18 33.202 32.131 2.273 67.883 o
-2 -3 -17 74.928 67.267 2.203 30.089 o
-2 -3 -16 79.348 71.979 2.364 26.865 o
-2 -3 -15 57.122 51.118 2.066 44.093 o
-2 -3 -14 8.656 12.416 1.151 306.125 o
-2 -3 -13 176.602 166.474 2.532 7.368 o
-2 -3 -12 19.553 14.431 1.322 183.447 o
-2 -3 -11 146.287 140.661 2.923 9.739 o
-2 -3 -10 24.193 20.448 1.011 178.020 o
-2 -3 -9 372.024 392.825 3.416 1.728 o
-2 -3 -8 315.713 328.734 4.707 2.283 o
-2 -3 -7 15.137 12.441 0.923 297.896 o
-2 -3 -6 386.548 413.852 3.456 1.592 o
-2 -3 -5 345.375 352.703 2.650 2.058 o
-2 -3 -4 25.353 25.985 0.801 173.409 o
-2 -3 -3 121.933 120.715 1.735 14.281 o
-2 -3 -2 179.357 177.314 1.982 7.165 o
-2 -3 -1 704.076 772.224 4.370 0.493 o
-2 -2 -29 25.390 18.730 6.852 13.533 o
-2 -2 -28 3.071 2.820 2.867 79.822 o
-2 -2 -27 11.050 7.223 2.482 95.933 o
-2 -2 -26 48.158 45.879 3.610 31.185 o
-2 -2 -25 20.489 19.330 2.601 74.457 o
-2 -2 -24 12.416 10.534 2.160 116.909 o
-2 -2 -23 11.561 9.630 2.286 108.321 o
-2 -2 -22 4.059 3.560 1.401 299.545 o
-2 -2 -21 204.956 213.672 5.144 4.607 o
-2 -2 -20 9.405 12.749 1.767 165.559 o
-2 -2 -19 12.169 12.823 1.311 233.132 o
-2 -2 -18 1.649 1.046 1.056 555.661 o
-2 -2 -17 143.035 140.332 2.916 9.998 o
-2 -2 -16 59.689 52.978 1.747 45.342 o
-2 -2 -15 76.215 75.402 1.852 29.944 o
-2 -2 -14 45.093 44.417 1.413 68.576 o
-2 -2 -13 39.690 45.663 1.428 74.992 o
-2 -2 -12 182.203 174.802 2.335 6.977 o
-2 -2 -11 69.680 69.188 1.507 36.178 o
-2 -2 -10 311.748 314.894 2.600 2.515 o
-2 -2 -9 238.266 245.924 2.882 4.043 o
-2 -2 -8 308.909 314.252 2.817 2.535 o
-2 -2 -7 236.032 243.061 2.727 4.140 o
-2 -2 -6 719.808 736.392 3.137 0.498 o
-2 -2 -5 58.119 63.979 1.064 48.593 o
-2 -2 -4 235.905 245.016 2.251 4.183 o
-2 -2 -3 402.241 445.612 3.615 1.440 o
-2 -2 -2 643.634 680.637 3.305 0.605 o
-2 -2 -1 462.939 503.734 3.704 1.116 o
-2 -1 -29 44.344 51.422 9.228 7.201 o
-2 -1 -28 77.716 85.768 6.398 10.862 o
-2 -1 -27 28.414 20.735 3.657 40.385 o
-2 -1 -26 7.922 9.380 3.198 61.560 o
-2 -1 -25 4.673 4.285 2.004 154.564 o
-2 -1 -24 47.990 50.283 3.537 31.349 o
-2 -1 -23 19.086 16.333 2.241 96.261 o
-2 -1 -22 125.931 132.605 3.905 10.539 o
-2 -1 -21 72.635 74.449 2.694 26.774 o
-2 -1 -20 92.055 92.264 2.317 20.940 o
-2 -1 -19 2.908 2.817 1.071 498.510 o
-2 -1 -18 101.430 98.576 1.938 19.217 o
-2 -1 -17 28.333 27.807 1.228 128.047 o
-2 -1 -16 10.802 10.759 1.017 335.082 o
-2 -1 -15 26.934 20.997 1.164 150.229 o
-2 -1 -14 191.605 162.193 2.172 6.889 o
-2 -1 -13 83.836 77.591 2.142 25.628 o
-2 -1 -12 120.297 130.686 2.493 12.986 o
-2 -1 -11 8.036 7.919 0.923 442.938 o
-2 -1 -10 145.414 161.291 2.644 9.280 o
-2 -1 -9 325.534 352.171 3.033 2.200 o
-2 -1 -8 41.681 39.619 1.042 85.873 o
-2 -1 -7 71.528 82.108 1.167 33.616 o
-2 -1 -6 978.663 1079.700 8.093 0.254 o
-2 -1 -5 273.826 287.893 2.477 3.132 o
-2 -1 -4 103.277 105.152 1.403 19.132 o
-2 -1 -3 199.188 217.871 2.378 5.487 o
-2 -1 -2 359.840 387.513 2.777 1.836 o
-2 -1 -1 37.522 40.136 0.742 101.523 o
-1 -11 -11 11.286 8.956 3.773 44.366 o
-1 -11 -10 56.125 69.591 24.346 1.112 o
-1 -11 -9 5.329 3.759 3.547 51.997 o
-1 -11 -8 23.569 12.839 12.128 4.508 o
-1 -11 -7 31.077 16.153 25.994 0.992 o
-1 -11 -6 10.891 12.008 4.032 38.951 o
-1 -11 -5 37.830 32.737 3.877 32.760 o
-1 -11 -4 79.023 80.008 6.034 11.815 o
-1 -11 -3 8.569 5.605 3.209 61.623 o
-1 -11 -2 8.636 9.134 3.992 40.350 o
-1 -11 -1 15.386 12.455 3.626 46.172 o
-1 -10 -16 44.898 45.313 8.129 9.105 o
-1 -10 -15 9.619 10.963 2.908 72.006 o
-1 -10 -14 1.073 -0.807 2.123 147.860 o
-1 -10 -13 20.672 17.689 2.944 61.897 o
-1 -10 -12 0.451 -0.236 2.167 142.836 o
-1 -10 -11 39.910 39.244 3.080 42.353 o
-1 -10 -10 34.031 34.066 3.233 43.497 o
-1 -10 -9 77.254 78.445 3.611 20.498 o
-1 -10 -8 7.512 8.272 2.007 144.078 o
-1 -10 -7 33.431 34.391 2.647 56.252 o
-1 -10 -6 1.017 0.167 1.073 561.647 o
-1 -10 -5 70.886 32.230 15.063 2.818 o
-1 -10 -4 7.078 3.546 1.610 220.530 o
-1 -10 -3 19.367 12.550 2.627 77.301 o
-1 -10 -2 43.072 48.959 4.362 25.033 o
-1 -10 -1 6.615 2.575 2.348 113.762 o
-1 -9 -18 1.955 0.831 3.068 70.728 o
-1 -9 -17 46.212 42.608 5.038 20.253 o
-1 -9 -16 1.033 -4.965 2.398 116.130 o
-1 -9 -15 6.145 7.140 3.895 42.920 o
-1 -9 -14 5.758 1.631 2.396 110.972 o
-1 -9 -13 80.838 90.257 5.448 12.847 o
-1 -9 -12 0.311 -3.633 2.413 115.401 o
-1 -9 -11 33.828 26.891 3.349 42.959 o
-1 -9 -10 35.284 37.116 3.702 35.121 o
-1 -9 -9 49.907 61.340 3.222 32.192 o
-1 -9 -8 55.413 62.484 2.626 35.801 o
-1 -9 -7 69.018 69.758 3.170 25.614 o
-1 -9 -6 14.534 10.781 1.529 186.009 o
-1 -9 -5 47.480 49.623 2.243 48.686 o
-1 -9 -4 79.842 80.290 2.480 24.923 o
-1 -9 -3 33.540 33.722 1.934 77.706 o
-1 -9 -2 41.708 39.048 2.248 57.242 o
-1 -9 -1 8.481 7.530 1.341 271.249 o
-1 -8 -20 12.059 13.829 3.139 60.913 o
-1 -8 -19 88.962 87.162 5.815 11.473 o
-1 -8 -18 7.967 8.510 3.008 69.193 o
-1 -8 -17 10.659 14.818 3.036 65.087 o
-1 -8 -16 20.561 23.388 3.712 41.324 o
-1 -8 -15 17.388 16.116 4.295 33.273 o
-1 -8 -14 54.854 59.019 4.604 20.666 o
-1 -8 -13 57.355 71.260 3.975 23.039 o
-1 -8 -12 34.705 33.157 2.950 48.910 o
-1 -8 -11 18.459 16.607 2.065 108.791 o
-1 -8 -10 1.673 2.414 0.999 595.682 o
-1 -8 -9 125.456 126.559 3.032 11.975 o
-1 -8 -8 38.552 38.755 1.785 72.213 o
-1 -8 -7 75.480 77.761 1.973 29.175 o
-1 -8 -6 21.758 20.448 1.324 159.082 o
-1 -8 -5 70.289 71.266 1.927 32.841 o
-1 -8 -4 51.255 53.190 1.742 51.857 o
-1 -8 -3 76.139 78.533 1.612 30.480 o
-1 -8 -2 126.835 122.836 2.001 13.251 o
-1 -8 -1 17.990 16.328 1.020 231.984 o
-1 -7 -23 10.242 9.072 4.694 29.403 o
-1 -7 -22 7.469 3.294 2.163 130.509 o
-1 -7 -21 8.427 6.930 2.162 126.195 o
-1 -7 -20 42.441 43.954 4.017 28.751 o
-1 -7 -19 7.223 9.537 2.613 89.839 o
-1 -7 -18 54.776 46.973 3.836 27.204 o
-1 -7 -17 23.191 24.406 3.059 55.043 o
-1 -7 -16 13.740 11.072 2.541 87.648 o
-1 -7 -15 96.079 95.599 4.164 14.598 o
-1 -7 -14 213.198 216.197 5.462 4.301 o
-1 -7 -13 77.600 79.179 3.675 20.083 o
-1 -7 -12 184.331 175.922 4.746 5.840 o
-1 -7 -11 65.429 68.698 2.968 28.110 o
-1 -7 -10 73.981 76.934 2.656 26.214 o
-1 -7 -9 4.215 2.865 0.629 1002.920 o
-1 -7 -8 33.928 35.463 1.559 89.179 o
-1 -7 -7 59.336 56.894 1.721 44.491 o
-1 -7 -6 14.922 14.015 1.276 218.142 o
-1 -7 -5 149.758 144.809 2.203 9.852 o
-1 -7 -4 10.315 9.762 0.651 509.091 o
-1 -7 -3 9.484 9.882 0.646 534.876 o
-1 -7 -2 30.163 29.355 1.100 126.587 o
-1 -7 -1 40.111 40.775 1.139 85.457 o
-1 -6 -25 13.069 16.055 6.537 15.261 o
-1 -6 -24 61.657 68.125 4.674 18.731 o
-1 -6 -23 8.792 9.308 2.516 94.811 o
-1 -6 -22 5.767 7.409 3.132 65.298 o
-1 -6 -21 13.620 11.057 2.852 72.017 o
-1 -6 -20 51.921 44.866 4.045 26.320 o
-1 -6 -19 2.371 3.960 2.202 133.184 o
-1 -6 -18 43.312 44.536 2.976 41.168 o
-1 -6 -17 45.875 50.211 2.982 38.636 o
-1 -6 -16 8.745 8.366 1.924 151.765 o
-1 -6 -15 30.094 30.029 2.204 74.787 o
-1 -6 -14 22.552 20.163 1.867 111.461 o
-1 -6 -13 53.700 53.562 2.588 39.112 o
-1 -6 -12 34.094 31.717 1.667 88.159 o
-1 -6 -11 139.372 139.282 3.034 10.212 o
-1 -6 -10 12.946 11.474 1.129 274.734 o
-1 -6 -9 44.667 43.443 1.295 72.193 o
-1 -6 -8 131.126 136.993 1.723 12.221 o
-1 -6 -7 190.578 198.020 2.186 6.182 o
-1 -6 -6 74.887 78.199 1.623 31.015 o
-1 -6 -5 45.799 49.066 1.168 68.905 o
-1 -6 -4 194.381 200.333 2.050 6.027 o
-1 -6 -3 199.311 193.529 1.606 6.058 o
-1 -6 -2 256.138 262.573 1.686 3.666 o
-1 -6 -1 98.883 99.773 1.033 21.288 o
-1 -5 -26 4.245 3.470 2.996 72.648 o
-1 -5 -25 7.579 5.476 2.833 78.476 o
-1 -5 -24 101.052 107.896 5.147 11.336 o
-1 -5 -23 104.341 110.291 5.759 9.931 o
-1 -5 -22 67.064 72.490 5.740 13.733 o
-1 -5 -21 49.643 43.070 3.925 28.079 o
-1 -5 -20 9.545 8.211 2.229 117.022 o
-1 -5 -19 87.910 82.421 4.541 15.176 o
-1 -5 -18 5.915 5.732 1.958 156.892 o
-1 -5 -17 13.244 10.260 1.886 143.044 o
-1 -5 -16 116.070 111.756 4.025 12.047 o
-1 -5 -15 20.721 18.343 1.754 126.379 o
-1 -5 -14 197.216 188.656 2.916 5.908 o
-1 -5 -13 20.655 20.896 1.209 175.131 o
-1 -5 -12 62.183 68.297 2.092 36.132 o
-1 -5 -11 129.160 119.514 2.094 13.075 o
-1 -5 -10 65.987 67.329 1.591 38.163 o
-1 -5 -9 427.114 429.496 3.653 1.369 o
-1 -5 -8 148.947 152.482 3.247 8.901 o
-1 -5 -7 15.678 17.272 1.058 240.396 o
-1 -5 -6 68.392 64.049 1.227 40.037 o
-1 -5 -5 31.797 33.818 0.915 122.289 o
-1 -5 -4 30.282 28.597 0.756 145.007 o
-1 -5 -3 231.719 244.354 1.800 4.332 o
-1 -5 -2 101.851 103.906 1.099 20.009 o
-1 -5 -1 242.583 250.075 1.554 4.056 o
-1 -4 -27 15.602 16.143 2.975 64.285 o
-1 -4 -26 6.514 5.945 2.348 111.923 o
-1 -4 -25 45.860 37.434 4.193 27.041 o
-1 -4 -24 26.074 25.933 3.286 47.649 o
-1 -4 -23 3.745 1.623 2.460 107.412 o
-1 -4 -22 31.118 29.117 3.037 50.055 o
-1 -4 -21 16.697 14.045 2.311 96.683 o
-1 -4 -20 42.742 38.038 3.115 40.790 o
-1 -4 -19 8.825 9.211 1.747 176.171 o
-1 -4 -18 94.095 92.443 3.310 17.496 o
-1 -4 -17 36.283 39.869 2.555 54.377 o
-1 -4 -16 24.350 26.381 1.732 109.674 o
-1 -4 -15 148.112 140.994 2.062 10.221 o
-1 -4 -14 197.648 182.129 2.223 6.206 o
-1 -4 -13 32.242 26.037 1.735 93.789 o
-1 -4 -12 4.825 4.420 0.707 788.646 o
-1 -4 -11 285.721 284.833 2.458 2.993 o
-1 -4 -10 12.595 12.452 0.675 409.347 o
-1 -4 -9 140.404 133.323 1.952 11.304 o
-1 -4 -8 185.400 175.837 1.788 6.969 o
-1 -4 -7 133.531 139.109 1.908 11.723 o
-1 -4 -6 642.689 670.254 3.594 0.611 o
-1 -4 -5 6.942 7.942 0.597 707.604 o
-1 -4 -4 242.696 254.266 1.563 4.010 o
-1 -4 -3 677.042 699.448 2.584 0.559 o
-1 -4 -2 195.063 200.220 1.288 6.143 o
-1 -4 -1 289.065 322.118 1.696 2.761 o
-1 -3 -29 37.780 34.847 5.296 19.957 o
-1 -3 -28 49.689 57.048 5.173 18.301 o
-1 -3 -27 45.522 42.523 5.366 18.436 o
-1 -3 -26 125.155 136.225 5.276 8.749 o
-1 -3 -25 5.351 3.161 2.596 95.028 o
-1 -3 -24 8.171 4.909 2.396 106.555 o
-1 -3 -23 12.998 11.402 2.376 98.654 o
-1 -3 -22 96.587 101.915 5.026 12.158 o
-1 -3 -21 112.030 116.651 3.932 12.358 o
-1 -3 -20 105.782 106.045 4.772 11.784 o
-1 -3 -19 51.709 51.348 2.496 41.876 o
-1 -3 -18 49.416 53.197 1.924 50.775 o
-1 -3 -17 90.576 87.870 2.500 21.183 o
-1 -3 -16 537.350 526.246 3.781 0.898 o
-1 -3 -15 32.619 31.207 1.125 114.826 o
-1 -3 -14 15.804 16.928 1.368 189.662 o
-1 -3 -13 287.049 296.882 2.765 2.880 o
-1 -3 -12 260.324 249.835 3.980 3.458 o
-1 -3 -11 26.413 24.109 1.815 102.753 o
-1 -3 -10 40.355 40.011 1.447 77.840 o
-1 -3 -9 782.699 748.522 7.593 0.428 o
-1 -3 -8 50.937 55.039 1.224 58.170 o
-1 -3 -7 33.575 32.559 0.787 123.282 o
-1 -3 -6 44.206 47.162 0.661 80.620 o
-1 -3 -5 86.559 88.069 0.844 26.997 o
-1 -3 -4 718.879 766.069 3.393 0.485 o
-1 -3 -3 272.864 299.515 2.037 3.093 o
-1 -3 -2 325.013 359.490 2.055 2.210 o
-1 -3 -1 975.167 1083.180 2.949 0.260 o
-1 -2 -29 90.856 89.510 6.653 9.596 o
-1 -2 -28 48.377 52.927 3.539 30.825 o
-1 -2 -27 53.659 53.886 4.631 21.047 o
-1 -2 -26 2.482 -1.031 2.723 89.423 o
-1 -2 -25 4.827 3.785 2.560 97.759 o
-1 -2 -24 15.828 10.764 3.478 49.892 o
-1 -2 -23 95.181 91.707 5.555 11.482 o
-1 -2 -22 21.899 21.390 2.823 64.017 o
-1 -2 -21 35.312 32.891 3.724 35.425 o
-1 -2 -20 118.995 113.782 2.797 13.692 o
-1 -2 -19 9.008 7.695 1.161 324.373 o
-1 -2 -18 0.957 1.029 0.692 1239.110 o
-1 -2 -17 28.343 28.207 1.157 131.584 o
-1 -2 -16 5.235 4.109 0.697 787.995 o
-1 -2 -15 224.183 208.797 2.652 4.836 o
-1 -2 -14 353.663 337.612 4.612 1.967 o
-1 -2 -13 256.367 243.741 2.798 3.729 o
-1 -2 -12 191.818 189.775 2.277 6.270 o
-1 -2 -11 128.087 137.124 2.001 12.307 o
-1 -2 -10 215.478 218.403 2.118 5.035 o
-1 -2 -9 469.209 488.043 5.834 1.084 o
-1 -2 -8 93.031 102.940 2.329 19.555 o
-1 -2 -7 692.393 721.339 4.120 0.528 o
-1 -2 -6 1018.440 1109.070 6.837 0.239 o
-1 -2 -5 86.769 86.351 1.291 26.217 o
-1 -2 -4 201.779 236.743 2.019 5.183 o
-1 -2 -3 944.992 999.497 5.006 0.284 o
-1 -2 -2 243.998 232.892 1.481 4.214 o
-1 -2 -1 526.578 521.216 3.012 0.934 o
-1 -1 -29 24.296 18.032 3.721 40.850 o
-1 -1 -28 38.051 40.510 4.740 23.481 o
-1 -1 -27 4.324 3.377 3.351 58.405 o
-1 -1 -26 71.139 71.126 4.249 19.204 o
-1 -1 -25 21.017 19.504 3.570 44.614 o
-1 -1 -24 6.504 6.254 1.821 175.880 o
-1 -1 -23 76.456 77.757 2.858 24.361 o
-1 -1 -22 251.964 266.286 5.221 3.268 o
-1 -1 -21 86.766 89.304 3.471 18.424 o
-1 -1 -20 53.045 55.288 2.236 43.273 o
-1 -1 -19 11.986 9.584 1.581 191.276 o
-1 -1 -18 70.809 72.349 1.883 32.638 o
-1 -1 -17 106.862 105.164 2.300 16.872 o
-1 -1 -16 91.218 92.948 1.960 22.106 o
-1 -1 -15 615.122 595.075 4.060 0.696 o
-1 -1 -14 69.862 70.757 1.481 35.819 o
-1 -1 -13 10.145 10.400 0.804 432.423 o
-1 -1 -12 524.898 525.868 3.681 0.927 o
-1 -1 -11 122.003 130.336 1.525 13.841 o
-1 -1 -10 383.176 399.731 2.923 1.660 o
-1 -1 -9 468.666 510.390 2.654 1.101 o
-1 -1 -8 141.211 147.967 1.617 10.778 o
-1 -1 -7 687.598 753.225 3.427 0.519 o
-1 -1 -6 1173.320 1307.590 7.220 0.178 o
-1 -1 -5 1687.030 1777.180 8.213 0.090 o
-1 -1 -4 16.408 12.423 0.503 379.231 o
-1 -1 -3 262.221 245.705 1.554 3.717 o
-1 -1 -2 801.853 785.318 4.584 0.412 o
-1 -1 -1 2013.510 1995.230 4.688 0.067 o
0 0 2 343.688 391.386 1.710 1.955 o
0 0 4 1129.880 1298.190 6.801 0.188 o
0 0 6 1.904 2.800 0.443 1929.520 o
0 0 8 4.794 1.292 0.593 1092.910 o
0 0 10 306.691 323.958 3.138 2.491 o
0 0 12 93.513 91.882 2.545 19.979 o
0 0 14 35.967 40.739 1.788 74.247 o
0 0 16 20.244 16.213 1.688 136.443 o
0 0 18 16.999 20.464 3.640 44.233 o
0 0 20 259.749 245.719 6.395 3.096 o
0 0 22 285.636 306.465 5.341 2.609 o
0 0 24 4.316 6.217 1.682 210.054 o
0 0 26 37.465 40.419 4.250 27.870 o
0 0 28 304.584 295.418 13.098 1.623 o
0 1 1 230.194 226.266 1.796 4.584 o
0 1 2 0.057 0.163 0.177 18053.000 o
0 1 3 753.207 665.701 2.494 0.501 o
0 1 4 399.032 411.547 1.967 1.565 o
0 1 5 826.630 791.282 3.697 0.396 o
0 1 6 1318.580 1419.850 6.515 0.145 o
0 1 7 632.115 692.925 4.286 0.607 o
0 1 8 29.006 24.073 0.727 163.448 o
0 1 9 91.530 89.556 1.136 24.544 o
0 1 10 32.189 34.693 0.855 121.876 o
0 1 11 6.233 3.824 0.488 1025.030 o
0 1 12 1952.580 1862.760 8.597 0.072 o
0 1 13 205.690 197.158 2.851 5.499 o
0 1 14 146.692 138.704 2.469 10.141 o
0 1 15 817.870 797.253 5.461 0.396 o
0 1 16 1432.150 1346.590 7.486 0.135 o
0 1 17 100.556 95.750 2.701 17.844 o
0 1 18 62.782 59.710 1.913 39.611 o
0 1 19 16.338 16.742 1.684 147.744 o
0 1 20 129.098 129.897 3.210 11.262 o
0 1 21 0.033 0.443 1.117 535.115 o
0 1 22 243.253 252.661 3.911 3.729 o
0 1 23 55.316 62.110 2.448 37.755 o
0 1 24 2.118 0.068 1.246 408.156 o
0 1 25 18.255 16.909 1.993 114.333 o
0 1 26 51.823 53.325 4.630 21.360 o
0 1 27 20.970 18.115 3.644 43.307 o
0 1 28 5.986 3.710 5.426 22.562 o
0 1 29 0.040 -0.073 4.614 31.625 o
0 2 0 7370.760 7971.590 23.576 0.005 o
0 2 1 2816.640 3092.390 5.952 0.032 o
0 2 2 1594.370 1581.550 2.943 0.106 o
0 2 3 2665.000 2932.180 5.282 0.036 o
0 2 4 1366.550 1443.850 5.263 0.138 o
0 2 5 755.390 778.153 2.910 0.452 o
0 2 6 939.072 964.914 5.199 0.293 o
0 2 7 1142.140 1146.240 6.497 0.202 o
0 2 8 119.739 118.167 1.326 15.173 o
0 2 9 173.649 184.797 1.770 7.323 o
0 2 10 4.485 3.830 0.497 1193.140 o
0 2 11 318.961 322.325 2.928 2.393 o
0 2 12 106.797 98.716 1.793 18.418 o
0 2 13 27.990 27.505 1.363 121.517 o
0 2 14 137.340 129.903 2.537 11.250 o
0 2 15 124.097 118.790 2.054 13.772 o
0 2 16 36.584 35.430 1.388 90.187 o
0 2 17 7.710 8.771 1.052 377.740 o
0 2 18 211.246 216.865 3.293 4.939 o
0 2 19 60.915 62.957 2.528 34.235 o
0 2 20 102.685 104.140 2.901 16.334 o
0 2 21 23.768 25.601 1.853 104.327 o
0 2 22 20.156 20.791 1.962 109.118 o
0 2 23 32.760 32.350 2.892 51.519 o
0 2 24 46.358 44.943 3.231 36.285 o
0 2 25 37.819 36.376 4.440 26.374 o
0 2 26 28.478 28.789 3.001 52.422 o
0 2 27 125.078 137.726 5.819 8.083 o
0 2 28 61.533 70.480 5.623 14.642 o
0 2 29 10.808 8.031 3.425 53.435 o
0 3 1 334.900 337.039 1.386 2.238 o
0 3 2 1.691 1.669 0.224 4086.020 o
0 3 3 1106.260 1158.960 3.661 0.211 o
0 3 4 186.119 168.970 1.236 7.223 o
0 3 5 462.092 475.235 1.940 1.182 o
0 3 6 45.979 51.243 0.953 70.379 o
0 3 7 243.396 249.932 1.904 4.011 o
0 3 8 15.458 15.639 1.030 254.698 o
0 3 9 275.237 292.676 3.580 2.988 o
0 3 10 50.027 47.671 2.834 39.262 o
0 3 11 240.282 242.316 3.293 3.978 o
0 3 12 36.178 35.038 1.291 94.716 o
0 3 13 79.880 70.275 1.689 30.288 o
0 3 14 547.814 523.696 4.139 0.875 o
0 3 15 917.339 893.338 5.698 0.316 o
0 3 16 132.424 128.026 1.980 12.349 o
0 3 17 45.786 42.998 1.534 66.187 o
0 3 18 1.068 0.164 0.831 908.800 o
0 3 19 194.344 206.990 5.676 4.741 o
0 3 20 0.582 1.502 2.577 100.498 o
0 3 21 169.384 177.770 6.890 5.120 o
0 3 22 21.573 22.904 2.649 70.017 o
0 3 23 317.409 312.352 7.832 2.059 o
0 3 24 109.053 112.653 6.098 9.078 o
0 3 25 0.624 -1.308 2.309 125.608 o
0 3 26 1.540 2.541 2.604 97.431 o
0 3 27 1.876 -1.182 2.600 98.408 o
0 3 28 60.500 59.489 4.848 18.569 o
0 3 29 7.141 7.797 5.939 18.767 o
0 4 0 142.975 138.194 1.226 11.266 o
0 4 1 880.482 911.996 2.629 0.333 o
0 4 2 1357.550 1514.220 2.876 0.135 o
0 4 3 666.247 745.188 2.769 0.546 o
0 4 4 135.092 138.940 1.099 12.083 o
0 4 5 173.185 172.218 1.583 7.726 o
0 4 6 78.338 86.502 1.524 28.433 o
0 4 7 265.863 264.193 2.897 3.388 o
0 4 8 28.071 29.507 0.962 141.610 o
0 4 9 576.975 536.450 3.847 0.808 o
0 4 10 20.070 19.024 2.235 93.345 o
0 4 11 281.848 283.320 3.765 2.946 o
0 4 12 1.255 0.758 0.644 1381.710 o
0 4 13 33.151 30.594 1.394 102.398 o
0 4 14 0.085 -0.073 0.783 1091.270 o
0 4 15 21.287 21.822 1.720 123.254 o
0 4 16 48.121 43.351 2.608 44.578 o
0 4 17 8.032 6.987 1.864 163.831 o
0 4 18 0.538 0.574 1.448 315.894 o
0 4 19 0.002 -0.105 1.674 240.229 o
0 4 20 76.109 88.980 4.500 16.301 o
0 4 21 25.279 24.100 3.269 48.779 o
0 4 22 6.127 5.576 2.704 86.551 o
0 4 23 49.263 36.031 3.831 29.930 o
0 4 24 2.882 0.009 2.662 93.282 o
0 4 25 0.532 -0.171 2.311 125.560 o
0 4 26 96.061 100.008 4.882 12.606 o
0 4 27 18.338 20.495 3.185 54.947 o
0 4 28 0.401 -0.008 5.688 20.795 o
0 5 1 237.872 252.216 1.415 4.142 o
0 5 2 3.746 3.189 0.300 1932.050 o
0 5 3 266.285 267.488 1.665 3.453 o
0 5 4 63.418 70.112 0.766 43.743 o
0 5 5 348.058 337.894 2.112 2.110 o
0 5 6 6.971 7.019 0.590 736.535 o
0 5 7 30.815 37.617 1.160 109.450 o
0 5 8 35.848 37.289 1.406 89.215 o
0 5 9 104.002 95.543 2.631 17.443 o
0 5 10 3.046 2.927 0.523 1380.490 o
0 5 11 4.842 5.701 0.823 630.003 o
0 5 12 34.391 32.164 1.529 92.556 o
0 5 13 81.661 79.260 2.473 24.590 o
0 5 14 569.500 553.221 8.530 0.754 o
0 5 15 191.487 197.564 4.192 5.511 o
0 5 16 293.970 309.771 5.288 2.516 o
0 5 17 1.296 1.906 1.532 274.945 o
0 5 18 244.467 249.205 5.118 3.525 o
0 5 19 22.113 16.871 1.986 107.483 o
0 5 20 32.823 35.204 2.844 51.720 o
0 5 21 8.573 7.409 2.269 115.337 o
0 5 22 37.867 41.852 3.489 36.474 o
0 5 23 20.552 26.258 3.353 48.372 o
0 5 24 6.013 7.021 2.376 109.460 o
0 5 25 45.293 38.003 4.370 25.543 o
0 5 26 32.033 34.558 3.349 42.149 o
0 5 27 2.726 1.204 5.082 25.910 o
0 6 0 365.084 364.423 2.430 1.885 o
0 6 1 362.216 370.242 2.207 1.890 o
0 6 2 239.858 260.791 2.180 3.947 o
0 6 3 9.666 9.052 0.560 591.874 o
0 6 4 282.976 279.017 2.077 3.093 o
0 6 5 33.849 30.287 1.241 107.684 o
0 6 6 334.750 341.254 3.825 2.132 o
0 6 7 111.245 112.147 2.034 16.066 o
0 6 8 4.908 4.665 0.872 597.605 o
0 6 9 254.324 243.451 2.921 3.754 o
0 6 10 7.255 6.600 0.836 530.248 o
0 6 11 6.572 4.532 1.103 401.348 o
0 6 12 25.132 24.036 1.911 99.870 o
0 6 13 1.074 -0.211 0.823 928.718 o
0 6 14 1.876 0.456 0.837 846.057 o
0 6 15 40.629 38.024 2.637 50.300 o
0 6 16 4.993 4.746 1.387 293.311 o
0 6 17 22.743 19.800 2.257 87.996 o
0 6 18 43.784 46.217 2.636 45.828 o
0 6 19 38.815 42.062 2.995 43.613 o
0 6 20 9.867 13.090 2.324 105.330 o
0 6 21 22.723 21.347 2.568 72.901 o
0 6 22 1.698 -2.503 2.053 156.937 o
0 6 23 0.029 0.895 2.215 136.634 o
0 6 24 2.485 0.030 2.754 87.480 o
0 6 25 37.110 29.225 4.010 31.748 o
0 6 26 5.329 9.349 5.082 25.535 o
0 7 1 79.420 79.908 1.400 29.740 o
0 7 2 151.131 146.285 1.922 9.857 o
0 7 3 16.532 17.308 0.934 255.117 o
0 7 4 28.760 25.576 1.762 99.570 o
0 7 5 108.781 100.067 2.002 17.543 o
0 7 6 9.358 9.534 0.968 383.353 o
0 7 7 45.935 50.312 1.625 60.120 o
0 7 8 52.403 53.902 2.704 38.298 o
0 7 9 10.399 12.097 1.699 173.455 o
0 7 10 190.311 200.316 4.257 5.481 o
0 7 11 112.032 115.249 3.971 12.354 o
0 7 12 1.272 -1.567 1.310 380.004 o
0 7 13 53.205 42.629 3.643 29.891 o
0 7 14 24.835 29.902 2.572 67.058 o
0 7 15 4.236 1.656 1.291 352.602 o
0 7 16 9.681 11.479 2.295 108.872 o
0 7 17 136.270 138.550 4.536 8.909 o
0 7 18 106.432 114.870 5.699 9.779 o
0 7 19 155.372 165.378 5.637 6.477 o
0 7 20 57.450 55.962 4.949 18.640 o
0 7 21 55.669 51.385 5.918 14.722 o
0 7 22 94.541 104.892 6.827 8.799 o
0 7 23 3.909 1.965 2.897 78.025 o
0 8 0 124.570 125.768 4.069 10.687 o
0 8 1 77.592 77.182 1.981 28.476 o
0 8 2 4.183 1.880 0.529 1279.700 o
0 8 3 69.990 69.328 1.492 36.062 o
0 8 4 31.214 34.044 1.247 109.401 o
0 8 5 206.482 212.672 2.910 5.223 o
0 8 6 16.922 15.696 1.189 214.527 o
0 8 7 129.223 138.292 2.648 11.502 o
0 8 8 25.505 24.882 1.662 113.114 o
0 8 9 13.569 10.452 1.484 198.630 o
0 8 10 3.621 2.841 1.437 291.878 o
0 8 11 31.620 32.967 3.382 42.030 o
0 8 12 0.064 0.488 1.647 247.038 o
0 8 13 168.937 180.959 5.375 5.926 o
0 8 14 2.217 1.047 2.266 128.041 o
0 8 15 70.320 69.766 4.121 20.050 o
0 8 16 4.595 1.314 2.443 108.212 o
0 8 17 31.601 29.769 3.647 38.163 o
0 8 18 0.640 0.726 2.968 76.035 o
0 8 19 1.524 -0.358 3.321 60.691 o
0 8 20 56.984 57.333 4.503 21.070 o
0 8 21 0.085 -5.874 2.796 86.063 o
0 9 1 53.970 55.505 1.984 45.728 o
0 9 2 33.147 35.632 2.378 63.109 o
0 9 3 7.810 6.251 1.012 415.467 o
0 9 4 28.242 28.062 1.573 108.111 o
0 9 5 0.220 0.194 0.699 1338.850 o
0 9 6 5.300 6.193 1.262 332.245 o
0 9 7 0.128 0.973 0.799 1012.390 o
0 9 8 86.918 87.080 3.359 18.986 o
0 9 9 0.014 0.487 1.325 381.188 o
0 9 10 4.256 5.975 1.552 242.713 o
0 9 11 16.139 16.581 1.918 125.335 o
0 9 12 6.123 1.357 1.706 207.055 o
0 9 13 2.369 0.829 1.506 281.191 o
0 9 14 30.924 25.815 3.204 47.298 o
0 9 15 26.126 25.621 3.204 49.582 o
0 9 16 2.439 1.505 2.239 130.458 o
0 9 17 114.443 116.478 5.385 9.759 o
0 9 18 4.515 6.242 2.999 71.743 o
0 10 0 1.402 -1.087 1.808 202.219 o
0 10 1 23.640 24.675 2.167 88.086 o
0 10 2 75.933 73.170 3.558 21.506 o
0 10 3 0.277 -0.105 1.229 442.202 o
0 10 4 186.382 186.954 7.555 4.351 o
0 10 5 1.156 0.421 1.464 305.637 o
0 10 6 5.599 3.028 1.598 231.274 o
0 10 7 4.769 3.657 1.882 174.015 o
0 10 8 8.899 9.261 2.229 117.219 o
0 10 9 8.886 4.580 2.109 133.035 o
0 10 10 18.131 15.858 2.857 67.241 o
0 10 11 12.739 16.277 2.826 71.987 o
0 10 12 8.373 8.027 2.423 102.556 o
0 10 13 31.078 32.055 3.215 45.587 o
0 10 14 42.633 33.743 4.117 28.826 o
0 10 15 8.861 5.352 3.309 58.122 o
0 11 1 4.609 -1.458 2.929 76.518 o
0 11 2 46.240 56.553 7.191 11.043 o
0 11 3 15.538 18.487 4.808 27.103 o
0 11 4 2.225 -0.404 4.379 34.921 o
0 11 5 1.115 -1.681 3.369 59.048 o
0 11 6 0.012 1.847 3.261 63.050 o
0 11 7 8.171 8.224 3.815 44.172 o
0 11 8 64.643 65.618 17.041 2.208 o
0 11 9 0.211 -1.822 2.507 106.993 o
0 11 10 16.904 14.845 2.861 68.239 o
0 11 11 6.567 5.145 3.366 57.016 o
1 0 1 257.413 295.720 2.210 3.334 o
1 0 2 508.167 476.360 1.997 1.043 o
1 0 3 713.947 744.865 3.688 0.498 o
1 0 4 311.369 280.686 1.583 2.747 o
1 0 5 917.757 882.051 4.139 0.321 o
1 0 6 4532.210 4914.070 9.261 0.012 o
1 0 7 2450.140 2550.480 7.841 0.044 o
1 0 8 406.421 446.730 2.842 1.435 o
1 0 9 62.595 71.533 1.312 40.809 o
1 0 10 1010.670 1035.330 4.749 0.255 o
1 0 11 80.181 83.000 1.273 29.263 o
1 0 12 236.904 220.148 2.434 4.415 o
1 0 13 34.423 26.677 1.055 119.313 o
1 0 14 49.311 52.857 1.369 59.185 o
1 0 15 236.262 203.169 3.146 4.512 o
1 0 16 216.840 187.556 4.135 4.953 o
1 0 17 90.922 87.725 2.062 22.538 o
1 0 18 1.339 1.131 0.807 914.788 o
1 0 19 31.547 35.703 2.023 75.956 o
1 0 20 1.491 2.644 1.048 548.564 o
1 0 21 21.393 21.869 2.151 94.231 o
1 0 22 44.729 46.016 2.366 49.865 o
1 0 23 9.348 9.186 1.528 214.346 o
1 0 24 3.719 0.650 1.642 233.245 o
1 0 25 84.867 93.434 4.170 16.051 o
1 0 26 16.525 13.802 2.696 75.957 o
1 0 27 128.169 132.120 6.350 7.490 o
1 1 0 4383.880 4545.400 13.185 0.014 o
1 1 1 2013.290 2016.700 6.172 0.066 o
1 1 2 801.831 794.480 3.898 0.410 o
1 1 3 262.474 245.069 2.096 3.678 o
1 1 4 16.489 13.922 0.647 333.715 o
1 1 5 1687.370 1754.530 7.257 0.091 o
1 1 6 1173.710 1318.590 4.791 0.178 o
1 1 7 687.134 755.521 3.283 0.519 o
1 1 8 141.821 150.393 1.842 10.489 o
1 1 9 467.981 506.176 2.679 1.109 o
1 1 10 383.729 404.184 2.804 1.648 o
1 1 11 121.574 132.849 1.659 13.617 o
1 1 12 525.579 529.730 3.351 0.924 o
1 1 13 10.083 9.446 0.800 445.716 o
1 1 14 69.942 71.199 1.756 34.056 o
1 1 15 615.277 583.508 4.722 0.700 o
1 1 16 91.322 87.891 1.896 22.915 o
1 1 17 107.095 107.121 2.680 15.926 o
1 1 18 70.718 69.382 2.202 31.320 o
1 1 19 12.011 12.504 1.259 246.891 o
1 1 20 52.919 52.945 2.193 44.624 o
1 1 21 86.781 91.434 3.273 18.928 o
1 1 22 251.677 259.169 4.043 3.512 o
1 1 23 76.327 74.618 2.637 25.971 o
1 1 24 6.450 5.867 1.660 207.094 o
1 1 25 21.352 23.471 3.372 48.181 o
1 1 26 71.065 87.279 5.668 13.097 o
1 1 27 4.450 7.783 3.045 69.403 o
1 1 28 38.103 33.961 5.858 16.839 o
1 2 0 7042.530 7438.160 24.443 0.005 o
1 2 1 526.304 502.899 2.661 0.958 o
1 2 2 243.593 236.603 1.504 4.181 o
1 2 3 946.093 1024.720 4.772 0.279 o
1 2 4 201.695 236.264 1.465 5.271 o
1 2 5 86.598 86.967 1.176 26.464 o
1 2 6 1018.620 1106.650 4.761 0.241 o
1 2 7 692.017 719.883 5.254 0.524 o
1 2 8 93.106 99.836 1.537 21.830 o
1 2 9 469.612 491.725 3.114 1.121 o
1 2 10 215.000 208.389 1.967 5.219 o
1 2 11 128.021 139.499 2.108 12.092 o
1 2 12 191.598 189.019 2.204 6.313 o
1 2 13 256.835 244.589 2.893 3.702 o
1 2 14 353.472 345.156 3.627 1.989 o
1 2 15 224.143 213.679 3.463 4.611 o
1 2 16 5.277 3.305 0.793 689.532 o
1 2 17 28.327 28.977 1.438 114.175 o
1 2 18 0.943 0.107 0.778 1036.860 o
1 2 19 9.119 9.119 1.181 308.740 o
1 2 20 119.392 113.588 3.607 12.356 o
1 2 21 35.187 36.243 1.930 73.956 o
1 2 22 22.012 17.582 1.742 125.083 o
1 2 23 95.449 99.069 3.594 15.992 o
1 2 24 15.870 18.015 2.685 75.282 o
1 2 25 4.804 8.212 2.367 110.965 o
1 2 26 2.497 1.668 2.719 89.216 o
1 2 27 53.692 61.644 5.540 15.989 o
1 2 28 48.656 52.019 5.539 16.847 o
1 2 29 90.875 90.154 6.731 9.440 o
1 3 0 90.255 94.792 1.022 24.354 o
1 3 1 975.380 1091.380 4.395 0.257 o
1 3 2 325.603 354.294 2.613 2.208 o
1 3 3 273.003 303.698 1.908 3.070 o
1 3 4 719.305 754.248 3.762 0.489 o
1 3 5 86.537 89.972 1.190 25.945 o
1 3 6 44.417 48.864 1.142 71.448 o
1 3 7 33.475 32.919 0.781 123.209 o
1 3 8 50.958 57.589 1.277 56.163 o
1 3 9 782.659 764.246 7.525 0.423 o
1 3 10 40.212 35.486 1.266 86.934 o
1 3 11 26.528 22.401 0.832 174.666 o
1 3 12 259.981 247.395 2.419 3.672 o
1 3 13 287.514 296.345 2.472 2.896 o
1 3 14 15.742 18.665 1.028 239.525 o
1 3 15 32.654 30.097 1.445 101.901 o
1 3 16 538.060 520.975 6.945 0.863 o
1 3 17 90.730 88.289 2.412 21.393 o
1 3 18 49.398 52.650 2.178 47.266 o
1 3 19 51.737 50.327 2.817 38.077 o
1 3 20 105.738 112.289 4.081 12.890 o
1 3 21 112.084 102.597 4.100 12.707 o
1 3 22 96.455 93.430 3.410 16.765 o
1 3 23 12.866 9.797 2.531 89.662 o
1 3 24 8.182 9.688 2.418 102.199 o
1 3 25 5.328 6.648 2.986 71.875 o
1 3 26 125.328 142.829 5.987 7.775 o
1 3 27 45.408 50.038 4.619 22.624 o
1 3 28 49.667 60.545 5.029 18.867 o
1 4 0 1096.520 1156.010 3.981 0.213 o
1 4 1 289.640 324.246 1.283 2.756 o
1 4 2 194.703 194.654 1.603 6.213 o
1 4 3 676.937 693.249 3.202 0.561 o
1 4 4 243.049 258.014 1.787 3.947 o
1 4 5 6.891 8.908 0.939 447.384 o
1 4 6 643.486 668.262 4.658 0.607 o
1 4 7 133.180 136.222 2.617 11.264 o
1 4 8 185.459 178.120 4.576 5.848 o
1 4 9 140.365 141.329 4.288 8.845 o
1 4 10 12.671 10.958 0.829 370.029 o
1 4 11 285.345 270.486 3.745 2.985 o
1 4 12 4.782 2.962 0.975 534.151 o
1 4 13 32.383 26.477 1.535 102.375 o
1 4 14 197.222 186.114 4.321 5.462 o
1 4 15 148.162 143.704 3.661 8.887 o
1 4 16 24.277 23.159 2.036 95.125 o
1 4 17 36.381 35.832 2.423 59.006 o
1 4 18 94.094 92.135 3.020 18.401 o
1 4 19 8.812 8.414 1.789 170.877 o
1 4 20 42.989 39.026 2.817 45.274 o
1 4 21 16.701 14.965 2.573 81.222 o
1 4 22 31.297 33.663 3.039 48.721 o
1 4 23 3.748 1.433 1.996 160.450 o
1 4 24 25.943 22.720 3.758 39.067 o
1 4 25 45.904 52.113 4.697 21.864 o
1 4 26 6.511 4.575 2.824 79.808 o
1 4 27 15.659 15.810 3.684 44.340 o
1 5 0 63.639 63.440 0.881 45.529 o
1 5 1 242.604 249.927 1.719 4.044 o
1 5 2 102.249 103.287 1.080 20.013 o
1 5 3 231.577 244.469 1.778 4.336 o
1 5 4 30.458 28.356 0.579 152.484 o
1 5 5 31.988 33.361 0.769 128.130 o
1 5 6 68.483 63.079 1.618 37.769 o
1 5 7 15.666 17.707 1.691 147.596 o
1 5 8 148.941 148.774 2.011 9.880 o
1 5 9 427.259 409.072 4.446 1.392 o
1 5 10 65.778 66.152 2.157 34.425 o
1 5 11 128.989 121.494 3.125 11.760 o
1 5 12 61.925 64.537 2.575 33.081 o
1 5 13 20.812 20.959 1.918 110.724 o
1 5 14 197.575 194.405 3.887 5.484 o
1 5 15 20.743 19.980 2.195 94.013 o
1 5 16 116.093 113.922 3.613 12.655 o
1 5 17 13.292 12.374 1.911 137.542 o
1 5 18 5.862 2.436 1.736 199.831 o
1 5 19 87.877 79.225 3.959 17.310 o
1 5 20 9.538 4.944 2.050 138.206 o
1 5 21 49.562 44.160 3.596 31.175 o
1 5 22 67.278 72.326 4.759 17.368 o
1 5 23 104.163 106.018 4.455 12.566 o
1 5 24 100.939 108.033 7.407 7.673 o
1 5 25 7.634 10.277 3.740 45.769 o
1 5 26 4.271 1.156 2.341 117.835 o
1 5 27 29.487 18.560 6.561 14.528 o
1 6 0 369.588 374.764 1.753 1.838 o
1 6 1 99.201 97.904 1.280 21.059 o
1 6 2 255.919 259.287 1.698 3.698 o
1 6 3 199.424 197.653 1.505 5.993 o
1 6 4 194.153 203.207 1.727 6.048 o
1 6 5 45.847 48.484 1.215 68.451 o
1 6 6 74.740 76.438 1.196 33.321 o
1 6 7 190.400 189.234 2.645 6.231 o
1 6 8 130.887 133.174 2.286 11.955 o
1 6 9 44.692 42.060 1.805 62.444 o
1 6 10 13.113 11.962 1.267 239.001 o
1 6 11 139.653 146.207 3.353 9.639 o
1 6 12 33.828 34.050 2.283 65.976 o
1 6 13 53.697 48.855 2.097 46.739 o
1 6 14 22.491 21.907 1.723 119.870 o
1 6 15 30.032 28.106 2.170 77.295 o
1 6 16 8.716 3.732 1.225 324.550 o
1 6 17 45.983 47.727 3.061 38.082 o
1 6 18 43.495 41.026 3.539 34.114 o
1 6 19 2.377 0.642 1.571 259.774 o
1 6 20 51.814 53.279 4.351 23.208 o
1 6 21 13.668 11.496 2.980 66.517 o
1 6 22 5.805 3.997 2.083 142.124 o
1 6 23 8.760 7.371 2.956 71.337 o
1 6 24 61.666 52.244 5.159 17.359 o
1 6 25 13.072 7.388 7.498 11.761 o
1 7 0 47.412 44.030 1.362 66.765 o
1 7 1 40.113 43.098 1.005 86.362 o
1 7 2 30.038 29.452 1.201 121.523 o
1 7 3 9.479 9.028 0.885 422.511 o
1 7 4 10.287 11.024 0.830 412.092 o
1 7 5 149.697 152.621 2.761 9.203 o
1 7 6 15.019 14.530 1.178 233.802 o
1 7 7 59.618 59.327 1.724 43.443 o
1 7 8 34.024 32.175 1.736 85.269 o
1 7 9 4.147 4.634 1.140 415.403 o
1 7 10 74.196 70.676 2.173 29.899 o
1 7 11 65.644 63.843 2.512 32.239 o
1 7 12 184.197 183.301 3.580 6.242 o
1 7 13 77.529 77.743 2.837 24.188 o
1 7 14 213.397 217.702 5.175 4.367 o
1 7 15 95.828 100.029 3.913 15.029 o
1 7 16 13.758 11.513 2.241 107.364 o
1 7 17 23.094 21.558 2.973 58.362 o
1 7 18 54.752 50.877 3.431 30.291 o
1 7 19 7.249 3.879 2.666 88.672 o
1 7 20 42.435 41.238 4.329 26.119 o
1 7 21 8.377 11.841 2.780 78.655 o
1 7 22 7.628 7.208 2.949 72.317 o
1 7 23 10.277 8.600 4.395 33.381 o
1 8 0 1.153 0.128 0.494 2261.990 o
1 8 1 17.946 15.213 1.189 209.340 o
1 8 2 126.708 130.777 2.189 12.617 o
1 8 3 76.219 77.652 1.733 30.073 o
1 8 4 51.354 54.355 1.676 52.191 o
1 8 5 70.069 68.783 1.904 33.638 o
1 8 6 21.745 19.828 1.298 163.116 o
1 8 7 75.654 77.442 2.050 28.785 o
1 8 8 38.609 38.250 1.753 73.349 o
1 8 9 124.906 126.467 2.877 12.235 o
1 8 10 1.712 0.928 1.078 534.260 o
1 8 11 18.629 16.649 1.620 147.471 o
1 8 12 34.707 30.512 2.444 62.149 o
1 8 13 57.407 55.281 3.168 31.206 o
1 8 14 54.755 50.693 3.154 33.039 o
1 8 15 17.453 19.381 3.097 58.291 o
1 8 16 20.538 21.041 2.402 82.635 o
1 8 17 10.739 13.260 2.441 95.776 o
1 8 18 8.025 8.766 2.580 91.547 o
1 8 19 88.944 91.116 4.800 13.863 o
1 8 20 12.102 11.078 2.498 91.843 o
1 8 21 12.781 11.959 3.642 46.597 o
1 9 0 1.558 0.282 0.552 1770.280 o
1 9 2 41.516 44.823 2.277 54.400 o
1 9 3 33.549 24.085 4.621 26.336 o
1 9 4 79.899 82.147 3.015 22.250 o
1 9 5 47.381 51.526 2.317 46.966 o
1 9 6 14.537 10.450 1.497 191.831 o
1 9 7 69.245 65.828 2.309 31.901 o
1 9 8 55.333 57.172 2.591 37.419 o
1 9 9 49.889 47.654 2.677 41.427 o
1 9 10 35.244 38.054 2.430 58.870 o
1 9 11 34.047 32.048 2.321 65.606 o
1 9 12 0.295 -0.448 1.294 398.846 o
1 9 13 80.868 79.177 3.443 20.485 o
1 9 14 5.704 3.677 1.774 190.721 o
1 9 15 6.087 7.374 2.248 120.823 o
1 9 16 1.037 -2.489 2.197 138.144 o
1 9 17 46.351 44.098 3.507 33.121 o
1 9 18 1.936 0.012 2.333 121.803 o
1 9 19 10.447 12.492 6.601 15.097 o
1 10 0 0.689 1.116 1.984 168.680 o
1 10 1 6.666 7.785 2.055 140.464 o
1 10 2 43.098 46.070 3.197 37.774 o
1 10 3 19.385 16.102 2.222 97.196 o
1 10 4 7.057 4.072 1.623 216.370 o
1 10 5 70.811 76.894 6.530 11.155 o
1 10 6 1.022 0.536 1.120 513.195 o
1 10 7 33.319 11.482 5.809 18.156 o
1 10 8 7.597 1.543 1.533 241.983 o
1 10 9 77.119 77.575 3.763 19.921 o
1 10 10 33.963 33.820 2.897 50.280 o
1 10 11 39.956 42.612 2.747 47.211 o
1 10 12 0.451 0.615 1.758 215.453 o
1 10 13 20.717 19.078 2.478 79.849 o
1 10 14 1.072 -1.399 2.006 165.349 o
1 10 15 9.646 6.791 2.476 97.968 o
1 10 16 44.896 40.748 7.369 10.904 o
1 11 0 3.610 8.458 3.393 56.509 o
1 11 1 15.402 18.331 3.518 47.813 o
1 11 2 8.624 15.813 9.999 6.667 o
1 11 3 8.583 1.333 4.727 29.489 o
1 11 4 78.723 78.757 8.533 7.232 o
1 11 5 37.837 39.884 7.353 11.188 o
1 11 6 10.946 9.591 5.664 20.387 o
1 11 7 31.003 29.902 4.451 27.962 o
1 11 8 23.676 18.549 5.834 18.383 o
1 11 9 5.305 7.006 2.702 86.747 o
1 11 10 56.230 63.574 7.151 10.626 o
1 11 11 11.251 12.411 4.808 27.832 o
2 0 0 3.065 12.728 1.221 338.315 o
2 0 1 7.471 4.449 0.485 897.228 o
2 0 2 1336.060 1547.790 8.924 0.133 o
2 0 3 982.959 1047.460 4.510 0.262 o
2 0 4 176.139 181.271 1.924 7.242 o
2 0 5 70.125 75.039 1.467 34.672 o
2 0 6 787.557 841.901 3.468 0.405 o
2 0 7 2.578 1.038 0.432 2047.360 o
2 0 8 577.630 617.376 3.581 0.739 o
2 0 9 24.286 23.229 0.877 181.579 o
2 0 10 91.609 89.906 1.958 22.397 o
2 0 11 2.139 2.063 0.671 1129.950 o
2 0 12 406.212 419.828 4.068 1.469 o
2 0 13 5.611 8.568 0.965 461.311 o
2 0 14 1.402 2.729 0.937 670.991 o
2 0 15 18.623 9.705 1.211 219.408 o
2 0 16 94.309 94.068 2.931 18.457 o
2 0 17 82.727 82.149 1.912 26.197 o
2 0 18 17.246 17.359 1.207 204.251 o
2 0 19 0.663 1.091 0.911 762.028 o
2 0 20 43.446 41.492 2.050 58.830 o
2 0 21 7.890 5.859 1.228 321.253 o
2 0 22 52.705 59.530 2.699 36.919 o
2 0 23 60.576 61.268 2.394 35.964 o
2 0 24 15.092 15.723 2.090 113.733 o
2 0 25 0.034 1.508 1.975 171.151 o
2 0 26 9.065 9.886 2.692 83.547 o
2 0 27 78.796 86.395 6.294 11.020 o
2 0 28 5.095 7.062 5.850 19.418 o
2 1 0 30.760 33.904 0.905 126.044 o
2 1 1 37.291 40.214 0.862 99.141 o
2 1 2 360.289 388.725 2.376 1.839 o
2 1 3 199.225 216.361 2.207 5.546 o
2 1 4 103.057 105.093 1.322 19.305 o
2 1 5 274.347 292.236 3.086 3.047 o
2 1 6 978.223 1075.950 4.447 0.259 o
2 1 7 71.521 84.834 1.421 31.943 o
2 1 8 41.806 35.303 0.979 91.495 o
2 1 9 326.392 353.504 2.607 2.205 o
2 1 10 145.265 158.878 1.910 9.831 o
2 1 11 8.030 7.353 0.666 616.801 o
2 1 12 120.080 129.974 2.335 13.247 o
2 1 13 83.263 84.522 2.306 24.123 o
2 1 14 191.455 156.417 2.714 6.839 o
2 1 15 27.052 18.256 1.090 161.813 o
2 1 16 10.721 9.523 1.047 333.668 o
2 1 17 28.482 22.629 1.859 97.809 o
2 1 18 101.698 100.053 2.631 17.451 o
2 1 19 3.015 2.633 0.986 571.693 o
2 1 20 92.142 97.687 2.813 18.873 o
2 1 21 72.503 71.211 2.291 29.734 o
2 1 22 126.174 126.078 3.484 11.338 o
2 1 23 19.158 20.692 2.166 97.553 o
2 1 24 47.943 48.002 5.118 19.281 o
2 1 25 4.703 4.715 2.596 94.927 o
2 1 26 7.883 11.046 3.610 48.787 o
2 1 27 28.340 24.243 4.394 29.497 o
2 1 28 77.926 78.674 8.723 7.004 o
2 2 0 4.595 5.569 0.462 1146.650 o
2 2 1 461.904 507.528 3.055 1.121 o
2 2 2 642.637 696.020 6.514 0.581 o
2 2 3 402.441 431.305 2.642 1.491 o
2 2 4 235.342 247.360 2.892 4.087 o
2 2 5 58.222 61.444 1.647 44.417 o
2 2 6 720.458 754.357 3.802 0.488 o
2 2 7 235.390 248.850 2.351 4.141 o
2 2 8 308.938 318.178 2.897 2.511 o
2 2 9 238.160 255.967 2.855 3.949 o
2 2 10 312.320 316.272 3.295 2.465 o
2 2 11 70.047 71.652 2.153 31.447 o
2 2 12 182.506 175.503 3.038 6.686 o
2 2 13 39.542 44.442 1.461 75.337 o
2 2 14 44.819 43.331 1.644 64.933 o
2 2 15 76.347 76.878 2.208 27.842 o
2 2 16 59.757 47.875 1.966 44.602 o
2 2 17 142.705 140.782 2.940 9.985 o
2 2 18 1.604 1.324 1.065 544.491 o
2 2 19 12.089 10.923 1.432 214.897 o
2 2 20 9.530 9.911 1.437 231.286 o
2 2 21 205.592 210.420 3.915 5.013 o
2 2 22 4.080 4.623 1.604 232.887 o
2 2 23 11.543 13.333 2.079 123.332 o
2 2 24 12.248 13.832 2.413 95.648 o
2 2 25 20.657 21.272 4.075 35.418 o
2 2 26 47.907 42.724 5.407 17.984 o
2 2 27 10.971 14.024 3.426 52.374 o
2 2 28 3.065 4.126 3.983 41.779 o
2 3 0 756.140 846.513 4.823 0.422 o
2 3 1 704.549 767.611 5.497 0.490 o
2 3 2 178.888 178.798 1.809 7.202 o
2 3 3 121.956 118.551 1.672 14.490 o
2 3 4 25.389 26.107 0.952 161.829 o
2 3 5 346.125 348.394 2.424 2.075 o
2 3 6 386.202 415.322 2.986 1.602 o
2 3 7 15.229 12.027 0.622 377.233 o
2 3 8 316.203 325.025 4.241 2.328 o
2 3 9 372.113 390.795 3.552 1.729 o
2 3 10 24.421 22.032 1.570 125.917 o
2 3 11 146.127 140.354 2.324 10.228 o
2 3 12 19.447 15.197 0.866 249.246 o
2 3 13 176.171 162.519 2.240 7.606 o
2 3 14 8.675 11.976 0.971 373.756 o
2 3 15 57.418 54.548 2.123 42.177 o
2 3 16 79.190 77.210 2.841 23.814 o
2 3 17 74.636 67.527 2.368 29.166 o
2 3 18 33.032 30.281 1.575 95.225 o
2 3 19 19.515 16.642 1.851 123.346 o
2 3 20 163.830 162.352 3.777 7.447 o
2 3 21 14.582 14.918 2.214 105.647 o
2 3 22 74.966 75.206 3.944 19.675 o
2 3 23 39.667 35.486 3.205 41.248 o
2 3 24 4.860 2.549 2.427 108.684 o
2 3 25 1.774 4.376 2.119 144.033 o
2 3 26 34.976 36.131 4.096 30.450 o
2 3 27 20.198 15.700 4.430 31.055 o
2 3 28 16.129 18.390 7.313 12.185 o
2 4 0 320.608 323.303 2.393 2.397 o
2 4 1 201.093 222.753 1.789 5.457 o
2 4 2 115.486 108.973 1.522 16.351 o
2 4 3 394.371 381.803 2.997 1.647 o
2 4 4 60.753 67.720 1.264 43.655 o
2 4 5 166.843 159.329 1.653 8.443 o
2 4 6 224.978 232.137 1.724 4.649 o
2 4 7 149.170 150.250 2.349 9.599 o
2 4 8 265.883 278.421 2.405 3.322 o
2 4 9 1.289 1.981 0.387 2667.480 o
2 4 10 13.238 12.252 0.634 411.366 o
2 4 11 79.104 73.703 1.796 29.427 o
2 4 12 36.578 28.703 1.453 94.588 o
2 4 13 119.793 116.004 3.530 12.323 o
2 4 14 311.339 289.239 4.628 2.508 o
2 4 15 83.026 83.067 3.019 21.444 o
2 4 16 26.112 24.764 1.776 104.985 o
2 4 17 31.867 29.351 2.338 68.578 o
2 4 18 11.312 9.888 1.936 142.342 o
2 4 19 24.061 21.638 2.434 77.040 o
2 4 20 59.281 64.799 3.666 25.364 o
2 4 21 131.696 145.449 5.132 8.334 o
2 4 22 46.284 44.310 3.288 35.717 o
2 4 23 71.775 77.277 4.464 17.732 o
2 4 24 38.174 43.033 3.672 33.788 o
2 4 25 6.706 8.416 2.436 103.128 o
2 4 26 0.900 -1.284 2.565 101.695 o
2 4 27 56.258 50.040 8.258 8.535 o
2 5 0 38.142 41.257 0.937 94.036 o
2 5 1 103.377 111.115 2.037 17.457 o
2 5 2 251.163 261.425 2.543 3.692 o
2 5 3 214.729 210.035 1.705 5.242 o
2 5 4 188.153 192.717 2.092 6.406 o
2 5 5 63.375 66.564 0.934 44.260 o
2 5 6 52.336 51.734 1.020 60.856 o
2 5 7 499.486 474.997 4.032 1.048 o
2 5 8 22.613 22.993 1.188 162.749 o
2 5 9 119.971 121.009 2.080 14.126 o
2 5 10 30.551 28.510 1.499 106.006 o
2 5 11 6.841 5.045 1.036 429.219 o
2 5 12 123.981 122.658 3.074 12.258 o
2 5 13 272.232 269.920 5.220 2.978 o
2 5 14 0.203 0.146 1.171 486.397 o
2 5 15 24.432 24.197 2.354 78.694 o
2 5 16 11.318 9.687 1.690 175.859 o
2 5 17 25.550 27.413 2.431 72.640 o
2 5 18 55.272 59.556 3.238 30.575 o
2 5 19 101.053 101.397 4.512 12.940 o
2 5 20 40.238 34.270 2.939 45.860 o
2 5 21 5.867 3.343 2.063 145.188 o
2 5 22 20.437 16.363 2.908 63.678 o
2 5 23 5.421 4.480 2.304 118.139 o
2 5 24 1.265 -0.973 2.125 147.285 o
2 5 25 7.573 5.482 2.336 111.988 o
2 5 26 55.319 75.310 7.543 9.575 o
2 6 0 8.399 8.847 0.636 595.719 o
2 6 1 89.991 86.901 1.414 24.779 o
2 6 2 91.924 87.824 1.450 23.976 o
2 6 3 259.482 274.246 2.723 3.426 o
2 6 4 67.883 61.919 2.049 35.248 o
2 6 5 79.282 77.473 1.621 29.404 o
2 6 6 55.849 52.950 1.798 47.571 o
2 6 7 83.403 89.437 2.387 23.120 o
2 6 8 3.469 1.979 0.538 1342.910 o
2 6 9 12.065 10.953 1.072 301.531 o
2 6 10 65.733 67.299 2.038 35.074 o
2 6 11 28.756 27.755 1.568 107.492 o
2 6 12 96.074 95.501 2.691 18.700 o
2 6 13 15.522 14.849 2.088 113.900 o
2 6 14 61.558 59.689 3.541 26.326 o
2 6 15 93.154 89.899 3.077 18.587 o
2 6 16 3.021 1.948 1.295 361.019 o
2 6 17 55.301 53.006 2.784 36.278 o
2 6 18 0.722 1.234 1.747 216.457 o
2 6 19 58.466 62.415 3.924 24.032 o
2 6 20 15.290 16.907 2.289 98.044 o
2 6 21 55.031 57.741 4.335 22.392 o
2 6 22 53.206 49.245 4.923 19.696 o
2 6 23 90.403 106.774 5.493 11.425 o
2 6 24 35.034 38.011 5.504 18.809 o
2 7 0 0.012 0.701 0.507 2471.900 o
2 7 1 62.552 65.121 1.853 38.734 o
2 7 2 28.708 29.111 1.226 124.860 o
2 7 3 6.619 6.022 1.055 414.596 o
2 7 4 55.155 56.845 1.820 46.385 o
2 7 5 107.437 105.385 2.224 16.904 o
2 7 6 1.222 1.313 0.604 1500.810 o
2 7 7 212.915 218.486 4.092 4.673 o
2 7 8 31.571 27.988 1.752 92.484 o
2 7 9 233.024 240.975 4.877 3.833 o
2 7 10 3.509 5.663 1.531 253.453 o
2 7 11 44.178 44.191 2.284 52.414 o
2 7 12 18.860 18.649 2.204 97.189 o
2 7 13 63.861 69.817 2.875 29.089 o
2 7 14 8.528 8.014 2.131 128.302 o
2 7 15 55.996 55.819 3.468 28.894 o
2 7 16 10.488 9.380 2.135 123.431 o
2 7 17 52.629 64.203 3.708 26.699 o
2 7 18 107.775 119.081 4.173 12.201 o
2 7 19 17.134 18.087 2.552 80.352 o
2 7 20 30.113 32.964 3.023 49.884 o
2 7 21 6.331 6.803 2.973 71.961 o
2 7 22 7.583 6.165 2.601 91.686 o
2 8 0 13.580 12.969 1.197 246.782 o
2 8 1 32.029 31.865 1.923 81.544 o
2 8 2 47.777 53.083 2.872 38.572 o
2 8 3 234.606 247.227 4.038 3.914 o
2 8 4 16.959 17.148 1.594 155.112 o
2 8 5 19.086 19.129 1.837 122.606 o
2 8 6 2.483 2.902 1.179 427.594 o
2 8 7 32.197 32.914 1.972 78.737 o
2 8 8 66.892 73.135 2.694 28.799 o
2 8 9 28.840 32.141 2.066 80.289 o
2 8 10 24.361 19.622 1.735 117.251 o
2 8 11 73.702 74.822 2.904 25.239 o
2 8 12 42.709 45.281 2.616 47.094 o
2 8 13 32.045 35.433 2.752 54.281 o
2 8 14 15.053 12.754 1.931 130.881 o
2 8 15 8.409 7.499 1.817 169.206 o
2 8 16 20.694 17.412 2.742 69.309 o
2 8 17 102.815 119.040 5.270 10.598 o
2 8 18 1.016 1.689 2.436 111.852 o
2 8 19 5.426 7.082 2.415 106.834 o
2 8 20 0.348 -1.332 2.608 98.800 o
2 9 0 45.153 48.161 2.455 47.344 o
2 9 1 74.716 77.107 2.543 26.577 o
2 9 2 79.521 78.915 3.136 22.151 o
2 9 3 20.479 21.376 1.721 125.819 o
2 9 4 16.687 16.727 1.833 131.688 o
2 9 5 36.855 42.424 2.246 60.076 o
2 9 6 5.019 4.051 1.324 319.633 o
2 9 7 13.755 15.150 1.997 124.859 o
2 9 8 19.434 22.365 1.953 109.579 o
2 9 9 113.260 111.875 3.602 13.070 o
2 9 10 39.830 43.855 2.386 53.885 o
2 9 11 29.633 26.414 2.337 72.443 o
2 9 12 36.011 34.252 2.666 54.035 o
2 9 13 27.779 22.002 2.389 74.789 o
2 9 14 18.558 21.909 2.856 64.960 o
2 9 15 7.051 6.740 2.356 110.167 o
2 9 16 22.790 23.045 2.932 59.345 o
2 9 17 31.645 28.141 3.644 38.448 o
2 9 18 25.276 21.178 6.181 16.364 o
2 10 0 0.094 1.144 1.585 264.839 o
2 10 1 37.070 7.646 7.910 10.180 o
2 10 2 41.551 46.973 4.184 27.038 o
2 10 3 31.711 34.843 3.539 39.019 o
2 10 4 25.803 19.807 2.980 57.076 o
2 10 5 59.510 51.166 4.228 22.881 o
2 10 6 59.330 67.954 3.933 23.241 o
2 10 7 36.104 36.327 3.267 41.542 o
2 10 8 45.677 51.824 3.232 35.246 o
2 10 9 25.417 25.603 2.388 75.417 o
2 10 10 53.189 54.885 3.660 28.115 o
2 10 11 41.711 35.355 3.126 41.660 o
2 10 12 6.051 8.189 2.437 103.866 o
2 10 13 3.273 -2.525 2.652 93.735 o
2 10 14 32.507 32.331 4.759 24.651 o
2 11 0 6.426 4.197 3.041 69.497 o
2 11 1 9.652 14.039 4.043 38.776 o
2 11 2 43.883 41.432 4.271 26.342 o
2 11 3 26.820 31.658 5.276 21.277 o
2 11 4 26.454 28.059 4.599 27.293 o
2 11 5 4.465 5.042 2.717 87.051 o
2 11 6 66.026 66.431 4.719 18.064 o
2 11 7 2.568 4.687 3.669 49.154 o
2 11 8 16.395 19.287 4.415 31.542 o
2 11 9 6.594 7.655 3.875 43.226 o
2 11 10 3.221 -2.435 2.424 111.756 o
3 0 1 250.285 284.478 2.312 3.530 o
3 0 2 76.273 83.450 1.522 29.818 o
3 0 3 925.194 1034.820 6.024 0.283 o
3 0 4 718.782 712.840 3.893 0.508 o
3 0 5 48.751 49.871 1.471 59.880 o
3 0 6 158.611 172.997 2.343 8.241 o
3 0 7 4.130 3.817 0.953 558.994 o
3 0 8 373.843 374.353 3.879 1.756 o
3 0 9 51.737 45.230 1.705 55.548 o
3 0 10 38.906 39.118 1.636 75.604 o
3 0 11 41.111 33.944 1.818 71.088 o
3 0 12 66.928 51.355 2.178 37.252 o
3 0 13 6.213 7.138 1.470 251.126 o
3 0 14 1.442 1.193 1.422 318.588 o
3 0 15 26.147 23.154 1.619 116.430 o
3 0 16 103.951 92.924 3.768 14.840 o
3 0 17 153.085 146.268 4.102 8.163 o
3 0 18 0.086 -0.441 1.033 628.429 o
3 0 19 1.147 1.096 1.275 395.559 o
3 0 20 0.021 -1.359 1.136 521.000 o
3 0 21 382.447 403.927 5.231 1.580 o
3 0 22 3.086 3.126 1.180 417.103 o
3 0 23 77.204 81.722 2.944 23.257 o
3 0 24 0.330 -0.962 1.865 192.790 o
3 0 25 1.512 1.765 2.723 89.464 o
3 0 26 42.571 37.170 3.542 34.992 o
3 0 27 3.566 7.439 2.864 78.559 o
3 0 28 60.207 54.630 7.757 9.315 o
3 1 0 0.992 -0.599 0.456 2684.080 o
3 1 1 412.590 434.211 3.226 1.429 o
3 1 2 272.193 293.911 2.529 3.109 o
3 1 3 92.880 101.107 2.015 20.598 o
3 1 4 249.761 265.657 3.125 3.614 o
3 1 5 33.702 33.317 1.090 110.237 o
3 1 6 115.394 111.647 2.150 15.302 o
3 1 7 418.984 412.057 4.074 1.430 o
3 1 8 179.774 163.374 2.336 7.364 o
3 1 9 211.537 210.421 2.861 5.120 o
3 1 10 42.202 39.395 2.455 52.380 o
3 1 11 99.576 90.405 4.051 14.791 o
3 1 12 115.960 99.401 4.463 11.810 o
3 1 13 329.069 291.551 5.075 2.299 o
3 1 14 100.588 99.529 2.952 16.892 o
3 1 15 150.974 143.905 3.459 8.876 o
3 1 16 6.878 4.750 1.197 350.732 o
3 1 17 16.853 13.454 1.521 171.584 o
3 1 18 19.144 13.235 1.521 162.766 o
3 1 19 47.359 45.098 2.175 51.580 o
3 1 20 47.134 44.490 2.098 53.330 o
3 1 21 49.687 47.666 2.240 47.880 o
3 1 22 6.799 8.697 1.384 266.578 o
3 1 23 64.522 63.908 3.016 28.782 o
3 1 24 138.179 144.333 4.475 8.697 o
3 1 25 19.891 18.850 2.506 79.530 o
3 1 26 11.730 13.588 3.319 55.292 o
3 1 27 14.995 16.924 4.396 32.180 o
3 1 28 24.597 25.622 5.688 18.975 o
3 2 0 530.591 554.536 4.639 0.874 o
3 2 1 5.309 2.381 0.685 850.853 o
3 2 2 388.226 416.243 3.408 1.579 o
3 2 3 332.504 342.656 3.137 2.178 o
3 2 4 199.452 205.210 2.950 5.544 o
3 2 5 262.855 243.834 2.151 3.677 o
3 2 6 199.193 198.690 1.991 5.893 o
3 2 7 269.094 269.229 4.025 3.179 o
3 2 8 453.177 437.459 6.840 1.182 o
3 2 9 427.911 436.832 3.277 1.359 o
3 2 10 14.830 10.372 1.046 282.399 o
3 2 11 95.321 90.443 2.739 19.179 o
3 2 12 80.917 71.141 2.848 24.111 o
3 2 13 10.339 11.336 1.527 204.416 o
3 2 14 68.697 60.624 2.458 32.081 o
3 2 15 41.726 40.813 2.238 56.684 o
3 2 16 49.468 52.051 2.464 43.368 o
3 2 17 37.040 32.606 1.835 76.932 o
3 2 18 43.348 43.624 2.029 58.367 o
3 2 19 61.013 62.447 2.465 34.859 o
3 2 20 6.182 7.694 1.274 311.831 o
3 2 21 147.715 153.413 3.338 8.879 o
3 2 22 51.576 53.441 3.025 35.080 o
3 2 23 113.522 112.330 4.786 10.921 o
3 2 24 7.717 8.633 2.091 133.501 o
3 2 25 3.964 2.015 1.996 159.503 o
3 2 26 3.083 5.115 2.769 84.745 o
3 2 27 19.186 12.546 3.587 45.919 o
3 3 0 217.239 243.327 4.393 4.222 o
3 3 1 80.380 81.261 1.373 29.191 o
3 3 2 50.431 54.186 1.087 60.877 o
3 3 3 64.414 65.644 1.654 39.092 o
3 3 4 7.853 7.273 1.432 250.845 o
3 3 5 71.447 74.220 2.305 29.487 o
3 3 6 477.750 480.555 4.890 1.088 o
3 3 7 769.630 749.270 5.306 0.446 o
3 3 8 184.169 177.049 2.792 6.679 o
3 3 9 66.570 67.968 1.995 34.834 o
3 3 10 29.808 33.418 1.614 96.832 o
3 3 11 43.389 38.292 1.740 67.535 o
3 3 12 212.077 204.685 4.115 4.860 o
3 3 13 0.680 1.159 1.213 441.229 o
3 3 14 56.296 58.647 2.373 38.921 o
3 3 15 62.327 69.226 2.246 34.605 o
3 3 16 58.373 59.100 2.237 39.126 o
3 3 17 23.576 21.878 1.423 140.365 o
3 3 18 92.736 87.537 2.622 20.352 o
3 3 19 1.556 1.320 1.186 447.060 o
3 3 20 100.580 99.472 3.026 16.711 o
3 3 21 54.278 56.018 2.900 34.845 o
3 3 22 70.974 70.011 3.524 23.037 o
3 3 23 67.989 66.279 3.464 24.487 o
3 3 24 22.437 25.131 3.323 48.531 o
3 3 25 30.092 25.972 3.347 44.686 o
3 3 26 44.277 45.557 3.666 31.730 o
3 3 27 43.119 42.922 8.024 9.391 o
3 4 0 56.344 53.780 2.678 36.791 o
3 4 1 223.803 203.443 4.779 4.409 o
3 4 2 131.334 127.591 3.327 11.027 o
3 4 3 180.729 174.141 2.572 6.975 o
3 4 4 213.932 209.420 2.322 5.175 o
3 4 5 282.272 292.795 3.878 2.872 o
3 4 6 149.498 152.357 1.933 9.744 o
3 4 7 87.172 83.747 1.651 25.459 o
3 4 8 580.295 572.718 4.628 0.765 o
3 4 9 6.205 6.374 0.827 570.685 o
3 4 10 162.674 154.705 2.884 8.250 o
3 4 11 43.224 42.478 1.787 64.221 o
3 4 12 150.841 153.221 2.779 9.093 o
3 4 13 23.022 21.216 1.148 168.856 o
3 4 14 61.363 60.114 2.612 33.898 o
3 4 15 41.063 41.057 2.145 59.198 o
3 4 16 8.435 10.510 1.982 142.741 o
3 4 17 13.859 13.438 1.860 140.348 o
3 4 18 63.546 57.566 2.611 33.531 o
3 4 19 26.391 19.521 2.550 71.077 o
3 4 20 36.924 45.891 3.305 38.708 o
3 4 21 53.392 58.916 3.897 25.674 o
3 4 22 15.242 18.121 2.446 87.866 o
3 4 23 53.786 65.836 3.793 25.596 o
3 4 24 3.426 2.414 2.474 106.140 o
3 4 25 11.813 10.094 2.766 77.584 o
3 4 26 29.641 39.245 7.725 10.451 o
3 5 0 34.811 30.107 1.468 96.201 o
3 5 1 65.873 65.107 1.798 37.349 o
3 5 2 32.255 34.684 1.370 100.782 o
3 5 3 68.457 64.117 2.092 34.156 o
3 5 4 2.172 1.920 0.690 1084.610 o
3 5 5 141.344 124.623 2.359 11.289 o
3 5 6 80.385 79.995 1.677 28.289 o
3 5 7 46.916 45.896 1.074 71.109 o
3 5 8 251.112 250.308 2.979 3.743 o
3 5 9 43.086 39.566 1.710 67.830 o
3 5 10 124.338 125.490 2.460 12.867 o
3 5 11 30.138 29.179 1.516 105.366 o
3 5 12 157.674 165.316 4.689 7.054 o
3 5 13 12.882 10.208 1.569 188.029 o
3 5 14 74.156 85.673 3.259 22.016 o
3 5 15 43.790 44.671 2.746 44.473 o
3 5 16 10.549 10.965 1.979 137.995 o
3 5 17 7.747 9.720 2.114 129.980 o
3 5 18 123.798 130.750 4.952 9.384 o
3 5 19 116.772 126.506 5.645 8.977 o
3 5 20 169.728 179.465 4.637 6.337 o
3 5 21 3.354 3.435 2.074 148.147 o
3 5 22 84.354 88.392 4.592 15.079 o
3 5 23 38.208 36.374 3.383 38.859 o
3 5 24 0.881 2.809 2.834 82.767 o
3 6 0 21.532 22.505 1.318 156.306 o
3 6 1 7.815 6.473 0.995 422.551 o
3 6 2 34.970 26.448 1.409 102.367 o
3 6 3 280.089 272.526 3.842 3.029 o
3 6 4 45.538 40.682 1.603 66.499 o
3 6 5 31.797 31.383 1.656 93.111 o
3 6 6 91.393 93.411 2.740 19.651 o
3 6 7 169.590 164.836 5.164 6.297 o
3 6 8 235.483 239.140 5.447 3.683 o
3 6 9 33.361 30.670 3.069 47.792 o
3 6 10 23.722 21.434 2.387 79.562 o
3 6 11 13.664 13.073 2.132 115.043 o
3 6 12 77.651 88.170 3.992 18.032 o
3 6 13 57.625 61.344 3.658 26.224 o
3 6 14 37.169 37.250 2.842 48.576 o
3 6 15 105.839 115.082 4.269 12.377 o
3 6 16 2.194 2.168 1.948 170.561 o
3 6 17 65.451 68.866 4.019 21.495 o
3 6 18 12.830 7.920 3.126 62.369 o
3 6 19 21.654 19.036 2.881 62.983 o
3 6 20 37.026 37.409 3.338 39.809 o
3 6 21 4.549 3.946 2.416 109.234 o
3 6 22 23.591 26.894 3.584 42.279 o
3 7 0 13.389 13.725 1.043 280.713 o
3 7 1 82.363 81.713 2.064 25.771 o
3 7 2 49.452 49.565 1.434 59.859 o
3 7 3 166.673 174.803 2.676 7.595 o
3 7 4 11.081 9.903 1.139 297.803 o
3 7 5 79.132 74.704 2.814 24.281 o
3 7 6 44.215 42.665 2.087 56.837 o
3 7 7 44.782 46.683 2.773 42.976 o
3 7 8 19.951 18.058 1.962 112.209 o
3 7 9 55.623 50.581 2.926 35.123 o
3 7 10 17.516 18.871 2.661 74.602 o
3 7 11 25.444 27.218 2.514 69.777 o
3 7 12 2.328 1.686 2.078 150.765 o
3 7 13 25.521 20.887 2.859 60.541 o
3 7 14 0.415 3.662 2.646 94.779 o
3 7 15 23.096 18.422 3.587 43.772 o
3 7 16 57.244 61.276 4.294 21.982 o
3 7 17 0.759 3.206 2.307 124.010 o
3 7 18 4.335 3.095 2.212 129.913 o
3 7 19 141.972 157.571 8.207 5.175 o
3 7 20 14.152 9.989 3.082 62.844 o
3 7 21 6.158 6.538 4.360 34.505 o
3 8 0 30.352 27.703 1.995 84.144 o
3 8 2 9.544 9.871 1.532 210.815 o
3 8 3 113.863 113.385 3.479 13.149 o
3 8 4 92.510 91.841 3.244 18.006 o
3 8 5 21.862 19.900 1.807 117.581 o
3 8 6 75.807 78.651 2.942 23.992 o
3 8 7 59.918 58.363 2.817 32.972 o
3 8 8 50.944 53.003 2.666 39.676 o
3 8 9 40.645 43.886 3.116 40.408 o
3 8 10 35.422 34.272 2.319 63.280 o
3 8 11 47.650 49.386 2.738 41.299 o
3 8 12 1.620 1.418 1.796 202.094 o
3 8 13 35.874 42.839 3.402 38.245 o
3 8 14 1.542 3.017 1.912 177.310 o
3 8 15 68.392 72.147 3.460 23.736 o
3 8 16 3.555 6.914 2.263 122.965 o
3 8 17 64.882 65.431 3.945 22.335 o
3 8 18 6.420 8.130 2.791 80.581 o
3 8 19 10.697 9.195 6.286 16.654 o
3 9 0 6.186 7.634 1.841 171.636 o
3 9 1 94.416 87.355 4.208 15.144 o
3 9 2 21.947 25.580 2.341 81.311 o
3 9 3 35.672 35.455 3.206 42.957 o
3 9 4 20.236 17.412 2.836 66.069 o
3 9 5 43.547 38.288 3.018 41.874 o
3 9 6 26.943 25.027 2.729 62.176 o
3 9 7 22.508 23.196 2.302 83.915 o
3 9 8 60.310 55.723 3.073 31.018 o
3 9 9 7.437 6.792 1.782 178.855 o
3 9 10 10.256 9.783 1.841 157.168 o
3 9 11 82.613 77.564 3.329 20.791 o
3 9 12 23.255 25.116 2.310 81.483 o
3 9 13 62.664 59.661 2.960 30.514 o
3 9 14 1.343 -1.034 1.566 268.037 o
3 9 15 8.393 11.317 2.528 93.464 o
3 9 16 36.938 30.119 5.041 22.016 o
3 10 0 34.016 35.617 3.464 39.267 o
3 10 1 8.829 10.328 2.409 101.816 o
3 10 2 56.179 57.599 4.670 20.199 o
3 10 3 6.610 2.312 2.091 141.183 o
3 10 4 113.556 117.535 4.326 11.498 o
3 10 5 16.900 17.245 2.322 93.632 o
3 10 6 7.209 6.888 2.235 120.843 o
3 10 7 9.540 11.156 2.067 130.303 o
3 10 8 1.038 2.723 1.542 270.702 o
3 10 9 4.196 1.590 1.688 217.895 o
3 10 10 5.111 6.121 2.094 140.144 o
3 10 11 50.708 53.595 3.520 30.241 o
3 10 12 11.750 14.874 3.177 59.530 o
3 11 0 5.243 7.050 4.318 35.244 o
3 11 1 72.066 68.784 6.321 11.834 o
3 11 2 12.096 12.546 3.978 39.656 o
3 11 3 18.536 24.932 7.220 12.355 o
3 11 4 1.240 -4.283 3.658 50.106 o
3 11 5 5.455 0.986 4.670 30.459 o
3 11 6 1.052 1.233 3.479 55.283 o
3 11 7 14.234 0.816 3.652 47.425 o
4 0 0 6.639 6.426 0.882 516.405 o
4 0 1 0.344 1.364 0.587 1729.960 o
4 0 2 15.655 10.825 0.951 294.356 o
4 0 3 1.019 0.954 0.713 1171.230 o
4 0 4 284.820 285.539 3.847 2.888 o
4 0 5 27.392 24.461 1.519 117.847 o
4 0 6 364.327 366.604 4.097 1.827 o
4 0 7 269.106 257.806 4.510 3.195 o
4 0 8 572.062 547.467 6.136 0.786 o
4 0 9 792.043 773.208 6.733 0.417 o
4 0 10 9.922 6.440 1.044 366.157 o
4 0 11 269.683 275.554 4.657 3.049 o
4 0 12 16.217 17.682 1.581 158.291 o
4 0 13 0.660 0.038 1.039 607.097 o
4 0 14 357.364 359.935 5.317 1.833 o
4 0 15 31.741 26.770 2.147 76.882 o
4 0 16 24.614 23.141 1.996 96.784 o
4 0 17 42.580 41.513 2.608 48.477 o
4 0 18 13.658 15.071 1.895 135.124 o
4 0 19 224.855 228.656 4.742 4.134 o
4 0 20 116.427 129.049 4.205 10.996 o
4 0 21 94.776 96.016 3.732 15.909 o
4 0 22 0.164 -1.479 1.546 280.933 o
4 0 23 6.198 3.786 2.118 137.384 o
4 0 24 76.600 86.848 3.625 19.791 o
4 0 25 11.413 15.166 2.822 73.427 o
4 0 26 25.555 23.041 5.118 22.997 o
4 1 0 66.304 62.125 1.516 40.030 o
4 1 1 230.209 221.418 2.445 4.558 o
4 1 2 14.749 10.327 1.037 285.710 o
4 1 3 46.173 42.974 1.561 65.190 o
4 1 4 256.694 242.846 3.151 3.688 o
4 1 5 112.509 109.577 2.544 15.222 o
4 1 6 368.061 362.819 4.558 1.797 o
4 1 7 317.378 312.899 4.225 2.372 o
4 1 8 880.264 865.618 6.423 0.339 o
4 1 9 215.377 202.642 3.643 4.930 o
4 1 10 73.167 70.834 1.994 31.308 o
4 1 11 18.128 19.982 1.355 172.745 o
4 1 12 120.148 108.048 4.456 11.133 o
4 1 13 15.102 8.873 1.542 185.675 o
4 1 14 13.053 9.577 1.784 156.999 o
4 1 15 77.147 82.168 3.139 22.302 o
4 1 16 45.832 45.528 3.103 38.036 o
4 1 17 22.923 21.162 2.155 92.257 o
4 1 18 19.291 19.640 1.967 111.583 o
4 1 19 14.265 13.360 1.942 130.962 o
4 1 20 88.943 86.320 3.728 17.432 o
4 1 21 153.841 171.085 4.304 7.363 o
4 1 22 103.889 104.532 3.407 14.979 o
4 1 23 11.817 13.303 2.220 110.627 o
4 1 24 86.209 91.902 3.790 17.217 o
4 1 25 2.889 6.419 2.391 111.874 o
4 1 26 37.340 32.049 3.301 41.343 o
4 2 0 12.767 9.222 0.834 381.287 o
4 2 1 156.385 131.811 2.213 9.836 o
4 2 2 23.860 22.897 1.408 138.825 o
4 2 3 212.085 223.164 3.926 4.680 o
4 2 4 225.102 220.332 3.544 4.492 o
4 2 5 47.514 44.456 1.559 62.795 o
4 2 6 474.760 449.099 4.120 1.157 o
4 2 7 160.361 158.043 3.910 7.633 o
4 2 8 532.161 526.598 7.986 0.852 o
4 2 9 45.605 44.024 3.752 30.664 o
4 2 10 89.490 87.789 3.147 19.205 o
4 2 11 63.502 66.902 2.628 31.577 o
4 2 12 18.861 19.043 1.657 139.212 o
4 2 13 33.604 30.837 2.579 59.233 o
4 2 14 118.584 124.368 3.182 12.563 o
4 2 15 172.060 174.850 4.096 6.631 o
4 2 16 81.689 88.471 3.223 20.338 o
4 2 17 20.249 16.129 2.005 110.326 o
4 2 18 109.883 118.391 3.070 14.052 o
4 2 19 13.918 15.109 1.817 142.623 o
4 2 20 40.988 37.377 3.064 42.538 o
4 2 21 7.999 6.352 1.863 164.907 o
4 2 22 27.544 30.894 2.803 57.503 o
4 2 23 116.833 128.234 4.149 11.082 o
4 2 24 83.115 96.079 3.854 17.147 o
4 2 25 15.969 14.118 2.457 88.614 o
4 2 26 10.213 6.942 3.690 46.738 o
4 3 0 17.835 19.924 1.214 192.210 o
4 3 1 306.818 283.783 3.043 2.706 o
4 3 2 153.962 137.967 2.414 9.656 o
4 3 3 62.174 58.558 1.733 41.949 o
4 3 4 190.460 181.690 4.342 5.732 o
4 3 5 121.851 116.171 2.902 13.068 o
4 3 6 226.798 227.267 4.126 4.251 o
4 3 7 300.605 299.591 5.312 2.499 o
4 3 8 37.453 40.393 3.091 43.039 o
4 3 9 30.600 30.356 2.296 70.771 o
4 3 10 257.480 247.735 5.959 3.192 o
4 3 11 18.596 16.445 1.679 141.836 o
4 3 12 231.272 220.128 4.389 4.173 o
4 3 13 63.226 63.138 3.479 25.920 o
4 3 14 75.548 76.538 3.541 21.332 o
4 3 15 15.133 13.527 1.790 144.452 o
4 3 16 10.865 13.555 1.897 143.579 o
4 3 17 22.143 19.478 1.897 110.961 o
4 3 18 47.141 48.622 3.252 35.060 o
4 3 19 50.832 48.931 3.314 33.018 o
4 3 20 13.786 15.772 2.565 83.975 o
4 3 21 8.670 13.614 2.356 104.000 o
4 3 22 94.147 103.121 4.923 12.543 o
4 3 23 42.622 40.542 3.460 35.477 o
4 3 24 41.800 43.047 3.862 30.604 o
4 3 25 1.765 4.110 3.694 48.707 o
4 4 0 14.586 11.935 1.158 251.436 o
4 4 1 26.518 21.532 1.490 126.396 o
4 4 2 4.448 3.463 1.023 498.391 o
4 4 3 52.160 55.982 2.323 42.504 o
4 4 4 1.670 0.544 0.466 2216.900 o
4 4 5 56.002 53.638 1.827 46.853 o
4 4 6 332.395 332.292 4.915 2.121 o
4 4 7 185.394 179.815 3.826 6.158 o
4 4 8 52.292 56.111 2.433 41.039 o
4 4 9 56.656 48.638 2.547 39.350 o
4 4 10 73.584 69.759 3.125 24.698 o
4 4 11 171.534 181.557 4.229 6.451 o
4 4 12 38.913 35.837 2.155 63.527 o
4 4 13 10.259 10.362 1.390 236.267 o
4 4 14 70.612 70.701 3.107 25.453 o
4 4 15 168.248 176.032 5.042 6.221 o
4 4 16 35.614 31.885 2.816 51.659 o
4 4 17 130.173 128.333 4.059 10.187 o
4 4 18 5.160 2.462 2.027 152.188 o
4 4 19 21.373 25.090 2.841 62.507 o
4 4 20 2.470 0.894 2.036 157.314 o
4 4 21 52.622 60.819 3.786 26.495 o
4 4 22 119.230 122.747 4.764 10.187 o
4 4 23 64.971 72.309 5.291 15.481 o
4 4 24 61.317 60.886 5.253 16.534 o
4 4 25 14.859 13.680 5.955 18.245 o
4 5 0 0.097 1.196 0.842 911.231 o
4 5 1 268.946 235.667 3.928 3.441 o
4 5 2 69.360 63.251 1.985 34.705 o
4 5 3 52.862 58.376 2.253 42.246 o
4 5 4 32.066 29.956 1.632 94.977 o
4 5 5 241.278 246.036 4.132 3.785 o
4 5 6 83.888 79.684 2.491 23.850 o
4 5 7 156.951 164.533 3.729 7.763 o
4 5 8 20.158 19.442 1.648 135.661 o
4 5 9 166.924 168.974 3.485 7.315 o
4 5 10 27.381 30.654 2.137 80.332 o
4 5 11 4.545 2.333 1.562 247.769 o
4 5 12 66.414 67.183 3.232 26.250 o
4 5 13 74.270 74.278 3.618 21.431 o
4 5 14 10.404 7.155 2.016 138.156 o
4 5 15 0.110 0.040 2.081 155.229 o
4 5 16 28.962 28.314 2.964 53.213 o
4 5 17 29.947 28.939 2.715 58.958 o
4 5 18 28.921 30.288 3.015 51.435 o
4 5 19 4.457 1.387 2.030 154.077 o
4 5 20 55.022 51.344 4.107 24.543 o
4 5 21 23.781 24.909 3.490 44.419 o
4 5 22 10.777 10.624 3.453 52.240 o
4 6 0 2.758 3.425 1.240 384.860 o
4 6 1 4.226 5.913 1.261 344.995 o
4 6 2 3.842 4.828 1.182 394.849 o
4 6 3 168.093 164.216 4.281 6.905 o
4 6 4 4.710 1.783 1.305 340.812 o
4 6 5 21.631 21.517 2.573 73.590 o
4 6 6 6.680 12.085 2.657 86.556 o
4 6 7 33.225 26.353 3.032 49.773 o
4 6 8 87.809 98.008 3.904 16.201 o
4 6 9 9.841 10.134 2.370 103.641 o
4 6 10 193.862 192.339 5.430 5.028 o
4 6 11 43.978 44.703 3.454 34.408 o
4 6 12 5.730 3.715 2.080 142.847 o
4 6 13 148.349 165.449 6.295 6.239 o
4 6 14 65.859 63.197 3.701 23.838 o
4 6 15 50.863 51.236 5.229 18.197 o
4 6 16 5.879 7.925 2.710 85.561 o
4 6 17 33.314 31.325 3.567 38.615 o
4 6 18 35.505 38.339 4.420 26.782 o
4 6 19 2.317 -0.569 2.879 80.241 o
4 6 20 59.782 59.842 5.040 17.704 o
4 6 21 77.042 70.478 7.093 9.772 o
4 7 0 106.744 98.471 2.810 16.355 o
4 7 1 143.220 143.464 3.040 9.761 o
4 7 2 57.483 53.834 2.285 40.537 o
4 7 3 15.848 16.517 1.599 159.639 o
4 7 4 0.534 0.306 1.212 448.988 o
4 7 5 42.026 41.153 2.218 56.705 o
4 7 6 10.442 9.157 2.128 124.320 o
4 7 7 13.707 11.401 1.966 131.957 o
4 7 8 102.587 112.723 3.624 14.158 o
4 7 9 156.043 155.825 4.714 7.310 o
4 7 10 52.328 48.731 3.430 31.367 o
4 7 11 31.477 37.763 3.081 46.727 o
4 7 12 28.624 23.523 3.055 52.439 o
4 7 13 72.887 79.138 4.510 17.278 o
4 7 14 13.502 10.995 2.840 72.656 o
4 7 15 8.196 4.681 2.466 101.253 o
4 7 16 36.359 45.014 4.135 28.780 o
4 7 17 8.438 7.302 3.690 47.120 o
4 7 18 1.333 5.182 2.732 88.060 o
4 7 19 20.369 18.899 3.985 37.154 o
4 8 0 2.049 0.039 0.752 1024.010 o
4 8 1 4.747 1.854 0.872 649.737 o
4 8 2 128.336 127.194 3.492 11.093 o
4 8 3 15.737 12.235 2.155 110.406 o
4 8 4 85.045 82.819 3.154 20.503 o
4 8 5 19.697 17.887 1.867 120.164 o
4 8 6 32.356 35.159 2.625 57.319 o
4 8 7 45.420 43.636 2.473 48.354 o
4 8 8 5.217 5.108 1.670 211.264 o
4 8 9 10.088 4.297 2.041 138.799 o
4 8 10 34.191 30.891 2.383 64.201 o
4 8 11 22.861 20.448 2.124 94.593 o
4 8 12 32.527 28.483 2.581 60.955 o
4 8 13 18.850 18.483 2.846 66.290 o
4 8 14 66.772 66.632 3.691 23.338 o
4 8 15 17.169 14.820 2.338 93.827 o
4 8 16 25.062 25.654 3.043 54.116 o
4 8 17 3.576 2.883 5.539 21.773 o
4 9 0 11.814 12.516 2.665 81.831 o
4 9 1 15.264 17.069 2.570 81.742 o
4 9 2 12.863 15.389 2.779 74.310 o
4 9 3 43.353 41.662 3.791 31.149 o
4 9 4 5.991 3.235 1.524 248.515 o
4 9 5 43.242 53.042 3.624 31.419 o
4 9 6 16.110 13.533 2.593 81.412 o
4 9 7 5.583 3.162 1.824 182.624 o
4 9 8 43.550 42.601 2.827 43.851 o
4 9 9 5.100 7.084 2.113 137.019 o
4 9 10 34.521 28.067 2.495 61.925 o
4 9 11 76.596 71.884 3.423 22.170 o
4 9 12 5.326 3.452 1.883 172.698 o
4 9 13 17.243 19.674 2.788 69.223 o
4 9 14 16.010 18.026 3.613 45.474 o
4 10 0 74.235 71.641 5.452 14.123 o
4 10 1 1.076 -0.563 1.940 176.650 o
4 10 2 11.616 11.895 2.595 86.083 o
4 10 3 11.167 7.532 2.450 97.808 o
4 10 4 0.297 -3.460 2.272 130.105 o
4 10 5 35.506 31.332 3.499 38.951 o
4 10 6 0.849 0.615 1.999 166.424 o
4 10 7 27.323 29.609 3.975 34.458 o
4 10 8 3.064 3.281 2.680 90.903 o
4 10 9 4.480 0.045 2.586 97.562 o
5 0 1 244.715 237.567 3.360 3.928 o
5 0 2 13.299 11.655 1.167 261.337 o
5 0 3 12.305 11.041 1.193 266.137 o
5 0 4 44.275 47.513 2.581 46.046 o
5 0 5 17.945 17.233 1.869 124.797 o
5 0 6 142.484 126.579 2.996 10.505 o
5 0 7 87.718 81.342 2.511 22.582 o
5 0 8 89.383 94.027 2.483 20.820 o
5 0 9 90.608 84.452 2.605 21.202 o
5 0 10 104.327 105.785 2.968 15.820 o
5 0 11 55.441 55.675 2.705 36.484 o
5 0 12 0.230 -0.843 1.409 337.312 o
5 0 13 123.514 125.024 5.176 9.275 o
5 0 14 465.040 485.565 6.793 1.078 o
5 0 15 222.855 235.164 4.987 4.050 o
5 0 16 42.375 40.094 3.600 33.870 o
5 0 17 29.944 26.560 3.331 44.938 o
5 0 18 191.123 209.917 5.067 5.015 o
5 0 19 0.465 -0.853 1.793 208.069 o
5 0 20 6.330 8.865 2.166 127.597 o
5 0 21 2.396 2.134 2.105 146.608 o
5 0 22 66.004 74.768 4.515 18.455 o
5 0 23 207.347 212.182 6.532 4.116 o
5 0 24 25.878 26.898 3.869 36.721 o
5 0 25 0.931 -1.850 4.929 27.667 o
5 1 0 0.625 0.110 0.838 919.672 o
5 1 1 365.863 345.633 4.574 1.862 o
5 1 2 596.145 559.525 5.354 0.743 o
5 1 3 31.783 32.021 2.334 67.466 o
5 1 4 52.552 47.440 2.097 48.051 o
5 1 5 33.368 26.944 1.909 83.763 o
5 1 6 262.632 259.937 7.635 2.762 o
5 1 7 141.136 140.874 3.774 9.318 o
5 1 8 201.182 208.101 3.648 5.248 o
5 1 9 28.952 28.431 2.598 63.359 o
5 1 10 38.487 36.126 2.011 67.656 o
5 1 11 3.794 3.023 1.390 307.718 o
5 1 12 7.247 5.772 1.814 175.584 o
5 1 13 12.253 10.252 2.002 132.559 o
5 1 14 46.197 41.072 3.110 38.729 o
5 1 15 110.526 124.734 4.462 11.222 o
5 1 16 57.449 58.053 3.185 30.593 o
5 1 17 0.296 1.407 1.977 170.346 o
5 1 18 40.787 43.132 2.793 45.764 o
5 1 19 20.229 17.794 2.863 64.957 o
5 1 20 102.161 117.474 3.832 13.501 o
5 1 21 20.780 17.047 2.384 85.557 o
5 1 22 19.107 16.757 2.351 89.505 o
5 1 23 20.029 22.309 2.502 77.823 o
5 1 24 8.522 11.540 3.125 63.524 o
5 2 0 196.807 181.072 2.645 6.142 o
5 2 1 35.450 35.069 1.331 94.847 o
5 2 2 5.989 5.725 1.121 391.831 o
5 2 3 30.531 29.931 1.751 92.637 o
5 2 4 85.841 79.683 2.328 23.994 o
5 2 5 109.798 115.755 3.007 14.338 o
5 2 6 109.298 107.985 2.696 15.511 o
5 2 7 48.724 48.614 1.998 52.042 o
5 2 8 38.927 33.466 2.820 49.095 o
5 2 9 71.863 80.686 3.330 22.709 o
5 2 10 75.696 76.307 3.311 22.443 o
5 2 11 66.397 69.329 2.516 30.867 o
5 2 12 19.084 16.618 1.693 138.719 o
5 2 13 85.207 95.652 3.397 18.409 o
5 2 14 204.498 210.064 4.747 4.789 o
5 2 15 94.915 108.773 3.443 15.800 o
5 2 16 5.325 4.109 1.790 188.257 o
5 2 17 140.528 155.786 4.313 8.403 o
5 2 18 48.381 55.232 4.351 23.635 o
5 2 19 76.335 82.916 3.841 19.259 o
5 2 20 14.127 16.745 2.752 74.124 o
5 2 21 98.740 102.475 6.057 9.945 o
5 2 22 63.547 63.946 3.899 23.014 o
5 2 23 17.381 15.498 2.828 68.987 o
5 2 24 20.735 18.105 5.280 22.352 o
5 3 0 74.998 66.910 2.111 30.678 o
5 3 1 296.268 272.612 4.176 2.797 o
5 3 2 21.621 20.880 1.486 143.341 o
5 3 3 84.529 75.101 2.295 25.145 o
5 3 4 63.593 59.741 1.719 40.818 o
5 3 5 195.216 202.725 4.487 5.217 o
5 3 6 35.113 29.884 2.166 70.394 o
5 3 7 17.268 15.643 2.067 111.698 o
5 3 8 119.142 123.889 4.434 10.642 o
5 3 9 118.249 120.351 3.617 12.125 o
5 3 10 76.988 84.765 2.651 24.300 o
5 3 11 54.094 56.239 2.835 35.554 o
5 3 12 5.685 4.176 1.391 288.740 o
5 3 13 13.333 9.955 1.761 158.472 o
5 3 14 16.785 13.158 1.825 136.818 o
5 3 15 45.836 55.676 2.864 38.970 o
5 3 16 18.235 17.761 2.243 96.317 o
5 3 17 18.064 17.670 2.744 71.115 o
5 3 18 31.669 26.738 2.986 51.577 o
5 3 19 2.966 -0.901 2.077 151.304 o
5 3 20 10.004 9.622 2.811 76.760 o
5 3 21 1.058 0.553 2.414 114.345 o
5 3 22 50.187 49.508 4.075 25.952 o
5 3 23 4.512 7.139 4.038 40.268 o
5 4 0 316.756 317.566 4.855 2.311 o
5 4 1 44.277 43.694 2.448 49.527 o
5 4 2 4.889 5.514 1.368 297.904 o
5 4 3 64.341 68.495 3.116 27.428 o
5 4 4 19.022 17.012 1.831 125.759 o
5 4 5 17.705 18.246 1.910 120.752 o
5 4 6 65.856 70.252 5.407 15.063 o
5 4 7 18.767 18.870 2.411 85.427 o
5 4 8 73.084 70.792 2.711 27.095 o
5 4 9 8.099 7.865 1.447 243.620 o
5 4 10 3.166 1.102 1.209 412.063 o
5 4 11 11.584 11.600 1.660 175.911 o
5 4 12 66.475 62.806 3.255 26.670 o
5 4 13 78.357 79.634 3.348 21.358 o
5 4 14 28.991 27.868 2.341 72.207 o
5 4 15 18.316 14.794 2.235 98.819 o
5 4 16 109.273 114.129 4.931 10.915 o
5 4 17 102.244 104.886 5.619 10.463 o
5 4 18 11.601 13.494 2.959 67.979 o
5 4 19 20.877 17.914 3.321 50.715 o
5 4 20 84.061 84.066 5.254 13.364 o
5 4 21 80.319 79.965 4.896 14.982 o
5 4 22 5.579 9.421 4.861 27.838 o
5 5 0 241.991 224.388 4.300 3.940 o
5 5 1 17.654 19.907 1.963 114.815 o
5 5 2 94.775 94.006 2.970 18.267 o
5 5 3 12.379 14.361 1.535 186.653 o
5 5 4 90.714 86.177 2.977 19.713 o
5 5 5 10.120 13.467 2.059 127.856 o
5 5 6 9.916 6.950 2.086 131.553 o
5 5 7 23.576 26.378 2.995 56.032 o
5 5 8 19.304 19.765 3.139 55.975 o
5 5 9 98.648 98.610 3.879 14.861 o
5 5 10 111.284 108.904 3.767 13.121 o
5 5 11 26.258 29.352 3.626 40.264 o
5 5 12 9.038 13.761 3.152 61.835 o
5 5 13 6.543 4.946 3.188 63.290 o
5 5 14 71.289 78.240 4.654 16.958 o
5 5 15 23.868 25.705 3.803 38.466 o
5 5 16 29.557 31.060 3.415 42.592 o
5 5 17 44.483 36.281 3.631 33.425 o
5 5 18 51.876 47.059 3.876 27.532 o
5 5 19 1.966 -2.703 2.686 92.229 o
5 5 20 4.141 6.471 2.986 72.479 o
5 6 0 13.819 15.715 2.631 80.536 o
5 6 1 6.744 5.621 1.178 355.544 o
5 6 2 28.885 23.915 2.320 75.243 o
5 6 3 2.212 1.869 1.616 244.139 o
5 6 4 1.887 1.488 1.540 270.328 o
5 6 5 84.636 96.291 4.393 15.214 o
5 6 6 222.153 226.522 5.582 3.993 o
5 6 7 1.330 0.574 2.025 161.379 o
5 6 8 3.700 4.356 2.480 104.543 o
5 6 9 19.038 18.881 3.005 60.482 o
5 6 10 8.847 12.693 2.534 91.994 o
5 6 11 31.681 35.584 4.134 30.780 o
5 6 12 51.426 51.387 5.661 16.092 o
5 6 13 14.731 9.699 2.552 86.689 o
5 6 14 51.875 50.916 3.700 28.613 o
5 6 15 40.289 43.797 3.568 34.336 o
5 6 16 156.492 159.859 6.929 5.645 o
5 6 17 28.975 29.479 3.417 43.090 o
5 6 18 35.332 36.192 3.633 36.200 o
5 7 0 10.770 9.783 1.810 159.895 o
5 7 1 123.140 130.461 4.712 9.748 o
5 7 2 57.390 56.804 3.553 27.669 o
5 7 3 82.822 85.421 3.733 18.430 o
5 7 4 50.721 50.390 3.369 32.235 o
5 7 5 54.659 56.235 2.753 36.195 o
5 7 6 28.847 25.930 2.289 75.369 o
5 7 7 17.007 16.238 1.970 119.350 o
5 7 8 19.292 19.821 2.419 83.851 o
5 7 9 41.211 35.824 2.896 45.718 o
5 7 10 19.983 18.258 2.894 63.867 o
5 7 11 12.639 10.318 2.285 106.430 o
5 7 12 9.190 7.456 2.453 99.753 o
5 7 13 15.502 16.228 2.685 76.305 o
5 7 14 17.291 20.596 3.038 59.915 o
5 7 15 0.674 -0.404 2.376 118.611 o
5 7 16 13.604 14.732 3.330 54.011 o
5 8 0 92.839 92.340 3.708 16.493 o
5 8 1 22.852 20.860 2.551 73.712 o
5 8 2 2.476 1.295 1.503 280.145 o
5 8 3 5.021 2.461 1.230 369.440 o
5 8 4 53.359 52.753 3.443 30.316 o
5 8 5 29.544 28.290 3.057 50.656 o
5 8 6 8.963 6.215 1.912 155.545 o
5 8 7 10.763 12.902 2.040 129.061 o
5 8 8 2.990 1.735 1.806 195.584 o
5 8 9 6.345 5.395 2.091 138.951 o
5 8 10 71.447 77.486 4.360 18.203 o
5 8 11 14.093 13.122 2.291 102.079 o
5 8 12 26.317 26.440 2.848 58.513 o
5 8 13 55.916 55.022 4.954 18.853 o
5 9 0 1.899 3.530 2.581 98.563 o
5 9 1 50.031 52.364 4.348 23.621 o
5 9 2 32.406 32.704 3.610 38.022 o
5 9 3 40.778 37.313 4.538 24.945 o
5 9 4 1.176 0.143 2.405 115.262 o
5 9 5 54.529 61.339 4.505 21.130 o
5 9 6 11.993 10.705 3.112 62.609 o
5 9 7 1.147 0.064 1.704 227.767 o
5 9 8 5.565 5.076 2.822 80.364 o
5 9 9 2.276 1.229 2.716 89.644 o
5 9 10 4.368 2.259 3.091 68.557 o
6 0 0 163.911 156.831 6.044 6.058 o
6 0 1 4.793 4.803 1.082 439.244 o
6 0 2 225.541 205.858 3.095 4.752 o
6 0 3 6.182 4.052 1.158 381.761 o
6 0 4 4.085 3.136 0.946 574.977 o
6 0 5 0.962 1.265 1.015 611.948 o
6 0 6 89.040 92.380 2.659 20.500 o
6 0 7 45.610 48.711 2.662 43.651 o
6 0 8 12.762 10.039 1.642 177.186 o
6 0 9 39.477 36.808 2.127 63.186 o
6 0 10 18.782 22.889 2.062 102.960 o
6 0 11 11.866 12.193 1.889 143.637 o
6 0 12 0.414 -2.454 2.454 111.481 o
6 0 13 96.067 113.282 4.502 12.874 o
6 0 14 22.209 21.544 2.662 69.567 o
6 0 15 70.783 84.263 4.617 16.799 o
6 0 16 27.805 27.493 2.988 53.486 o
6 0 17 10.847 14.527 2.701 79.895 o
6 0 18 53.326 58.766 3.584 28.224 o
6 0 19 4.217 4.687 2.768 84.261 o
6 0 20 24.536 21.320 3.850 38.090 o
6 0 21 4.884 -3.051 2.578 97.832 o
6 0 22 0.439 2.141 5.276 24.125 o
6 1 0 58.173 58.721 2.250 39.204 o
6 1 1 40.297 35.112 1.808 71.676 o
6 1 2 63.152 60.019 2.099 37.676 o
6 1 3 49.527 44.422 2.043 52.355 o
6 1 4 73.207 75.806 2.460 27.712 o
6 1 5 6.004 6.253 1.351 292.075 o
6 1 6 8.457 8.654 1.857 161.442 o
6 1 7 14.251 10.345 1.642 171.125 o
6 1 8 4.590 3.771 1.420 288.088 o
6 1 9 36.246 37.720 2.849 48.840 o
6 1 10 9.460 8.448 1.561 208.870 o
6 1 11 8.978 11.682 1.956 143.402 o
6 1 12 61.677 68.833 3.357 26.437 o
6 1 13 10.142 10.512 1.812 160.429 o
6 1 14 127.612 139.045 4.289 9.711 o
6 1 15 26.737 29.482 3.234 47.735 o
6 1 16 69.908 71.149 4.231 19.477 o
6 1 17 51.221 52.800 4.049 25.605 o
6 1 18 16.671 15.913 2.518 83.603 o
6 1 19 16.239 18.867 2.651 76.152 o
6 1 20 18.953 19.276 2.777 68.537 o
6 1 21 13.805 10.847 3.429 51.867 o
6 1 22 13.890 19.707 6.715 14.413 o
6 2 0 403.877 399.680 6.775 1.431 o
6 2 1 12.189 12.266 1.935 137.610 o
6 2 2 56.413 53.185 2.241 41.827 o
6 2 3 24.516 24.466 1.928 99.620 o
6 2 4 9.545 10.657 1.195 292.374 o
6 2 5 6.834 7.592 1.403 264.762 o
6 2 6 10.662 10.028 1.370 239.386 o
6 2 7 0.928 -0.148 1.292 393.526 o
6 2 8 94.959 99.063 3.522 16.259 o
6 2 9 14.533 10.392 2.071 121.230 o
6 2 10 31.436 32.325 2.949 50.994 o
6 2 11 97.744 99.422 4.125 14.298 o
6 2 12 30.470 31.930 2.522 62.933 o
6 2 13 46.291 42.308 3.257 36.471 o
6 2 14 55.792 59.725 3.658 26.873 o
6 2 15 2.990 1.350 1.904 177.315 o
6 2 16 13.700 9.515 2.207 111.658 o
6 2 17 2.713 0.090 2.122 145.488 o
6 2 18 10.367 10.132 2.529 92.076 o
6 2 19 3.952 1.440 2.498 104.204 o
6 2 20 56.632 55.795 6.570 12.335 o
6 2 21 10.905 6.362 3.899 42.020 o
6 3 0 26.018 24.582 2.720 63.316 o
6 3 1 44.230 44.694 4.708 22.556 o
6 3 2 85.027 75.807 4.468 16.133 o
6 3 3 18.741 16.451 2.304 92.847 o
6 3 4 15.245 14.820 1.836 137.477 o
6 3 5 149.639 151.399 6.477 6.285 o
6 3 6 7.369 7.236 1.865 165.156 o
6 3 7 14.216 12.651 2.189 109.863 o
6 3 8 18.087 18.545 2.254 95.341 o
6 3 9 23.298 23.952 2.136 90.678 o
6 3 10 27.826 28.966 2.625 63.208 o
6 3 11 3.280 1.953 1.587 247.604 o
6 3 12 55.290 54.920 3.732 26.986 o
6 3 13 4.792 3.890 1.736 200.968 o
6 3 14 110.973 120.633 3.778 12.542 o
6 3 15 76.935 77.081 3.834 19.679 o
6 3 16 18.539 15.393 2.541 80.882 o
6 3 17 6.044 9.588 2.609 90.995 o
6 3 18 7.327 7.164 3.281 59.279 o
6 3 19 13.777 7.050 3.345 54.953 o
6 3 20 31.399 39.894 4.461 26.963 o
6 3 21 20.294 22.229 6.909 13.427 o
6 4 0 47.490 43.775 2.990 39.234 o
6 4 1 21.290 18.307 2.542 76.764 o
6 4 2 6.450 2.985 2.076 142.785 o
6 4 3 38.425 31.107 2.549 56.179 o
6 4 4 58.643 52.218 3.612 27.467 o
6 4 5 61.871 78.615 3.959 21.591 o
6 4 6 13.564 15.839 2.156 110.922 o
6 4 7 106.608 118.328 5.361 10.219 o
6 4 8 20.232 23.120 2.562 74.624 o
6 4 9 41.579 37.063 3.420 36.977 o
6 4 10 19.341 20.667 2.206 94.950 o
6 4 11 21.154 16.939 2.299 89.706 o
6 4 12 18.830 18.101 2.389 86.947 o
6 4 13 27.093 26.432 2.601 65.623 o
6 4 14 14.730 16.315 3.480 49.286 o
6 4 15 24.204 27.779 4.462 29.127 o
6 4 16 5.862 1.831 3.001 72.047 o
6 4 17 28.675 31.722 4.390 28.849 o
6 4 18 53.835 58.172 4.745 20.055 o
6 4 19 17.927 20.753 6.056 17.371 o
6 5 0 18.132 13.735 2.743 72.596 o
6 5 1 98.342 100.325 6.691 8.949 o
6 5 2 19.941 20.161 2.516 78.333 o
6 5 3 3.392 2.169 1.816 191.753 o
6 5 4 3.011 -0.108 1.951 170.657 o
6 5 5 72.068 77.090 5.068 15.378 o
6 5 6 34.838 35.156 3.466 39.023 o
6 5 7 19.030 24.630 3.071 56.864 o
6 5 8 24.892 22.137 2.742 64.328 o
6 5 9 49.776 45.611 4.694 21.797 o
6 5 10 43.605 44.747 3.768 30.925 o
6 5 11 35.075 38.148 3.900 32.482 o
6 5 12 35.770 36.355 3.730 34.719 o
6 5 13 4.779 1.141 2.748 86.209 o
6 5 14 7.232 10.805 4.414 33.333 o
6 5 15 84.528 92.375 6.557 10.009 o
6 5 16 89.779 93.391 6.489 9.856 o
6 5 17 5.382 2.333 4.034 40.569 o
6 5 18 4.525 -1.091 5.365 23.215 o
6 6 0 1.176 2.485 2.165 140.339 o
6 6 1 100.561 112.988 4.500 12.482 o
6 6 2 0.732 0.811 2.167 141.884 o
6 6 3 25.073 24.464 3.305 47.966 o
6 6 4 16.879 14.730 2.996 63.216 o
6 6 5 52.365 59.468 3.422 29.817 o
6 6 6 15.483 16.726 2.496 85.569 o
6 6 7 7.908 10.677 2.710 83.107 o
6 6 8 1.232 1.300 2.238 132.185 o
6 6 9 18.229 20.183 2.879 64.920 o
6 6 10 23.723 30.708 4.440 29.209 o
6 6 11 23.933 21.898 3.595 42.767 o
6 6 12 19.438 17.480 3.224 54.013 o
6 6 13 68.279 74.747 7.002 10.241 o
6 6 14 25.912 19.201 3.593 42.613 o
6 6 15 21.173 12.686 6.694 14.381 o
6 7 0 0.838 1.098 2.000 165.785 o
6 7 1 61.374 64.505 4.364 20.634 o
6 7 2 10.380 10.190 2.853 74.310 o
6 7 3 3.086 5.669 2.587 96.431 o
6 7 4 68.516 69.721 3.741 22.374 o
6 7 5 54.239 61.052 3.864 25.503 o
6 7 6 5.651 3.777 2.192 129.776 o
6 7 7 9.146 11.153 2.590 88.919 o
6 7 8 1.656 1.636 1.837 193.027 o
6 7 9 14.782 15.684 2.531 84.931 o
6 7 10 21.826 23.353 2.656 69.350 o
6 7 11 97.357 108.603 5.063 11.757 o
6 7 12 1.647 -2.666 3.211 64.828 o
6 8 0 25.787 25.051 2.667 65.053 o
6 8 1 48.583 48.444 3.699 29.814 o
6 8 2 35.926 41.167 3.882 32.111 o
6 8 3 12.099 10.461 2.678 81.744 o
6 8 4 15.248 17.193 2.550 82.719 o
6 8 5 15.296 17.263 2.398 91.015 o
6 8 6 77.192 77.861 5.761 12.730 o
6 8 7 8.767 8.049 3.080 65.962 o
6 8 8 6.377 6.963 3.197 62.637 o
6 8 9 8.377 14.528 5.268 23.468 o
7 0 1 32.175 31.703 2.417 64.661 o
7 0 2 14.815 13.826 1.726 152.358 o
7 0 3 28.233 27.575 2.181 79.417 o
7 0 4 8.674 7.697 1.441 241.992 o
7 0 5 14.954 13.479 1.951 128.334 o
7 0 6 7.806 6.743 1.687 194.693 o
7 0 7 11.640 7.734 1.963 140.912 o
7 0 8 4.756 8.837 2.053 143.304 o
7 0 9 16.692 14.030 2.351 94.175 o
7 0 10 4.365 4.681 1.835 181.942 o
7 0 11 6.333 6.888 1.891 164.364 o
7 0 12 0.824 2.050 1.827 196.866 o
7 0 13 58.224 68.006 5.140 16.977 o
7 0 14 60.275 73.070 4.937 17.375 o
7 0 15 0.685 0.311 2.615 97.901 o
7 0 16 65.996 68.510 5.581 14.504 o
7 0 17 38.797 39.099 3.936 31.020 o
7 0 18 10.553 15.013 6.173 17.160 o
7 1 0 0.461 2.950 1.822 197.763 o
7 1 1 82.691 83.314 3.573 19.243 o
7 1 2 21.112 24.552 2.701 67.741 o
7 1 3 9.669 9.613 1.872 154.824 o
7 1 4 101.763 108.720 3.654 14.424 o
7 1 5 24.453 27.946 2.317 78.097 o
7 1 6 26.501 21.541 2.096 89.780 o
7 1 7 3.036 3.072 1.573 250.188 o
7 1 8 4.460 3.584 1.866 177.544 o
7 1 9 54.688 46.219 3.145 33.960 o
7 1 10 10.088 6.984 2.508 95.258 o
7 1 11 3.256 3.693 2.149 138.369 o
7 1 12 8.618 10.246 2.181 121.376 o
7 1 13 97.571 119.991 5.003 11.427 o
7 1 14 31.461 36.374 3.712 36.215 o
7 1 15 6.552 7.171 2.500 99.069 o
7 1 16 7.025 4.239 2.477 101.745 o
7 1 17 33.945 25.084 3.947 33.795 o
7 1 18 5.936 7.218 4.388 34.066 o
7 2 0 23.875 19.554 3.019 57.111 o
7 2 1 4.848 3.792 2.341 115.777 o
7 2 2 211.873 224.063 8.390 3.383 o
7 2 3 14.029 15.962 3.239 56.290 o
7 2 4 2.792 3.213 1.960 166.183 o
7 2 5 5.330 2.448 1.803 188.247 o
7 2 6 24.500 19.420 2.248 86.441 o
7 2 7 28.696 25.146 2.378 72.576 o
7 2 8 11.710 13.275 2.118 119.516 o
7 2 9 25.484 24.685 2.668 65.419 o
7 2 10 2.027 1.317 2.227 132.493 o
7 2 11 24.776 29.564 2.800 59.934 o
7 2 12 2.047 1.093 2.166 139.938 o
7 2 13 11.538 12.167 2.727 78.975 o
7 2 14 12.006 11.547 2.263 108.196 o
7 2 15 33.096 32.413 3.086 47.148 o
7 2 16 14.564 15.992 3.204 57.130 o
7 2 17 55.891 48.333 9.640 6.515 o
7 2 18 25.547 28.582 9.405 7.327 o
7 3 0 3.214 3.007 2.282 123.935 o
7 3 1 50.489 47.550 3.516 31.227 o
7 3 2 21.497 17.974 3.114 56.066 o
7 3 3 112.731 113.767 6.398 8.453 o
7 3 4 8.800 5.626 2.115 131.585 o
7 3 5 30.963 33.246 3.424 41.487 o
7 3 6 19.106 14.171 2.345 91.437 o
7 3 7 68.092 77.146 3.437 23.372 o
7 3 8 36.019 32.930 2.883 49.656 o
7 3 9 13.846 10.582 2.183 112.555 o
7 3 10 2.701 0.639 1.804 198.338 o
7 3 11 2.689 3.545 1.890 177.989 o
7 3 12 28.001 26.110 2.834 57.911 o
7 3 13 27.906 25.131 2.865 57.443 o
7 3 14 133.666 151.351 5.822 7.416 o
7 3 15 59.364 67.475 5.389 15.846 o
7 3 16 21.357 14.579 4.107 35.457 o
7 4 0 122.841 121.117 6.736 7.481 o
7 4 1 111.899 133.116 6.026 8.548 o
7 4 2 57.880 59.505 4.690 19.725 o
7 4 3 30.366 19.733 3.796 37.623 o
7 4 4 9.249 12.585 2.688 82.588 o
7 4 5 0.807 0.408 2.450 111.361 o
7 4 6 2.861 4.005 2.389 113.374 o
7 4 7 15.894 15.715 2.689 76.006 o
7 4 8 20.469 17.773 3.116 56.580 o
7 4 9 18.182 16.652 2.808 68.814 o
7 4 10 46.049 46.854 3.437 33.579 o
7 4 11 16.958 12.742 3.566 47.067 o
7 4 12 64.957 62.456 4.564 19.208 o
7 4 13 45.417 38.583 3.908 29.780 o
7 4 14 2.429 1.536 3.750 47.389 o
7 5 0 54.813 56.463 6.572 12.406 o
7 5 1 96.869 100.444 5.030 12.186 o
7 5 2 42.060 46.479 4.433 24.846 o
7 5 3 1.443 2.109 2.260 128.995 o
7 5 4 42.875 40.304 3.374 36.568 o
7 5 5 61.056 56.544 3.495 27.206 o
7 5 6 0.417 -0.999 2.890 80.451 o
7 5 7 7.636 8.555 2.607 90.259 o
7 5 8 5.084 2.865 2.906 76.773 o
7 5 9 8.938 8.531 2.574 91.283 o
7 5 10 5.269 7.909 2.880 76.680 o
7 5 11 15.343 19.588 3.488 48.347 o
7 5 12 47.817 46.056 5.000 20.095 o
7 5 13 19.826 15.377 6.569 14.911 o
7 6 0 93.510 105.165 5.437 11.384 o
7 6 1 10.601 9.356 3.352 55.438 o
7 6 2 3.971 -0.155 2.406 112.683 o
7 6 3 6.600 6.459 2.645 89.551 o
7 6 4 17.014 15.686 3.179 56.852 o
7 6 5 30.022 31.198 3.652 38.343 o
7 6 6 37.008 45.443 3.893 31.170 o
7 6 7 14.310 13.238 2.633 81.106 o
7 6 8 2.199 0.836 2.889 79.537 o
7 6 9 16.243 10.068 6.424 15.780 o
7 6 10 11.044 16.992 7.224 12.601 o
7 7 0 2.914 -0.856 3.112 68.583 o
7 7 1 21.401 22.316 6.581 14.681 o
7 7 2 8.545 8.415 4.569 31.172 o
8 0 0 0.060 -0.397 2.658 95.225 o
8 0 1 0.619 0.451 2.834 83.443 o
8 0 2 234.640 256.273 8.712 2.860 o
8 0 3 8.376 7.844 3.029 68.278 o
8 0 4 7.729 7.600 2.774 80.814 o
8 0 5 7.985 6.772 2.790 80.081 o
8 0 6 0.412 0.161 2.322 124.427 o
8 0 7 2.578 1.726 2.806 83.787 o
8 0 8 82.737 95.431 4.734 14.451 o
8 0 9 6.058 8.721 2.891 75.494 o
8 0 10 37.446 37.434 3.197 41.913 o
8 0 11 32.647 34.262 3.370 41.592 o
8 0 12 4.706 2.591 2.933 75.673 o
8 1 0 4.719 3.156 2.898 77.282 o
8 1 1 116.895 119.893 10.278 4.568 o
8 1 2 70.605 80.018 8.387 7.612 o
8 1 3 40.269 44.174 7.830 9.870 o
8 1 4 9.120 11.458 4.082 38.388 o
8 1 5 11.426 6.905 3.482 51.801 o
8 1 6 18.925 23.791 4.417 30.793 o
8 1 7 9.158 7.965 3.267 58.959 o
8 1 8 8.507 9.164 2.936 71.892 o
8 1 9 3.761 2.009 2.645 93.218 o
8 1 10 58.837 77.434 4.696 18.382 o
8 1 11 10.521 11.192 2.443 97.064 o
8 1 12 2.710 5.466 2.894 77.916 o
8 1 13 38.720 36.236 5.305 19.747 o
8 2 0 47.351 45.184 6.264 14.154 o
8 2 1 31.802 35.842 3.712 36.194 o
8 2 2 70.633 78.442 6.258 11.802 o
8 2 3 27.485 26.866 3.638 40.062 o
8 2 4 7.953 4.085 3.806 44.829 o
8 2 5 25.190 22.550 3.489 44.348 o
8 2 6 3.486 4.536 3.031 71.126 o
8 2 7 2.953 4.292 3.020 71.887 o
8 2 8 70.725 80.238 5.444 14.083 o
8 2 9 55.836 55.530 4.145 23.718 o
8 2 10 0.635 1.747 2.187 138.816 o
8 2 11 11.644 9.382 2.453 96.103 o
8 2 12 18.532 22.495 3.847 39.517 o
8 3 0 68.024 76.875 6.326 11.821 o
8 3 1 27.562 27.222 3.829 36.856 o
8 3 2 137.854 166.593 6.641 6.289 o
8 3 3 2.673 4.095 2.772 85.142 o
8 3 4 14.435 14.107 4.518 30.842 o
8 3 5 10.247 7.910 3.370 55.262 o
8 3 6 3.700 2.047 3.678 48.952 o
8 3 7 117.048 121.655 6.514 7.954 o
8 3 8 0.065 -4.599 3.113 69.436 o
8 3 9 7.574 4.592 4.124 38.396 o
8 3 10 7.359 5.825 4.884 27.581 o
8 3 11 9.712 6.201 4.727 29.186 o
8 4 0 56.833 57.262 4.761 19.628 o
8 4 1 3.280 4.621 2.516 101.988 o
8 4 2 26.645 26.284 3.124 51.069 o
8 4 3 46.214 48.641 4.938 20.506 o
8 4 4 42.913 38.085 4.155 27.936 o
8 4 5 47.322 52.580 5.189 18.705 o
8 4 6 5.910 8.557 6.698 14.824 o
8 4 7 5.936 4.323 5.600 21.191 o
8 4 8 7.783 4.339 5.842 19.424 o
8 5 0 9.335 10.133 5.454 22.011 o
8 5 1 18.776 9.979 5.697 19.756 o
8 5 2 12.504 18.487 6.545 15.205 o
8 5 3 26.729 26.349 7.127 12.415 o
8 5 4 11.237 13.655 6.682 14.707 o
8 5 5 77.938 75.517 9.155 6.512 o
8 5 6 29.440 37.128 8.072 9.656 o
;
_iucr_refine_instructions_details
;
TITL fk_03422_int_db_a.res in P2(1)2(1)2(1)
REM Old TITL fk_03422_int_db in P212121 #19
REM SHELXT solution in P2(1)2(1)2(1): R1 0.070, Rweak 0.019, Alpha 0.000
REM <I/s> 0.000 for 0 systematic absences, Orientation as input
REM Flack x = -0.226 ( 0.437 ) from 473 Parsons' quotients
REM Formula found by SHELXT: C5 N O4
CELL 0.71073 5.1392 6.8803 17.2272 90 90 90
ZERR 4 0.0028 0.0026 0.0077 0 0 0
LATT -1
SYMM 0.5-X,-Y,0.5+Z
SYMM -X,0.5+Y,0.5-Z
SYMM 0.5+X,0.5-Y,-Z
SFAC C H N O
UNIT 20 36 4 16

L.S. 10
PLAN  20
CONF
BOND
FMAP 2
list 4
MORE -1
BOND $H
ACTA
OMIT 1 9 1
OMIT 3 8 1
OMIT 4 10 10
WGHT 0.049632 0.063804
FVAR 1.112474
REM <olex2.extras>
REM <HklSrc "%.\\fk_03422_int_db.hkl">
REM </olex2.extras>

O001  4     0.27647  0.40826  0.79311  11.00000  0.01025  0.01851  0.00724 =
 -0.00176  0.00070  0.00051
O002  4    -0.00111  0.55361  0.42186  11.00000  0.01301  0.01667  0.00645 =
 0.00236 -0.00052  0.00151
O003  4     0.66898  0.41799  0.73633  11.00000  0.00761  0.01572  0.01237 =
 -0.00322 -0.00040 -0.00101
O004  4     0.36169  0.43182  0.47587  11.00000  0.01288  0.01972  0.00965 =
 -0.00035  0.00089  0.00529
N005  3     0.08791  0.20330  0.66841  11.00000  0.00901  0.00988  0.00824 =
 0.00009 -0.00049 -0.00170
C006  1     0.42764  0.39310  0.73557  11.00000  0.00779  0.00845  0.00745 =
 -0.00069 -0.00094 -0.00007
C007  1     0.14306  0.50147  0.48139  11.00000  0.01093  0.00899  0.00775 =
 0.00045  0.00029 -0.00057
C008  1     0.00739  0.53840  0.55737  11.00000  0.01160  0.01408  0.00729 =
 0.00082  0.00124  0.00390
C009  1     0.29602  0.35196  0.65747  11.00000  0.00751  0.00906  0.00652 =
 -0.00071  0.00044 -0.00104
C00A  1     0.18351  0.54493  0.62879  11.00000  0.01486  0.00873  0.00725 =
 -0.00005 -0.00013 -0.00008
H00d  2    -0.08329  0.66030  0.55358  11.00000  0.01552
H00e  2    -0.12871  0.43594  0.56091  11.00000  0.01298
H009  2     0.40922  0.29913  0.62114  11.00000  0.01478
H00f  2     0.33927  0.63054  0.61708  11.00000  0.02323
H00g  2     0.08803  0.61021  0.66965  11.00000  0.01132
H002  2     0.08786  0.55943  0.37984  11.00000  0.03046
H00a  2     0.02649  0.16235  0.62115  11.00000  0.02425
H00b  2     0.14720  0.09748  0.69458  11.00000  0.01619
H00c  2    -0.05083  0.25377  0.69272  11.00000  0.01664
HKLF 4

END
Q1 1 0.05556 0.54167 0.51667 11 0.05 0.43
Q2 1 0.55556 0.375 0.73333 11 0.05 0.43
Q3 1 0.33333 0.375 0.76667 11 0.05 0.42
Q4 1 0.11111 0.54167 0.58333 11 0.05 0.34
Q5 1 0.33333 0.375 0.7 11 0.05 0.34
Q8 1 0.27778 0.45833 0.65 11 0.05 0.27
Q7 1 0.27778 0.5 0.48333 11 0.05 0.29
Q6 1 0.05556 0.54167 0.45 11 0.05 0.3

  REM The information below was added by Olex2.
  REM
  REM R1 = 0.0371 for 2855 Fo > 4sig(Fo) and 0.0476 for all 3288 data
  REM 127 parameters refined using 0 restraints
  REM Highest difference peak 0.4339, deepest hole -0.2639
  REM Mean Shift 0.0001, Max Shift -0.0004.

  REM +++ Tabular Listing of Refinement Information +++
  REM R1_all = 0.0476
  REM R1_gt = 0.0371
  REM wR_ref = 0.0923
  REM GOOF = 1.0659
  REM Shift_max = -0.0004
  REM Shift_mean = 0.0001
  REM Reflections_all = 3288
  REM Reflections_gt = 2855
  REM Parameters = 127
  REM Hole = -0.2639
  REM Peak = 0.4339
  REM Flack = -0.2(3)

  
;
_olex2_exptl_crystal_mounting_method  'Cryo loop'
_olex2_submission_special_instructions  'No special instructions were received'
