data_fk_03479_int_db_v128
_audit_creation_date               2024-03-13
_audit_creation_method
;
Olex2 1.5-alpha
(compiled 2023.11.24 svn.r209d9fb2 for OlexSys, GUI svn.r6869)
;
_audit_contact_author_address      ?
_audit_contact_author_email        ?
_audit_contact_author_name         ''
_audit_contact_author_phone        ?
_publ_contact_author_id_orcid      ?
_publ_section_references
;
Bourhis, L.J., Dolomanov, O.V., Gildea, R.J., Howard, J.A.K., Puschmann, H.
 (2015). Acta Cryst. A71, 59-75.

Dolomanov, O.V., Bourhis, L.J., Gildea, R.J, Howard, J.A.K. & Puschmann, H.
 (2009), J. Appl. Cryst. 42, 339-341.
;
_chemical_name_systematic          'Aminoacetic acid'
_chemical_formula_moiety           'C2 H5 N O2'
_chemical_formula_sum              'C2 H5 N O2'
_chemical_formula_weight           75.068
loop_
  _atom_type_symbol
  _atom_type_scat_dispersion_real
  _atom_type_scat_dispersion_imag
  _atom_type_scat_Cromer_Mann_a1
  _atom_type_scat_Cromer_Mann_a2
  _atom_type_scat_Cromer_Mann_a3
  _atom_type_scat_Cromer_Mann_a4
  _atom_type_scat_Cromer_Mann_b1
  _atom_type_scat_Cromer_Mann_b2
  _atom_type_scat_Cromer_Mann_b3
  _atom_type_scat_Cromer_Mann_b4
  _atom_type_scat_Cromer_Mann_c
  _atom_type_scat_source
  _atom_type_scat_dispersion_source
 C 0.00313 0.00162 2.31000 1.02000 1.58860 0.86500 20.84390 10.20750 0.56870
 51.65120 0.21560 'International Tables Volume C Table 6.1.1.4 (pp. 500-502)'
 'Brennan, Cowan, Rev. Sci. Instrum., 1992, 63, 850'
 H 0.00000 0.00000 0.49300 0.32291 0.14019 0.04081 10.51090 26.12570 3.14236
 57.79970 0.00304 'International Tables Volume C Table 6.1.1.4 (pp. 500-502)'
 'Brennan, Cowan, Rev. Sci. Instrum., 1992, 63, 850'
 N 0.00612 0.00332 12.21260 3.13220 2.01250 1.16630 0.00570 9.89330 28.99750
 0.58260 -11.52900 'International Tables Volume C Table 6.1.1.4 (pp. 500-502)'
 'Brennan, Cowan, Rev. Sci. Instrum., 1992, 63, 850'
 O 0.01085 0.00610 3.04850 2.28680 1.54630 0.86700 13.27710 5.70110 0.32390
 32.90890 0.25080 'International Tables Volume C Table 6.1.1.4 (pp. 500-502)'
 'Brennan, Cowan, Rev. Sci. Instrum., 1992, 63, 850'

_space_group_crystal_system        'monoclinic'
_space_group_IT_number             14
_space_group_name_H-M_alt          'P 1 21/n 1'
_space_group_name_Hall             '-P 2yn'
loop_
  _space_group_symop_id
  _space_group_symop_operation_xyz
 1 x,y,z
 2 -x+1/2,y+1/2,-z+1/2
 3 -x,-y,-z
 4 x-1/2,-y-1/2,z-1/2

_symmetry_Int_Tables_number        14
_cell_length_a                     5.086(4)
_cell_length_b                     11.773(11)
_cell_length_c                     5.478(6)
_cell_angle_alpha                  90
_cell_angle_beta                   111.96(7)
_cell_angle_gamma                  90
_cell_volume                       304.2(5)
_cell_formula_units_Z              4
_cell_measurement_temperature      100
_exptl_absorpt_coefficient_mu      0.146
_exptl_absorpt_correction_T_max    1
_exptl_absorpt_correction_T_min    1
_exptl_absorpt_correction_type     multi-scan
_exptl_crystal_colour              'clear colourless'
_exptl_crystal_colour_lustre       clear
_exptl_crystal_colour_modifier     .
_exptl_crystal_colour_primary      colourless
_exptl_crystal_density_diffrn      1.639
_exptl_crystal_description         block
_exptl_crystal_F_000               160.146
_exptl_crystal_preparation         ?
_exptl_crystal_size_max            0.16
_exptl_crystal_size_mid            0.11
_exptl_crystal_size_min            0.09
_diffrn_reflns_av_R_equivalents    0.0162
_diffrn_reflns_av_unetI/netI       0.0093
_diffrn_reflns_Laue_measured_fraction_full  1.0000
_diffrn_reflns_Laue_measured_fraction_max  0.9703
_diffrn_reflns_limit_h_max         9
_diffrn_reflns_limit_h_min         -8
_diffrn_reflns_limit_k_max         21
_diffrn_reflns_limit_k_min         -17
_diffrn_reflns_limit_l_max         9
_diffrn_reflns_limit_l_min         -9
_diffrn_reflns_number              16509
_diffrn_reflns_point_group_measured_fraction_full  1.0000
_diffrn_reflns_point_group_measured_fraction_max  0.9703
_diffrn_reflns_theta_full          25.2417
_diffrn_reflns_theta_max           39.73
_diffrn_reflns_theta_min           3.46
_diffrn_ambient_temperature        100
_diffrn_detector                   Pilatus200K
_diffrn_detector_area_resol_mean   5.81
_diffrn_detector_type              'DECTRIS PILATUS 200K'
_diffrn_measured_fraction_theta_full  1.0000
_diffrn_measured_fraction_theta_max  0.9703
_diffrn_measurement_device         'Eulerian 4-circle diffractometer'
_diffrn_measurement_device_type    'STOE STADIVARI'
_diffrn_measurement_method         'rotation method, \w scans'
_diffrn_radiation_collimation      '0.6 mm diameter'
_diffrn_radiation_monochromator    'Graded multilayer mirror'
_diffrn_radiation_probe            x-ray
_diffrn_radiation_type             'Mo K\a'
_diffrn_radiation_wavelength       0.71073
_diffrn_source                     'Genix Mo'
_reflns_Friedel_coverage           0.0
_reflns_limit_h_max                5
_reflns_limit_h_min                -9
_reflns_limit_k_max                20
_reflns_limit_k_min                0
_reflns_limit_l_max                9
_reflns_limit_l_min                -4
_reflns_number_gt                  1614
_reflns_number_total               1796
_reflns_threshold_expression       I>=2u(I)
_computing_molecular_graphics      'Olex2 1.5-alpha (Dolomanov et al., 2009)'
_computing_publication_material    'Olex2 1.5-alpha (Dolomanov et al., 2009)'
_computing_structure_refinement   
 'olex2.refine 1.5-alpha (Bourhis et al., 2015)'
_computing_structure_solution     
 'olex2.solve 1.5-alpha (Bourhis et al., 2015)'
_refine_diff_density_max           0.4708
_refine_diff_density_min           -0.3163
_refine_diff_density_rms           0.0664
_refine_ls_d_res_high              0.5560
_refine_ls_d_res_low               5.8866
_refine_ls_goodness_of_fit_ref     1.0711
_refine_ls_hydrogen_treatment      constr
_refine_ls_matrix_type             full
_refine_ls_number_constraints      5
_refine_ls_number_parameters       61
_refine_ls_number_reflns           1796
_refine_ls_number_restraints       0
_refine_ls_R_factor_all            0.0354
_refine_ls_R_factor_gt             0.0312
_refine_ls_restrained_S_all        1.0711
_refine_ls_shift/su_max            -0.0006
_refine_ls_shift/su_mean           0.0001
_refine_ls_structure_factor_coef   Fsqd
_refine_ls_weighting_details      
 'w=1/[\s^2^(Fo^2^)+(0.0457P)^2^+0.0839P] where P=(Fo^2^+2Fc^2^)/3'
_refine_ls_weighting_scheme        calc
_refine_ls_wR_factor_gt            0.0854
_refine_ls_wR_factor_ref           0.0899
_olex2_refinement_description
;
1. Fixed Uiso
 At 1.2 times of:
  All C(H,H) groups, All N(H,H,H) groups
;
_atom_sites_solution_primary       iterative
loop_
  _atom_site_label
  _atom_site_type_symbol
  _atom_site_fract_x
  _atom_site_fract_y
  _atom_site_fract_z
  _atom_site_U_iso_or_equiv
  _atom_site_adp_type
  _atom_site_occupancy
  _atom_site_refinement_flags_posn
 O O 0.19755(8) 0.59370(4) -0.23649(7) 0.00989(8) Uani 1.000000 .
 O1 O 0.65506(8) 0.64235(4) -0.10650(8) 0.01089(9) Uani 1.000000 .
 N N 0.20450(9) 0.58860(4) 0.25950(8) 0.00882(8) Uani 1.000000 .
 Ha H 0.029(2) 0.6158(9) 0.144(2) 0.01059(10) Uiso 1.000000 R
 Hb H 0.210(2) 0.5132(9) 0.230(2) 0.01059(10) Uiso 1.000000 R
 Hc H 0.217(2) 0.5981(9) 0.435(2) 0.01059(10) Uiso 1.000000 R
 C4 C 0.43030(10) 0.62505(4) -0.06569(9) 0.00723(8) Uani 1.000000 .
 C5 C 0.44171(10) 0.64573(4) 0.21413(9) 0.00818(9) Uani 1.000000 .
 H5a H 0.427(2) 0.7252(9) 0.234(2) 0.00982(10) Uiso 1.000000 R
 H5b H 0.621(2) 0.6188(9) 0.350(2) 0.00982(10) Uiso 1.000000 R

loop_
  _atom_site_aniso_label
  _atom_site_aniso_U_11
  _atom_site_aniso_U_22
  _atom_site_aniso_U_33
  _atom_site_aniso_U_12
  _atom_site_aniso_U_13
  _atom_site_aniso_U_23
 O 0.00873(15) 0.01390(16) 0.00717(15) -0.00206(11) 0.00311(11) -0.00124(11)
 O1 0.00797(15) 0.01585(18) 0.01090(16) -0.00017(11) 0.00589(12) 0.00137(12)
 N 0.00847(16) 0.01190(17) 0.00704(16) -0.00186(12) 0.00398(12) -0.00060(12)
 C4 0.00793(16) 0.00749(16) 0.00723(16) 0.00064(12) 0.00395(13) 0.00057(12)
 C5 0.00763(16) 0.01041(18) 0.00736(17) -0.00138(12) 0.00380(13) -0.00112(13)

loop_
  _geom_bond_atom_site_label_1
  _geom_bond_atom_site_label_2
  _geom_bond_distance
  _geom_bond_site_symmetry_2
  _geom_bond_publ_flag
 O C4 1.2589(14) . ?
 O1 C4 1.2608(12) . ?
 N Ha 0.935(11) . ?
 N Hb 0.904(11) . ?
 N Hc 0.948(11) . ?
 N C5 1.4813(12) . ?
 C4 C5 1.5316(17) . ?
 C5 H5a 0.948(10) . ?
 C5 H5b 0.991(11) . ?

loop_
  _geom_angle_atom_site_label_1
  _geom_angle_atom_site_label_2
  _geom_angle_atom_site_label_3
  _geom_angle
  _geom_angle_site_symmetry_1
  _geom_angle_site_symmetry_3
  _geom_angle_publ_flag
 Hb N Ha 107.5(9) . . ?
 Hc N Ha 109.2(9) . . ?
 Hc N Hb 107.5(9) . . ?
 C5 N Ha 111.2(6) . . ?
 C5 N Hb 109.7(7) . . ?
 C5 N Hc 111.6(7) . . ?
 O1 C4 O 125.35(5) . . ?
 C5 C4 O 117.62(4) . . ?
 C5 C4 O1 117.02(4) . . ?
 C4 C5 N 111.55(4) . . ?
 H5a C5 N 109.0(6) . . ?
 H5a C5 C4 107.3(6) . . ?
 H5b C5 N 107.9(6) . . ?
 H5b C5 C4 112.4(6) . . ?
 H5b C5 H5a 108.6(9) . . ?

loop_
  _geom_torsion_atom_site_label_1
  _geom_torsion_atom_site_label_2
  _geom_torsion_atom_site_label_3
  _geom_torsion_atom_site_label_4
  _geom_torsion
  _geom_torsion_site_symmetry_1
  _geom_torsion_site_symmetry_2
  _geom_torsion_site_symmetry_3
  _geom_torsion_site_symmetry_4
  _geom_torsion_publ_flag
 O C4 C5 N 19.39(5) . . . . ?
 O1 C4 C5 N -161.49(5) . . . . ?

loop_
  _diffrn_refln_index_h
  _diffrn_refln_index_k
  _diffrn_refln_index_l
  _diffrn_refln_intensity_net
  _diffrn_refln_intensity_u
 -5 11 1 15.16 0.89
 -5 13 2 29.21 1.4
 -5 15 2 4.36 0.81
 -4 4 -1 5.01 0.22
 -4 4 0 14.83 0.33
 -4 5 -1 42.15 0.71
 -4 5 0 190.05 1.48
 -4 5 1 11.56 0.48
 -4 6 -2 17.93 0.6
 -4 6 -1 44.89 0.86
 -4 6 0 81.43 1.16
 -4 6 1 275.07 2.33
 -4 7 -1 17.37 0.63
 -4 7 0 237.48 2.18
 -4 7 1 32.39 0.92
 -4 7 2 46.19 1.22
 -4 8 -2 32.85 0.95
 -4 8 0 31.09 0.91
 -4 8 1 60.04 1.32
 -4 8 2 37.21 1.19
 -4 9 0 10.22 0.65
 -4 10 -2 2.26 0.46
 -4 10 2 2.23 0.55
 -4 10 3 14.73 1
 -4 11 -1 4.24 0.57
 -4 11 0 0.41 0.43
 -4 11 2 15.78 1.01
 -4 11 3 168.18 3.12
 -4 12 -1 0.6 0.4
 -4 12 1 52.32 1.61
 -4 12 2 39.06 1.52
 -4 12 3 2.08 0.74
 -4 13 -1 18.69 1.08
 -4 13 0 0.31 0.44
 -4 13 1 49.76 1.67
 -4 13 2 196.89 3.42
 -4 14 -1 14.74 1.06
 -4 14 0 4.51 0.73
 -4 14 1 14.66 1.14
 -4 14 2 1.16 0.74
 -4 14 3 16.91 1.34
 -4 15 -1 0.85 0.56
 -4 15 0 77.18 2.2
 -4 15 1 4.55 0.89
 -4 15 3 76.68 2.51
 -4 16 0 5.84 0.93
 -4 16 1 36.45 1.75
 -4 16 2 20.85 1.51
 -4 16 3 2.41 0.84
 -4 17 0 4.83 0.89
 -4 17 1 29.22 1.69
 -4 17 2 33.2 1.85
 -4 17 3 12.8 1.47
 -4 18 1 3.09 0.89
 -4 18 2 2.74 1.02
 -4 18 3 9.55 1.4
 -3 1 -1 0.09 0.07
 -3 3 0 27.01 0.44
 -3 4 0 274.61 1.7
 -3 4 1 205.39 1.72
 -3 5 -1 10.5 0.45
 -3 5 0 283.52 2
 -3 5 1 260.04 2.14
 -3 5 2 346.33 2.89
 -3 6 -1 1.15 0.26
 -3 6 0 49.92 0.98
 -3 6 1 128.92 1.67
 -3 6 2 173.55 2.17
 -3 7 -1 71.66 1.26
 -3 7 1 0.87 0.3
 -3 7 2 24.22 0.92
 -3 8 -1 0.06 0.28
 -3 8 0 220.8 2.42
 -3 8 1 23.8 0.89
 -3 8 2 18.13 0.88
 -3 9 0 59.14 1.39
 -3 9 3 3.88 0.65
 -3 10 -2 19.89 0.95
 -3 10 2 2.06 0.49
 -3 10 3 16.4 1.05
 -3 11 -3 10.61 0.85
 -3 11 -2 35.64 1.28
 -3 11 0 192.36 2.77
 -3 11 2 92.23 2.14
 -3 11 3 7.99 0.89
 -3 12 -3 14.57 0.98
 -3 12 -2 209.69 3.12
 -3 12 -1 0.74 0.5
 -3 12 0 58.48 1.68
 -3 12 2 0.26 0.44
 -3 13 -4 24.68 1.32
 -3 13 -3 0.12 0.46
 -3 13 -2 0.49 0.58
 -3 13 -1 2.53 0.62
 -3 13 0 -0.28 0.38
 -3 13 3 -0.21 0.58
 -3 13 4 40.35 1.92
 -3 14 -3 0.07 0.55
 -3 14 -2 1.34 0.56
 -3 14 -1 -0.3 0.53
 -3 14 0 104.23 2.46
 -3 14 2 1.5 0.71
 -3 14 3 3.16 0.89
 -3 14 4 1.82 0.93
 -3 15 -3 14.99 1.2
 -3 15 -2 4.45 0.86
 -3 15 -1 58.04 1.96
 -3 15 1 6.29 0.89
 -3 15 2 41.39 1.83
 -3 15 3 3.45 0.89
 -3 15 4 2.26 0.93
 -3 16 -3 1.3 0.73
 -3 16 -2 26.42 1.48
 -3 16 -1 4.06 0.78
 -3 16 1 28.27 1.58
 -3 16 2 10.58 1.19
 -3 16 4 3.08 1.17
 -3 17 -3 3.15 0.86
 -3 17 -2 10.26 1.2
 -3 17 -1 -0.16 0.59
 -3 17 0 11.91 1.28
 -3 17 1 32.36 1.8
 -3 17 3 0.61 0.8
 -3 17 4 98.54 3.25
 -3 18 -2 6.7 1.03
 -3 18 -1 0.05 0.7
 -3 18 0 25.38 1.66
 -3 18 1 12.5 1.27
 -3 18 2 0.31 0.8
 -3 18 3 0.63 0.96
 -3 19 -1 26.27 1.75
 -3 19 0 0.15 0.78
 -3 19 1 1.45 1
 -3 19 2 3.41 1.13
 -3 19 3 -0.41 1
 -2 2 0 385.59 1.37
 -2 2 1 197.39 1.39
 -2 3 0 706.64 2.37
 -2 3 1 301.43 1.88
 -2 4 1 3.73 0.34
 -2 4 2 3.56 0.4
 -2 5 0 0.53 0.19
 -2 5 1 6.64 0.4
 -2 5 2 17.15 0.69
 -2 6 0 591.87 3.26
 -2 6 1 81.95 1.33
 -2 6 2 1134.45 5.45
 -2 6 3 12.07 0.74
 -2 7 1 82.83 1.44
 -2 7 2 245.83 2.73
 -2 8 1 0.69 0.27
 -2 8 2 28.18 1.06
 -2 9 0 85.16 1.63
 -2 9 1 44.88 1.27
 -2 9 3 75.91 1.9
 -2 10 2 629.11 5.12
 -2 11 -2 97.15 2.12
 -2 11 -1 45.39 1.39
 -2 11 0 8.29 0.7
 -2 11 1 13.49 0.89
 -2 11 2 4.07 0.59
 -2 11 3 1.26 0.47
 -2 11 4 29.59 1.56
 -2 12 -1 58.83 1.65
 -2 12 0 186.37 2.91
 -2 12 1 0.11 0.4
 -2 12 3 -0.12 0.52
 -2 12 4 108.45 2.86
 -2 13 -3 3.49 0.8
 -2 13 -2 37.72 1.48
 -2 13 -1 7.46 0.86
 -2 13 0 64.51 1.87
 -2 13 1 69.14 1.95
 -2 13 2 64.1 1.99
 -2 13 3 54.39 1.99
 -2 14 -3 16.96 1.23
 -2 14 -2 1.14 0.68
 -2 14 -1 30.24 1.42
 -2 14 0 10.37 0.93
 -2 14 1 2.55 0.63
 -2 14 2 131.54 2.95
 -2 14 3 1.2 0.66
 -2 14 4 25.37 1.67
 -2 15 -5 1.66 0.85
 -2 15 -4 5.12 0.96
 -2 15 -3 0.2 0.65
 -2 15 -2 45.11 1.81
 -2 15 -1 4.01 0.75
 -2 15 1 0.6 0.6
 -2 15 2 17.17 1.35
 -2 15 3 -0.26 0.77
 -2 15 4 1.09 0.89
 -2 16 -4 7.78 1.1
 -2 16 -3 1.15 0.76
 -2 16 -1 20.51 1.42
 -2 16 0 88.86 2.54
 -2 16 1 -0.56 0.56
 -2 16 2 2.43 0.81
 -2 16 3 1.19 0.78
 -2 16 4 42.15 2.16
 -2 17 -4 18.94 1.46
 -2 17 -3 0.94 0.88
 -2 17 -2 -0.74 0.78
 -2 17 -1 8.01 1.13
 -2 17 0 7.73 1.16
 -2 17 2 2.57 0.91
 -2 17 3 29.49 1.87
 -2 17 4 2.13 1.04
 -2 18 -3 3.34 1.04
 -2 18 -2 33.5 1.85
 -2 18 0 8.35 1.3
 -2 18 1 0.99 0.81
 -2 18 2 5.72 1.24
 -2 18 3 1.41 1.04
 -2 18 4 0.3 0.9
 -2 19 -2 19.75 1.54
 -2 19 -1 1.16 0.88
 -2 19 0 50.08 2.27
 -2 19 1 7.67 1.25
 -2 19 3 0.86 1.06
 -2 20 0 7.66 1.35
 -2 20 1 -0.51 0.81
 -1 2 1 0.09 0.13
 -1 3 0 1948.86 4.02
 -1 3 1 34.61 0.65
 -1 4 0 1844.21 4.55
 -1 4 1 389.88 2.36
 -1 4 2 429.87 3.03
 -1 5 1 65.13 1.1
 -1 5 2 384.05 3.02
 -1 6 0 19.92 0.65
 -1 6 1 18.92 0.7
 -1 7 0 1044.67 4.72
 -1 7 1 1.21 0.31
 -1 7 2 410.42 3.49
 -1 8 0 1042.12 5.14
 -1 8 1 106.1 1.77
 -1 8 2 196.32 2.61
 -1 9 0 1.63 0.38
 -1 9 3 119.24 2.38
 -1 10 2 1.77 0.48
 -1 11 -1 56.28 1.53
 -1 11 0 434.72 4.14
 -1 11 1 0.46 0.37
 -1 11 3 0.5 0.45
 -1 11 4 58.69 2.07
 -1 12 -2 26.11 1.24
 -1 12 -1 26.65 1.18
 -1 12 0 163.2 2.76
 -1 12 2 8.98 0.89
 -1 12 3 2.33 0.65
 -1 12 4 31.19 1.7
 -1 13 -2 0.54 0.46
 -1 13 -1 0.61 0.46
 -1 13 0 1.5 0.49
 -1 13 1 4.93 0.71
 -1 13 3 34.38 1.68
 -1 13 4 10.01 1.24
 -1 14 -1 123.92 2.65
 -1 14 0 93.43 2.34
 -1 14 1 10.66 0.99
 -1 14 2 57.36 2.03
 -1 14 3 21.58 1.44
 -1 14 4 151.31 3.61
 -1 15 -4 0.2 0.7
 -1 15 -3 1.18 0.65
 -1 15 -2 2.24 0.66
 -1 15 -1 58.03 1.99
 -1 15 0 108.63 2.67
 -1 15 1 -0.14 0.58
 -1 15 3 3.39 0.82
 -1 15 4 16.42 1.58
 -1 16 -5 17.07 1.57
 -1 16 -4 85.91 2.66
 -1 16 -3 0.58 0.62
 -1 16 -2 13.01 1.19
 -1 16 -1 4.18 0.91
 -1 16 1 22.78 1.42
 -1 16 2 22.22 1.51
 -1 16 3 29.64 1.85
 -1 16 4 2.59 1.03
 -1 17 -4 5.3 1.06
 -1 17 -3 25.42 1.56
 -1 17 -2 -0.27 0.75
 -1 17 -1 3.36 0.82
 -1 17 0 0.68 0.74
 -1 17 1 3.86 1.02
 -1 17 2 42.18 2.08
 -1 17 3 2.42 0.92
 -1 17 4 22.3 1.79
 -1 18 -3 3.72 0.95
 -1 18 -2 134.12 3.34
 -1 18 -1 48.26 2.18
 -1 18 0 16.19 1.47
 -1 18 1 4.25 1
 -1 18 2 19.07 1.68
 -1 18 4 54.49 2.64
 -1 19 -2 1.6 0.84
 -1 19 -1 41.23 2.07
 -1 19 0 7.02 1.27
 -1 19 1 1.41 0.83
 -1 19 2 6.2 1.14
 -1 19 3 4.02 1.14
 -1 20 -1 1.46 0.91
 -1 20 0 17.78 1.67
 -1 20 1 5.87 1.24
 -1 20 2 45.52 2.47
 0 2 1 45.7 0.7
 0 3 0 -0.05 0.13
 0 3 1 1466.7 4.13
 0 4 0 9557.38 10.62
 0 4 1 7.13 0.39
 0 4 2 394.52 2.92
 0 5 1 185.94 1.84
 0 5 2 324.28 2.81
 0 6 0 299.33 2.35
 0 6 2 592.16 4.01
 0 7 0 0.26 0.2
 0 7 1 578.75 3.77
 0 7 2 96.91 1.75
 0 8 0 690.67 4.19
 0 8 1 7.98 0.54
 0 9 3 7.13 0.77
 0 11 -1 170.42 2.64
 0 11 0 0.34 0.39
 0 11 1 162.82 2.67
 0 11 2 4.43 0.62
 0 12 -1 16.47 0.98
 0 12 2 256.07 3.73
 0 12 3 162.12 3.2
 0 12 4 118.56 3.01
 0 13 -1 0.32 0.41
 0 13 0 -0.02 0.36
 0 13 1 0.21 0.39
 0 13 2 26.72 1.37
 0 13 3 28.8 1.55
 0 13 4 110.09 3.01
 0 14 -2 1.57 0.61
 0 14 -1 16.38 1.15
 0 14 1 14.91 1.11
 0 14 2 1.66 0.63
 0 14 4 7.97 1.14
 0 15 -3 0.01 0.62
 0 15 -2 0.39 0.56
 0 15 0 0.05 0.45
 0 15 1 45.6 1.86
 0 15 2 -0.24 0.68
 0 15 3 -0.2 0.66
 0 15 4 1.31 0.84
 0 16 -4 68.54 2.45
 0 16 -2 210.43 3.88
 0 16 0 45.86 1.86
 0 16 1 10.98 1.08
 0 16 3 79.92 2.75
 0 16 4 67.14 2.64
 0 17 -5 4.65 1.24
 0 17 -4 20.55 1.6
 0 17 -2 12.77 1.17
 0 17 -1 0.21 0.63
 0 17 0 0.02 0.62
 0 17 1 0.76 0.86
 0 17 4 19.92 1.81
 0 18 -4 11.75 1.46
 0 18 -3 3.76 0.93
 0 18 -2 44.26 2.09
 0 18 -1 4.16 0.98
 0 18 1 2.99 0.88
 0 18 2 41.8 2.14
 0 18 3 3.08 1.02
 0 18 4 7.13 1.35
 0 19 -3 0.72 0.79
 0 19 -2 1.28 0.92
 0 19 -1 12.14 1.38
 0 19 0 0.09 0.73
 0 19 2 0 0.82
 0 19 3 0.9 0.96
 0 20 -2 55.88 2.53
 0 20 -1 0.89 0.91
 0 20 0 11.4 1.42
 0 20 1 2.42 1.15
 0 20 2 54.43 2.64
 1 2 0 1863.22 3.17
 1 2 1 72.5 0.9
 1 3 0 1911.76 3.99
 1 3 1 -0.01 0.15
 1 4 0 1859.03 4.61
 1 4 1 759.73 3.36
 1 4 2 463.32 3.25
 1 5 0 0.17 0.2
 1 5 1 76.51 1.23
 1 5 2 86.59 1.5
 1 6 1 337.68 2.7
 1 6 2 8.75 0.58
 1 7 0 1049.98 4.79
 1 7 1 17.26 0.69
 1 7 2 55.58 1.36
 1 8 0 1046.77 5.21
 1 8 1 217.66 2.54
 1 8 3 1.23 0.45
 1 9 0 1.27 0.39
 1 9 3 225.11 3.34
 1 10 3 15.42 1.05
 1 11 -1 0.87 0.39
 1 11 0 434.87 4.18
 1 11 2 4.09 0.67
 1 11 3 1.09 0.51
 1 12 0 165.4 2.79
 1 12 1 28.61 1.26
 1 12 2 29.53 1.37
 1 12 3 0.51 0.57
 1 13 -1 3.97 0.7
 1 13 0 1.21 0.49
 1 13 1 0.85 0.5
 1 13 2 0.02 0.55
 1 14 -2 58.97 1.93
 1 14 -1 10.69 0.91
 1 14 2 313.24 4.59
 1 15 -3 2.94 0.77
 1 15 -2 14.5 1.17
 1 15 -1 0.42 0.67
 1 15 2 2.01 0.88
 1 15 3 0.51 0.71
 1 16 -4 4.25 0.97
 1 16 -3 30.41 1.7
 1 16 -2 23.01 1.37
 1 16 0 0.13 0.58
 1 16 1 3.15 0.85
 1 16 2 12.81 1.34
 1 16 3 -0.23 0.88
 1 17 -3 4.72 1.04
 1 17 -2 35.54 1.8
 1 17 -1 4.25 0.94
 1 17 0 1.02 0.73
 1 17 1 3.95 0.9
 1 17 2 -0.15 0.76
 1 17 3 23.35 1.73
 1 18 -4 56.16 2.4
 1 18 -3 4.72 1.12
 1 18 -2 19.24 1.59
 1 18 -1 4.84 1.04
 1 18 0 16.3 1.47
 1 18 1 45.42 2.2
 1 18 2 131.83 3.57
 1 18 3 5.99 1.22
 1 19 -3 3.85 1.13
 1 19 -2 4.86 1.13
 1 19 -1 0.43 0.76
 1 19 0 7.23 1.18
 1 19 2 2.67 0.99
 1 20 -2 47.67 2.29
 1 20 -1 5.6 1.25
 1 20 0 14.72 1.49
 1 20 1 0.05 0.84
 2 2 0 397.51 1.5
 2 3 1 374.65 2.22
 2 4 0 88.93 1.05
 2 4 1 104.79 1.31
 2 5 0 0.24 0.17
 2 5 1 45.11 0.95
 2 6 2 188.91 2.37
 2 7 1 131.94 1.88
 2 7 2 150.89 2.25
 2 8 0 76.25 1.48
 2 8 1 97.92 1.76
 2 10 1 0.26 0.35
 2 10 2 55.29 1.65
 2 10 3 49.57 1.73
 2 11 -1 12.34 0.77
 2 11 0 8.16 0.74
 2 11 3 -0.14 0.44
 2 12 -1 0.3 0.51
 2 12 0 190.55 3.02
 2 12 1 60.14 1.79
 2 12 2 77.42 2.15
 2 12 3 0.41 0.51
 2 13 0 61.4 1.85
 2 13 1 5.13 0.74
 2 13 2 39.36 1.69
 2 13 3 3.33 0.86
 2 14 -1 3.47 0.71
 2 14 0 9.4 0.93
 2 14 1 28.34 1.44
 2 14 2 0.21 0.64
 2 14 3 18.91 1.42
 2 15 -3 0.33 0.6
 2 15 -2 16.27 1.22
 2 15 -1 0.52 0.67
 2 15 0 56.01 2.02
 2 15 1 3.13 0.72
 2 15 2 43.45 1.94
 2 15 3 -0.52 0.62
 2 16 -3 1.63 0.71
 2 16 -2 2.37 0.87
 2 16 -1 0.45 0.59
 2 16 0 84.79 2.53
 2 16 1 18.66 1.43
 2 16 2 56.05 2.22
 2 16 3 0.07 0.87
 2 17 -5 4.71 1.15
 2 17 -4 2.74 1.09
 2 17 -3 28.27 1.73
 2 17 -2 3.5 0.91
 2 17 -1 63.79 2.32
 2 17 0 8.5 1.13
 2 17 1 6.7 1.09
 2 17 2 -0.22 0.76
 2 18 -4 0.12 0.81
 2 18 -3 1.21 0.85
 2 18 -2 5.7 1.06
 2 18 -1 0.19 0.87
 2 18 0 10.4 1.22
 2 18 1 59.32 2.39
 2 18 2 30.06 1.91
 2 18 3 3.64 1.21
 2 19 -3 -0.41 0.77
 2 19 -2 14.42 1.53
 2 19 -1 8.33 1.18
 2 19 1 -0.06 0.81
 2 19 2 17.32 1.62
 2 20 -1 0.48 0.87
 3 0 -1 426.57 1.38
 3 3 0 28.9 0.51
 3 5 0 289.78 2.12
 3 5 1 9.44 0.5
 3 6 0 47.71 0.98
 3 6 1 1.42 0.32
 3 7 -1 1.27 0.29
 3 7 1 74.85 1.46
 3 8 -1 25.89 0.9
 3 8 0 224.29 2.5
 3 8 1 -0.24 0.25
 3 10 2 20.03 1.07
 3 11 -2 96.19 2.15
 3 11 -1 3 0.5
 3 11 0 192.81 2.85
 3 11 2 34.18 1.43
 3 12 -2 -0.23 0.49
 3 12 -1 1.53 0.47
 3 12 1 1.25 0.57
 3 12 2 208.03 3.49
 3 13 -2 165.13 2.99
 3 13 -1 76.81 2.03
 3 13 0 0.72 0.49
 3 13 1 1.56 0.59
 3 13 2 0.89 0.71
 3 14 -3 4.47 0.9
 3 14 -2 1.56 0.58
 3 14 -1 53.52 1.83
 3 14 0 105.7 2.53
 3 14 1 -0.31 0.53
 3 14 2 2.83 0.87
 3 15 -3 2.24 0.81
 3 15 -2 40.67 1.72
 3 15 2 4.52 0.96
 3 16 -4 4.48 0.95
 3 16 -3 17.95 1.42
 3 16 -2 11.6 1.26
 3 16 0 -0.33 0.69
 3 17 -5 -0.04 0.89
 3 17 -4 100.61 2.96
 3 17 -3 -0.29 0.83
 3 17 -1 31.78 1.76
 3 17 0 12.56 1.25
 3 17 2 12.23 1.35
 3 18 -4 0.69 0.97
 3 18 -3 -0.12 0.86
 3 18 -2 0.09 0.86
 3 18 -1 15.19 1.38
 3 18 1 -0.57 0.85
 3 18 2 11.71 1.43
 3 19 -2 3.45 1.02
 3 19 -1 2.34 0.91
 3 19 0 0.11 0.83
 4 3 -1 29.95 0.49
 4 4 -1 25.07 0.55
 4 4 0 15.16 0.4
 4 5 0 194.68 1.66
 4 6 -1 280.89 2.28
 4 7 -1 33.33 0.91
 4 8 0 33.5 0.99
 4 8 1 3.48 0.45
 4 10 -2 2.51 0.48
 4 10 -1 81.91 1.73
 4 10 1 33.42 1.22
 4 11 -2 14.85 0.91
 4 11 0 -0.13 0.33
 4 11 1 6.02 0.74
 4 12 -2 40.03 1.46
 4 12 -1 54.8 1.64
 4 12 0 28.36 1.26
 4 12 1 1.06 0.52
 4 13 -2 208.62 3.38
 4 13 -1 48.65 1.67
 4 13 0 0.33 0.48
 4 13 1 19.85 1.22
 4 14 -2 -0.09 0.54
 4 14 -1 15.82 1.13
 4 14 1 14.81 1.16
 4 14 2 4.74 0.93
 4 15 -4 54.39 2.16
 4 15 -3 71.31 2.24
 4 15 -1 6.13 0.87
 4 15 0 74.89 2.25
 4 15 1 1.25 0.64
 4 16 -5 0.59 0.92
 4 16 -4 3.59 1.01
 4 16 -3 2.56 0.89
 4 16 -2 21.23 1.44
 4 16 0 6.2 1.04
 4 16 1 -0.02 0.63
 4 17 -4 4.42 1.08
 4 17 -3 15.59 1.43
 4 17 -2 35.1 1.82
 4 17 -1 26.59 1.58
 4 17 0 4.06 0.89
 4 17 1 4.84 0.99
 4 18 -3 11.6 1.39
 4 18 -2 1.23 0.77
 4 18 -1 2.77 0.86
 4 18 0 0.37 0.88
 5 5 -2 298.05 2.19
 5 6 -1 0.41 0.19
 5 7 -2 2.48 0.36
 5 7 -1 33.24 0.84
 5 10 -3 63.82 1.72
 5 10 -2 18.22 0.92
 5 10 -1 -0.21 0.27
 5 11 -3 11.49 0.88
 5 11 -2 31.1 1.22
 5 11 -1 17.36 0.92
 5 12 -3 7.84 0.82
 5 12 -2 34.89 1.36
 5 12 -1 1.03 0.52
 5 13 -4 15.46 1.26
 5 13 -3 0.08 0.61
 5 13 -2 29.96 1.37
 5 13 -1 28.81 1.3
 5 14 -4 10.24 1.13
 5 14 -3 50.04 1.82
 5 14 -2 24 1.31
 5 14 -1 -0.21 0.57
 5 15 -5 3.12 0.89
 5 15 -3 15.85 1.22
 5 15 -2 3.9 0.78
 5 16 -4 0.05 0.8
 5 16 -3 0.11 0.75
 5 16 -2 11.71 1.16
 5 17 -3 6.82 1.08
 5 17 -2 63.5 2.22
 6 10 -4 44.27 1.53
 6 11 -4 4.81 0.74
 6 13 -5 39.14 1.74
 -3 3 -4 0.98 0.6
 -3 4 -3 47.74 1.45
 -3 5 -4 22.76 1.28
 -3 6 -5 22.75 1.52
 -3 6 -3 1.65 0.67
 -3 7 -5 -0.42 0.86
 -3 7 -4 22.24 1.51
 -3 7 -3 0.42 0.68
 -3 8 -5 0.2 1.04
 -3 8 -4 141.87 3.13
 -3 8 -3 37.68 1.77
 -3 9 -5 14.5 1.65
 -3 9 -4 0.83 1.01
 -3 9 -3 8.3 1.2
 -3 10 -5 30.2 2.16
 -3 10 -4 40.69 2.23
 -3 10 -3 1.79 1.12
 -3 11 -3 11.96 1.69
 -2 -1 -3 2.48 0.31
 -2 0 -2 1261.09 3.76
 -2 1 -5 -0.39 0.47
 -2 1 -4 99.18 1.66
 -2 1 -3 2.26 0.39
 -2 1 -2 3.21 0.37
 -2 2 -4 63.09 1.47
 -2 2 -2 84.49 1.31
 -2 2 -1 279.63 2.27
 -2 3 -3 2.34 0.49
 -2 3 -2 124.98 1.75
 -2 4 -3 0.33 0.43
 -2 4 -2 435.69 3.47
 -2 4 -1 104.51 1.71
 -2 5 -6 1.74 0.92
 -2 5 -5 6.69 0.95
 -2 5 -3 6.9 0.8
 -2 5 -2 115.05 2.05
 -2 5 -1 45.27 1.25
 -2 6 -6 91.13 2.47
 -2 6 -5 29.71 1.5
 -2 6 -2 182.36 2.72
 -2 6 -1 58.31 1.5
 -2 7 -6 3.01 1.11
 -2 7 -5 6.38 1.09
 -2 7 -4 3.01 0.81
 -2 7 -3 0.47 0.6
 -2 7 -1 129.3 2.42
 -2 8 -6 40.07 2.1
 -2 8 -5 36.73 1.88
 -2 8 -4 -0.29 0.78
 -2 8 -3 -0.52 0.66
 -2 8 -2 0.56 0.56
 -2 9 -6 3.56 1.32
 -2 9 -3 7.53 1.03
 -2 9 -2 123.29 2.69
 -2 10 -4 150.8 3.38
 -2 10 -3 50.23 2.04
 -2 10 -2 59.34 2.1
 -2 10 -1 -0.13 0.71
 -2 11 -6 -0.02 1.31
 -2 11 -5 0.1 1.32
 -2 11 -4 7.96 1.37
 -2 11 -3 -0.15 0.94
 -2 11 -2 97.95 2.77
 -2 11 -1 43.5 1.86
 -2 12 -4 26.06 2.13
 -2 12 -3 0.36 0.95
 -2 12 -2 75.49 2.59
 -2 12 -1 64.69 2.38
 -2 13 -5 33.89 2.59
 -2 13 -4 105.46 3.47
 -2 13 -3 3.01 1.25
 -2 14 -5 1.26 1.6
 -2 14 -4 13.93 2
 -2 14 -3 18.9 1.97
 -2 15 -5 1.67 1.84
 -2 15 -4 5.38 1.88
 -2 15 -3 0.64 1.58
 -2 16 -4 8.63 2.08
 -2 16 -3 0.74 1.83
 -1 -3 -5 32.12 0.87
 -1 -2 -5 0.72 0.42
 -1 -2 -4 1709.39 5.09
 -1 -1 -5 48.82 1.19
 -1 -1 -4 10.41 0.61
 -1 -1 -3 421.36 2.32
 -1 -1 -2 245.05 1.36
 -1 0 -5 25.55 1
 -1 0 -3 6 0.43
 -1 0 -2 0.09 0.2
 -1 1 -5 49.01 1.36
 -1 1 -3 418.06 2.81
 -1 1 -2 241.28 1.82
 -1 1 -1 187.4 1.3
 -1 2 -6 251.38 3.44
 -1 2 -4 1717.89 6.91
 -1 2 -3 1.66 0.39
 -1 2 -2 453.92 2.77
 -1 2 -1 71.68 0.98
 -1 3 -6 76.7 2.07
 -1 3 -4 3.4 0.63
 -1 3 -3 143.16 2.02
 -1 3 -2 142.39 1.76
 -1 3 -1 0.06 0.26
 -1 3 0 1890.37 5.21
 -1 4 -6 52.38 1.88
 -1 4 -5 35.96 1.46
 -1 4 -4 35.26 1.28
 -1 4 -3 18.13 0.86
 -1 4 -2 474.87 3.46
 -1 4 -1 752.45 3.83
 -1 4 0 1846.5 5.81
 -1 5 -7 19.35 1.63
 -1 5 -6 45.7 1.88
 -1 5 -5 43.3 1.67
 -1 5 -2 86.64 1.66
 -1 5 0 0.27 0.32
 -1 6 -7 26.45 1.83
 -1 6 -6 31.57 1.73
 -1 6 -5 3.74 0.89
 -1 6 -2 9.36 0.75
 -1 6 0 20.13 0.87
 -1 7 -5 4.91 1.03
 -1 7 -2 58.17 1.57
 -1 7 -1 17.36 0.88
 -1 7 0 1031.82 5.67
 -1 8 -7 51.14 2.38
 -1 8 -6 51.75 2.23
 -1 8 -5 35.41 1.82
 -1 8 -3 2.13 0.7
 -1 8 0 1041.7 6.12
 -1 9 -7 10.56 1.64
 -1 9 -6 10.9 1.56
 -1 9 -5 28.45 1.82
 -1 9 -4 11.41 1.24
 -1 9 -2 8.26 0.92
 -1 9 0 1.64 0.6
 -1 10 -7 53.38 2.62
 -1 10 -6 22.71 1.91
 -1 10 -3 16 1.26
 -1 11 -7 -1.85 1.21
 -1 11 -6 27.76 2.09
 -1 11 -5 0.91 1.08
 -1 11 -4 0.9 0.91
 -1 11 -3 0.87 0.78
 -1 11 -2 5 0.9
 -1 11 -1 56.8 1.94
 -1 11 0 437.51 4.87
 -1 12 -6 1.32 1.41
 -1 12 -5 32.35 2.12
 -1 12 -4 15.47 1.62
 -1 12 -3 0.51 0.81
 -1 12 -2 25.85 1.59
 -1 12 -1 27.06 1.58
 -1 12 0 162.21 3.21
 -1 13 -6 0.42 1.38
 -1 13 -5 12.03 1.73
 -1 13 -4 10.33 1.49
 -1 13 -3 91.74 2.86
 -1 13 -2 1.04 1.07
 -1 14 -5 11.07 1.75
 -1 14 -4 37.81 2.38
 -1 14 -3 16.75 1.82
 -1 14 -2 329.4 5.49
 -1 14 -1 127.74 3.25
 -1 15 -5 1.57 1.67
 -1 15 -4 2.05 1.68
 -1 15 -3 1.45 1.28
 -1 15 -2 1.74 1.14
 -1 15 -1 61.75 2.55
 -1 16 -4 88.62 3.65
 -1 16 -3 0.76 1.61
 -1 17 -4 4.86 1.92
 -1 17 -2 0.53 1.62
 -1 18 -3 3.42 1.71
 0 -1 -7 66.62 1.86
 0 0 -7 0.38 0.74
 0 1 -7 65 1.99
 0 1 -6 10.04 0.98
 0 2 -7 16.15 1.34
 0 2 -6 15.25 1.15
 0 2 -1 46.3 0.75
 0 2 0 223.12 1.18
 0 3 -7 82.43 2.37
 0 3 -6 14.89 1.22
 0 3 -4 17.11 0.92
 0 3 -3 97.62 1.62
 0 3 -2 547.24 3.17
 0 3 -1 1431.17 4.31
 0 4 -6 324.37 4.32
 0 4 -3 134.85 2.03
 0 4 -2 400.17 3.01
 0 4 -1 6.78 0.45
 0 4 0 9999 11.21
 0 5 -7 27.74 1.75
 0 5 -6 91.1 2.41
 0 5 -5 3.74 0.82
 0 5 -3 3.56 0.58
 0 5 -2 316.27 2.89
 0 5 -1 187.98 2.03
 0 6 -8 48.34 2.41
 0 6 -7 13.59 1.63
 0 6 -6 58.69 2.16
 0 6 -5 16.97 1.24
 0 6 -3 323.18 3.45
 0 6 -2 605.61 4.24
 0 6 0 284.27 2.43
 0 7 -6 46.9 2.09
 0 7 -4 0.27 0.53
 0 7 -2 94.35 1.88
 0 7 -1 588.99 4.15
 0 7 0 0.51 0.32
 0 8 -8 13.28 1.81
 0 8 -7 15.23 1.78
 0 8 -6 34.61 1.95
 0 8 -5 10.7 1.24
 0 8 -2 27.06 1.17
 0 8 0 692.31 4.47
 0 9 -8 23.98 2.26
 0 9 -5 3.94 1.13
 0 9 -4 279.31 4.26
 0 9 0 0.46 0.44
 0 10 -6 21.81 1.94
 0 10 -3 108.63 2.61
 0 11 -7 30.51 2.34
 0 11 -5 15.27 1.62
 0 11 -4 -0.46 0.88
 0 11 -3 12.36 1.29
 0 11 -2 4.41 0.82
 0 11 -1 160.55 2.92
 0 12 -6 5.44 1.54
 0 12 -5 23.34 2.01
 0 12 -4 122.09 3.23
 0 12 -2 255.59 4
 0 12 -1 16.62 1.23
 0 12 0 6.77 0.91
 0 13 -6 42.02 2.57
 0 13 -5 3.43 1.49
 0 13 -4 116.88 3.31
 0 13 -3 28.81 1.82
 0 13 -1 -0.37 0.64
 0 13 0 0.33 0.68
 0 14 -6 3.55 1.57
 0 14 -5 19.77 2.09
 0 14 -4 6.79 1.45
 0 14 -3 16.61 1.6
 0 14 -1 15.52 1.46
 0 14 0 85.47 2.56
 0 15 -5 11.21 1.74
 0 15 -4 0.59 1.45
 0 15 -3 -0.91 1.17
 0 15 -2 0.96 0.99
 0 15 -1 48.76 2.28
 0 16 -5 18.71 2.31
 0 16 -4 75.25 3.16
 0 16 -2 213.25 4.55
 0 16 -1 14.04 1.7
 0 17 -4 19.51 2.2
 0 17 -3 29.63 2.53
 0 17 -1 -1.08 1.08
 0 18 -4 11.88 2.27
 0 18 -3 4.99 1.92
 0 18 -2 42.62 2.73
 0 19 -2 0.96 1.91
 1 -1 -8 47.52 1.86
 1 0 -8 0.25 0.95
 1 2 -8 0.18 1.01
 1 2 -7 0.25 0.8
 1 3 -8 1.34 1.18
 1 3 -7 8 1.16
 1 4 -8 54.94 2.42
 1 4 -7 21.17 1.53
 1 4 -6 191.16 3.37
 1 4 -1 387.59 2.39
 1 4 0 1808.42 4.26
 1 5 -8 95.54 2.99
 1 5 -7 0.54 0.98
 1 5 -6 52.31 1.95
 1 5 -5 64.26 1.87
 1 5 -2 369.49 2.97
 1 5 -1 67.54 1.26
 1 5 0 0.45 0.26
 1 6 -7 3.09 1.1
 1 6 -3 70.95 1.65
 1 6 -2 486.01 3.71
 1 6 -1 16.54 0.71
 1 6 0 21 0.7
 1 7 -7 14.17 1.73
 1 7 -5 6.83 1.04
 1 7 -2 409.14 3.63
 1 7 -1 1.35 0.41
 1 7 0 1019.57 4.57
 1 8 -6 311.84 4.98
 1 8 -5 0.65 0.71
 1 8 -4 189.04 3.27
 1 8 -2 198.9 2.78
 1 8 0 993.61 4.88
 1 9 -7 1.13 1.38
 1 9 -6 6.86 1.27
 1 9 -5 25.39 1.61
 1 9 -4 4.16 0.89
 1 9 0 1.45 0.46
 1 10 -7 0.28 1.42
 1 10 -6 8.12 1.38
 1 10 -5 1.53 0.95
 1 10 -4 115.14 2.8
 1 10 -3 63.54 1.99
 1 10 0 75.19 1.68
 1 11 -7 11.82 1.81
 1 11 -6 92.03 3.21
 1 11 -5 49.61 2.34
 1 11 -4 55.97 2.19
 1 11 -3 0.28 0.84
 1 11 -2 189.58 3.2
 1 12 -7 14.86 2.05
 1 12 -6 149.86 4.1
 1 12 -4 32.95 1.95
 1 12 -3 2.22 0.84
 1 12 -2 7.32 0.99
 1 12 -1 58.27 1.82
 1 13 -7 -0.82 1.67
 1 13 -6 6.54 1.61
 1 13 -5 1.19 1.36
 1 13 -4 9.62 1.38
 1 13 -2 87.15 2.44
 1 13 0 1.58 0.73
 1 14 -6 -0.35 1.44
 1 14 -5 -0.14 1.4
 1 14 -4 145.37 3.73
 1 14 -3 21.51 1.72
 1 14 0 90.36 2.41
 1 15 -6 26.6 2.5
 1 15 -5 74.15 3.14
 1 15 -4 15.49 1.85
 1 15 -3 2.1 1.17
 1 15 -2 17.26 1.61
 1 15 -1 0.03 0.84
 1 15 0 106.19 2.78
 1 16 -5 1.85 1.63
 1 16 -4 3.75 1.62
 1 16 -3 28.9 2.13
 1 16 -2 24.95 1.98
 1 16 -1 27.42 1.94
 1 17 -5 3.62 1.84
 1 17 -3 2.3 1.33
 1 17 -2 38.7 2.43
 1 17 -1 4.65 1.4
 1 18 -4 58.94 3.1
 1 18 -3 4.61 1.6
 1 18 -2 19.77 2.21
 1 19 -3 4.33 1.73
 1 19 -2 8.09 1.7
 2 0 -9 0.01 1.09
 2 1 -9 1.32 1.27
 2 1 1 229.43 1.08
 2 2 -9 31.31 2.16
 2 3 -9 0.38 1.22
 2 3 -8 279.97 4.82
 2 4 -9 0.77 1.39
 2 4 -8 2.76 1.29
 2 5 -8 59.37 2.61
 2 5 -7 0.12 0.89
 2 6 -9 10.74 1.87
 2 6 -8 47.85 2.55
 2 6 -7 90.67 2.8
 2 6 -1 80.66 1.36
 2 7 -9 -2.53 1.47
 2 7 -8 78.72 3.06
 2 7 -6 12.1 1.33
 2 7 -5 69.62 2.14
 2 7 -1 86.51 1.56
 2 8 -7 27.64 2.1
 2 8 -6 0.55 0.89
 2 8 -5 109.58 2.73
 2 8 -4 86.47 2.22
 2 8 -1 0.87 0.44
 2 8 0 76.24 1.38
 2 9 -8 0.15 1.48
 2 9 -7 -0.9 1.05
 2 9 -6 75.65 2.68
 2 9 -5 4.97 0.99
 2 9 -4 215.32 3.64
 2 10 -7 57.59 2.8
 2 10 -6 18.84 1.78
 2 10 -5 0.32 0.96
 2 10 -3 9.61 1.08
 2 11 -8 0.15 1.5
 2 11 -7 0.06 1.29
 2 11 -6 35.84 2.3
 2 11 -4 28.12 1.67
 2 11 -3 1.56 0.72
 2 12 -6 8.71 1.69
 2 12 -5 75.45 2.81
 2 12 -4 112.1 3.03
 2 12 -3 0.18 0.71
 2 12 -1 -0.24 0.59
 2 13 -7 0.72 1.51
 2 13 -6 77.02 3.22
 2 13 -5 8.46 1.53
 2 13 -4 88.68 2.89
 2 13 -3 58.69 2.3
 2 13 -2 64.35 2.12
 2 13 -1 70.87 2.01
 2 13 0 65 1.9
 2 14 -6 1.34 1.49
 2 14 -5 22.4 2.13
 2 14 -4 26.87 2.06
 2 14 -3 0.25 1.06
 2 14 -2 135.06 3.04
 2 14 -1 4.02 0.96
 2 14 0 11.63 1.15
 2 15 -6 131.54 4.24
 2 15 -4 0.12 1.26
 2 15 -3 -0.21 0.97
 2 15 -2 14.55 1.51
 2 15 -1 0.66 0.84
 2 15 0 56.08 2.03
 2 16 -5 27.15 2.42
 2 16 -4 42.73 2.5
 2 16 -3 0.79 1.3
 2 16 -2 3.39 1.21
 2 16 -1 -0.7 0.94
 2 17 -5 4.91 1.88
 2 17 -4 3.33 1.43
 2 17 -2 1.96 1.29
 2 17 -1 69.71 2.6
 2 18 -4 0.99 1.58
 2 18 -3 0.31 1.43
 2 18 -2 6.74 1.55
 2 18 -1 1.25 1.31
 2 20 -2 40.3 2.78
 3 3 -9 4.84 1.42
 3 4 -9 6.7 1.63
 3 5 -9 6.55 1.67
 3 5 -8 77.59 2.84
 3 5 0 274.59 1.79
 3 6 -8 108.02 3.38
 3 7 -9 6.87 1.9
 3 7 -8 39.68 2.51
 3 7 -7 5.62 1.23
 3 7 -1 1.29 0.39
 3 8 -8 27.39 2.36
 3 8 -7 0.02 1.13
 3 8 -5 73.57 2.24
 3 8 -4 104.26 2.37
 3 8 -3 114.27 2.36
 3 8 -1 25.74 0.96
 3 9 -8 1.76 1.45
 3 9 -7 154.8 3.97
 3 9 -6 6.58 1.27
 3 9 -5 7.61 1.12
 3 9 -3 4.18 0.79
 3 9 -1 179.6 2.5
 3 10 -8 34.5 2.68
 3 10 -7 0.71 1.27
 3 10 -6 61.94 2.64
 3 10 -4 10.46 1.2
 3 10 -3 16.61 1.23
 3 10 -1 122.39 2.22
 3 11 -8 78.8 3.55
 3 11 -7 5.35 1.58
 3 11 -6 130.35 3.63
 3 11 -5 68.87 2.59
 3 11 -4 2.68 1.01
 3 11 -3 6.11 0.94
 3 11 -2 92.39 2.2
 3 12 -6 5.4 1.41
 3 12 -4 43.99 2.06
 3 12 -3 62.26 2.14
 3 12 -2 0.51 0.71
 3 12 -1 1.42 0.66
 3 12 0 57.15 1.57
 3 13 -6 35.6 2.45
 3 13 -3 -0.47 0.85
 3 13 -2 156.17 3.1
 3 13 -1 76.37 2
 3 14 -3 3.52 1.11
 3 14 -2 1.79 0.98
 3 14 -1 51.87 1.82
 3 14 0 102.81 2.23
 3 15 -3 2.89 1.2
 3 15 -1 5.86 1.06
 3 16 -5 1.13 1.5
 3 16 -2 12.22 1.48
 3 16 -1 31.7 1.82
 3 17 -4 98.74 3.43
 3 17 -3 -0.67 1.17
 3 17 -2 215.41 4.2
 3 17 -1 33.44 1.96
 3 18 -4 -0.81 1.44
 3 18 -3 0 1.25
 3 18 -2 0.1 1.3
 3 19 -3 -0.62 1.49
 4 6 -9 -0.74 1.37
 4 6 0 81.93 1.07
 4 7 0 245.6 1.83
 4 8 -8 -0.61 1.57
 4 8 -7 31.64 2.16
 4 8 -1 60.23 1.37
 4 8 0 33.13 0.75
 4 9 -8 184.66 4.65
 4 9 -7 -0.56 1.33
 4 9 -5 26.05 1.63
 4 9 -4 111.63 2.62
 4 9 -3 2.75 0.76
 4 9 -1 34.61 1.15
 4 10 -4 105.73 2.71
 4 10 -3 14.25 1.25
 4 10 -2 3.27 0.76
 4 10 -1 81.09 1.75
 4 11 -6 0.72 1.19
 4 11 -5 25.97 1.9
 4 11 -4 0.83 0.88
 4 11 -2 14.75 1.16
 4 12 -6 7.97 1.56
 4 12 -5 0.19 1.11
 4 12 -4 35.67 1.95
 4 12 -3 1.79 0.93
 4 12 -2 41.15 1.68
 4 13 -7 0.55 1.81
 4 13 -6 3.07 1.66
 4 13 -4 78.87 2.71
 4 13 -3 21.34 1.64
 4 13 -2 203.89 3.41
 4 13 -1 48.36 1.58
 4 14 -6 19.7 2.3
 4 14 -5 18.51 2.08
 4 14 -4 80.63 2.91
 4 14 -3 20.32 1.74
 4 14 -2 -0.29 0.85
 4 15 -5 3.92 1.7
 4 15 -2 93.28 2.54
 4 16 -5 0.7 1.63
 4 16 -3 2.82 1.21
 4 16 -2 22.66 1.7
 4 17 -3 12.03 1.6
 5 8 -8 54.54 2.87
 5 8 -1 0.65 0.46
 5 9 -8 6.11 1.75
 5 9 -7 49.87 2.63
 5 9 -6 99.99 3.04
 5 9 -5 -1.09 0.97
 5 9 -4 7.28 1.08
 5 9 -3 9.49 1.08
 5 9 -2 23.97 1.21
 5 10 -7 23.59 2.26
 5 10 -6 18.01 1.93
 5 10 -5 9.86 1.38
 5 10 -4 4.28 1.03
 5 11 -7 -0.27 1.61
 5 11 -6 162.58 4.1
 5 11 -5 4.78 1.29
 5 11 -4 308.77 4.85
 5 11 -3 12.94 1.29
 5 11 -2 33.18 1.45
 5 12 -7 1.9 1.55
 5 12 -6 47.96 2.7
 5 12 -5 24.35 1.99
 5 12 -4 1.62 1.17
 5 12 -3 8.4 1.22
 5 12 -2 36.1 1.63
 5 13 -6 19.91 2.28
 5 13 -4 11.86 1.5
 5 13 -3 -0.08 1.03
 5 14 -6 11.14 1.92
 5 14 -5 11.53 1.77
 5 14 -4 10.67 1.64
 5 14 -3 57.78 2.29
 5 15 -5 2.59 1.52
 5 15 -4 89.2 3.1
 6 9 -7 10.34 1.72
 6 9 -6 48.16 2.39
 6 9 -4 119.01 2.82
 6 9 -3 0.73 0.82
 6 10 -7 0.36 1.54
 6 10 -6 3.87 1.5
 6 10 -4 42.49 2.03
 6 10 -3 5.77 1.06
 6 11 -6 0.76 1.45
 6 11 -5 31.11 2.14
 6 11 -4 4.24 1.25
 6 12 -5 7.07 1.58
 6 12 -4 2.03 1.21
 6 13 -5 38.16 2.38
 6 13 -4 77.22 2.7
 7 9 -6 6.08 1.61
 7 9 -5 25.92 1.94
 7 9 -4 11.43 1.38
 7 10 -6 50.22 2.62
 7 10 -5 73.58 2.7
 7 11 -5 1.11 1.27
 0 1 -1 1197.56 2.73
 0 1 2 779.37 1.92
 0 2 -1 46.27 0.73
 1 -5 -4 120.03 0.95
 1 -4 -4 199.2 1.27
 1 -3 -4 7.79 0.41
 1 -2 -4 193.68 1.53
 1 -2 -3 35 0.73
 1 -1 -4 137.84 1.48
 1 -1 -3 588.76 2.69
 1 0 -5 2.06 0.5
 1 0 -4 0.07 0.32
 1 0 -3 199.39 1.75
 1 0 -2 -0.25 0.23
 1 1 -4 136.56 1.71
 1 1 -3 588.68 3.07
 1 1 -2 40.86 0.8
 1 1 -1 10.48 0.45
 1 2 -4 196.38 2.18
 1 2 -3 36.46 0.92
 1 2 -2 4293.97 7.92
 1 2 -1 -0.08 0.24
 1 2 0 1886.1 4.03
 1 3 -4 8.08 0.71
 1 3 -3 234.47 2.29
 1 3 -2 328.35 2.44
 1 3 -1 34.77 0.79
 1 3 0 1900.14 4.35
 1 4 -4 208.91 2.66
 1 4 -3 176.63 2.18
 1 4 -2 424.18 2.95
 1 4 -1 388.22 2.52
 1 4 0 1828.3 4.65
 1 5 -3 283.57 2.85
 1 5 -2 369.31 2.93
 1 5 0 0.43 0.32
 1 6 -3 72.78 1.63
 1 6 -2 482.42 3.57
 1 6 -1 18.51 0.8
 1 7 -2 418.95 3.59
 1 7 -1 1.39 0.44
 1 7 0 1039.9 4.6
 1 8 -2 197.42 2.7
 1 8 0 1022.37 4.97
 2 -7 -5 67.75 1.33
 2 -6 -5 13.9 0.67
 2 -5 -5 -0.14 0.39
 2 -3 -6 113 1.57
 2 -3 -5 50.55 1.12
 2 -3 -4 305.34 2.6
 2 -2 -6 12.41 0.75
 2 -2 -4 96.99 1.58
 2 -1 -6 53.21 1.26
 2 -1 -5 13.76 0.8
 2 -1 -4 18.51 0.81
 2 0 -5 0.63 0.49
 2 0 -3 0.32 0.38
 2 1 -6 51.02 1.42
 2 1 -4 18.5 0.87
 2 2 -2 587.4 3.6
 2 3 -4 303.53 3.11
 2 3 -3 1.63 0.51
 2 3 -2 1019.25 4.84
 2 3 -1 307.46 2.56
 2 4 -6 41.5 1.59
 2 4 -4 7.5 0.79
 2 4 -3 2.23 0.52
 2 4 -2 3.32 0.55
 2 4 -1 4.03 0.53
 2 4 0 85.15 1.32
 2 4 1 102.03 1.33
 2 4 2 441.6 2.21
 2 5 -5 0.07 0.65
 2 5 -2 17.39 0.89
 2 5 -1 7.21 0.68
 2 5 0 0.39 0.36
 2 5 1 44.94 0.95
 2 5 2 117.62 1.2
 2 6 -6 33.02 1.65
 2 6 -5 14.17 1.18
 2 6 -3 13.33 0.96
 2 6 -2 1131.5 5.76
 2 6 -1 82.79 1.56
 2 6 0 593.38 3.54
 2 6 1 59.32 1.11
 2 6 2 185.52 1.46
 2 7 -5 68.63 2.07
 2 7 -2 238.57 2.92
 2 7 0 68.06 1.4
 2 7 1 131.79 1.69
 2 7 2 152.36 1.42
 2 8 -4 83.71 2.16
 2 8 -1 1.45 0.56
 2 8 0 75.9 1.6
 2 8 1 95.34 1.55
 2 9 -4 210.12 3.41
 2 9 -3 80.59 2.06
 2 9 0 87.17 1.85
 2 9 1 0.69 0.49
 2 10 -4 163.67 3.24
 2 10 -3 8.02 1.03
 2 10 -2 636.32 5.33
 2 10 0 222.35 2.91
 2 11 -3 1.49 0.94
 2 11 -2 4.29 0.9
 2 11 -1 13.54 1.12
 3 -5 -6 128.45 2.13
 3 -4 -5 221.28 2.85
 3 -3 -6 1.37 0.65
 3 -3 -5 7.68 0.88
 3 -2 -6 41.55 1.39
 3 -1 -4 1318.75 6.54
 3 0 -7 10.84 1.05
 3 0 -4 0.37 0.54
 3 1 -4 1290.39 6.58
 3 1 -3 44.73 1.32
 3 2 -7 0.33 0.8
 3 2 -6 42.77 1.57
 3 2 -4 0.69 0.6
 3 3 -7 66.53 2.01
 3 3 -6 0.53 0.78
 3 3 -3 41.54 1.35
 3 3 -2 166.29 2.45
 3 4 -5 210.87 3.21
 3 4 -3 222.78 2.98
 3 4 -2 59.45 1.51
 3 4 -1 206.04 2.57
 3 4 0 285.9 2.87
 3 5 -7 196.12 3.77
 3 5 -6 124.77 2.68
 3 5 -2 338.62 3.49
 3 5 -1 258.78 2.89
 3 5 0 279.61 2.84
 3 5 1 10.55 0.72
 3 6 -6 55.48 1.96
 3 6 -4 3.21 0.77
 3 6 -1 128.37 2.23
 3 6 1 1.75 0.54
 3 7 -7 4.34 1.29
 3 7 -6 87.02 2.5
 3 7 -5 37.42 1.71
 3 7 -4 76.8 2.11
 3 7 -3 19.61 1.18
 3 7 0 263.37 2.94
 3 7 2 18.43 0.73
 3 8 -6 16.38 1.61
 3 8 -5 72.03 2.27
 3 8 -4 106.59 2.52
 3 8 -3 120.57 2.47
 3 8 0 216.17 2.73
 3 8 1 -0.37 0.48
 3 8 2 453.08 2.84
 3 9 -6 7.38 1.4
 3 9 -5 8.51 1.2
 3 9 -4 56.8 1.99
 3 9 -3 3.83 0.86
 3 9 -2 0.2 0.65
 3 9 1 12.19 0.85
 3 9 2 44.6 1.04
 3 10 -5 21.1 1.75
 3 10 -4 8.46 1.13
 3 10 -2 2.14 0.8
 3 10 -1 125.71 2.6
 3 10 1 1.51 0.62
 3 11 -5 65.81 2.61
 3 11 -4 2.34 1.04
 3 11 -2 88.6 2.31
 3 11 -1 4.11 0.84
 3 11 0 190.72 2.93
 3 12 -4 47.25 2.22
 3 12 -3 62.61 2.27
 3 12 -2 0 0.84
 3 12 -1 1.14 0.86
 3 13 -3 -0.26 0.96
 3 13 -2 159.27 3.32
 3 13 -1 81.81 2.35
 4 -6 -6 28.62 1.46
 4 -5 -6 46.7 1.67
 4 -4 -7 9.29 1.15
 4 -4 -6 0.15 0.76
 4 -3 -7 9.31 1.15
 4 -3 -6 432.38 4.48
 4 -2 -7 329.62 3.97
 4 -2 -6 4.84 0.94
 4 -1 -6 334.27 4.16
 4 -1 -5 45.64 1.67
 4 0 -7 -0.45 0.82
 4 0 -6 0.92 0.84
 4 1 -8 0.35 1.01
 4 1 -7 0.73 0.93
 4 1 -6 343.43 4.36
 4 2 -8 0.76 1.06
 4 2 -7 325.15 4.43
 4 2 -6 3.68 0.97
 4 2 -5 0.08 0.69
 4 3 -8 38.77 1.93
 4 3 -7 11.63 1.39
 4 3 -6 435.37 5.01
 4 3 -5 61.92 2.02
 4 3 -4 326.03 4.08
 4 4 -8 6.79 1.38
 4 4 -7 9.74 1.37
 4 4 -6 -0.81 0.82
 4 4 -5 2.79 0.96
 4 4 -4 443.51 4.82
 4 5 -8 77.77 2.67
 4 5 -7 0.8 1.07
 4 5 -6 46.38 1.99
 4 5 -5 40.55 1.81
 4 5 1 42.91 1.42
 4 6 -8 4.87 1.51
 4 6 -6 27.24 1.77
 4 6 -5 5.8 1.09
 4 6 -4 78.28 2.26
 4 6 -3 8.19 1.07
 4 6 -2 7.85 0.97
 4 6 1 45.54 1.43
 4 7 -8 19.05 2.07
 4 7 -7 12.97 1.56
 4 7 -5 54.71 2.12
 4 7 -4 120.76 2.77
 4 7 -3 283.94 4.05
 4 8 -7 30.24 2.06
 4 8 -6 2.59 1.15
 4 8 -4 183.18 3.62
 4 8 -3 -0.12 0.74
 4 8 -2 38.01 1.65
 4 8 -1 58.94 1.82
 4 9 -7 1.08 1.36
 4 9 -6 1.16 1.12
 4 9 -5 30.38 1.92
 4 9 -4 111.34 2.82
 4 9 -3 3.11 0.94
 4 9 -1 35.06 1.55
 4 9 0 9.94 1.04
 4 10 -7 39.12 2.48
 4 10 -6 40.39 2.36
 4 10 -5 15.03 1.62
 4 10 -4 101.14 2.78
 4 10 -3 15.23 1.42
 4 10 0 49.37 1.66
 4 11 -5 26.06 1.94
 4 11 -4 0.11 0.98
 4 11 -3 166.74 3.38
 4 11 -2 14.83 1.43
 4 11 -1 21.54 1.44
 4 11 0 -0.12 0.78
 4 11 1 4.95 0.85
 4 12 -6 7.28 1.82
 4 12 -5 -0.31 1.34
 4 12 -3 1.16 1.13
 4 12 -2 41.21 1.89
 4 12 -1 55.11 1.99
 4 12 0 28.49 1.48
 4 13 -4 77.94 2.93
 4 13 -3 19.3 1.79
 4 13 -2 193.77 3.65
 4 13 0 0.29 0.95
 4 14 -4 86.77 3.15
 4 14 -2 0.2 1.17
 4 14 -1 15.91 1.65
 5 -6 -7 19.22 1.61
 5 -5 -7 61.96 2.16
 5 -5 -6 153.97 3.14
 5 -4 -6 45.82 2
 5 -3 -7 11.54 1.44
 5 -3 -6 20.98 1.64
 5 -2 -7 4.53 1.2
 5 -2 -6 10.47 1.35
 5 -1 -8 31.58 1.86
 5 -1 -7 32.94 1.89
 5 -1 -6 54.28 2.09
 5 -1 -5 1.55 1.01
 5 0 -8 -0.2 1.06
 5 0 -7 2.57 1.2
 5 0 -6 -0.72 0.93
 5 0 -5 13.72 1.45
 5 1 -8 33.33 1.98
 5 1 -7 32.92 1.92
 5 1 -5 2.51 1.03
 5 1 -4 23.49 1.57
 5 2 -6 11.42 1.43
 5 2 -5 0.64 0.88
 5 2 -4 15.66 1.43
 5 3 -8 2.69 1.33
 5 3 -7 12.73 1.59
 5 3 -6 22.24 1.74
 5 3 -5 1.96 1.05
 5 3 -3 -0.37 0.78
 5 4 -8 32.04 2.14
 5 4 -6 44.51 2.17
 5 4 -5 2.65 1.09
 5 4 -4 5.63 1.08
 5 4 -3 271.56 4.17
 5 4 -2 21.53 1.42
 5 4 2 1.16 0.82
 5 5 -9 43.3 2.54
 5 5 -8 49.8 2.46
 5 5 -7 61.71 2.54
 5 5 -6 168.42 3.62
 5 5 -5 0.5 0.98
 5 5 -4 67.22 2.33
 5 5 -3 26.67 1.62
 5 5 -2 280.62 4.1
 5 5 -1 118.19 2.64
 5 5 0 269.59 3.88
 5 5 1 101.06 2.28
 5 5 2 39.58 1.53
 5 6 -9 1.94 1.61
 5 6 -8 7.85 1.65
 5 6 -7 19.83 2
 5 6 -6 16.21 1.69
 5 6 -5 5.37 1.29
 5 6 -4 2.63 1.02
 5 6 -1 0.64 0.86
 5 6 0 203.06 3.43
 5 6 1 -0.48 0.74
 5 7 -8 58.44 2.77
 5 7 -7 3.19 1.47
 5 7 -5 2.11 1.08
 5 7 -4 327.14 4.94
 5 7 -2 2.2 1.01
 5 7 -1 34.33 1.68
 5 8 -8 53.1 2.8
 5 8 -7 0.59 1.48
 5 8 -6 83.98 2.91
 5 8 -5 3.05 1.28
 5 8 -4 6.1 1.23
 5 8 -2 41.18 1.9
 5 8 -1 0.93 0.89
 5 8 0 91.57 2.3
 5 8 1 15.56 1.22
 5 9 -8 4.18 1.87
 5 9 -7 48.99 2.66
 5 9 -6 94.6 3.15
 5 9 -5 1.08 1.14
 5 9 -4 12.62 1.49
 5 9 -3 11.48 1.39
 5 9 -1 72.94 2.24
 5 10 -8 -0.68 1.76
 5 10 -7 26.78 2.45
 5 10 -5 10.78 1.65
 5 10 -4 3.96 1.31
 5 10 -3 63.79 2.43
 5 10 -2 17.9 1.56
 5 10 -1 -0.35 0.95
 5 10 0 57.18 1.96
 5 11 -7 1.19 1.85
 5 11 -6 157.99 4.07
 5 11 -5 5.55 1.56
 5 11 -4 309.94 5.36
 5 11 -3 14.02 1.67
 5 11 -2 33.74 1.95
 5 11 0 70.14 2.14
 5 12 -7 1.5 1.89
 5 12 -6 49.04 2.88
 5 12 -4 1.9 1.37
 5 12 -3 8.83 1.51
 5 12 -2 36.87 2.05
 5 12 -1 1.05 1.13
 5 12 0 100.69 2.5
 5 13 -6 19.4 2.28
 5 13 -5 0.46 1.61
 5 13 -4 14.01 1.77
 5 13 -2 30.52 2.04
 5 13 -1 25.55 1.8
 5 14 -6 10.86 2.09
 5 14 -5 11.86 2.08
 5 14 -4 10.94 1.91
 5 14 -3 53.8 2.61
 5 14 -1 -0.28 1.17
 5 15 -5 4.15 1.85
 6 -7 -7 25.27 2.03
 6 -6 -7 0.2 1.31
 6 -5 -7 5.67 1.42
 6 -4 -7 -0.04 1.21
 6 -4 -6 70.38 2.66
 6 -3 -7 19.27 1.89
 6 -2 -8 4.9 1.49
 6 -2 -7 4.55 1.43
 6 -2 -6 1.22 1.24
 6 -1 -8 -0.51 1.2
 6 -1 -7 7.32 1.56
 6 -1 -6 21.19 1.91
 6 -1 -5 10.98 1.53
 6 0 -8 288.54 5.03
 6 0 -7 -0.04 1.25
 6 0 -5 1.07 1.15
 6 1 -8 -0.3 1.27
 6 1 -7 5.56 1.54
 6 1 -5 10.08 1.52
 6 1 -4 7.41 1.36
 6 2 -8 4.06 1.56
 6 2 -7 2.34 1.38
 6 2 -5 7.01 1.42
 6 3 -8 32.13 2.31
 6 3 -7 16.3 1.91
 6 3 -5 62.22 2.57
 6 3 -4 60.84 2.39
 6 3 -3 48.16 2.26
 6 4 -9 16.76 2.03
 6 4 -8 184.65 4.19
 6 4 -7 -0.61 1.3
 6 4 -6 71.38 2.79
 6 4 -5 2.03 1.32
 6 4 -4 24.02 1.86
 6 4 -2 0.34 1.03
 6 4 -1 0.46 1.07
 6 4 0 1.51 1.04
 6 5 -8 39.96 2.61
 6 5 -7 5.86 1.61
 6 5 -6 10.9 1.74
 6 5 -5 4.91 1.37
 6 5 -4 46.83 2.32
 6 5 -3 0.45 1
 6 5 -2 117.06 3.03
 6 5 -1 3.89 1.24
 6 5 0 154.59 3.48
 6 6 -8 12.36 1.98
 6 6 -7 0.61 1.52
 6 6 -6 0.11 1.46
 6 6 -5 8.32 1.61
 6 6 -4 54.28 2.5
 6 6 -3 0.39 1.07
 6 6 -2 69.97 2.49
 6 6 -1 0.19 1.07
 6 6 0 4.01 1.18
 6 6 1 58.82 2.08
 6 7 -8 43.23 2.76
 6 7 -7 25.37 2.26
 6 7 -6 49.91 2.61
 6 7 -5 79.12 2.97
 6 7 -4 20.15 1.92
 6 7 -3 47.75 2.29
 6 7 -2 150.92 3.44
 6 7 -1 3.44 1.22
 6 8 -8 27.21 2.56
 6 8 -7 0.68 1.5
 6 8 -6 0.12 1.44
 6 8 -4 -0.08 1.34
 6 8 -3 46.41 2.28
 6 8 -2 1.75 1.21
 6 8 -1 0.71 1.18
 6 9 -6 49.8 2.81
 6 9 -5 26.3 2.24
 6 9 -4 126.85 3.53
 6 9 -3 0.79 1.28
 6 9 -2 216.73 4.49
 6 9 -1 8.91 1.46
 6 9 0 280.85 4.45
 6 10 -7 1.13 1.72
 6 10 -6 1.19 1.49
 6 10 -4 45.3 2.57
 6 10 -3 6.84 1.51
 6 10 -2 65.69 2.58
 6 11 -6 0.29 1.57
 6 11 -5 33.07 2.42
 6 11 -4 5.26 1.64
 6 11 -3 23.74 2.14
 6 11 -2 50.83 2.41
 6 12 -6 57.2 3.07
 6 12 -5 5.99 1.67
 6 12 -3 40.94 2.49
 6 12 -2 3.58 1.5
 6 13 -5 40.14 2.68
 6 13 -4 73.4 3.13
 6 13 -3 1.74 1.45
 6 13 -1 9.38 1.54
 6 14 -4 7.03 1.78
 6 14 -3 7.65 1.69
 6 14 -2 23.59 2.12
 7 -7 -7 -1.13 1.55
 7 -6 -7 20.8 2.27
 7 -5 -7 14.53 2
 7 -4 -7 82.79 3.18
 7 -3 -7 0.23 1.51
 7 -3 -6 1.76 1.59
 7 -2 -8 133.51 3.76
 7 -2 -7 4.05 1.57
 7 -2 -6 17.44 2.11
 7 -1 -8 129.39 3.75
 7 -1 -7 3.6 1.73
 7 -1 -6 13.64 1.94
 7 -1 -5 68.64 2.97
 7 0 -8 0.23 1.62
 7 0 -6 -0.25 1.53
 7 0 -5 29.31 2.3
 7 1 -8 129.42 3.82
 7 1 -7 1.78 1.59
 7 1 -6 13.57 2
 7 1 -5 65.56 2.94
 7 1 -4 6.43 1.62
 7 2 -7 3.87 1.8
 7 2 -6 18.88 2.24
 7 2 -5 9.32 1.84
 7 2 -4 370.3 6.21
 7 3 -8 110.19 3.7
 7 3 -7 1.31 1.54
 7 3 -6 1.79 1.57
 7 3 -5 57.76 2.77
 7 3 -4 27.1 2.28
 7 3 -3 1.62 1.36
 7 3 -1 2.7 1.39
 7 3 0 4.13 1.48
 7 3 1 -0.45 1.29
 7 4 -8 12.03 2.14
 7 4 -6 43.59 2.73
 7 4 -5 20.53 2.12
 7 4 -2 0.9 1.43
 7 4 -1 19.16 1.96
 7 5 -7 14.61 2.18
 7 5 -6 5.93 1.85
 7 5 -5 47.38 2.74
 7 5 -3 6.41 1.68
 7 5 -2 103.8 3.21
 7 5 -1 62.69 2.63
 7 5 0 27.22 2.03
 7 6 -6 2.45 1.74
 7 6 -5 52.96 2.92
 7 6 -4 139.57 3.89
 7 6 -3 2.2 1.54
 7 6 -1 6.34 1.55
 7 6 0 5.3 1.49
 7 7 -7 0.72 1.74
 7 7 -6 14.3 2.15
 7 7 -5 17.86 2.23
 7 7 -4 103.82 3.56
 7 7 -3 6.98 1.78
 7 7 -1 4.24 1.53
 7 8 -7 43.37 2.96
 7 8 -6 67.5 3.2
 7 8 -5 2.66 1.75
 7 8 -4 11.75 1.99
 7 8 -1 18.87 1.98
 7 9 -6 5.41 1.9
 7 9 -5 27.23 2.57
 7 9 -4 16.81 2.05
 7 9 -3 9.96 1.86
 7 10 -3 0.98 1.5
 7 10 -2 8.24 1.72
 7 10 -1 7.53 1.58
 7 11 -5 0.4 1.71
 7 11 -4 91.34 3.41
 7 11 -3 15.49 2
 7 11 -1 14.07 1.85
 7 12 -4 0.98 1.67
 7 12 -3 4.04 1.68
 7 13 -3 4.03 1.73
 8 -5 -6 11 2.22
 8 -3 -7 120.33 4.04
 8 -3 -6 0.02 1.88
 8 -2 -7 2.93 1.84
 8 -2 -6 9.4 2.2
 8 -2 -5 101.18 3.81
 8 -1 -7 107.71 3.97
 8 -1 -6 2.96 1.82
 8 -1 -5 17.4 2.43
 8 0 -7 2.51 1.85
 8 0 -6 241.72 5.29
 8 0 -5 -0.51 1.59
 8 0 -4 245.97 5.35
 8 1 -7 102.13 3.84
 8 1 -6 -0.37 1.87
 8 1 -5 16.49 2.35
 8 1 -3 4.38 1.85
 8 2 -7 4.51 2.05
 8 2 -6 9.19 2.1
 8 2 -5 101.24 3.71
 8 2 -3 50.66 2.91
 8 2 -2 14.04 2.18
 8 3 -6 -0.02 1.85
 8 3 -5 7.38 1.94
 8 3 -4 118.16 3.86
 8 3 -3 16.52 2.31
 8 3 -1 54.58 2.86
 8 4 -6 134.29 4.24
 8 4 -5 1.72 1.73
 8 4 -4 128.23 4.05
 8 4 -2 -0.5 1.67
 8 5 -5 3.23 1.82
 8 5 -4 101.6 3.77
 8 5 -3 3.08 1.88
 8 5 -2 0.63 1.61
 8 5 -1 25.01 2.36
 8 6 -5 79.74 3.56
 8 6 -3 34.61 2.72
 8 6 -1 20.89 2.27
 8 7 -5 1.19 2
 8 7 -4 25.13 2.55
 8 7 -3 24.22 2.52
 8 7 -1 34.01 2.52
 8 8 -4 7.07 1.95
 8 8 -3 20.62 2.39
 8 8 -2 31.93 2.59
 8 9 -3 4.17 1.83
 8 9 -2 4.71 1.73
 -4 -11 1 19.6 1
 -4 -11 2 14.23 0.84
 -4 -10 1 80.6 1.74
 -4 -10 2 1.83 0.45
 -4 -9 1 33.21 1.11
 -4 -9 2 350.9 3.08
 -4 -9 3 2.05 0.37
 -4 -8 2 36.37 0.97
 -4 -8 3 0.28 0.26
 -4 -7 2 46.83 0.99
 -4 -7 3 270.07 2.03
 -4 -7 4 121.49 1.38
 -4 -6 3 8.3 0.36
 -4 -6 4 76.25 0.94
 -4 -4 5 2.62 0.26
 -4 -3 5 60.77 0.7
 -3 -11 1 3.13 0.5
 -3 -11 2 91.81 1.87
 -3 -10 0 163.71 2.63
 -3 -10 1 121.63 2.1
 -3 -10 2 2.29 0.4
 -3 -9 0 60.01 1.53
 -3 -9 1 176.3 2.36
 -3 -9 2 0.18 0.34
 -3 -8 0 224.28 2.74
 -3 -8 1 24.72 0.88
 -3 -8 2 18.28 0.72
 -3 -7 0 260.89 2.8
 -3 -7 1 0.92 0.32
 -3 -6 1 129.99 1.67
 -3 -6 2 171.35 1.68
 -3 -5 1 262.16 2.11
 -3 -5 2 327 2
 -3 -4 2 56.99 0.73
 -3 -3 6 0.42 0.35
 -3 -2 4 0.3 0.19
 -3 -2 5 0.38 0.26
 -3 -2 6 41.35 1.15
 -3 -1 4 1326.12 3.97
 -3 -1 5 2.04 0.35
 -3 -1 6 127.21 1.99
 -3 0 4 -0.01 0.17
 -3 0 5 330.11 2.61
 -3 1 4 1298.17 4.18
 -3 1 5 2.03 0.34
 -3 1 6 125.62 1.93
 -3 2 5 -0.09 0.28
 -3 2 6 39.28 1.15
 -3 3 6 0.69 0.34
 -2 -11 1 13.43 0.85
 -2 -10 -1 0.2 0.4
 -2 -10 0 225.11 2.9
 -2 -10 1 25.38 1.01
 -2 -9 -1 0.2 0.36
 -2 -9 0 89.41 1.8
 -2 -9 1 47.5 1.24
 -2 -8 0 77.58 1.57
 -2 -8 1 1.19 0.34
 -2 -7 -1 129.47 2.08
 -2 -7 1 82.39 1.38
 -2 -6 -1 59.1 1.34
 -2 -6 0 592.8 3.65
 -2 -6 1 83.26 1.28
 -2 -5 0 0.42 0.21
 -2 -5 1 7.57 0.4
 -2 -4 0 87.44 1.25
 -2 -4 1 3.78 0.3
 -2 -3 1 294.71 1.58
 -2 0 3 -0.14 0.16
 -2 0 4 6.19 0.45
 -2 0 5 -0.36 0.3
 -2 1 3 10.93 0.43
 -2 1 4 18.52 0.69
 -2 1 5 12.27 0.71
 -2 1 6 56.05 1.52
 -2 2 3 15.98 0.52
 -2 2 4 95.87 1.47
 -2 2 5 41.72 1.18
 -2 2 6 10.81 0.8
 -2 3 4 309.14 2.69
 -2 3 5 48.59 1.27
 -2 3 6 108.57 2.08
 -2 4 4 7.16 0.54
 -2 5 5 -0.29 0.31
 -1 -11 -1 56.81 1.65
 -1 -10 -1 234.69 3.06
 -1 -9 -1 17.02 0.84
 -1 -9 0 1.55 0.45
 -1 -8 -2 323.8 3.55
 -1 -8 -1 210.25 2.6
 -1 -8 0 1030.62 5.28
 -1 -7 -2 58.27 1.49
 -1 -7 -1 18.96 0.82
 -1 -7 0 1021.47 4.9
 -1 -6 -2 9.61 0.71
 -1 -6 -1 325.13 2.86
 -1 -5 -1 77.18 1.36
 -1 -5 0 0.38 0.22
 -1 -4 -1 778.95 3.91
 -1 -4 0 1830.84 4.96
 -1 -3 -1 0.17 0.26
 -1 -3 0 1864.87 4.4
 -1 -2 0 1886.6 3.95
 -1 0 5 1.51 0.48
 -1 1 3 594.27 3.37
 -1 1 4 143.45 2.04
 -1 2 2 4373.91 7.34
 -1 2 3 35.86 0.89
 -1 2 4 204.48 2.43
 -1 2 5 1.8 0.47
 -1 3 2 324.66 2.2
 -1 3 3 233.94 2.24
 -1 3 4 7.41 0.61
 -1 3 5 10.67 0.8
 -1 4 3 175.47 2.04
 -1 4 4 204.89 2.51
 -1 4 5 0.43 0.4
 -1 5 3 284.72 2.7
 -1 5 4 119.79 2.01
 -1 6 4 0.33 0.35
 0 -11 -1 174.09 2.77
 0 -9 -3 7.43 0.73
 0 -9 -2 65.81 1.65
 0 -8 -3 207.27 2.98
 0 -8 -2 28.52 1.07
 0 -8 -1 9.55 0.62
 0 -7 -3 48.22 1.42
 0 -7 -2 96.83 1.79
 0 -7 -1 570.65 3.82
 0 -6 -3 314.5 3.36
 0 -6 -2 596.45 4.08
 0 -6 -1 101.52 1.55
 0 -5 -2 319.56 2.84
 0 -5 -1 181.54 1.9
 0 -4 -2 388.15 2.97
 0 -4 -1 7.02 0.4
 0 -3 -1 1425.05 4.29
 0 -2 -1 45.86 0.74
 0 1 1 1230.99 3.29
 0 2 1 45.96 0.71
 0 2 3 883.07 4.73
 0 2 4 97.04 1.91
 0 2 5 5.36 0.65
 0 3 1 1433.97 4.23
 0 3 2 561.75 3.27
 0 3 3 98.4 1.67
 0 3 4 18.32 0.92
 0 4 2 395.51 2.86
 0 4 3 132.56 1.94
 0 4 4 33.84 1.18
 0 5 2 316.76 2.72
 0 5 4 302.86 3.36
 0 6 3 323.95 3.21
 0 6 4 347.91 3.68
 0 7 4 -0.13 0.42
 1 -10 -2 1.28 0.46
 1 -9 -3 121.02 2.32
 1 -9 -2 176.6 2.57
 1 -8 -4 182.33 2.97
 1 -8 -3 9.73 0.74
 1 -8 -2 206.85 2.61
 1 -7 -2 408 3.37
 1 -6 -3 72.8 1.54
 1 -6 -2 484.67 3.43
 1 -5 -3 281.57 2.83
 1 -5 -2 373.69 2.84
 1 -4 -3 172.8 2.13
 1 -4 -2 418.27 2.79
 1 -3 -2 328.33 2.31
 1 -2 -2 4284.48 7.62
 1 1 0 519.92 1.78
 1 2 0 1914.64 3.85
 1 2 1 73.01 1.1
 1 2 4 1705.83 8.22
 1 3 1 0.14 0.2
 1 3 2 145.08 1.92
 1 3 4 2.77 0.55
 1 4 1 777.9 3.74
 1 4 2 458.56 3.39
 1 5 1 75.18 1.3
 1 5 3 389.27 3.66
 1 6 2 10.06 0.67
 1 6 3 9.98 0.7
 1 7 3 28.41 1.14
 2 -10 -2 642.27 4.99
 2 -9 -2 143.66 2.3
 2 -8 -3 0.31 0.34
 2 -8 -2 26.25 0.99
 2 -7 -4 195 2.75
 2 -7 -3 11.26 0.73
 2 -7 -2 238.1 2.56
 2 -6 -4 247.78 2.95
 2 -6 -3 12.6 0.68
 2 -6 -2 1130.1 5.09
 2 -5 -3 58.64 1.24
 2 -5 -2 17.55 0.65
 2 -4 -3 1.67 0.31
 2 -4 -2 3.46 0.33
 2 -3 -2 1008.3 3.58
 2 2 0 402.68 2.22
 2 2 1 281.81 2.42
 2 2 3 111.15 2.13
 2 3 0 702.55 3.05
 2 3 1 382.85 2.87
 2 3 2 131.08 2.01
 2 3 3 2.72 0.62
 2 4 0 88.09 1.2
 2 4 2 462.96 3.77
 2 4 3 0.1 0.47
 2 5 2 113.61 1.93
 2 5 3 7.71 0.68
 2 6 2 186.45 2.54
 2 6 3 84.84 1.92
 2 7 2 153.4 2.41
 3 -10 -3 15.25 0.95
 3 -9 -3 3.53 0.52
 3 -8 -3 119.77 2.04
 3 -6 -4 2.7 0.5
 3 -6 -3 12.73 0.66
 3 -5 -4 686.36 4.3
 3 -4 -3 217.64 2.02
 3 -2 -2 763.19 2.52
 3 1 -1 306.72 1.51
 3 2 0 3 0.34
 3 2 1 5.51 0.5
 3 2 2 3.35 0.6
 3 2 3 1.18 0.56
 3 3 0 27.58 0.73
 3 3 2 12.46 0.75
 3 4 1 0.28 0.35
 3 4 2 349.34 3.56
 3 5 1 9.84 0.66
 3 5 2 185.62 2.64
 3 6 1 1.56 0.37
 3 6 2 5.64 0.59
 3 7 2 18.53 1
 4 -9 -4 113.56 2.2
 4 -9 -3 2.03 0.48
 4 -8 -4 180.15 2.58
 4 -8 -3 0.4 0.33
 4 -7 -4 123.46 2.03
 4 -7 -3 279.1 2.8
 4 -6 -4 75.02 1.49
 4 -6 -3 7.68 0.54
 4 -4 -3 0.38 0.21
 4 -3 -3 301.8 1.83
 4 1 -1 9.57 0.39
 4 1 0 894.21 4.41
 4 1 1 35.03 1.11
 4 1 2 186.61 2.81
 4 2 -1 574.88 2.56
 4 2 0 27.7 0.83
 4 2 1 44.83 1.24
 4 2 2 7.27 0.72
 4 3 0 906.15 4.42
 4 3 1 33.97 1.1
 4 4 0 16.19 0.68
 4 4 1 6.03 0.61
 4 5 0 198.73 2.24
 4 5 1 40.32 1.2
 4 6 1 44.16 1.29
 5 -7 -3 4.82 0.51
 5 -4 -3 275.51 1.85
 5 0 0 0.17 0.25
 5 0 1 1.38 0.44
 5 1 0 286.86 2.76
 5 2 1 -0.47 0.28
 5 3 1 26.26 1.05
 5 4 1 6.71 0.62
 -3 -12 1 0.93 0.5
 -3 -12 2 0.36 0.38
 -3 -11 0 194.26 2.9
 -3 -11 1 2.73 0.48
 -3 -11 2 88.54 1.68
 -3 -11 3 6.8 0.54
 -3 -10 0 159.55 2.54
 -3 -10 1 119.4 1.98
 -3 -9 0 58.82 1.5
 -3 -9 1 171 2.23
 -3 -9 2 0.22 0.26
 -3 -9 3 4.09 0.37
 -3 -9 4 52.94 0.88
 -3 -8 0 218.19 2.71
 -3 -8 1 24.99 0.86
 -3 -8 2 19.22 0.64
 -3 -8 3 119.43 1.25
 -3 -8 4 106.98 0.96
 -3 -7 1 1.44 0.35
 -3 -7 2 23.59 0.63
 -2 -12 0 190.76 2.92
 -2 -12 1 -0.13 0.34
 -2 -11 0 8.92 0.72
 -2 -11 1 13.98 0.82
 -2 -10 -1 0.32 0.42
 -2 -10 0 218.89 2.81
 -2 -10 1 25.57 0.96
 -2 -9 -1 0.36 0.36
 -2 -9 0 87.92 1.73
 -2 -9 1 45.83 1.15
 -2 -8 -2 0.62 0.44
 -2 -8 -1 94.1 1.89
 -2 -8 0 77.25 1.53
 -2 -8 1 1.55 0.36
 -2 -7 -2 153.91 2.55
 -2 -7 -1 126.96 2.07
 -2 -7 0 70.32 1.38
 -2 -7 1 85.4 1.33
 -2 -6 -1 57.1 1.34
 -2 -6 0 584.96 3.62
 -2 -5 -1 46.26 1.18
 -2 -5 0 0.48 0.24
 -2 -5 1 7.21 0.38
 -2 -5 5 -0.18 0.24
 -2 -4 0 85.03 1.26
 -2 -4 1 3.19 0.28
 -2 -4 2 3.39 0.18
 -2 -4 4 6.73 0.37
 -2 -4 5 76.93 1.29
 -2 -3 3 1.24 0.14
 -2 -3 4 299.21 1.93
 -2 -3 6 114.61 1.79
 -2 -2 3 15.71 0.31
 -2 -2 4 95.61 1.13
 -2 -2 5 44.57 0.97
 -2 -2 6 11.42 0.67
 -2 -1 4 18.43 0.54
 -2 -1 5 12.89 0.59
 -2 -1 6 55.1 1.28
 -1 -12 0 167.95 2.74
 -1 -11 -1 59.03 1.65
 -1 -11 0 431 3.98
 -1 -10 -2 242.73 3.36
 -1 -9 -2 8.59 0.81
 -1 -9 -1 17.71 0.92
 -1 -8 -3 1.89 0.56
 -1 -8 -2 317.42 3.51
 -1 -8 -1 213.42 2.62
 -1 -7 -3 28.33 1.25
 -1 -7 -2 54.32 1.43
 -1 -7 -1 18.05 0.76
 -1 -6 -3 10.62 0.86
 -1 -6 -2 9.18 0.63
 -1 -6 -1 328.51 2.87
 -1 -6 0 20.76 0.69
 -1 -6 6 -0.26 0.42
 -1 -5 -2 89.24 1.67
 -1 -5 0 0.54 0.24
 -1 -4 -2 460.5 3.58
 -1 -4 -1 757.23 3.87
 -1 -4 0 1849.98 4.97
 -1 -4 5 -0.17 0.36
 -1 -3 -1 0.25 0.22
 -1 -3 0 1879.25 4.48
 -1 -3 5 10.84 0.67
 -1 -3 6 5.53 0.69
 -1 -2 0 1880.83 4.05
 -1 -2 4 199.45 2.11
 -1 -2 5 1.99 0.43
 -1 -2 6 12.31 0.8
 -1 -1 3 596.05 2.94
 -1 0 2 -0.11 0.1
 -1 0 3 204.96 1.79
 -1 0 4 -0.07 0.28
 -1 0 6 0.23 0.36
 -1 1 5 78.9 1.62
 -1 1 6 26.84 1.11
 -1 2 3 34.83 0.84
 -1 2 4 203.91 2.3
 -1 2 5 1.73 0.46
 0 -10 -2 136.7 2.49
 0 -9 -3 7.28 0.8
 0 -8 -2 28.91 1.1
 0 -7 -4 0.37 0.51
 0 -7 -3 45.57 1.36
 0 -7 -2 96.41 1.78
 0 -6 -3 318.34 3.37
 0 -6 -2 591.4 4.06
 0 -5 -3 3.41 0.48
 0 -5 -2 307.45 2.78
 0 -4 -3 133.49 2.02
 0 -4 -2 388.44 2.95
 0 -4 -1 6.63 0.42
 0 -3 -3 100.38 1.72
 0 -3 -2 547.31 3.29
 0 -3 -1 1399.23 4.32
 0 -3 5 14.75 0.92
 0 -2 -2 261.02 2.17
 0 -2 5 5.46 0.64
 0 -1 -1 1247.27 3.28
 0 -1 4 158.72 2.23
 0 -1 5 6.92 0.7
 0 0 2 2731.09 6.34
 0 0 3 0.14 0.23
 0 0 4 266.66 2.86
 0 0 5 -0.21 0.47
 0 1 1 1230.26 3.21
 0 1 2 751.81 3.42
 0 1 3 86.03 1.48
 0 1 4 154.73 2.24
 0 1 5 6.67 0.71
 0 2 2 263.8 2.14
 0 2 3 902 4.64
 0 2 5 6.62 0.64
 0 3 2 556.3 3.25
 0 3 4 17.2 0.85
 0 3 5 14.7 0.96
 0 4 4 36.29 1.23
 1 -8 -4 181.06 2.93
 1 -8 -3 10.06 0.73
 1 -7 -4 32.75 1.29
 1 -7 -3 49.4 1.37
 1 -6 -4 0 0.36
 1 -5 -4 123.51 2.16
 1 -5 -3 287.29 2.85
 1 -4 -4 206.79 2.64
 1 -4 -3 175.57 2.12
 1 -3 -4 7.54 0.6
 1 -3 -3 239.48 2.33
 1 -3 -2 325.33 2.32
 1 -2 -2 4249.05 7.49
 1 -1 -2 38.68 0.67
 1 -1 4 9.87 0.82
 1 0 3 6.87 0.61
 1 1 0 512.63 1.92
 1 1 1 186.55 1.68
 1 1 2 254.73 2.43
 1 1 3 428.16 3.61
 1 1 4 10.36 0.83
 1 2 0 1929.13 4.03
 1 2 1 73.26 1.11
 1 2 2 455.12 3.26
 1 2 4 1708.44 8.09
 1 3 4 2.76 0.54
 1 4 1 780.57 3.85
 1 4 2 462.65 3.46
 1 4 4 35.53 1.27
 1 5 3 391.82 3.72
 1 5 4 10.31 0.83
 1 6 3 10.6 0.79
 2 -8 -4 80.55 1.91
 2 -6 -4 246.13 2.96
 2 -5 -5 0.27 0.48
 2 -5 -4 102.12 1.84
 2 -5 -3 58.7 1.27
 2 -4 -5 76.64 1.7
 2 -4 -4 6.5 0.58
 2 -4 -3 1.5 0.29
 2 -3 -4 298.5 2.75
 2 -2 -4 94.62 1.48
 2 1 3 1.94 0.48
 2 2 -1 199.94 1.16
 2 2 0 401.91 2.44
 2 2 1 278.84 2.53
 2 2 3 111.7 2.17
 2 3 0 727.66 3.36
 2 3 1 376.08 2.96
 2 3 2 129.21 2.07
 2 4 0 86.76 1.25
 2 4 2 444.64 3.76
 2 4 3 -0.22 0.36
 2 5 2 117.69 2.06
 2 5 3 6.78 0.72
 2 6 2 183.14 2.59
 3 -7 -5 37.45 1.35
 3 -7 -4 72.61 1.7
 3 -6 -5 10.02 0.79
 3 -5 -6 129.74 2.4
 3 -5 -5 7.75 0.67
 3 -5 -4 677.7 4.44
 3 -4 -5 223.57 2.65
 3 -4 -4 103.97 1.71
 3 -3 -5 6.09 0.54
 3 -3 -4 605.13 3.61
 3 -1 -4 1277.61 4.25
 3 -1 -3 46.34 0.76
 3 0 -3 266.37 1.31
 3 1 2 202.11 2.83
 3 2 -1 75.09 1.04
 3 2 1 5.46 0.58
 3 2 2 3.26 0.53
 3 3 -1 84.75 1.1
 3 3 1 24.89 0.94
 3 4 1 -0.12 0.27
 3 4 2 342.42 3.67
 3 5 1 9.47 0.64
 3 5 2 186.43 2.8
 3 6 1 1.34 0.47
 3 6 2 5.63 0.65
 4 -6 -5 5.43 0.64
 4 -4 -4 451.89 3.35
 4 -2 -5 0.3 0.24
 4 -2 -4 8.78 0.46
 4 -1 -4 145.31 1.29
 4 2 -2 5.65 0.32
 4 2 0 27.38 0.97
 4 2 1 44.68 1.38
 4 3 -2 172.02 1.33
 4 3 -1 30.12 0.83
 4 3 0 914.35 5.12
 4 3 1 33.49 1.19
 4 4 -1 24.77 0.76
 4 4 0 14.8 0.76
 4 4 1 5.15 0.62
 4 5 -1 11.13 0.56
 4 5 0 195.44 2.45
 4 5 1 39.45 1.31
 4 6 0 84.68 1.68
 4 6 1 43.03 1.38
 4 7 1 15.24 0.92
 5 1 0 283.84 3.32
 5 2 -1 -0.06 0.32
 5 2 0 420.5 3.95
 5 3 -1 63.88 1.35
 5 3 0 26.31 1.07
 5 4 -1 6.19 0.5
 5 4 0 35.9 1.21
 5 5 0 260.98 3.12
 5 6 0 203.87 2.79
 -2 -13 0 59.92 1.55
 -2 -12 0 186.89 2.61
 -2 -12 1 0.19 0.3
 -2 -12 2 12.15 0.52
 -2 -11 -1 47.12 1.47
 -2 -11 0 8.69 0.69
 -2 -11 2 3.49 0.33
 -2 -10 -1 -0.16 0.37
 -2 -10 0 216.61 2.6
 -2 -10 1 22.79 0.76
 -2 -9 -2 125.04 2.41
 -2 -9 -1 0.63 0.46
 -2 -9 0 87.49 1.64
 -2 -9 1 44.6 0.97
 -2 -8 -2 0.49 0.41
 -2 -8 -1 94.23 1.81
 -2 -8 1 0.82 0.26
 -2 -7 -1 129.17 2.05
 -2 -7 0 68.93 1.31
 -2 -7 1 85.9 1.21
 -2 -6 -2 186.41 2.69
 -2 -6 -1 58.91 1.34
 -2 -6 0 592.79 3.58
 -2 -5 0 0.47 0.22
 -1 -13 0 1.21 0.43
 -1 -13 1 4.62 0.55
 -1 -12 -1 26.39 1.13
 -1 -12 0 160.99 2.37
 -1 -12 2 7.53 0.48
 -1 -11 -1 60.34 1.57
 -1 -11 0 437.47 3.66
 -1 -11 1 0.83 0.33
 -1 -11 3 0.33 0.15
 -1 -10 -2 250.03 3.31
 -1 -10 -1 230.52 2.88
 -1 -10 0 77.66 1.53
 -1 -10 3 61.76 0.65
 -1 -9 -2 8.95 0.78
 -1 -9 -1 18.07 0.86
 -1 -9 0 1.4 0.33
 -1 -8 -3 2.34 0.66
 -1 -8 -2 314.8 3.42
 -1 -8 -1 213.64 2.51
 -1 -8 0 1031.82 4.77
 -1 -7 -3 28.66 1.2
 -1 -7 -2 55.01 1.42
 -1 -7 0 1021.58 4.45
 -1 -6 -3 10.26 0.83
 -1 -6 -2 8.56 0.64
 -1 -6 0 20.44 0.64
 -1 -6 1 18 0.47
 -1 -5 -4 9.77 0.87
 -1 -5 -3 390.33 3.78
 -1 -5 -1 75.65 1.32
 -1 -5 0 0.6 0.21
 -1 -5 1 63.28 0.75
 -1 -4 -4 33.53 1.32
 -1 -4 -3 17.71 0.89
 -1 -4 -2 460.82 3.49
 -1 -4 -1 785.26 3.89
 -1 -4 0 1828.89 4.76
 -1 -4 1 366.81 1.43
 -1 -3 -4 3.12 0.57
 -1 -3 -2 142.07 1.92
 -1 -3 -1 0.23 0.29
 -1 -3 0 1866.13 4.41
 -1 -2 -4 1726.17 8.04
 -1 -2 -1 74.02 1.11
 -1 -2 0 1865.36 4.1
 0 -9 -3 7.98 0.8
 0 -8 -3 206.62 2.94
 0 -8 4 23.68 0.7
 0 -7 -3 47.31 1.42
 0 -7 4 0.14 0.24
 0 -6 -4 348.03 3.88
 0 -6 -3 323.34 3.37
 0 -6 3 328.44 2.23
 0 -6 4 350.67 2.59
 0 -6 5 17.84 0.72
 0 -5 -4 300.64 3.49
 0 -5 -3 2.41 0.42
 0 -5 3 2.77 0.32
 0 -5 4 299.24 2.45
 0 -4 -4 34.63 1.22
 0 -4 -2 386.11 2.94
 0 -4 3 134.51 1.45
 0 -4 4 36.17 0.91
 0 -3 -5 15.05 0.95
 0 -3 -4 17.4 0.89
 0 -3 -2 540.8 3.25
 0 -3 3 100.26 1.29
 0 -3 4 15.78 0.67
 0 -2 -5 7.13 0.77
 0 -2 -4 96.63 1.79
 0 -2 -3 908.58 4.67
 0 -2 -2 267.54 2.19
 0 -2 2 259.62 1.67
 0 -2 3 938.7 3.97
 0 -2 4 96.65 1.57
 0 -1 -5 5.85 0.69
 0 -1 -4 154.19 2.18
 0 -1 -3 85.74 1.42
 0 -1 -2 753.89 3.37
 0 -1 -1 1202.53 3.18
 0 -1 1 1206.5 2.55
 0 -1 2 745.38 2.93
 0 -1 3 84.89 1.3
 0 0 -4 269.07 2.75
 0 0 -3 0.28 0.24
 0 0 -2 2760.23 6.01
 0 0 -1 0.36 0.14
 0 0 1 0.1 0.12
 0 0 2 2724.51 5.92
 0 1 -2 758.2 2.95
 1 -9 4 9.14 0.66
 1 -8 4 10.81 0.69
 1 -6 -4 0.63 0.42
 1 -6 5 2.42 0.52
 1 -5 -4 124.85 2.18
 1 -5 3 377.21 3.02
 1 -5 4 9.75 0.68
 1 -5 5 43.22 1.3
 1 -4 -5 0.18 0.44
 1 -4 -4 202.35 2.65
 1 -4 3 16.82 0.73
 1 -4 4 34.57 1.09
 1 -4 5 34.06 1.19
 1 -3 -5 10.11 0.76
 1 -3 -4 8.15 0.6
 1 -3 3 139.23 1.89
 1 -3 4 2.26 0.45
 1 -2 -6 12.14 0.93
 1 -2 -4 200.84 2.39
 1 -2 3 1.4 0.37
 1 -2 5 0.08 0.38
 1 -1 -5 76.2 1.6
 1 -1 -4 138.91 1.9
 1 -1 -3 605.56 3.32
 1 -1 2 246.63 2.21
 1 -1 3 431.99 3.33
 1 -1 4 9.48 0.73
 1 0 -6 0.3 0.41
 1 0 -4 0.08 0.25
 1 0 -3 200.6 1.8
 1 0 2 -0.12 0.21
 1 0 3 6.36 0.55
 1 0 4 -0.31 0.32
 1 1 -5 81.39 1.54
 1 1 -4 141.11 1.69
 1 1 -3 586.37 2.74
 1 1 1 189.98 1.65
 1 1 2 252.15 2.33
 1 1 3 417.6 3.43
 1 1 4 9.85 0.76
 1 2 -4 198.8 1.83
 1 2 -2 4299.79 4.15
 1 2 0 1931.34 4.13
 1 2 2 469.08 3.26
 1 2 3 1.45 0.37
 1 3 0 1920 4.44
 1 3 1 -0.13 0.19
 1 3 2 145.27 1.92
 2 -7 4 1.75 0.48
 2 -5 3 7.87 0.65
 2 -5 4 222.53 2.99
 2 -4 -5 75.6 1.78
 2 -4 3 0.64 0.43
 2 -3 3 2.1 0.46
 2 -3 4 5.2 0.7
 2 -2 -5 41.96 1.22
 2 -2 2 85.46 1.56
 2 -2 3 107.7 1.95
 2 -2 4 62.85 1.68
 2 -1 3 1.59 0.51
 2 0 -6 100.6 1.85
 2 0 -5 0.13 0.26
 2 0 2 1270.19 5.93
 2 0 3 -0.12 0.41
 2 1 1 234.43 2.33
 2 1 3 2.58 0.5
 2 2 -4 93.44 1.12
 2 2 0 400.99 2.62
 2 2 1 278.74 2.55
 2 2 3 109.24 2.12
 2 3 -1 305.5 1.86
 2 3 0 722.88 3.53
 2 3 1 366.09 2.96
 2 3 3 2.18 0.52
 2 4 -1 3.61 0.28
 2 4 0 88.82 1.32
 2 4 2 441.43 3.77
 2 4 3 0.3 0.53
 2 5 0 0.17 0.23
 2 5 2 118.02 2.09
 3 -3 -6 0.13 0.48
 3 -2 2 2.64 0.5
 3 -1 -6 126.9 2.1
 3 -1 2 196.59 2.78
 3 0 -6 0.08 0.3
 3 0 2 -0.04 0.35
 3 1 2 189.84 2.72
 3 2 -5 0.11 0.19
 3 2 1 5.16 0.58
 3 3 -1 85.57 1.34
 3 3 1 23.95 0.98
 3 3 2 11.76 0.84
 3 4 -3 225.82 1.28
 3 4 -2 58.68 0.93
 3 4 0 286.33 2.76
 3 4 1 0.45 0.39
 3 4 2 351.23 3.8
 3 5 0 286.28 2.8
 3 5 1 9.92 0.7
 3 5 2 190.64 2.88
 3 6 0 47.96 1.2
 3 6 1 1.96 0.46
 4 0 1 -0.29 0.38
 4 2 0 27.19 1.06
 4 2 1 43.88 1.38
 4 3 -1 30.89 1
 4 3 0 918.99 5.6
 4 3 1 33.78 1.29
 4 4 -2 23.99 0.8
 4 4 -1 25.65 0.94
 4 4 0 15.46 0.88
 4 5 -2 190.66 2.07
 4 5 -1 11.93 0.7
 4 5 0 197.71 2.71
 4 5 1 39.48 1.42
 4 6 -2 8.54 0.52
 4 6 -1 277.57 2.85
 4 6 0 79.84 1.76
 4 7 -2 46.9 1.02
 5 2 -1 0.26 0.43
 5 3 -2 103.65 1.89
 5 3 -1 64.24 1.64
 5 4 -3 276.73 2.68
 5 4 -2 21.8 0.93
 5 5 -2 288.84 3.01
 5 5 -1 118.7 2.17
 5 6 -2 14.41 0.73
 5 6 -1 0.67 0.43
 5 8 -1 0.82 0.44
 -6 1 4 7.13 0.65
 -5 -6 2 13.56 0.48
 -5 -1 2 456.14 2.39
 -5 0 2 0.09 0.19
 -5 1 2 445.31 2.69
 -5 1 3 12.22 0.64
 -5 2 2 8.9 0.49
 -5 2 3 8.53 0.59
 -5 3 2 107.1 1.57
 -5 3 3 0.34 0.34
 -5 4 2 22.22 0.81
 -5 4 3 275.72 2.92
 -5 4 4 3.34 0.53
 -5 5 2 282.71 2.76
 -5 6 2 14.07 0.76
 -4 -11 2 14.31 0.8
 -4 -10 1 83.22 1.5
 -4 -10 2 1.66 0.41
 -4 -9 1 32.43 0.86
 -4 -9 2 357.45 3.05
 -4 -8 1 61.65 1.1
 -4 -7 1 31.52 0.7
 -4 -6 1 276.86 1.75
 -4 -5 1 11.59 0.35
 -4 -1 1 10.05 0.27
 -4 0 1 0.23 0.13
 -4 1 1 9.54 0.36
 -4 1 2 16.25 0.59
 -4 2 1 572.44 2.76
 -4 3 1 30.2 0.74
 -4 3 2 171.51 1.96
 -4 3 3 306.6 2.93
 -4 4 3 -0.02 0.29
 -4 5 2 188.79 2.27
 -4 5 3 13.02 0.73
 -4 5 4 11.27 0.77
 -4 6 2 7.69 0.6
 -4 6 3 9.01 0.71
 -4 7 2 48.53 1.31
 -4 7 3 275.07 3.19
 -3 -12 0 57.19 1.43
 -3 -12 1 1.41 0.44
 -3 -11 0 202.16 2.5
 -3 -11 1 3.59 0.51
 -3 -11 2 95.74 1.92
 -3 -10 0 159.76 2.09
 -3 -10 1 125.42 1.94
 -3 -10 2 1.98 0.46
 -3 -9 0 62.25 1.23
 -3 -8 0 218.7 2.04
 -3 -8 1 25.01 0.79
 -3 -7 0 255.83 1.99
 -3 -7 1 1.24 0.27
 -3 -6 0 47.97 0.77
 -3 0 1 421.45 1.95
 -3 1 1 308.86 1.85
 -3 2 1 75.67 1.02
 -3 3 1 86.84 1.2
 -3 3 2 167.31 1.9
 -3 4 1 206.94 2
 -3 4 2 55.88 1.15
 -3 5 2 337.88 2.93
 -3 5 3 32.5 1.07
 -3 6 1 124.63 1.77
 -3 6 2 174.38 2.22
 -3 6 4 2.83 0.54
 -3 7 2 23.97 0.95
 -3 7 3 18.1 0.93
 -3 8 2 19.66 0.93
 -3 8 3 124.11 2.21
 -3 9 2 0.36 0.36
 -2 -12 0 189.14 2.69
 -2 -12 1 0.36 0.47
 -2 -11 0 8.78 0.68
 -2 -11 1 13.14 0.82
 -2 -11 2 3.33 0.6
 -2 -10 0 226 2.62
 -2 -10 1 23.13 0.95
 -2 -9 0 89.88 1.56
 -2 -8 1 0.83 0.3
 -2 -7 0 71.91 1.19
 -2 -6 0 592.02 2.95
 -2 -5 0 0.15 0.13
 -2 -4 0 86.76 0.87
 -2 -3 0 693.68 1.88
 -2 2 1 196.97 1.55
 -2 3 1 299.48 2.1
 -2 4 2 3.28 0.37
 -2 5 1 7.86 0.47
 -2 6 1 81.41 1.43
 -2 6 2 1150.62 5.46
 -2 7 1 82.75 1.5
 -2 7 2 240.02 2.63
 -2 7 3 10.42 0.69
 -2 7 4 201.59 2.88
 -2 8 1 0.74 0.31
 -2 8 3 0.49 0.36
 -2 9 2 142.96 2.31
 -2 9 3 76.67 1.75
 -2 10 2 622.62 4.79
 -1 -12 -1 27.79 1.18
 -1 -12 0 166.93 2.66
 -1 -11 -1 57.8 1.5
 -1 -11 0 448.06 4.01
 -1 -11 1 0 0.42
 -1 -10 -1 233.75 2.78
 -1 -10 1 11.01 0.75
 -1 -9 0 1.05 0.33
 -1 -9 1 15.6 0.77
 -1 -8 -1 204.96 2.28
 -1 -8 0 1029.41 4.9
 -1 -7 -1 18.15 0.67
 -1 -7 0 1008.69 4.49
 -1 -6 0 21.05 0.66
 -1 -5 0 0.4 0.18
 -1 -4 0 1869.94 4.48
 -1 -3 0 1948.55 3.81
 -1 -2 0 1915.87 2.84
 -1 1 0 514.33 1.54
 -1 4 1 391.43 2.46
 -1 5 1 64.53 1.11
 -1 6 1 16.78 0.67
 -1 7 3 48.49 1.28
 -1 7 4 32.35 1.18
 -1 8 2 208.16 2.52
 -1 8 4 188.03 2.77
 -1 9 2 179.04 2.48
 -1 9 3 115.02 2.08
 -1 10 2 1.65 0.45
 0 -11 -1 158.32 2.53
 0 -11 0 -0.49 0.37
 0 -11 1 178 2.74
 0 -10 0 2.35 0.45
 0 -9 -1 11.76 0.71
 0 -9 0 0.58 0.29
 0 -8 -1 9.67 0.64
 0 -8 0 712.71 4.26
 0 -7 -1 572.01 3.68
 0 -7 0 0.44 0.24
 0 -6 -1 99.19 1.46
 0 -5 -1 182.51 1.79
 0 -5 0 2.74 0.32
 0 -4 0 9653.93 10.96
 0 -3 0 0.23 0.11
 0 -2 0 228.55 1.17
 0 3 1 1436.24 3.97
 0 4 1 7.18 0.37
 0 5 1 184.5 1.74
 0 5 2 317.5 2.54
 0 6 3 330.06 3.04
 0 7 2 94.6 1.57
 0 7 3 48.13 1.23
 0 7 4 0.07 0.33
 0 8 1 8.76 0.55
 0 8 2 27.9 0.95
 0 8 3 214.45 2.66
 0 8 4 26 1.09
 0 9 3 6.28 0.58
 0 10 3 108.59 2.1
 0 11 2 5.19 0.6
 1 -11 -1 0.85 0.56
 1 -11 0 448.3 4.27
 1 -10 -1 12.75 0.82
 1 -9 -1 16.99 0.86
 1 -9 0 1.86 0.46
 1 -9 1 17.46 0.85
 1 -8 -1 107.72 1.84
 1 -8 0 1008.33 5.27
 1 -8 1 211.05 2.49
 1 -7 -1 1.47 0.37
 1 -7 0 1010.95 4.91
 1 -7 1 18.7 0.76
 1 -6 -1 17.51 0.72
 1 -5 0 0.16 0.18
 1 -4 0 1822.12 5.11
 1 -3 0 1944.66 4.63
 1 -2 0 1888.4 3.85
 1 3 1 -0.02 0.11
 1 4 1 769.01 2.93
 1 4 2 473.41 2.75
 1 5 3 388.41 3.01
 1 6 1 326.7 2.33
 1 6 3 11.63 0.62
 1 6 4 470.65 3.84
 1 7 2 53.27 1.13
 1 7 3 27.61 0.93
 1 7 4 2.69 0.45
 1 8 3 1.08 0.32
 1 8 4 11.71 0.76
 1 9 2 7.76 0.56
 1 9 3 232.6 2.76
 1 9 4 9.89 0.72
 1 10 2 246.03 2.76
 1 10 3 15.5 0.85
 2 -10 -1 23.69 1.11
 2 -10 0 220.68 2.98
 2 -10 1 0.3 0.39
 2 -9 -1 46.12 1.36
 2 -9 1 0.62 0.35
 2 -9 2 127.43 2.25
 2 -8 -1 1.3 0.41
 2 -8 1 92.55 1.78
 2 -8 2 0.16 0.38
 2 -7 -1 84.29 1.61
 2 -7 0 70.6 1.43
 2 -7 1 128.83 1.96
 2 -6 -1 79.98 1.45
 2 -6 0 602.71 3.72
 2 -6 1 57.7 1.23
 2 -5 0 0.03 0.19
 2 -4 0 86.49 1.21
 2 -4 1 107.99 1.4
 2 -3 0 716.97 3.06
 2 -2 0 397.73 1.99
 2 4 1 107.36 0.97
 2 4 2 457.05 2.44
 2 5 3 6.6 0.45
 2 7 3 0.16 0.25
 2 8 2 1.16 0.28
 2 8 3 0.37 0.22
 3 -9 0 61.91 1.57
 3 -9 1 10.96 0.81
 3 -8 0 218.87 2.73
 3 -8 1 -0.2 0.33
 3 -7 0 257.17 2.75
 3 -7 1 71.58 1.48
 3 -7 2 19.57 0.92
 3 -7 3 0.38 0.37
 3 -6 1 1.54 0.33
 3 -6 2 6.02 0.57
 3 -6 3 0.93 0.34
 3 -5 0 277.48 2.46
 3 -5 1 10.27 0.56
 3 -5 2 181.28 2.14
 3 -4 0 278.36 2.27
 3 -4 1 0.36 0.25
 3 -4 2 346.21 2.74
 3 -3 0 27.03 0.67
 3 -1 1 0.16 0.11
 3 2 2 2.82 0.18
 3 3 2 13.42 0.29
 4 -8 0 31.47 1.13
 4 -8 1 3.68 0.55
 4 -7 0 234.1 2.73
 4 -7 1 15.08 0.8
 4 -7 2 40.42 1.21
 4 -6 1 41.49 1.11
 4 -6 2 18.11 0.81
 4 -5 1 40.42 1.01
 4 -5 2 13.03 0.66
 4 -3 1 33.71 0.74
 4 -3 2 232.37 1.97
 4 -2 2 8.09 0.36
 -5 -5 3 27.33 0.59
 -5 -4 3 274.17 1.68
 -5 -3 3 0.33 0.2
 -5 -2 3 8.45 0.4
 -5 -2 4 15.5 0.71
 -5 -1 3 12.44 0.5
 -5 -1 4 24.78 0.86
 -5 -1 5 1.23 0.47
 -5 0 3 439.05 2.68
 -5 0 4 0.18 0.28
 -5 1 3 12.97 0.58
 -5 1 4 23.95 0.88
 -5 1 5 1.32 0.44
 -5 2 4 15.14 0.77
 -5 2 5 0.76 0.44
 -5 4 4 4.11 0.6
 -5 5 4 65.2 1.57
 -4 -10 2 1.94 0.37
 -4 -9 1 32.33 0.73
 -4 -9 2 352.18 2.64
 -4 -8 2 35.06 0.79
 -4 -3 2 168.13 1.04
 -4 -2 2 6.3 0.26
 -4 -1 2 16.96 0.43
 -4 -1 3 178.62 1.86
 -4 0 2 9.32 0.38
 -4 0 3 -0.18 0.21
 -4 0 4 670.51 4.35
 -4 1 3 178.71 1.97
 -4 1 4 145.17 2.12
 -4 1 5 43.55 1.37
 -4 2 3 1.78 0.38
 -4 2 4 9.18 0.68
 -4 2 5 0.27 0.39
 -4 3 3 315.26 2.83
 -4 3 4 333.29 3.29
 -4 3 5 60.63 1.64
 -4 4 3 0.11 0.34
 -4 4 4 440.49 3.87
 -4 5 3 13.07 0.76
 -4 5 4 14.43 0.87
 -3 -13 1 77.15 1.73
 -3 -12 0 58.72 1.43
 -3 -12 1 1.82 0.44
 -3 -12 2 0.57 0.45
 -3 -11 0 197.91 2.41
 -3 -10 0 156.57 2.02
 -3 -10 1 123.58 1.82
 -3 -9 0 62.03 1.24
 -3 -9 1 173.77 1.98
 -3 -8 0 211.22 1.94
 -3 -8 1 24.79 0.73
 -3 -7 1 1.2 0.24
 -3 -6 1 128.14 1.25
 -3 -5 1 262.07 1.47
 -3 -4 1 211.05 1.02
 -3 0 2 -0.08 0.17
 -3 1 2 913.44 3.66
 -3 1 3 44.62 1.04
 -3 2 2 771.54 3.57
 -3 2 3 17.38 0.72
 -3 2 4 0.46 0.33
 -3 3 3 41.69 1.07
 -3 3 4 629.18 4.54
 -3 3 5 7.7 0.73
 -3 4 3 221.68 2.48
 -3 4 4 104.1 1.95
 -3 5 4 682.62 4.94
 -3 6 3 13.72 0.8
 -3 6 4 2.18 0.5
 -3 7 3 19.65 0.96
 -3 7 4 72.42 1.77
 -2 -12 -1 59.19 1.55
 -2 -12 0 187.75 2.66
 -2 -12 1 0.3 0.45
 -2 -11 -1 47.48 1.33
 -2 -11 0 8.57 0.68
 -2 -11 1 13.25 0.77
 -2 -10 -1 0.25 0.31
 -2 -10 0 217.94 2.53
 -2 -10 1 24.23 0.91
 -2 -7 0 70.83 1.17
 -2 -6 0 580.13 2.87
 -2 -5 0 0.24 0.15
 -2 -4 0 86.77 0.85
 -2 0 1 -0.16 0.08
 -2 1 1 70.58 0.81
 -2 2 1 195.74 1.51
 -2 2 2 570.12 3.1
 -2 3 2 1009.98 4.34
 -2 3 3 1.49 0.33
 -2 4 3 2.42 0.44
 -2 4 4 6.89 0.66
 -2 4 5 73.6 1.85
 -2 5 2 18.02 0.72
 -2 5 3 58.06 1.35
 -2 6 2 1139.27 5.42
 -2 6 3 14.34 0.74
 -2 6 4 248.84 3.11
 -2 7 3 9.91 0.67
 -2 7 4 195.83 2.85
 -2 8 3 0.65 0.45
 -2 9 3 76.74 1.79
 -1 -12 -1 26.77 1.17
 -1 -12 0 164.2 2.61
 -1 -12 1 58.66 1.6
 -1 -11 -1 58.21 1.53
 -1 -10 -1 233.09 2.84
 -1 -9 0 1 0.38
 -1 -8 -1 216.43 2.4
 -1 -8 0 1051.69 5.02
 -1 -7 -1 18.92 0.72
 -1 -7 0 1046.6 4.61
 -1 -6 -1 321.4 2.51
 -1 -6 0 19.16 0.62
 -1 -5 0 0.36 0.22
 -1 -4 0 1839.73 4.36
 -1 -3 0 1861.22 3.64
 -1 -2 0 1913.51 2.78
 -1 1 1 9.91 0.32
 -1 2 1 0.23 0.15
 -1 3 1 33.93 0.69
 -1 3 2 321.63 2.45
 -1 4 1 370.45 2.4
 -1 4 2 426.18 2.95
 -1 4 4 199.69 2.66
 -1 5 2 366.05 2.86
 -1 5 4 121.96 2.17
 -1 6 4 0.42 0.38
 -1 7 3 50.48 1.35
 -1 7 4 31.12 1.23
 -1 8 3 10.93 0.8
 -1 9 3 114.73 2.13
 0 -11 -2 4.51 0.72
 0 -11 -1 174.16 2.69
 0 -10 -2 133.12 2.39
 0 -10 -1 16.15 0.89
 0 -10 0 2.63 0.55
 0 -9 -2 66.71 1.58
 0 -9 -1 11.17 0.74
 0 -9 0 0.08 0.36
 0 -8 -2 26.09 1
 0 -8 -1 8.33 0.63
 0 -8 0 698.51 4.23
 0 -7 -1 578.63 3.74
 0 -7 0 0.35 0.24
 0 -6 -1 97.91 1.5
 0 -5 -1 182.67 1.84
 0 -4 -1 7.35 0.41
 0 -3 -1 1445.31 4.21
 0 2 1 46.56 0.7
 0 3 1 1448.74 4.12
 0 4 1 7.43 0.39
 0 4 2 400.02 2.82
 0 5 1 185.11 1.8
 0 5 2 308.5 2.59
 0 5 4 302.13 3.33
 0 6 3 321.28 3.12
 0 6 4 345.76 3.62
 0 7 2 96.99 1.64
 0 7 3 46.41 1.27
 0 7 4 0.39 0.4
 0 8 2 27.8 0.97
 0 8 4 23.99 1.1
 0 10 3 106.78 2.12
 1 -11 -1 0.44 0.49
 1 -10 -2 0.94 0.58
 1 -10 0 76.77 1.75
 1 -9 -2 172.84 2.59
 1 -9 -1 16.68 0.85
 1 -9 0 1.74 0.44
 1 -8 -2 195.89 2.61
 1 -8 -1 106.19 1.82
 1 -8 0 1044.22 5.47
 1 -7 -2 414.24 3.54
 1 -7 -1 1.28 0.36
 1 -6 -2 481.82 3.6
 1 -5 -1 63.05 1.16
 1 -4 -1 368.05 2.45
 1 -3 -1 34.34 0.7
 1 -2 -1 -0.01 0.12
 1 3 1 0.28 0.18
 1 4 1 769.08 3.14
 1 4 2 478.51 3.04
 1 5 3 387.17 3.29
 1 5 4 10.23 0.78
 1 6 3 10.68 0.69
 1 6 4 475.66 4.19
 1 7 2 56.62 1.24
 1 7 4 2.22 0.54
 1 8 2 313.01 2.91
 1 8 3 1.45 0.4
 1 8 4 10.89 0.83
 1 9 3 230.65 2.92
 2 -10 -2 630.43 5.21
 2 -10 0 219.43 3.03
 2 -9 -2 144.72 2.48
 2 -9 0 87.13 1.83
 2 -8 -2 27.77 1.12
 2 -8 -1 1.06 0.41
 2 -7 -1 81.9 1.55
 2 -7 0 68.03 1.46
 2 -6 -2 1139.1 5.68
 2 -5 -2 17.2 0.75
 2 -5 -1 7.99 0.52
 2 -4 -1 3.61 0.39
 2 -3 -1 295.97 2.13
 2 -2 -1 194.34 1.57
 2 3 1 377.59 1.92
 2 4 1 106.27 1.11
 2 4 3 0.17 0.27
 2 4 4 105.74 2.01
 2 5 3 6.96 0.58
 2 5 4 223.51 2.87
 2 6 2 185.62 2.01
 2 6 3 80.25 1.53
 2 6 4 251.97 3.04
 2 7 2 155.85 1.95
 2 7 3 -0.1 0.28
 2 7 4 1.86 0.49
 2 8 3 0.25 0.33
 2 9 3 6.13 0.61
 3 -9 -2 0.23 0.44
 3 -9 -1 169.74 2.66
 3 -8 -2 20.13 1.03
 3 -8 -1 25.55 1.04
 3 -8 0 222.13 2.83
 3 -7 -2 25.52 1.04
 3 -7 -1 0.81 0.34
 3 -7 0 259.1 2.86
 3 -6 -2 168.53 2.32
 3 -6 -1 129.11 1.92
 3 -6 0 48.42 1.19
 3 -5 -2 337.66 3.04
 3 -5 -1 262.85 2.52
 3 -5 0 271.94 2.52
 3 -4 -1 205.12 2.06
 3 -4 0 280.95 2.39
 3 -3 -1 82.61 1.21
 3 -3 0 27.5 0.71
 3 -1 0 235.83 1.49
 3 0 0 0.1 0.09
 3 2 1 6.01 0.26
 3 3 1 24.47 0.45
 3 4 2 350.64 2.4
 3 6 2 5.58 0.38
 4 -8 -2 37.56 1.34
 4 -8 0 30.26 1.17
 4 -7 -1 31.81 1.12
 4 -7 0 242.95 2.94
 4 -6 -2 7.72 0.65
 4 -6 -1 276.88 2.91
 4 -5 -1 10.93 0.64
 4 -5 0 197.92 2.32
 4 -4 -1 25.36 0.81
 4 -4 0 14.62 0.65
 4 -2 0 25.53 0.63
 4 -1 0 868.56 2.81
 5 -7 -1 34.61 1.21
 5 -6 -1 0.87 0.4
 5 -6 0 207.54 2.6
 5 -5 -1 118.91 1.88
 5 -5 0 257.78 2.67
 5 -3 0 26.38 0.73
 -4 -7 4 121.48 1.38
 -4 -6 4 78.17 1.11
 -4 -6 5 5.28 0.56
 -4 -5 4 12.45 0.51
 -4 -5 5 37.68 1.05
 -4 -4 4 451.35 2.69
 -4 -4 5 2.53 0.44
 -4 -4 6 -0.43 0.38
 -4 -3 4 339.37 2.45
 -4 -3 5 60.22 1.34
 -4 -3 6 429.51 3.98
 -4 -2 5 -0.12 0.33
 -4 -2 6 3.53 0.62
 -4 -1 5 47.18 1.25
 -4 0 5 -0.08 0.37
 -4 0 6 1.44 0.51
 -3 -11 1 3.59 0.42
 -3 -10 1 118.01 1.48
 -3 -9 1 167.56 1.54
 -3 -8 1 24.95 0.55
 -3 -4 3 222.48 1.77
 -3 -4 4 103.82 1.6
 -3 -4 5 213.25 2.69
 -3 -3 3 44.47 0.83
 -3 -3 4 615.25 3.78
 -3 -2 3 16.91 0.55
 -3 -2 4 0.38 0.29
 -3 -2 5 0.13 0.37
 -3 -1 4 1299.91 5.61
 -3 -1 5 2.23 0.54
 -3 0 3 270.43 2.16
 -3 0 4 0.17 0.32
 -3 0 5 324.19 3.39
 -3 1 4 1312.65 5.95
 -3 1 5 1.6 0.5
 -3 2 4 0.15 0.31
 -3 2 5 0.35 0.5
 -3 3 5 7.14 0.76
 -2 -13 -1 7.54 0.77
 -2 -13 0 60.9 1.54
 -2 -13 1 74.04 1.65
 -2 -12 -1 63.77 1.59
 -2 -12 0 189.19 2.52
 -2 -12 1 0.25 0.38
 -2 -11 -1 45.64 1.3
 -2 -11 0 9.51 0.67
 -2 -10 -1 0.82 0.35
 -2 -10 0 221.94 2.42
 -2 -9 -1 0.2 0.29
 -2 -9 0 87.33 1.48
 -2 -8 -1 98.46 1.63
 -2 -8 0 76.83 1.25
 -2 -7 0 70.42 1.09
 -2 -6 0 582.57 2.77
 -2 -5 0 0.27 0.15
 -2 -2 2 587.79 2.41
 -2 -2 5 44.54 1.38
 -2 -1 2 301.37 1.78
 -2 -1 3 10.97 0.54
 -2 -1 4 18.58 0.82
 -2 -1 5 13.23 0.87
 -2 0 2 12.43 0.45
 -2 0 3 0.39 0.27
 -2 0 4 7.1 0.62
 -2 0 5 -0.14 0.43
 -2 1 3 11.46 0.57
 -2 1 4 17.56 0.83
 -2 1 5 12.95 0.86
 -2 2 3 15.43 0.67
 -2 2 4 98.32 1.85
 -2 2 5 43.3 1.46
 -2 3 3 0.96 0.3
 -2 3 4 312.28 3.23
 -2 3 5 48.48 1.5
 -2 4 4 6.77 0.69
 -2 4 5 80.29 1.93
 -1 -13 0 1.23 0.58
 -1 -12 -1 28.1 1.17
 -1 -11 -2 4.09 0.61
 -1 -11 -1 56.17 1.49
 -1 -10 -1 234.04 2.81
 -1 -9 -2 8.65 0.74
 -1 -9 -1 16.74 0.8
 -1 -8 -2 317.9 3.23
 -1 -8 -1 214.37 2.4
 -1 -7 -2 57.21 1.36
 -1 -7 -1 17.73 0.71
 -1 -6 -1 317.41 2.52
 -1 -5 -1 76.89 1.23
 -1 -4 -1 763.41 3.43
 -1 -4 0 1821.03 4.17
 -1 -3 0 1886.9 3.55
 -1 -2 0 1879.31 2.83
 -1 0 1 229.3 1.19
 -1 0 2 -0.2 0.15
 -1 0 3 199.9 2.16
 -1 0 4 0.06 0.42
 -1 0 5 1.81 0.51
 -1 1 2 39.76 0.82
 -1 1 3 607.4 3.79
 -1 1 4 139.13 2.17
 -1 1 5 75.98 1.87
 -1 2 2 4277.58 8.38
 -1 2 3 36.28 0.99
 -1 2 5 1.96 0.63
 -1 3 3 241 2.53
 -1 3 5 10.17 0.85
 -1 4 4 202.95 2.75
 -1 4 5 0.3 0.47
 -1 5 4 123.51 2.25
 -1 6 4 0.38 0.4
 0 -12 -1 16.8 1.04
 0 -11 -2 4.71 0.74
 0 -11 -1 174.19 2.72
 0 -10 -3 98.15 2.23
 0 -10 -2 132.9 2.36
 0 -10 -1 16.16 0.9
 0 -9 -3 7.39 0.81
 0 -9 -1 10.82 0.71
 0 -8 -1 9.14 0.61
 0 -7 -3 49.97 1.45
 0 -7 -2 95.86 1.74
 0 -7 -1 573.64 3.75
 0 -6 -2 593.7 3.99
 0 -6 -1 95.8 1.47
 0 -5 -2 309.11 2.77
 0 -5 -1 186.9 1.9
 0 -4 -2 389.84 2.95
 0 -4 -1 7.28 0.4
 0 -3 -1 1439.17 4.27
 0 -2 -1 45.21 0.72
 0 1 1 1223.79 3.32
 0 1 4 154.94 2.43
 0 2 1 44.55 0.7
 0 2 2 266.33 2.22
 0 2 3 907.86 4.94
 0 3 1 1484.09 4.32
 0 3 2 548.99 3.27
 0 4 4 34.67 1.23
 0 5 2 306.78 2.68
 0 5 4 304.09 3.5
 0 6 3 330.79 3.31
 0 6 4 346.35 3.8
 0 7 4 -0.29 0.54
 1 -10 -2 1.5 0.5
 1 -9 -3 122.21 2.43
 1 -9 -2 179.63 2.71
 1 -8 -2 205.9 2.71
 1 -7 -4 32.94 1.38
 1 -7 -3 51.89 1.48
 1 -7 -2 415.7 3.61
 1 -6 -3 75.4 1.66
 1 -6 -2 488.72 3.7
 1 -5 -3 285.14 3.04
 1 -5 -2 380.4 3.08
 1 -4 -3 174.32 2.32
 1 -4 -2 416 3.02
 1 -3 -2 331.11 2.56
 1 -2 -2 4315.92 8.62
 1 -2 -1 0.07 0.13
 1 2 0 1864.69 2.76
 1 2 1 72.27 0.98
 1 2 3 1.48 0.45
 1 2 4 1714.38 8.19
 1 3 1 0.17 0.18
 1 3 2 145.37 1.79
 1 3 3 144.14 2.15
 1 4 1 771.84 3.36
 1 4 2 458.94 3.2
 1 4 3 16.84 0.83
 1 4 4 36.92 1.34
 1 5 4 9.33 0.81
 1 6 2 9.31 0.59
 1 6 3 10.3 0.75
 1 6 4 460.15 4.45
 1 7 3 26.67 1.09
 2 -9 -3 80.85 1.98
 2 -9 -2 147.1 2.57
 2 -7 -4 197.31 3.06
 2 -7 -3 9.7 0.74
 2 -7 -2 246.47 2.91
 2 -6 -4 252.66 3.35
 2 -6 -3 13.38 0.81
 2 -6 -2 1141.81 5.78
 2 -5 -4 107.08 2.21
 2 -5 -3 58.47 1.42
 2 -5 -2 17.97 0.78
 2 -4 -3 1.83 0.36
 2 -3 -3 1.41 0.4
 2 -3 -2 1010.64 4.5
 2 -2 -2 566.13 3.13
 2 -1 -2 303.1 2.13
 2 3 0 712.86 2.09
 2 3 1 377.97 2.41
 2 3 3 2.33 0.47
 2 3 4 4.76 0.7
 2 4 1 108.16 1.35
 2 4 2 452.96 3.34
 2 4 3 0.31 0.37
 2 5 1 45.94 0.91
 2 5 2 115.86 1.76
 2 5 3 7.47 0.68
 2 6 2 190.86 2.29
 2 6 3 80.4 1.74
 2 7 3 0.41 0.38
 3 -7 -3 18.3 0.98
 3 -6 -4 2.43 0.6
 3 -6 -3 13.03 0.86
 3 -5 -4 665.4 5.14
 3 -4 -4 102.32 1.99
 3 -4 -3 219.62 2.59
 3 -3 -3 41.46 1.1
 3 -3 -2 163.23 1.94
 3 -2 -3 17.16 0.71
 3 -2 -2 771.71 3.78
 3 -1 -3 43.67 1.01
 3 -1 -2 902.36 3.72
 3 3 0 29.55 0.53
 3 3 2 13.27 0.71
 3 3 3 4.11 0.61
 3 5 2 188.21 2.3
 3 5 3 28.07 1.11
 3 6 2 5.96 0.56
 3 6 3 1.73 0.51
 3 7 2 17.69 0.78
 3 7 3 0.41 0.38
 4 -7 -3 284.72 3.55
 4 -6 -3 8.66 0.8
 4 -5 -4 11.3 0.86
 4 -5 -3 13.57 0.85
 4 -4 -4 457.32 4.16
 4 -4 -3 0.36 0.38
 4 -3 -4 334.6 3.41
 4 -3 -3 316.54 2.99
 4 -3 -2 166.9 2.06
 4 -2 -3 2.05 0.37
 4 -2 -2 6.33 0.48
 4 0 -2 8.75 0.39
 4 3 0 927.3 2.89
 4 3 1 34.56 0.88
 4 3 2 233.63 2.67
 5 -6 -3 45.37 1.48
 5 -5 -4 63.56 1.72
 5 -5 -3 27.04 1.14
 5 -4 -4 3.1 0.55
 5 -4 -2 22.16 0.92
 5 -3 -4 69.04 1.59
 5 -3 -3 -0.01 0.37
 5 -3 -2 106.01 1.77
 5 -2 -2 8.3 0.56
 5 -1 -2 443.47 2.85
 5 0 -2 0.22 0.2
 5 1 -1 100.81 0.99
 6 -5 -2 115.44 2.28
 6 -4 -2 0.09 0.43
 -5 -7 0 32.36 1.1
 -5 -6 0 213.47 2.56
 -5 -6 1 0.73 0.53
 -5 -5 0 263.45 2.73
 -5 -5 1 116.8 2.1
 -5 -4 0 35.58 1.06
 -5 -3 0 25.48 0.89
 -4 -9 0 10.6 0.78
 -4 -8 0 32.62 1.09
 -4 -8 1 60.75 1.54
 -4 -7 -1 16.38 0.72
 -4 -7 0 245.31 2.67
 -4 -7 1 33.17 1.16
 -4 -7 2 46.18 1.44
 -4 -6 -1 43.99 1
 -4 -6 1 276.94 2.97
 -4 -6 2 7.74 0.77
 -4 -5 -1 41.22 0.92
 -4 -5 0 197.6 2.25
 -4 -5 1 11.91 0.76
 -4 -4 -1 6.43 0.46
 -4 -4 0 15.29 0.72
 -4 -3 -1 35.05 0.78
 -4 3 -2 232.01 1.27
 -4 7 -1 15.7 0.75
 -4 8 -1 4.38 0.57
 -3 -10 0 161.82 2.42
 -3 -9 0 61.25 1.41
 -3 -9 1 179.64 2.55
 -3 -9 2 0.21 0.48
 -3 -8 0 217.22 2.47
 -3 -8 2 20.37 1.03
 -3 -8 3 125.11 2.35
 -3 -7 -1 73.71 1.35
 -3 -7 0 263.92 2.62
 -3 -7 1 1.71 0.43
 -3 -7 2 23.77 1.02
 -3 -7 3 19.96 1.04
 -3 -6 -1 1.43 0.33
 -3 -6 0 50.15 1.14
 -3 -6 1 127.05 1.89
 -3 -6 2 179 2.46
 -3 -5 -1 10.52 0.51
 -3 -5 0 283.36 2.45
 -3 -5 1 265.32 2.64
 -3 -4 0 277.09 2.33
 -3 -3 -1 24.42 0.6
 -3 -2 -1 6.2 0.35
 -3 4 -2 351.22 2.03
 -3 5 -2 186.5 1.72
 -3 6 -2 6.22 0.49
 -3 7 -2 19.28 0.76
 -3 7 -1 72.19 1.38
 -3 8 -2 438.24 3.32
 -3 8 -1 0.17 0.39
 -3 9 -1 12.46 0.76
 -3 10 -1 2.09 0.5
 -2 -10 1 23.85 1.02
 -2 -10 2 638.75 4.76
 -2 -9 0 89.66 1.73
 -2 -9 1 48.51 1.28
 -2 -9 2 143.7 2.33
 -2 -8 0 76.16 1.51
 -2 -8 2 27.26 1.05
 -2 -8 4 81.77 1.83
 -2 -7 0 71.48 1.34
 -2 -7 2 242.22 2.66
 -2 -7 3 10.66 0.78
 -2 -7 4 201.3 2.77
 -2 -6 0 596.77 3.43
 -2 -6 1 78.46 1.39
 -2 -6 2 1132.93 5.39
 -2 -6 3 13.6 0.78
 -2 -6 4 248.99 2.96
 -2 -6 5 14.54 0.94
 -2 -5 -1 45.98 0.86
 -2 -5 0 0.2 0.29
 -2 -5 1 7.16 0.54
 -2 -5 2 16.19 0.72
 -2 -5 5 -0.3 0.41
 -2 -4 -1 104.8 1.14
 -2 -4 0 87.89 1.22
 -2 -3 -1 386.82 1.92
 -2 -3 0 713.64 3.13
 -2 -2 -1 274.43 1.44
 -2 3 -2 130.13 1.08
 -2 4 -2 448.26 2.3
 -2 5 -2 114.16 1.38
 -2 6 -2 184.5 1.9
 -2 6 -1 58.62 1.13
 -2 7 -2 154.81 1.91
 -2 7 -1 125.8 1.69
 -2 8 -1 95.22 1.62
 -2 9 -2 129 2.04
 -2 9 -1 0.55 0.47
 -2 9 0 88.58 1.65
 -2 10 -1 0.2 0.41
 -2 10 0 211.2 2.64
 -1 -10 2 1.22 0.49
 -1 -10 3 62.9 1.56
 -1 -9 1 16.55 0.81
 -1 -9 2 174.92 2.32
 -1 -9 3 120.5 2.11
 -1 -9 4 5.05 0.72
 -1 -8 1 105.12 1.69
 -1 -8 2 206.28 2.41
 -1 -8 3 9.45 0.72
 -1 -8 4 195.44 2.59
 -1 -7 0 1026.23 4.54
 -1 -7 1 1.53 0.4
 -1 -7 2 415.64 3.22
 -1 -7 4 32.58 1.11
 -1 -7 5 6.67 0.71
 -1 -6 0 19.53 0.66
 -1 -6 2 484.03 3.28
 -1 -6 4 0.48 0.38
 -1 -6 5 2.73 0.54
 -1 -6 6 0.22 0.51
 -1 -5 1 65.65 1.13
 -1 -5 2 373.77 2.74
 -1 -5 3 286.83 2.59
 -1 -5 4 119.48 1.87
 -1 -5 5 64.69 1.42
 -1 -5 6 53.42 1.37
 -1 -4 0 1807.65 4.68
 -1 -4 1 374.34 2.37
 -1 -4 2 415.38 2.77
 -1 -4 3 172.14 1.93
 -1 -4 4 202.32 2.28
 -1 -4 5 0.7 0.41
 -1 -4 6 194.02 2.45
 -1 -3 0 1874.01 4.29
 -1 -3 6 4.69 0.6
 -1 -2 0 1908.33 3.88
 -1 2 -1 71.69 0.67
 -1 3 -1 0.21 0.16
 -1 4 -2 469.01 2.47
 -1 4 -1 776.22 2.96
 -1 5 -2 84.76 1.24
 -1 5 -1 74.11 1.08
 -1 6 -2 9.1 0.54
 -1 6 -1 326.67 2.42
 -1 7 0 1027.13 4.53
 -1 8 -2 311.34 2.86
 -1 8 -1 213.9 2.33
 -1 8 0 1016.5 4.82
 -1 9 -2 8.11 0.7
 -1 9 -1 17.04 0.83
 -1 9 0 1.9 0.41
 -1 9 1 17.08 0.79
 -1 10 -2 245.96 2.92
 -1 10 -1 230.11 2.78
 -1 10 0 72.07 1.53
 -1 10 1 11.24 0.76
 -1 10 2 1.26 0.43
 -1 11 -2 4.55 0.66
 -1 11 0 429.82 3.84
 -1 11 1 0.15 0.53
 0 -8 3 209.65 2.42
 0 -8 4 26.15 0.98
 0 -7 2 98.28 1.54
 0 -7 3 49.19 1.13
 0 -7 4 0.11 0.39
 0 -7 5 16.39 0.8
 0 -6 1 98.52 1.37
 0 -6 2 600.99 3.33
 0 -6 3 315.77 2.55
 0 -6 4 345.37 2.78
 0 -6 5 18.6 0.78
 0 -5 1 187.35 1.69
 0 -5 2 317.38 2.28
 0 -5 3 3.48 0.4
 0 -5 4 304.94 2.5
 0 -4 1 7.08 0.39
 0 -4 2 399.3 2.39
 0 -4 3 135.86 1.53
 0 -4 4 36.12 0.88
 0 -3 1 1409.49 3.61
 0 -3 2 561.44 2.57
 0 -3 3 100.32 1.25
 0 -3 4 16.83 0.61
 0 -2 1 46.12 0.6
 0 -2 2 265.25 1.63
 0 -2 3 915.45 3.38
 0 -2 5 6.93 0.46
 0 -1 5 5.92 0.43
 0 2 0 229.49 1.13
 0 3 -1 1441.4 3.77
 0 4 0 9944.73 10.32
 0 5 -1 185.09 1.77
 0 6 0 304.32 2.33
 0 6 1 100.52 1.38
 0 7 -2 94.21 1.59
 0 7 -1 575.21 3.53
 0 8 -2 26.8 0.97
 0 8 2 27.26 0.88
 0 8 3 208.08 2.29
 0 8 4 26.27 0.91
 0 9 -2 69.13 1.54
 0 9 -1 10.52 0.7
 0 9 1 11.09 0.68
 0 9 3 6.61 0.64
 0 10 -2 131.87 2.24
 0 10 -1 15.79 0.86
 0 10 1 16.17 0.88
 0 10 2 135.03 2.13
 0 10 3 103.24 1.89
 0 11 -2 4.56 0.68
 0 11 -1 163.26 2.55
 0 11 0 0.01 0.43
 0 11 1 167.19 2.52
 0 11 2 3.95 0.68
 0 11 3 11.48 0.85
 1 2 2 458.43 1.44
 1 3 1 0.31 0.17
 1 3 3 142.24 1.02
 1 4 0 1825.76 4.89
 1 4 1 777.41 2.98
 1 4 2 478.4 2.26
 1 4 3 18.06 0.48
 1 5 0 0.53 0.29
 1 5 1 76.67 1.09
 1 5 2 88.84 1.14
 1 6 0 19.55 0.7
 1 6 1 329.97 2.42
 1 6 3 11.27 0.53
 1 8 1 218.04 2.35
 1 8 3 1.91 0.42
 1 9 0 0.98 0.46
 1 9 1 17.78 0.85
 1 9 2 7.74 0.67
 1 9 3 227.16 2.52
 1 10 -1 11.59 0.83
 1 10 0 73.27 1.61
 1 10 1 228.89 2.76
 1 10 2 254.15 2.85
 1 11 -1 -0.05 0.47
 1 11 0 431.96 3.99
 1 11 1 57.38 1.51
 1 11 2 4.64 0.62
 1 11 3 0.98 0.51
 -5 -8 1 1.01 0.39
 -5 -7 1 34.74 1.08
 -5 -6 1 0.54 0.38
 -5 -5 0 257.72 2.17
 -5 -5 1 124.69 1.86
 -5 -4 0 34.58 0.77
 -5 -4 1 5.84 0.53
 -5 -3 0 25.7 0.62
 -5 -2 0 418.37 2.11
 -5 -1 0 280.52 1.59
 -5 0 0 0.32 0.17
 -5 2 0 420.85 1.85
 -5 3 0 25.86 0.56
 -5 4 0 33.9 0.69
 -5 6 1 0.6 0.32
 -5 8 1 1.08 0.41
 -4 -9 0 10.64 0.69
 -4 -9 1 32.96 1.14
 -4 -8 0 33.43 1.02
 -4 -8 1 61.09 1.42
 -4 -8 2 37.33 1.25
 -4 -7 0 239.91 2.43
 -4 -7 1 33.23 1.04
 -4 -7 2 47.27 1.36
 -4 -6 0 84.02 1.4
 -4 -5 0 192.04 1.91
 -4 -4 0 16.03 0.57
 -4 -3 0 894.7 3.49
 -4 -2 0 26.27 0.61
 -4 4 0 15.48 0.52
 -4 5 0 194.71 1.78
 -4 6 0 80.87 1.3
 -4 7 0 233.88 2.25
 -4 7 1 31.98 0.96
 -4 8 0 30.88 0.93
 -4 8 1 57.32 1.31
 -4 9 0 9.75 0.64
 -4 9 1 32.14 1.07
 -3 -10 0 156.26 2.33
 -3 -10 1 124.58 2.2
 -3 -9 0 59.59 1.37
 -3 -9 1 174 2.41
 -3 -9 2 -0.21 0.36
 -3 -8 0 221.16 2.46
 -3 -8 1 24.39 0.94
 -3 -8 2 17.92 0.93
 -3 -7 0 255.54 2.45
 -3 -7 1 0.95 0.35
 -3 -6 0 48.71 1.04
 -3 -6 1 129.5 1.83
 -3 -5 0 276.25 2.21
 -3 -4 0 284.12 2.08
 -3 -3 0 29.17 0.65
 -3 4 -1 0.43 0.17
 -3 4 0 280.93 1.93
 -3 5 -1 10.43 0.43
 -3 5 0 277.76 2.09
 -3 6 -1 1.42 0.29
 -3 7 -1 72.14 1.27
 -3 7 0 255.04 2.33
 -3 8 -1 -0.1 0.31
 -3 8 0 222.23 2.34
 -3 8 1 24.58 0.87
 -3 9 -1 11.91 0.68
 -3 9 0 59.23 1.31
 -3 9 1 169.89 2.3
 -3 9 2 -0.12 0.45
 -3 10 0 155.99 2.26
 -3 10 1 123.13 2.09
 -2 -11 0 9.15 0.77
 -2 -10 0 219.47 2.67
 -2 -10 1 24.14 1.02
 -2 -10 2 642.89 4.8
 -2 -9 1 46.25 1.23
 -2 -9 2 141.18 2.24
 -2 -9 3 75.59 1.74
 -2 -8 0 77.54 1.45
 -2 -8 1 1.62 0.36
 -2 -8 3 0.72 0.49
 -2 -7 0 72.82 1.31
 -2 -7 1 85.46 1.49
 -2 -6 0 594.18 3.32
 -2 -6 1 81.47 1.38
 -2 -5 0 0.38 0.22
 -2 -4 0 87.36 1.11
 -2 -3 0 718.66 2.85
 -2 4 -1 106.69 1.09
 -2 5 0 0.2 0.19
 -2 6 -1 59.88 1.06
 -2 6 0 579.22 3.17
 -2 7 -1 126.59 1.64
 -2 7 0 69.69 1.25
 -2 7 1 85.65 1.46
 -2 8 0 74.65 1.38
 -2 8 1 0.75 0.35
 -2 9 -1 0.51 0.35
 -2 9 1 46.25 1.2
 -2 9 2 143.26 2.17
 -2 10 0 211.3 2.56
 -2 10 1 23.57 0.98
 -2 10 2 625.72 4.56
 -2 11 0 7.79 0.68
 -2 11 1 12.11 0.83
 -1 -11 0 434.95 3.9
 -1 -11 1 0.6 0.4
 -1 -10 1 11.34 0.71
 -1 -10 2 1.35 0.43
 -1 -9 1 16.38 0.81
 -1 -9 2 175.96 2.4
 -1 -9 3 118.49 2.11
 -1 -8 0 1033.25 4.95
 -1 -8 2 208.2 2.45
 -1 -8 3 10.33 0.7
 -1 -8 4 195.23 2.75
 -1 -7 0 1047.46 4.67
 -1 -7 1 1.02 0.28
 -1 -7 2 414.37 3.27
 -1 -6 1 17.31 0.66
 -1 -6 2 478.43 3.36
 -1 -5 0 0.74 0.28
 -1 -5 1 67.05 1.14
 -1 -4 0 1823.8 4.67
 -1 -3 0 1893.97 4.2
 -1 -2 0 1876.88 3.59
 -1 3 0 1913.9 4.01
 -1 4 0 1838.69 4.53
 -1 5 -1 76.79 1.12
 -1 5 0 0.44 0.22
 -1 6 -1 333.62 2.44
 -1 6 0 21.08 0.67
 -1 7 -1 19.02 0.7
 -1 7 0 1026.84 4.52
 -1 8 -1 207.63 2.27
 -1 8 0 1027.14 4.86
 -1 8 2 197.53 2.3
 -1 9 1 15.73 0.76
 -1 9 2 175.14 2.32
 -1 9 3 115.13 2
 -1 10 0 72.03 1.52
 -1 10 1 12.63 0.75
 -1 10 2 0.88 0.41
 -1 11 0 439.14 3.88
 -1 11 1 0.97 0.41
 0 -11 1 169.62 2.47
 0 -10 1 17.16 0.83
 0 -10 3 112.24 2.07
 0 -9 1 10.86 0.64
 0 -9 2 66.59 1.42
 0 -9 3 6.66 0.63
 0 -9 4 278.41 3.14
 0 -8 0 700.42 4.06
 0 -8 1 7.91 0.54
 0 -8 2 26.04 0.88
 0 -8 3 207.85 2.47
 0 -8 4 26.86 1.01
 0 -7 0 0.31 0.26
 0 -7 1 563.94 3.41
 0 -7 2 96.75 1.54
 0 -7 3 49.67 1.19
 0 -7 4 0.55 0.36
 0 -7 5 17.4 0.9
 0 -6 0 285.19 2.23
 0 -6 2 605.06 3.5
 0 -6 3 329.43 2.82
 0 -5 0 3.54 0.33
 0 -5 1 183.27 1.68
 0 -5 2 323.47 2.44
 0 -4 1 6.58 0.36
 0 -3 0 0.24 0.13
 0 -3 1 1437.26 3.79
 0 -2 0 232.07 1.15
 0 2 0 229.09 1.13
 0 4 1 7.34 0.38
 0 5 1 183.88 1.68
 0 6 0 290.63 2.27
 0 6 1 101.35 1.41
 0 7 0 0.21 0.29
 0 7 2 97.17 1.54
 0 8 2 25.69 0.87
 0 8 3 204.78 2.43
 0 8 4 24.7 0.98
 0 9 1 10.62 0.64
 0 9 2 64.56 1.4
 0 9 3 8.28 0.64
 0 10 1 15.29 0.82
 0 10 2 131.39 2.13
 0 10 3 102.88 1.96
 0 11 0 -0.16 0.36
 0 11 1 167.84 2.48
 0 11 2 3.84 0.56
 1 -11 2 3.76 0.56
 1 -10 2 256.66 2.83
 1 -10 3 15.71 0.84
 1 -9 2 8.3 0.61
 1 -9 3 230.37 2.61
 1 -9 4 10.63 0.71
 1 -8 1 210.89 2.25
 1 -8 2 324.8 2.81
 1 -8 3 1.49 0.36
 1 -8 4 11.83 0.69
 1 -7 1 17.9 0.67
 1 -7 2 55 1.11
 1 -7 3 27.83 0.85
 1 -7 4 2.4 0.41
 1 -6 1 324.66 2.34
 1 -6 2 8.93 0.47
 1 -6 3 10.3 0.55
 1 -6 4 466.81 3.21
 1 -5 1 77.24 1.08
 1 -5 2 86.99 1.18
 1 -5 3 399.47 2.63
 1 -5 4 10.62 0.56
 1 -4 1 756.52 2.88
 1 -4 2 468.37 2.4
 1 -4 3 17.55 0.58
 1 -4 4 34.69 0.86
 1 -3 1 0.18 0.14
 1 1 1 181.51 0.78
 1 2 1 73.1 0.68
 1 3 2 146.1 1.27
 1 4 1 784.5 3.05
 1 4 2 471.44 2.48
 1 5 0 0.4 0.27
 1 5 3 388.96 2.63
 1 5 4 10.06 0.56
 1 6 0 19.94 0.66
 1 6 1 327.76 2.44
 1 6 3 10.26 0.56
 1 6 4 465.67 3.27
 1 7 2 55.51 1.13
 1 7 3 28.47 0.88
 1 8 1 214.04 2.32
 1 8 2 321.48 2.85
 1 8 3 1.58 0.37
 1 8 4 11.76 0.7
 1 9 1 17.67 0.83
 1 9 2 7.39 0.62
 1 9 3 223.22 2.62
 1 9 4 10.46 0.72
 1 10 1 232.76 2.78
 1 10 2 244.75 2.83
 1 10 3 14.73 0.83
 1 11 1 58.69 1.52
 2 -6 4 253.88 2.01
 2 -5 3 6.99 0.38
 2 -5 4 223.6 1.67
 2 -4 3 0.2 0.16
 2 2 3 112.46 0.83
 2 3 2 131.46 1.1
 2 3 3 2.11 0.24
 2 5 3 7.09 0.42
 2 6 2 189.82 1.93
 2 6 3 83.6 1.33
 2 7 3 0.22 0.26
 2 8 2 0.45 0.31
 2 8 3 0.54 0.36
 2 9 2 132.67 2.04
 2 9 3 6.8 0.61
 2 10 2 52.36 1.39
 2 10 3 47.38 1.33
 -2 -6 5 15.42 0.85
 -2 -5 5 0.05 0.39
 -2 -5 6 5.21 0.83
 -2 -4 5 77.68 1.74
 -2 -4 6 42.77 1.58
 -2 -3 5 50.52 1.47
 -2 -2 5 42.12 1.4
 -1 -10 3 62.71 1
 -1 -10 4 111.03 1.68
 -1 -10 5 0.53 0.47
 -1 -9 2 173.29 1.1
 -1 -9 3 118.12 1.39
 -1 -9 4 5.15 0.53
 -1 -9 6 3.93 0.81
 -1 -8 2 197.17 1.22
 -1 -8 3 10.99 0.52
 -1 -8 4 187.8 2.27
 -1 -8 5 1.51 0.51
 -1 -8 7 21.13 1.48
 -1 -7 3 50.64 0.98
 -1 -7 4 32.32 1.02
 -1 -7 6 87.68 2.24
 -1 -7 7 14.38 1.32
 -1 -6 2 481.21 1.99
 -1 -6 3 72.77 1.17
 -1 -6 4 0.45 0.39
 -1 -6 6 0.22 0.69
 -1 -6 7 2.54 0.95
 -1 -6 8 6.45 1.31
 -1 -5 2 372.63 1.83
 -1 -5 3 279.23 2.27
 -1 -5 7 2.26 0.97
 -1 -5 8 96.99 2.99
 -1 -4 2 420.46 2.01
 -1 -4 3 169.13 1.84
 -1 -4 4 205.58 2.54
 -1 -4 6 201.53 3.54
 -1 -4 8 53.65 2.36
 -1 -3 2 331.45 1.92
 -1 -3 3 236.34 2.21
 -1 -3 6 4.2 0.85
 -1 -3 7 9.91 1.25
 -1 -3 8 0.79 1
 -1 -2 2 4272.96 7.24
 -1 -2 4 198.23 2.61
 -1 -2 6 13.69 1.19
 -1 -2 7 0.64 0.82
 -1 -2 8 -0.46 0.84
 -1 -1 2 39.15 0.79
 -1 -1 3 616.07 3.82
 -1 -1 4 141.62 2.3
 -1 -1 6 28.98 1.56
 -1 -1 7 4.39 0.96
 -1 -1 8 48.5 2.34
 -1 0 2 -0.09 0.2
 -1 0 3 204.17 2.32
 -1 0 4 -0.17 0.43
 -1 0 7 17.69 1.52
 -1 0 8 0.54 0.91
 -1 1 3 603.89 4.03
 -1 1 4 135.35 2.32
 -1 1 6 28.55 1.5
 -1 1 7 5.03 0.99
 -1 2 6 13.82 1.13
 -1 2 7 -0.08 0.93
 -1 3 5 11.3 0.97
 -1 4 5 0.34 0.49
 0 -12 2 260.69 2.36
 0 -12 3 165.01 2.15
 0 -11 2 4.62 0.47
 0 -11 3 11.56 0.7
 0 -11 5 14.88 1.03
 0 -10 2 134.07 1.71
 0 -10 3 104.92 1.73
 0 -10 5 22.95 1.18
 0 -10 6 19.75 1.35
 0 -9 2 66.14 1.18
 0 -9 3 6.56 0.58
 0 -9 5 3.81 0.68
 0 -9 6 111.46 2.61
 0 -9 7 3.13 0.97
 0 -8 2 26.11 0.75
 0 -8 3 204.66 2.36
 0 -8 4 26.95 1.1
 0 -8 5 11.82 0.99
 0 -8 6 34.3 1.63
 0 -8 7 12.79 1.44
 0 -8 8 14.07 1.62
 0 -7 3 47.76 1.16
 0 -7 4 0.38 0.43
 0 -7 5 17.4 1.11
 0 -7 6 43.17 1.77
 0 -7 7 64.25 2.4
 0 -7 8 20.64 1.83
 0 -6 2 586.93 3.14
 0 -6 3 322.53 2.88
 0 -6 4 338.33 3.5
 0 -6 5 19.01 1.11
 0 -6 6 63.45 2.11
 0 -6 7 14.68 1.49
 0 -5 2 307.82 2.26
 0 -5 4 291.38 3.25
 0 -5 5 4.28 0.73
 0 -5 6 85 2.4
 0 -5 7 25.47 1.74
 0 -5 8 3.86 1.33
 0 -4 2 386.34 2.5
 0 -4 3 136.61 1.91
 0 -4 4 34.3 1.21
 0 -4 5 3.87 0.66
 0 -4 6 330.71 4.67
 0 -4 8 6.37 1.36
 0 -3 1 1437.84 3.35
 0 -3 3 98.15 1.64
 0 -3 5 15.58 1.08
 0 -3 6 14.87 1.26
 0 -3 7 80.56 2.73
 0 -2 2 264.01 2.07
 0 -2 3 907.31 4.8
 0 -2 5 6.1 0.84
 0 -2 6 15.12 1.31
 0 -2 7 18 1.59
 0 -2 8 11.4 1.64
 0 -1 1 1231.12 3.02
 0 -1 2 752.11 3.5
 0 -1 3 87.92 1.61
 0 -1 5 5.59 0.82
 0 -1 7 63.3 2.53
 0 -1 8 7.32 1.55
 0 0 1 0.09 0.15
 0 0 2 2777.74 6.79
 0 0 3 0.24 0.3
 0 0 4 256.3 3.19
 0 0 5 -0.29 0.52
 0 0 6 623.84 6.59
 0 0 7 0.31 0.94
 0 1 1 1222.21 3.31
 0 1 2 752.13 3.67
 0 1 3 83.41 1.63
 0 1 4 150.9 2.53
 0 1 6 9.7 1.14
 0 1 7 67.18 2.66
 0 1 8 7.53 1.37
 0 2 2 264.09 2.31
 0 2 5 6.59 0.88
 0 2 6 16.54 1.41
 0 2 7 18.47 1.7
 0 3 1 1441.22 4.17
 0 3 2 563.52 3.52
 0 3 4 17.54 1.07
 0 3 5 16.21 1.25
 0 3 6 16.77 1.44
 0 3 7 79.62 2.88
 0 3 8 35.43 2.32
 0 4 2 396.41 3.06
 0 4 5 3.51 0.84
 0 4 7 6 1.35
 0 5 2 307.57 2.75
 0 5 3 2.62 0.47
 0 5 5 4.17 0.82
 0 5 6 83.63 2.65
 0 5 7 24.82 1.91
 0 6 3 323.44 3.46
 0 6 5 17.91 1.24
 0 6 6 59.08 2.32
 1 -13 3 90.08 1.96
 1 -13 4 7.83 0.95
 1 -12 2 24.46 1.04
 1 -12 4 14.7 1.09
 1 -12 5 33.17 1.56
 1 -11 2 4.66 0.6
 1 -11 4 0.88 0.54
 1 -11 5 0.01 0.74
 1 -11 6 28.6 1.67
 1 -10 2 253.89 2.86
 1 -10 4 8.44 0.91
 1 -10 5 6.57 0.9
 1 -10 6 20.03 1.5
 1 -10 7 52.19 2.26
 1 -9 2 8.27 0.67
 1 -9 4 11.38 0.97
 1 -9 5 26.92 1.44
 1 -9 6 10.81 1.32
 1 -9 7 7.83 1.27
 1 -8 2 319.63 3.05
 1 -8 3 1.99 0.57
 1 -8 4 13.58 1.03
 1 -8 7 54.75 2.38
 1 -7 2 53.47 1.27
 1 -7 3 27.45 1.1
 1 -7 4 3.02 0.62
 1 -7 5 7.14 0.94
 1 -7 6 44.61 1.99
 1 -7 7 0.35 1.11
 1 -7 8 55.91 2.67
 1 -6 2 9.12 0.6
 1 -6 3 10.37 0.76
 1 -6 5 3.03 0.74
 1 -6 6 32.72 1.78
 1 -6 7 29.06 1.92
 1 -6 8 0.16 1.12
 1 -5 2 86.94 1.52
 1 -5 3 385.88 3.65
 1 -5 5 44.37 1.73
 1 -5 6 42.23 1.97
 1 -5 7 21.15 1.81
 1 -5 8 -0.27 1.06
 1 -4 2 451.09 3.31
 1 -4 3 17.15 0.86
 1 -4 5 34.11 1.55
 1 -4 7 131.69 3.53
 1 -4 8 43.75 2.55
 1 -3 2 143.31 1.87
 1 -3 3 138.8 2.21
 1 -3 5 29.95 1.51
 1 -3 6 70.88 2.44
 1 -3 7 9.19 1.32
 1 -3 8 31.17 2.3
 1 -2 2 452.29 3.25
 1 -2 3 1.77 0.47
 1 -2 5 -0.47 0.65
 1 -2 6 250.67 4.45
 1 -2 7 3.1 1.11
 1 -2 8 32.18 2.33
 1 -1 1 185.59 1.65
 1 -1 2 249.08 2.41
 1 -1 5 47.51 1.81
 1 -1 6 73.52 2.51
 1 0 1 2266.76 5.58
 1 0 2 0.22 0.37
 1 0 5 23.97 1.39
 1 0 6 0.5 0.9
 1 0 7 181.61 4.24
 1 0 8 0.61 1.27
 1 1 1 185.56 1.61
 1 1 2 248.66 2.43
 1 1 5 46.6 1.79
 1 1 8 3.81 1.36
 1 2 0 1900.44 3.26
 1 2 1 72.13 1.03
 1 2 2 462.12 3.29
 1 2 5 -0.03 0.58
 1 2 7 3.13 1.29
 1 2 8 32.7 2.39
 1 3 0 1891.58 3.27
 1 3 1 0.24 0.23
 1 3 2 140.95 1.89
 1 3 3 136.77 2.24
 1 3 5 29.24 1.58
 1 3 6 73.68 2.59
 1 3 7 11.9 1.69
 1 3 8 30.24 2.36
 1 4 0 1823.6 3.42
 1 4 1 772.23 3.46
 1 4 2 465.3 3.46
 1 4 3 17.5 0.91
 1 4 5 36.56 1.75
 1 4 6 52.78 2.34
 1 5 1 75.89 1.22
 1 5 3 381.61 3.89
 1 5 5 47.48 1.97
 1 5 6 42.99 2.18
 1 6 1 328.24 2.47
 1 6 3 11.32 0.85
 1 6 5 2.58 0.84
 1 6 6 32.96 2.01
 1 6 7 27.95 2.07
 1 7 2 53.46 1.32
 1 7 3 28.69 1.24
 1 7 4 2.83 0.67
 1 7 5 5.41 1.02
 1 7 6 45.79 2.26
 1 7 7 0.46 1.2
 1 8 4 10.74 1.05
 1 8 5 35.32 1.82
 1 8 6 51.01 2.37
 2 -15 2 43.03 1.62
 2 -14 2 0.86 0.59
 2 -14 3 17.77 1.25
 2 -14 4 13.8 1.32
 2 -13 2 40.09 1.52
 2 -13 3 3.02 0.78
 2 -13 4 107.28 2.66
 2 -13 5 31.79 1.75
 2 -12 2 74.41 1.94
 2 -12 3 0.31 0.58
 2 -12 5 43.53 1.97
 2 -11 2 99.86 2.16
 2 -11 3 0.99 0.7
 2 -11 4 7.79 1.02
 2 -11 5 1.03 0.94
 2 -11 6 1.31 1.07
 2 -10 3 47.36 1.67
 2 -10 5 3.86 0.96
 2 -10 6 51.08 2.29
 2 -9 3 6.27 0.79
 2 -9 4 230.16 3.82
 2 -9 5 25.63 1.64
 2 -9 6 2.45 1.18
 2 -9 7 1.11 1.2
 2 -8 3 0.41 0.55
 2 -8 5 38.15 1.86
 2 -8 6 39.39 2.1
 2 -8 7 2.4 1.28
 2 -7 3 0.34 0.47
 2 -7 5 5.02 1.07
 2 -7 6 2.3 1.02
 2 -7 7 83.14 3.04
 2 -6 2 179.89 2.62
 2 -6 4 256.69 3.91
 2 -6 5 29.2 1.66
 2 -6 6 93.76 2.95
 2 -6 7 3.25 1.19
 2 -5 2 119.02 2.14
 2 -5 4 226.77 3.64
 2 -5 5 6.9 0.99
 2 -5 6 0.86 0.87
 2 -4 2 443.71 3.9
 2 -4 4 97.75 2.4
 2 -4 5 12.73 1.27
 2 -4 6 4.75 1.06
 2 -4 7 1.2 1.08
 2 -3 2 127.79 2.11
 2 -3 4 5.41 0.9
 2 -3 5 6.45 1.04
 2 -3 6 1.53 0.89
 2 -2 4 61.81 1.95
 2 -2 5 69.42 2.32
 2 -2 6 19.99 1.7
 2 -2 7 8.09 1.53
 2 -1 4 99.63 2.4
 2 -1 5 -0.09 0.63
 2 -1 6 0.58 0.84
 2 -1 7 46.05 2.53
 2 0 1 0 0.27
 2 0 4 266.27 3.87
 2 0 5 0.73 0.74
 2 0 6 41.86 2.13
 2 0 7 -0.51 0.96
 2 1 1 225.11 2.23
 2 1 4 102.07 2.42
 2 1 5 -0.47 0.66
 2 1 6 0.09 0.85
 2 2 4 65.28 1.99
 2 2 5 65.94 2.28
 2 2 6 20.89 1.67
 2 2 7 5.82 1.49
 2 3 0 719.59 3
 2 3 1 371.17 2.8
 2 3 2 133.9 2.11
 2 3 4 5.36 0.89
 2 3 6 1.62 1.06
 2 3 7 83.99 3.26
 2 4 -1 3.33 0.2
 2 4 0 88.05 1.06
 2 4 1 102.04 1.51
 2 4 2 455.39 3.77
 2 4 4 103.25 2.48
 2 4 5 13.36 1.27
 2 4 6 3.61 1.06
 2 4 7 0.59 1.1
 2 5 2 117.55 2.04
 2 5 4 226.8 3.76
 2 5 5 6.19 1.04
 2 5 6 0.47 1.19
 2 5 7 10.6 1.74
 2 6 0 591.91 2.6
 2 6 2 184.83 2.53
 2 6 4 263.04 4.09
 2 6 6 97.12 3.25
 2 7 0 68.66 0.92
 2 7 5 5.14 1.04
 2 7 6 2.29 1.33
 2 7 7 84.08 3.25
 2 8 1 98.06 1.58
 2 8 2 0.1 0.45
 2 8 4 -0.53 0.62
 2 8 7 2.38 1.41
 2 9 2 131.18 2.26
 2 9 4 233.59 4.01
 2 9 5 24.34 1.73
 2 9 6 2.76 1.12
 3 -16 2 22.79 1.55
 3 -15 2 5.65 0.99
 3 -15 3 14.09 1.36
 3 -14 2 1.38 0.83
 3 -14 3 -0.03 0.83
 3 -13 2 -0.1 0.64
 3 -13 3 0.01 0.91
 3 -13 4 25.79 1.72
 3 -12 2 210.93 3.73
 3 -12 3 15.92 1.4
 3 -12 5 4.85 1.19
 3 -11 2 36.12 1.62
 3 -11 3 11.75 1.23
 3 -11 5 2.89 1.04
 3 -10 2 20.51 1.29
 3 -10 3 1.24 0.79
 3 -10 4 42.05 2.01
 3 -10 5 30.92 1.94
 3 -10 6 30.05 2.11
 3 -9 3 10.83 1.17
 3 -9 4 -0.61 0.93
 3 -9 5 14.17 1.58
 3 -8 2 455.4 4.88
 3 -8 4 137.27 3.22
 3 -8 5 -0.34 0.92
 3 -8 6 49.05 2.43
 3 -7 3 1.25 0.72
 3 -7 4 22.72 1.54
 3 -7 5 1.11 0.9
 3 -6 2 5.84 0.76
 3 -6 3 1.64 0.65
 3 -6 4 1.12 0.72
 3 -6 5 30.55 1.91
 3 -6 6 1.29 1.09
 3 -5 2 185.31 3.03
 3 -5 3 27.89 1.45
 3 -5 4 24.78 1.52
 3 -5 5 20.8 1.71
 3 -4 4 104.2 2.75
 3 -4 6 40.41 2.33
 3 -3 3 4.93 0.85
 3 -3 4 0.64 0.72
 3 -3 5 2.3 0.87
 3 -3 6 1.98 1.32
 3 -3 7 2.27 1.33
 3 -2 3 0.89 0.64
 3 -2 4 27.36 1.59
 3 -2 5 4 1.11
 3 -2 7 -0.5 1.1
 3 -1 3 25.52 1.3
 3 -1 4 35.45 1.73
 3 -1 6 9.37 1.55
 3 -1 7 6.55 1.57
 3 0 1 0.38 0.34
 3 0 3 56.17 1.83
 3 0 4 0.56 0.64
 3 0 6 0.6 0.96
 3 0 7 23.6 2.19
 3 1 1 0.52 0.41
 3 1 4 34.43 1.71
 3 2 1 5.95 0.6
 3 2 3 0.82 0.49
 3 2 4 29.49 1.59
 3 2 5 4.87 1.08
 3 2 6 45.24 2.38
 3 2 7 -0.5 1.19
 3 3 1 24.05 0.93
 3 3 3 4.13 0.77
 3 3 4 -0.12 0.66
 3 3 5 1.79 1.02
 3 3 6 2.15 1.28
 3 3 7 2.32 1.39
 3 4 1 0.47 0.37
 3 4 2 344.18 3.74
 3 4 3 47.76 1.7
 3 4 5 15.42 1.54
 3 4 6 41.74 2.36
 3 5 -1 262.62 1.75
 3 5 1 10.38 0.69
 3 5 3 28.83 1.39
 3 5 6 36.85 2.35
 3 6 -1 127.2 1.1
 3 6 1 1.6 0.41
 3 6 4 1.02 0.69
 3 6 5 22.63 1.81
 3 6 6 0.08 1.21
 3 7 -1 1.24 0.15
 3 7 1 73.86 1.52
 3 7 3 0.57 0.6
 3 7 4 21.05 1.49
 3 7 5 0.39 0.89
 3 7 6 23.68 2.1
 3 8 1 0.27 0.37
 3 8 3 37.11 1.57
 3 8 4 138.74 3.21
 3 8 5 1.63 1.18
 3 9 3 8.97 1.02
 3 9 4 -0.24 0.91
 3 9 5 13.6 1.61
 3 9 6 35.38 2.25
 3 10 4 42.96 1.89
 4 -17 1 6.05 1.18
 4 -16 2 0.84 0.92
 4 -15 2 123.56 3.2
 4 -15 3 32.71 1.98
 4 -14 2 5.4 1.14
 4 -14 3 1.06 1.06
 4 -13 2 23.11 1.69
 4 -13 3 3.19 1.2
 4 -13 4 51.73 2.42
 4 -12 2 0.81 0.82
 4 -12 3 28.02 1.85
 4 -12 4 57.46 2.51
 4 -11 2 23.16 1.64
 4 -11 3 63.72 2.45
 4 -11 4 -1.28 1.1
 4 -10 2 2.47 0.84
 4 -10 4 34.17 2.06
 4 -10 5 3.04 1.21
 4 -9 3 -0.68 0.7
 4 -8 2 33.97 1.7
 4 -8 3 39.79 1.95
 4 -8 4 37.91 2.14
 4 -8 5 1.72 1.08
 4 -7 2 40.55 1.82
 4 -7 4 29.39 1.94
 4 -6 2 17.67 1.32
 4 -6 5 1.08 1.04
 4 -5 2 12.13 1.17
 4 -5 3 12.05 1.25
 4 -5 4 20.21 1.69
 4 -5 5 2.39 1.26
 4 -5 6 2.83 1.53
 4 -4 2 182.6 3.36
 4 -4 3 23.18 1.53
 4 -4 4 5.37 1.26
 4 -4 5 -0.03 1.12
 4 -4 6 0.14 1.37
 4 -3 2 238.26 3.74
 4 -3 4 55.93 2.3
 4 -3 5 6.28 1.26
 4 -3 6 81.34 3.25
 4 -2 2 7.25 1.01
 4 -2 3 69.39 2.25
 4 -2 4 15.23 1.54
 4 -2 5 0.54 1.05
 4 -2 6 21.05 2.05
 4 -1 2 199.35 3.38
 4 -1 3 53.49 1.99
 4 -1 4 8.23 1.26
 4 -1 5 0.97 1
 4 0 2 315.12 4.13
 4 0 3 -0.05 0.71
 4 0 4 -0.49 0.86
 4 0 6 -0.37 1.11
 4 1 3 56.23 2.01
 4 1 4 8.37 1.22
 4 1 5 0.91 0.99
 4 1 6 43.61 2.58
 4 2 0 26.75 1.04
 4 2 2 7.89 0.92
 4 2 3 63.86 2.12
 4 2 4 14.94 1.44
 4 2 5 1.06 0.98
 4 2 6 21.01 2.09
 4 3 0 896.63 5.23
 4 3 2 236.46 3.54
 4 3 3 90.95 2.5
 4 3 4 56.92 2.27
 4 3 5 5.53 1.39
 4 3 6 78.1 3.14
 4 4 0 16.24 0.81
 4 4 1 5.74 0.7
 4 4 2 182.32 3.11
 4 4 3 23.28 1.44
 4 4 4 4.33 1.04
 4 4 5 0.14 1.03
 4 4 6 -0.09 1.21
 4 5 -1 11.21 0.58
 4 5 0 193.25 2.38
 4 5 3 12.68 1.18
 4 5 5 2.03 1.11
 4 5 6 3.96 1.33
 4 6 -1 281.86 2.26
 4 6 0 82.41 1.56
 4 6 1 43.92 1.37
 4 6 2 17.93 1.13
 4 6 3 33.54 1.65
 4 6 4 58.48 2.31
 4 6 5 1.3 1.13
 4 7 3 88.12 2.45
 4 7 4 28.25 1.79
 4 7 5 5.88 1.33
 4 8 3 41.07 1.75
 4 8 4 40.23 2.05
 4 8 5 1.72 1.17
 4 9 5 18.5 1.81
 5 -16 1 20.47 1.86
 5 -15 1 15 1.66
 5 -13 2 31.16 2.04
 5 -12 2 1.36 1.06
 5 -12 3 15.77 1.74
 5 -11 2 182.24 4.06
 5 -11 3 8.27 1.59
 5 -10 2 4.66 1.32
 5 -10 3 30.44 2.11
 5 -9 2 0.46 0.96
 5 -9 3 25.54 1.96
 5 -9 4 14.11 1.68
 5 -8 2 -0.12 1.06
 5 -8 3 71.37 2.77
 5 -7 2 154.37 3.56
 5 -7 4 8.73 1.65
 5 -6 2 -0.31 0.94
 5 -6 4 15.35 1.78
 5 -5 2 40.72 1.95
 5 -5 4 141.62 3.82
 5 -4 1 5.73 0.88
 5 -4 2 1.99 0.88
 5 -4 3 150.3 3.65
 5 -4 4 9.05 1.36
 5 -4 5 0.39 1.13
 5 -3 1 26.81 1.49
 5 -3 2 16.12 1.38
 5 -3 3 3.25 0.98
 5 -3 4 104.37 3.32
 5 -3 5 8.55 1.56
 5 -2 1 -0.35 0.68
 5 -2 2 7.31 1
 5 -2 4 4.14 1.23
 5 -1 1 90.2 2.38
 5 -1 2 29.58 1.6
 5 -1 3 24.3 1.74
 5 -1 4 237.41 4.93
 5 -1 5 10.02 1.51
 5 0 1 1.95 0.69
 5 0 2 -0.71 0.71
 5 0 4 0.52 1.19
 5 0 5 -0.06 1.12
 5 1 0 277.13 3.6
 5 1 1 88.26 2.26
 5 1 2 26.39 1.5
 5 1 3 22.13 1.64
 5 1 4 224.84 4.76
 5 1 5 10.8 1.72
 5 2 1 0.05 0.61
 5 2 2 7.69 1.04
 5 2 3 3.18 0.95
 5 2 4 3.06 1.08
 5 2 5 1.27 1.15
 5 3 1 25.2 1.33
 5 3 2 14.63 1.28
 5 3 3 4.84 1.02
 5 3 4 100.03 3.14
 5 3 5 8.08 1.49
 5 4 -1 6.02 0.68
 5 4 1 5.91 0.81
 5 4 2 0.38 0.73
 5 4 3 142.07 3.32
 5 4 4 11.08 1.55
 5 4 5 0.68 1.1
 5 5 2 40.82 1.75
 5 5 3 29.43 1.76
 5 5 5 8.69 1.61
 5 6 1 -0.01 0.38
 5 6 2 -0.3 0.54
 5 6 3 16.85 1.47
 5 6 4 14.35 1.58
 5 6 5 -0.33 1.09
 5 7 3 1.39 0.75
 5 7 4 9.53 1.36
 6 -13 1 14.53 1.89
 6 -11 1 1.78 1.09
 6 -11 2 0.11 1.34
 6 -10 1 7.58 1.37
 6 -10 2 15.65 1.86
 6 -9 1 11.65 1.57
 6 -9 2 41.67 2.36
 6 -8 1 29.68 1.97
 6 -8 2 12.87 1.78
 6 -8 3 0.74 1.16
 6 -7 1 8.26 1.29
 6 -6 1 54.94 2.37
 6 -6 3 12.47 1.66
 6 -5 1 4.04 1.19
 6 -5 2 1.86 1.17
 6 -4 2 11.19 1.58
 6 -4 3 -0.68 1.05
 6 -3 3 45.85 2.39
 6 -3 4 111.99 3.65
 6 -2 1 125.6 3.13
 6 -2 2 1.87 1.16
 6 -2 4 2.34 1.37
 6 -1 0 1.1 0.69
 6 -1 1 0 0.68
 6 -1 3 30.94 2.08
 6 -1 4 51.43 2.65
 6 0 0 3.14 0.87
 6 0 1 -1.07 0.65
 6 0 2 8.34 1.4
 6 0 3 -0.47 0.99
 6 1 0 2.1 0.72
 6 1 1 0.38 0.68
 6 1 2 49.35 2.2
 6 1 3 31.19 2.08
 6 1 4 49.81 2.56
 6 2 0 1.32 0.78
 6 2 1 125.01 2.93
 6 2 2 2.46 0.99
 6 2 3 24.43 1.84
 6 2 4 2.58 1.19
 6 3 1 7.11 1.09
 6 3 3 48.88 2.33
 6 3 4 111.9 3.5
 6 4 0 0.87 0.57
 6 4 1 11.37 1.18
 6 4 3 -1.2 0.79
 6 4 4 65.76 2.81
 6 5 2 1.66 0.81
 6 5 3 14.31 1.57
 6 5 4 -0.45 1.22
 6 6 3 14.45 1.51
 7 -9 1 14.02 1.8
 7 -8 1 0.71 1.05
 7 -7 1 0.83 1.26
 7 -6 1 21.08 1.86
 7 -6 2 3.28 1.27
 7 -5 0 24.52 1.88
 7 -5 2 65.23 2.88
 7 -4 0 16.17 1.7
 7 -4 1 0.56 1.02
 7 -3 0 3.73 1.04
 7 -3 1 0.78 1.02
 7 -2 0 29.38 1.88
 7 -2 1 3.8 1.12
 7 -2 2 13.67 1.78
 7 -1 0 21.83 1.66
 7 -1 1 9.16 1.43
 7 -1 2 19.52 1.87
 7 0 0 -0.08 0.76
 7 0 1 0.1 0.9
 7 0 2 -0.89 1.15
 7 1 -1 28.73 1.62
 7 1 0 23.04 1.62
 7 1 1 8.57 1.4
 7 1 2 19.25 1.78
 7 2 -1 1.25 0.79
 7 2 0 27.64 1.66
 7 2 2 11.38 1.57
 7 3 1 0.32 0.95
 7 3 2 10.8 1.56
 7 4 2 13.1 1.54
 8 -5 0 40.21 2.42
 8 -4 -1 16.94 1.77
 8 -4 0 129.09 3.68
 8 -3 -1 52.46 2.42
 8 -3 0 6.62 1.49
 8 -2 -1 40.6 2.2
 8 -2 0 2.74 1.1
 8 -1 -1 49.9 2.27
 8 0 -1 -0.68 1.03
 8 0 0 202.85 4.32
 8 0 1 -0.51 1.04
 8 1 0 1.45 1.18
 8 1 1 -1.18 1.13
 1 -7 -2 420.45 1.45
 1 -6 -2 485.14 1.94
 1 -6 -1 18.23 0.42
 1 -5 -2 378.3 1.92
 1 -5 -1 64.41 0.75
 1 -4 -1 377.46 1.7
 1 -4 0 1836.87 4.46
 1 -3 -1 34.69 0.6
 1 -3 0 1899.83 4.33
 1 -2 0 1925.28 4.19
 1 -1 0 513.33 2.13
 1 0 0 0.52 0.21
 1 1 0 507.07 2.04
 1 1 1 183.99 1.53
 1 2 0 1908 3.9
 1 2 1 73.82 0.97
 1 3 0 1892.6 3.91
 1 4 0 1845.95 3.92
 1 4 1 764.27 2.7
 1 5 0 0.35 0.22
 1 6 0 20.12 0.49
 1 7 0 1019.87 2.98
 1 8 0 1039.58 2.99
 1 9 0 1.26 0.23
 2 -9 -4 219.21 1.93
 2 -8 -5 111.26 1.93
 2 -8 -4 83.56 1.36
 2 -8 -3 0.38 0.32
 2 -8 -2 28.02 0.7
 2 -8 -1 1.73 0.39
 2 -7 -4 198.76 2.24
 2 -7 -3 10.79 0.59
 2 -7 -2 245.93 1.96
 2 -7 -1 87.39 1.35
 2 -6 -3 14.21 0.66
 2 -6 -2 1131.07 4.22
 2 -6 -1 79.58 1.23
 2 -6 0 591.18 3.59
 2 -5 -3 60 1.17
 2 -5 -2 18.05 0.65
 2 -5 -1 6.97 0.52
 2 -5 0 0.43 0.34
 2 -4 -2 3.68 0.43
 2 -4 -1 3.61 0.43
 2 -4 0 86.81 1.46
 2 -3 -2 997.68 4.26
 2 -3 -1 297.06 2.29
 2 -3 0 700.68 3.65
 2 -3 1 378.31 3.14
 2 -2 -2 584.34 3.33
 2 -2 -1 200.07 1.91
 2 -2 0 393.71 2.72
 2 -2 1 285.93 2.73
 2 -1 -1 70.13 1.17
 2 -1 0 304.82 2.39
 2 -1 1 229.87 2.37
 2 0 0 715.48 3.56
 2 0 1 0.34 0.35
 2 1 -1 67.57 1.17
 2 1 0 301.93 2.35
 2 1 1 224.61 2.21
 2 2 -1 197.4 1.95
 2 2 0 396.83 2.66
 2 2 1 275.55 2.44
 2 3 -1 303.55 2.43
 2 3 0 716.76 3.5
 2 3 1 376.58 2.74
 2 4 -1 3.73 0.47
 2 4 0 86.9 1.31
 2 4 1 101.53 1.42
 2 5 -1 7.22 0.55
 2 5 0 0.54 0.3
 2 5 1 45.24 0.99
 2 6 0 587.59 3.12
 2 7 0 71.57 1.13
 2 10 -1 25.21 0.86
 3 -10 -4 6.47 0.64
 3 -10 -3 15.76 0.75
 3 -10 -2 2.4 0.52
 3 -9 -5 7.17 0.79
 3 -9 -4 55.02 1.25
 3 -9 -3 4.42 0.56
 3 -9 -2 0.43 0.43
 3 -9 -1 172.88 2.38
 3 -8 -5 72.18 1.65
 3 -8 -4 109.13 1.79
 3 -8 -3 125.82 1.93
 3 -8 -2 18.95 0.86
 3 -8 -1 25.5 1.03
 3 -7 -6 88.48 2.07
 3 -7 -5 37.54 1.34
 3 -7 -4 77.83 1.62
 3 -7 -3 18.93 0.88
 3 -7 -2 24.58 0.94
 3 -7 -1 1.27 0.49
 3 -7 0 251.61 3.01
 3 -6 -4 3.1 0.62
 3 -6 -3 12.19 0.8
 3 -6 -2 174.13 2.24
 3 -6 0 50.97 1.41
 3 -5 -4 662.1 4.67
 3 -5 -3 32.04 1.09
 3 -5 -2 346.55 3.05
 3 -5 -1 261.25 2.72
 3 -5 0 278.81 3.05
 3 -4 -4 105.43 2.01
 3 -4 -3 225.1 2.67
 3 -4 -1 202.68 2.39
 3 -4 0 272.55 2.93
 3 -3 -3 41.69 1.23
 3 -3 -2 165.33 2.19
 3 -3 -1 85.59 1.63
 3 -3 0 26.95 1.03
 3 -2 -3 16.68 0.92
 3 -2 -2 764.42 4.59
 3 -2 -1 73.69 1.49
 3 -1 -2 897.33 5.02
 3 0 -2 0.01 0.42
 3 0 1 0.35 0.46
 3 1 -1 296.73 2.91
 3 1 1 0.64 0.45
 3 2 -1 71.83 1.49
 3 3 1 24.57 0.99
 3 4 1 -0.04 0.39
 3 5 -2 333.04 3.29
 3 5 0 286.02 2.81
 3 5 1 9.56 0.76
 3 6 -2 171.48 2.5
 3 6 -1 129.75 2.04
 3 7 -2 24.19 1.07
 3 7 -1 0.92 0.48
 3 7 0 255.97 2.67
 3 7 1 72.82 1.51
 3 8 -2 20.44 1.04
 3 8 -1 25.17 1.02
 3 8 0 222.29 2.47
 3 9 -2 0.37 0.54
 3 9 -1 176.26 2.4
 3 10 -2 2.62 0.64
 3 11 -2 92.72 1.88
 4 -11 -3 164.26 2.48
 4 -9 -3 2.89 0.67
 4 -8 -6 0.89 0.79
 4 -8 -3 0.26 0.57
 4 -7 -7 13.27 1.4
 4 -7 0 232.52 3.41
 4 -6 -8 5.71 1.27
 4 -6 -7 170.57 3.52
 4 -6 -6 29.54 1.56
 4 -6 -5 5.67 0.89
 4 -6 -3 8 0.87
 4 -6 -2 8.01 0.89
 4 -5 -7 0.3 0.91
 4 -5 -6 46.63 1.85
 4 -5 -5 40.61 1.61
 4 -5 -2 185.89 2.77
 4 -4 -6 0.06 0.83
 4 -4 -2 24.19 1.15
 4 -3 -5 63.48 1.94
 4 -3 -3 304.09 3.6
 4 -3 -2 167.93 2.67
 4 -2 -3 1.81 0.62
 4 -2 -1 588.39 4.77
 4 -2 1 44.04 1.65
 4 0 -3 -0.24 0.46
 4 2 -2 6.2 0.74
 4 2 -1 583.36 4.71
 4 3 -2 167.3 2.77
 4 4 -1 24.12 1.15
 4 4 0 15.05 1.04
 4 5 -1 10.91 0.92
 4 6 -1 269.01 3.35
 4 8 0 30.98 1.25
 4 9 -3 1.87 0.83
 4 10 -4 104.62 2.57
 4 10 -3 15.05 1.24
 4 11 -4 1.08 0.89
 4 12 -4 37.06 1.83
 4 13 -5 19.05 1.7
 5 -11 -3 12.74 1.19
 5 -11 -2 31.79 1.55
 5 -10 -4 5.56 0.96
 5 -10 -3 65.9 1.9
 5 -10 -2 19.65 1.35
 5 -9 -5 -0.58 0.76
 5 -9 -4 7.36 1
 5 -9 -3 10.45 1.14
 5 -9 -2 22.45 1.41
 5 -9 -1 74.74 2.24
 5 -8 -6 81.93 2.3
 5 -8 -5 3.97 0.94
 5 -8 -3 93.04 2.24
 5 -8 -2 43.68 1.69
 5 -8 -1 0.8 0.89
 5 -7 -7 1.34 1.08
 5 -7 -6 188.35 3.65
 5 -7 -5 0.42 0.8
 5 -7 -4 341.12 4.24
 5 -7 -3 4.58 0.92
 5 -7 -2 2.92 0.84
 5 -7 -1 33.76 1.64
 5 -7 0 33.06 1.75
 5 -6 -8 7.4 1.39
 5 -6 -7 19.15 1.7
 5 -6 -6 16.26 1.49
 5 -6 -4 1.25 0.82
 5 -6 -3 48.77 1.76
 5 -6 -2 15.83 1.24
 5 -6 -1 0.4 0.8
 5 -5 -8 49.53 2.35
 5 -5 -7 63.28 2.37
 5 -5 -6 157.93 3.27
 5 -5 -5 0.39 0.86
 5 -5 -4 68.95 2.04
 5 -5 -3 28.05 1.46
 5 -5 -2 293.75 3.99
 5 -5 -1 123.08 2.62
 5 -4 -9 1.47 1.43
 5 -4 -7 1.23 1.19
 5 -4 -6 44.78 2.04
 5 -4 -5 1.9 0.84
 5 -4 -3 279.8 3.89
 5 -4 -1 7.17 1.03
 5 -4 0 33.71 1.69
 5 -4 1 6.73 1.22
 5 -3 -9 -0.23 1.24
 5 -3 -8 0.57 1.25
 5 -3 -7 13.52 1.68
 5 -3 -6 21.64 1.61
 5 -3 -5 0.08 0.85
 5 -3 -4 70.89 2.12
 5 -3 -3 0.5 0.63
 5 -3 -2 110.02 2.45
 5 -3 -1 63.86 1.97
 5 -3 0 26.62 1.51
 5 -2 -9 0.8 1.39
 5 -2 -8 32.49 2.24
 5 -2 -6 10.97 1.33
 5 -2 -5 1.39 0.86
 5 -2 -4 14.25 1.26
 5 -2 -3 8.69 1.07
 5 -2 -1 0.3 0.64
 5 -2 0 417.72 4.84
 5 -2 1 -0.19 0.72
 5 -1 -9 9.36 1.75
 5 -1 -8 31.71 2.13
 5 -1 -7 34.95 2.1
 5 -1 -6 52 2.21
 5 -1 -5 1.47 0.9
 5 -1 -2 465.71 4.9
 5 -1 -1 94.8 2.32
 5 -1 0 292.11 4.06
 5 -1 1 90.16 2.53
 5 0 -7 2.14 1.12
 5 0 -6 0.24 0.85
 5 0 -3 455.69 4.97
 5 0 -1 16.84 1.22
 5 0 0 -0.05 0.74
 5 0 1 1.14 0.97
 5 1 -5 2.17 0.93
 5 1 -4 23.46 1.48
 5 1 -3 13.69 1.17
 5 1 -2 455.2 4.83
 5 1 -1 100.54 2.4
 5 1 0 280.79 3.96
 5 1 1 90.67 2.48
 5 2 -5 0.48 0.8
 5 2 -3 8.7 1.03
 5 2 -1 0.24 0.67
 5 2 0 425.08 4.78
 5 2 1 -0.26 0.74
 5 3 -6 22.55 1.69
 5 3 -5 1 0.88
 5 3 -3 0.88 0.69
 5 3 -2 108.27 2.45
 5 3 -1 66.11 2.02
 5 3 0 25.48 1.45
 5 3 1 26.81 1.58
 5 4 -5 1.92 1.05
 5 4 -4 3.62 0.89
 5 4 -3 278.5 4.12
 5 4 1 6.26 1.09
 5 5 -4 70.68 2.27
 5 5 -2 287.46 3.97
 5 5 -1 124.3 2.7
 5 5 0 270.99 3.83
 5 5 1 99.93 2.51
 5 6 -5 4.19 1.08
 5 6 -4 2.23 1.01
 5 6 -3 46.88 1.89
 5 6 -1 0.62 0.7
 5 6 0 207.39 3.33
 5 6 1 0.27 0.9
 5 7 -5 1.28 1.06
 5 7 -4 324.15 4.76
 5 7 -3 4.52 0.95
 5 7 -2 3.19 0.93
 5 7 0 33.62 1.51
 5 8 -5 4.08 1.18
 5 8 -4 5.56 1.07
 5 8 -3 94.43 2.49
 5 8 -1 1.27 0.8
 5 8 0 91.76 2.22
 5 9 -6 101.76 3.13
 5 9 -5 0.2 1.19
 5 9 -4 9.71 1.24
 5 9 -3 10.74 1.29
 5 9 -2 24 1.47
 5 9 -1 75.44 2.08
 5 10 -5 9.16 1.48
 5 10 -4 3.92 1.1
 5 10 -2 18.94 1.33
 5 11 -7 -1.43 1.4
 5 11 -6 156.98 3.88
 5 11 -5 4.79 1.3
 5 11 -4 316.54 4.92
 5 11 -3 13.23 1.36
 5 12 -7 1.34 1.41
 5 12 -6 46.15 2.57
 5 12 -5 27.05 1.98
 5 12 -4 2 1
 5 13 -7 9.71 1.87
 5 13 -6 23.93 2.12
 5 13 -5 1.83 1.21
 5 14 -6 11.93 1.72
 6 -11 -2 53.72 2.19
 6 -10 -4 44.66 1.91
 6 -10 -3 6.91 1.22
 6 -10 -2 67.66 2.41
 6 -9 -5 26.82 1.71
 6 -9 -4 125.36 2.84
 6 -9 -3 0.01 0.87
 6 -9 -2 220.99 4.05
 6 -9 -1 7.78 1.43
 6 -8 -6 0.77 1.04
 6 -8 -5 6.1 1.19
 6 -8 -4 0.57 0.95
 6 -8 -3 45.87 1.98
 6 -8 -2 1.85 1.12
 6 -8 -1 1.57 1.09
 6 -7 -7 26.52 1.91
 6 -6 -8 9.23 1.54
 6 -6 -7 0.54 1.24
 6 -6 -6 1.34 1.15
 6 -6 -5 9.23 1.37
 6 -6 -3 1.35 0.93
 6 -6 -2 71.85 2.36
 6 -6 0 2.56 1.29
 6 -5 -8 43.6 2.46
 6 -5 -7 3.59 1.4
 6 -5 -6 10.73 1.45
 6 -5 -5 4.66 1.16
 6 -5 -4 43.94 2
 6 -5 -3 0.25 0.92
 6 -5 -2 114.7 2.83
 6 -5 -1 3.43 1.02
 6 -5 0 155.48 3.54
 6 -4 -8 185.88 4.17
 6 -4 -7 1.48 1.33
 6 -4 -6 73.08 2.62
 6 -4 -5 3.3 1.14
 6 -4 -4 24.07 1.68
 6 -4 -3 20.84 1.53
 6 -4 -2 0.51 0.85
 6 -4 -1 1.04 1.01
 6 -3 -9 12.87 1.88
 6 -3 -8 30.86 2.35
 6 -3 -6 93.94 2.95
 6 -3 -5 65.06 2.42
 6 -3 -4 62.39 2.26
 6 -3 -3 48.47 2.05
 6 -3 -2 125.35 2.95
 6 -3 -1 4.51 1.16
 6 -3 0 50.48 2.21
 6 -2 -9 2.25 1.56
 6 -2 -8 3.54 1.47
 6 -2 -7 4.36 1.33
 6 -2 -6 1.28 1.21
 6 -2 -5 4.79 1.21
 6 -2 -4 12.07 1.36
 6 -2 -3 0.09 0.78
 6 -2 -1 2.41 1.01
 6 -2 0 0.41 0.9
 6 -2 1 130.21 3.41
 6 -1 -9 25.72 2.42
 6 -1 -8 1.14 1.41
 6 -1 -6 20.32 1.89
 6 -1 -5 8.73 1.34
 6 -1 -4 8.79 1.27
 6 -1 -2 1.06 0.86
 6 -1 -1 1.03 0.83
 6 -1 0 2.14 1.15
 6 -1 1 -0.96 0.94
 6 0 -9 -1.58 1.45
 6 0 -8 302.47 5.9
 6 0 -7 -0.39 1.25
 6 0 -6 151.13 3.69
 6 0 -5 0.2 0.93
 6 0 -4 43.94 2
 6 0 -3 0.02 0.87
 6 0 -2 2.19 0.94
 6 0 -1 -0.33 0.83
 6 0 0 3.16 1.16
 6 0 1 -0.38 0.96
 6 1 -8 -0.35 1.62
 6 1 -6 20.61 1.92
 6 1 -5 10.96 1.46
 6 1 -4 6.45 1.14
 6 1 -3 12.94 1.42
 6 1 -2 1.63 0.9
 6 1 -1 1.45 1.03
 6 1 1 -0.52 1.14
 6 2 -6 0.06 1.12
 6 2 -5 5.87 1.31
 6 2 -4 11.83 1.36
 6 2 -3 0.36 0.82
 6 2 -2 14.3 1.46
 6 2 -1 2.36 1.02
 6 2 0 0.71 0.94
 6 2 1 131.8 3.33
 6 3 -7 15.73 1.9
 6 3 -6 96.27 3.16
 6 3 -5 64.68 2.53
 6 3 -4 60.86 2.38
 6 3 -2 126.61 3.01
 6 3 -1 3.92 1.02
 6 3 0 50.42 2.1
 6 3 1 7.4 1.46
 6 4 -8 179.73 4.57
 6 4 -7 1.56 1.35
 6 4 -6 68.7 2.77
 6 4 -5 3.17 1.14
 6 4 -3 21.07 1.6
 6 4 -2 0.03 0.97
 6 4 -1 0.59 0.97
 6 4 0 1.2 0.95
 6 5 -8 43.41 2.89
 6 5 -7 4.21 1.5
 6 5 -6 11.55 1.57
 6 5 -5 2.97 1.18
 6 5 -4 45 2.17
 6 5 -3 1.4 0.91
 6 5 -1 2.51 1.08
 6 5 0 148.1 3.21
 6 6 -8 8.95 1.86
 6 6 -7 1.51 1.46
 6 6 -6 -0.02 1.14
 6 6 -5 9.07 1.47
 6 6 -4 52.91 2.33
 6 6 -3 0.77 0.88
 6 6 -2 71.86 2.37
 6 6 -1 0.34 0.94
 6 6 0 2.04 1.11
 6 7 -6 50.31 2.66
 6 7 -5 81.04 2.91
 6 7 -4 19.59 1.78
 6 7 -3 49.37 2.14
 6 7 -2 146.24 3.19
 6 7 -1 4.24 1.13
 6 7 0 43.5 1.99
 6 7 1 8.06 1.43
 6 8 -8 31.47 2.71
 6 8 -7 1.32 1.57
 6 8 -6 1.33 1.51
 6 8 -5 5.9 1.45
 6 8 -4 1.55 1.21
 6 8 -3 47.71 2.14
 6 8 -2 1 1.08
 6 8 -1 2.05 0.97
 6 8 0 3.83 1.16
 6 9 -7 8.37 1.65
 6 9 -6 51.48 2.72
 6 9 -5 26.4 2.15
 6 9 -4 130.62 3.33
 6 9 -3 1 1.14
 6 9 -2 218.35 4.12
 6 10 -7 -1.34 1.5
 6 10 -6 1.35 1.37
 6 10 -5 8.01 1.5
 6 10 -4 40.65 2.19
 6 10 -3 5.84 1.26
 6 10 -2 67.3 2.27
 6 11 -6 0.76 1.37
 6 11 -5 32.83 2.31
 6 11 -4 4.88 1.34
 6 12 -6 56.59 2.77
 6 12 -5 5.83 1.58
 7 -11 -3 17.98 1.82
 7 -10 -4 9.98 1.52
 7 -10 -2 7.28 1.57
 7 -9 -5 27.92 1.93
 7 -9 -4 16.18 1.71
 7 -9 -2 28.67 2.17
 7 -8 -5 1.73 1.25
 7 -8 -4 13.07 1.64
 7 -8 -3 8.77 1.52
 7 -8 -2 0.41 1.25
 7 -8 -1 16.4 1.97
 7 -7 -7 -0.35 1.21
 7 -7 -6 13.51 1.68
 7 -7 -5 19.41 1.87
 7 -7 -4 105.58 3.07
 7 -7 -2 17.2 1.8
 7 -7 -1 3.94 1.43
 7 -6 -7 21 2.03
 7 -6 -6 2.83 1.37
 7 -6 -5 50.56 2.41
 7 -6 -4 139.76 3.47
 7 -6 -3 1.56 1.33
 7 -6 -2 37.59 2.18
 7 -5 -8 57.53 2.75
 7 -5 -7 16.33 1.9
 7 -5 -6 6.16 1.54
 7 -5 -5 46.94 2.36
 7 -5 -4 27.69 2.02
 7 -5 -3 6.92 1.39
 7 -5 -2 103.07 3.12
 7 -5 -1 60.02 2.65
 7 -5 0 25.39 2.15
 7 -4 -8 13.61 1.9
 7 -4 -6 45.75 2.48
 7 -4 -5 19.95 1.94
 7 -4 -4 13.56 1.66
 7 -4 -3 13.75 1.67
 7 -4 -2 0.94 1.12
 7 -4 -1 16.36 1.85
 7 -4 0 14.86 2.02
 7 -3 -8 103.36 3.47
 7 -3 -7 -0.03 1.27
 7 -3 -6 -1.29 1.31
 7 -3 -5 54.09 2.47
 7 -3 -4 28.31 2.01
 7 -3 -1 2.08 1.23
 7 -3 0 3.05 1.38
 7 -2 -8 130.93 3.91
 7 -2 -7 3.97 1.54
 7 -2 -5 7.94 1.62
 7 -2 -4 375.69 5.76
 7 -2 -3 0.03 1.25
 7 -2 -2 191.3 4.25
 7 -2 -1 0.36 1.23
 7 -2 0 27.53 2.19
 7 -1 -8 132.62 4.04
 7 -1 -7 2.48 1.49
 7 -1 -6 11.78 1.65
 7 -1 -5 63.04 2.73
 7 -1 -2 90.08 2.92
 7 -1 -1 30.85 2.12
 7 -1 0 23.45 2.08
 7 0 -8 1.04 1.78
 7 0 -7 107.63 3.64
 7 0 -6 0.8 1.5
 7 0 -5 26.15 2.07
 7 0 -4 0.63 1.25
 7 0 -3 14.46 1.69
 7 0 -2 -0.29 1.22
 7 0 0 -0.13 1.41
 7 1 -7 2.81 1.72
 7 1 -6 13.96 1.89
 7 1 -5 65.31 2.79
 7 1 -4 6.95 1.45
 7 1 -2 88.94 2.9
 7 1 -1 28.63 2.09
 7 1 0 22.82 2.06
 7 2 -8 140.58 4.25
 7 2 -7 3.06 1.69
 7 2 -6 15.86 1.94
 7 2 -5 9.09 1.55
 7 2 -3 1.06 1.27
 7 2 -2 186.45 4.21
 7 2 0 27.92 2.15
 7 3 -8 104.04 3.84
 7 3 -7 -1.42 1.32
 7 3 -6 0.81 1.59
 7 3 -4 26.87 2
 7 3 -3 1.85 1.19
 7 3 -1 0.94 1.21
 7 4 -8 11.8 2.03
 7 4 -7 79.51 3.3
 7 4 -6 42.44 2.67
 7 4 -5 18.1 2.07
 7 4 -4 14.28 1.68
 7 4 -3 14.58 1.77
 7 4 -2 1.81 1.34
 7 4 -1 19.47 1.81
 7 5 -7 13.42 1.94
 7 5 -6 3.8 1.61
 7 5 -5 43.48 2.5
 7 5 -4 30.94 2.17
 7 5 -3 7.13 1.41
 7 5 -2 102.57 3.09
 7 5 -1 60.75 2.5
 7 5 0 25.35 2.13
 7 6 -6 2.55 1.69
 7 6 -3 2.67 1.24
 7 6 -2 35.14 2.1
 7 6 -1 8.1 1.52
 7 6 0 5.44 1.55
 7 7 -7 0.45 1.54
 7 7 -6 15.56 2.02
 7 7 -5 18 1.99
 7 7 -4 103.33 3.29
 7 7 -3 8.51 1.6
 7 7 -2 13.08 1.62
 7 7 -1 4.26 1.42
 7 7 0 59.67 2.6
 7 8 -7 43.65 2.87
 7 8 -5 2.76 1.41
 7 8 -4 10.68 1.7
 7 8 -2 1.07 1.3
 7 8 -1 17.8 1.86
 7 8 0 24.51 1.99
 7 9 -5 25.44 2.23
 7 9 -4 14.24 1.74
 7 9 -3 9.24 1.56
 7 9 -2 31.34 2.04
 7 10 -6 48.47 2.74
 7 10 -5 76 3.03
 7 10 -4 8.42 1.56
 7 10 -3 2.28 1.27
 7 11 -6 25.29 2.47
 7 11 -5 0.09 1.41
 7 11 -4 88.44 3.02
 7 12 -5 0.05 1.43
 8 -10 -3 16.74 2.02
 8 -9 -3 1.67 1.61
 8 -9 -2 2.08 1.73
 8 -8 -5 3.35 1.44
 8 -8 -3 21.91 2.21
 8 -8 -2 32.25 2.45
 8 -7 -6 2.87 1.53
 8 -7 -5 2.69 1.44
 8 -7 -4 20.48 2.11
 8 -7 -3 24.16 2.26
 8 -7 -2 0.75 1.46
 8 -6 -6 28.66 2.37
 8 -6 -5 74.26 2.96
 8 -6 -4 24.49 2.12
 8 -6 -2 56.24 2.9
 8 -6 -1 21.12 2.4
 8 -5 -5 3.83 1.53
 8 -5 -4 106.07 3.42
 8 -5 -3 0.84 1.37
 8 -5 -2 0.93 1.56
 8 -5 -1 26.51 2.38
 8 -4 -6 139.33 3.93
 8 -4 -5 1.94 1.64
 8 -4 -3 9.93 1.71
 8 -4 -2 0.33 1.4
 8 -3 -7 118.75 3.79
 8 -3 -6 1.09 1.44
 8 -3 -5 8.1 1.84
 8 -3 -4 119.83 3.68
 8 -3 -2 23.31 2.27
 8 -3 -1 51.62 2.81
 8 -2 -7 1.36 1.78
 8 -2 -6 8.52 1.71
 8 -2 -4 6.14 1.83
 8 -2 -1 41.86 2.75
 8 -2 0 1.57 1.85
 8 -1 -7 104.74 3.76
 8 -1 -5 17.24 2.1
 8 -1 -4 150.62 4.06
 8 -1 -3 3.89 1.62
 8 -1 -2 19.91 2.07
 8 0 -7 -0.22 1.8
 8 0 -6 248.34 5.14
 8 0 -4 251.93 5.5
 8 0 -3 -0.26 1.34
 8 0 -2 4.96 1.61
 8 0 -1 -1.64 1.34
 8 1 -6 2.11 1.52
 8 1 -4 149 4.02
 8 1 -3 4.4 1.54
 8 1 -2 18.22 2.08
 8 1 -1 45.48 2.73
 8 1 0 2.38 1.53
 8 2 -6 8.59 1.77
 8 2 -5 102.37 3.58
 8 2 -4 5.56 1.77
 8 2 -1 44.11 2.62
 8 2 0 1.21 1.61
 8 3 -6 1.08 1.76
 8 3 -5 9.37 1.87
 8 3 -4 116.13 3.7
 8 3 -3 16.7 2.02
 8 3 -1 51.94 2.78
 8 4 -6 136.78 4.15
 8 4 -5 0.6 1.51
 8 4 -4 125.82 3.8
 8 4 -3 8.49 1.86
 8 4 -2 0.55 1.33
 8 4 -1 20.41 2.14
 8 4 0 123.96 3.76
 8 5 -6 8.03 1.93
 8 5 -5 4.64 1.81
 8 5 -3 2.96 1.63
 8 5 -2 1.58 1.35
 8 5 0 39.99 2.67
 8 6 -4 21.82 2.24
 8 6 -3 33.52 2.37
 8 6 -1 22.07 2.2
 8 6 0 15.27 2.2
 8 7 -5 0.56 1.55
 8 7 -3 21.71 2.24
 8 7 -1 34.39 2.43
 8 8 -5 5.7 1.8
 8 8 -3 20.03 2.07
 8 8 -2 30.78 2.23
 8 8 -1 40.48 2.5
 8 9 -4 42.51 2.66
 8 9 -3 2.94 1.6
 8 9 -2 3.65 1.57
 8 10 -3 17.56 2.01
 0 -10 -2 132.94 1.13
 0 -10 0 3.01 0.31
 0 -9 -1 11.15 0.31
 0 -9 0 -0.04 0.18
 0 -9 1 10.91 0.56
 0 -8 -1 8.46 0.29
 0 -8 0 711.95 2.62
 0 -8 1 9.06 0.53
 0 -7 -1 568.23 2.01
 0 -7 0 0.28 0.17
 0 -7 1 582.24 3.13
 0 -6 0 296.02 1.51
 0 -6 1 98.21 1.28
 0 -5 0 3.06 0.23
 0 -5 1 183.41 1.65
 0 -4 0 9844.69 6.93
 0 -3 1 1431.07 4.06
 1 -14 1 119.72 2.12
 1 -13 -1 4.75 0.48
 1 -13 0 1.13 0.4
 1 -12 -3 2 0.4
 1 -12 -2 8.66 0.54
 1 -12 -1 55.37 1.07
 1 -12 0 165.27 2.1
 1 -12 1 26.57 1.06
 1 -11 -2 187.2 1.95
 1 -11 -1 0.27 0.29
 1 -11 0 439.68 3.24
 1 -11 1 54.69 1.39
 1 -10 -2 1.41 0.34
 1 -10 -1 11.05 0.58
 1 -10 0 76.65 1.41
 1 -10 1 227.09 2.68
 1 -10 2 241.08 3.23
 1 -9 -1 15.45 0.62
 1 -9 0 1.4 0.36
 1 -9 1 18.04 0.84
 1 -9 2 7.84 0.81
 1 -8 -1 105.46 1.41
 1 -8 0 1026.76 4.44
 1 -8 1 209.86 2.42
 1 -8 2 313.87 3.42
 1 -7 0 1030.26 4.31
 1 -7 1 18.94 0.79
 1 -7 2 55.98 1.47
 1 -6 -1 18.02 0.61
 1 -6 0 19.3 0.66
 1 -6 1 328.81 2.78
 1 -6 2 9.39 0.71
 1 -5 0 0.64 0.31
 1 -5 1 75.76 1.34
 1 -5 2 89.16 1.74
 1 -5 3 383.3 4.07
 1 -4 0 1835.74 5.03
 1 -4 1 793.33 3.95
 1 -4 2 458.65 3.65
 1 -4 3 18.43 0.98
 1 -3 0 1915.56 4.84
 1 -3 1 -0.06 0.25
 1 -3 2 142.73 2.04
 1 -2 0 1876.9 4.47
 1 -2 1 73.14 1.16
 1 -2 2 451.74 3.45
 1 -1 0 509.99 2.21
 1 -1 1 187.86 1.71
 1 -1 2 251.23 2.54
 1 0 0 0.34 0.2
 1 0 1 2218.65 5.51
 1 0 2 0.08 0.38
 1 1 0 521.03 1.87
 1 1 1 193.35 1.59
 1 1 2 252.92 2.45
 1 2 0 1918.53 3.16
 1 2 1 72.73 0.94
 1 3 1 0 0.19
 2 -15 1 4.67 0.82
 2 -14 -1 3.81 0.61
 2 -14 1 27.81 1.33
 2 -14 2 1.38 0.73
 2 -13 -2 65.65 1.49
 2 -13 -1 68.68 1.57
 2 -13 1 6.76 0.84
 2 -13 2 40.43 1.72
 2 -12 -3 -0.22 0.42
 2 -12 -2 13.33 0.82
 2 -12 -1 -0.05 0.38
 2 -12 2 79.35 2.2
 2 -12 3 0.11 0.71
 2 -11 -3 1.44 0.46
 2 -11 -2 3.09 0.51
 2 -11 -1 12.8 0.82
 2 -11 0 7.97 0.77
 2 -11 3 -0.19 0.69
 2 -10 -2 636.08 4.37
 2 -10 -1 25.05 1
 2 -10 2 54.33 1.8
 2 -10 3 46.52 1.92
 2 -9 -2 145.33 2.17
 2 -9 -1 45.6 1.22
 2 -9 1 0.41 0.56
 2 -8 -1 0.68 0.39
 2 -8 0 77.16 1.62
 2 -8 3 -0.1 0.54
 2 -7 -1 85.19 1.56
 2 -7 0 68.83 1.47
 2 -7 1 125.49 2.17
 2 -7 3 -0.09 0.56
 2 -7 4 2.29 0.82
 2 -6 -1 81.77 1.53
 2 -6 0 598.12 4.02
 2 -6 1 55.59 1.42
 2 -6 3 82.5 2.2
 2 -6 4 263.99 4.28
 2 -5 -1 7.38 0.55
 2 -5 0 0.4 0.33
 2 -5 1 45.41 1.25
 2 -5 2 116.78 2.3
 2 -5 4 228.87 3.94
 2 -4 0 85.23 1.47
 2 -4 1 101.54 1.75
 2 -4 4 97.22 2.49
 2 -3 0 710.78 3.93
 2 -3 1 367.04 3.16
 2 -2 0 393.27 2.84
 2 -2 1 271.43 2.63
 2 -1 0 304.86 2.4
 2 -1 1 225.83 2.34
 2 -1 3 2.09 0.54
 2 0 0 700.78 3.46
 2 0 1 0.03 0.34
 2 0 3 -0.09 0.46
 2 1 0 317.1 2.23
 2 1 1 220.47 2.15
 2 2 0 399.3 2.38
 2 2 1 276.64 2.31
 2 2 3 111.74 2.1
 2 3 0 720.82 2.98
 2 3 1 375.08 2.58
 2 4 0 89.46 1.03
 2 4 1 104.38 1.35
 2 5 0 0.52 0.17
 2 5 1 46.46 0.85
 2 6 0 579.42 1.8
 3 -16 1 6.46 1.1
 3 -16 2 24.41 1.69
 3 -15 -1 4.53 0.79
 3 -15 1 57.9 2.1
 3 -15 2 3.29 1.14
 3 -14 -3 3.5 0.7
 3 -14 -2 1.08 0.61
 3 -14 -1 52.61 1.69
 3 -14 1 0.74 0.77
 3 -14 2 0.82 1.01
 3 -14 3 -0.8 0.88
 3 -13 -5 1.58 0.78
 3 -13 -4 37.84 1.52
 3 -13 -3 0.57 0.65
 3 -13 -2 167.23 2.88
 3 -13 -1 79.72 2.01
 3 -13 0 0.81 0.61
 3 -13 1 2.22 0.78
 3 -13 2 0.94 0.81
 3 -13 3 0.45 1.09
 3 -12 -4 44.48 1.6
 3 -12 -3 59.65 1.72
 3 -12 -1 1 0.6
 3 -12 0 60.62 1.85
 3 -12 1 -0.04 0.6
 3 -12 3 14.49 1.57
 3 -11 -3 6.95 0.84
 3 -11 0 201.2 3.17
 3 -11 1 79.05 2.22
 3 -11 3 11.74 1.46
 3 -10 1 2.05 0.69
 3 -10 2 20.37 1.4
 3 -10 3 0.43 0.94
 3 -10 4 44.4 2.3
 3 -9 1 11.07 1.04
 3 -9 2 43.58 1.82
 3 -9 3 10.27 1.26
 3 -9 4 0.65 1.05
 3 -8 -2 17.83 1
 3 -8 -1 24.83 1.13
 3 -8 1 0.2 0.52
 3 -8 2 468.73 5.32
 3 -8 4 137.98 3.56
 3 -7 -2 25.61 1.12
 3 -7 -1 0.79 0.47
 3 -7 2 19.39 1.29
 3 -7 3 0.1 0.73
 3 -7 4 20.36 1.65
 3 -6 0 48.1 1.44
 3 -6 2 6.34 0.89
 3 -6 3 1.74 0.77
 3 -5 -1 264.83 3.02
 3 -5 0 281.63 3.23
 3 -5 2 182.51 3.19
 3 -5 3 27.57 1.54
 3 -5 4 23.8 1.71
 3 -4 -1 202.04 2.58
 3 -4 1 0.56 0.45
 3 -4 3 47.29 1.85
 3 -3 3 4.9 0.86
 3 -3 4 0.75 0.76
 3 -2 -1 73.81 1.53
 3 -2 1 5.46 0.64
 3 -2 3 0.59 0.67
 3 -2 4 25.79 1.6
 3 -1 -1 308.72 2.94
 3 -1 1 0.37 0.34
 3 -1 3 25.06 1.38
 3 -1 4 35.26 1.72
 3 0 -1 422.58 3.3
 3 0 1 0.55 0.36
 3 0 2 0.3 0.46
 3 0 3 55.48 1.84
 3 1 1 0.24 0.33
 3 1 2 198.38 2.86
 3 2 1 6 0.59
 3 2 2 3.4 0.61
 3 3 1 23.63 0.89
 3 3 2 13.2 0.87
 3 4 -1 209.73 2.05
 3 4 1 0.42 0.33
 3 4 2 349.33 3.47
 3 5 -1 267.55 2.22
 3 5 1 10.2 0.62
 3 5 2 187.67 2.53
 3 6 1 1.7 0.35
 3 7 -1 0.83 0.25
 3 7 0 253.52 1.77
 3 8 -1 25.13 0.55
 4 -16 -1 34.69 1.78
 4 -16 0 6.87 1.2
 4 -16 1 0.28 0.95
 4 -16 2 -0.56 1
 4 -15 -2 96.71 2.48
 4 -15 -1 4.97 0.99
 4 -15 0 75.6 2.48
 4 -15 1 0.73 0.93
 4 -15 2 121.98 3.44
 4 -15 3 34.04 2.15
 4 -14 -4 78.49 2.25
 4 -14 -3 19.86 1.38
 4 -14 -2 0.02 0.73
 4 -14 1 15.95 1.56
 4 -14 2 3.87 1.17
 4 -13 -6 2.23 0.98
 4 -13 -5 22.66 1.49
 4 -13 -4 72.83 2.22
 4 -13 -1 48.23 1.88
 4 -13 0 0.22 0.76
 4 -13 1 19.68 1.61
 4 -13 2 20.85 1.82
 4 -13 3 3.83 1.31
 4 -12 -5 0.08 0.74
 4 -12 -4 36.64 1.68
 4 -12 -3 1.2 0.71
 4 -12 -2 42.2 1.75
 4 -12 0 26.12 1.57
 4 -12 1 1.46 0.91
 4 -12 2 0.85 1.13
 4 -12 3 29.24 2.15
 4 -11 -4 0.3 0.71
 4 -11 -2 14.96 1.21
 4 -11 -1 20.6 1.33
 4 -11 0 0.41 0.69
 4 -11 1 6.14 1.01
 4 -11 4 0.04 1.37
 4 -10 -3 13.63 1.13
 4 -10 -2 3.52 0.8
 4 -10 0 47.65 1.85
 4 -10 1 35.75 1.78
 4 -10 2 1.56 0.87
 4 -10 3 5.09 1.36
 4 -10 4 36.28 2.44
 4 -9 -3 2.02 0.69
 4 -9 -2 353.25 4.34
 4 -9 -1 35.53 1.55
 4 -9 0 10.48 1.07
 4 -9 1 25.15 1.53
 4 -9 3 -0.43 0.95
 4 -9 4 71.74 3.03
 4 -8 -3 0.17 0.52
 4 -8 0 34.75 1.56
 4 -8 1 3.78 0.92
 4 -8 2 33.9 1.85
 4 -8 3 41.15 2.18
 4 -8 4 39.6 2.45
 4 -7 -2 47.06 1.64
 4 -7 0 244.2 3.68
 4 -7 1 17.66 1.27
 4 -7 2 40.23 1.91
 4 -7 3 92.3 2.94
 4 -7 4 28.84 2.1
 4 -6 0 84.38 2.14
 4 -6 1 43.23 1.7
 4 -6 2 17.27 1.39
 4 -6 3 34.49 1.91
 4 -6 4 61.32 2.72
 4 -5 1 42.53 1.66
 4 -5 2 11.85 1.14
 4 -5 4 19.55 1.88
 4 -4 1 5.78 0.9
 4 -4 3 21.47 1.56
 4 -4 4 3.92 1.21
 4 -3 1 35.24 1.45
 4 -3 2 237.96 3.85
 4 -3 3 88.89 2.66
 4 -3 4 55.44 2.45
 4 -2 3 71.1 2.39
 4 -2 4 15.29 1.58
 4 -1 -1 9.85 0.82
 4 -1 0 853.08 5.85
 4 -1 2 194.22 3.4
 4 -1 3 51.85 2.04
 4 -1 4 11.78 1.41
 4 0 0 4.67 0.68
 4 0 2 318.46 4.18
 4 0 3 -0.25 0.81
 4 0 4 -0.3 0.73
 4 1 0 865.69 5.6
 4 1 2 189.05 3.17
 4 1 3 55.12 2
 4 2 -1 588.96 4.38
 4 2 0 27.7 1.11
 4 2 1 45.22 1.45
 4 2 3 65.05 2.14
 4 3 -1 29.45 1.06
 4 3 0 916.2 5.41
 4 3 1 34.18 1.25
 4 4 -1 25.11 0.94
 4 4 0 15.55 0.81
 4 4 1 5.83 0.72
 4 4 3 19.73 1.24
 4 5 0 196.82 2.39
 4 5 1 41.35 1.27
 4 6 -1 276.1 2.63
 5 -16 -2 11.74 1.45
 5 -16 -1 1.34 0.97
 5 -16 0 55.46 2.46
 5 -15 -4 83.25 2.61
 5 -15 -3 15.74 1.49
 5 -15 -2 4.97 1.19
 5 -15 -1 5.89 1.29
 5 -15 1 13.01 1.62
 5 -14 -5 13.61 1.46
 5 -14 -3 49.14 2.11
 5 -14 -2 23.9 1.71
 5 -14 -1 -0.35 0.99
 5 -14 0 4.21 1.12
 5 -14 1 2.26 1.33
 5 -13 -6 21.35 1.68
 5 -13 -5 0.6 0.94
 5 -13 -4 14.58 1.45
 5 -13 -3 0.36 0.83
 5 -13 -2 32.76 1.86
 5 -13 1 43.68 2.32
 5 -13 2 31.93 2.25
 5 -12 -6 48.73 2.23
 5 -12 -5 26.75 1.78
 5 -12 -4 2.37 1.07
 5 -12 -3 8.36 1.25
 5 -12 -2 37.34 1.91
 5 -12 0 99.06 2.96
 5 -11 -4 308.53 4.84
 5 -11 -3 12.18 1.34
 5 -11 0 67.67 2.49
 5 -11 1 8.35 1.3
 5 -11 2 188.22 4.37
 5 -11 3 7.02 1.52
 5 -10 -4 4.28 0.98
 5 -10 -3 66.43 2.28
 5 -10 0 51.47 2.18
 5 -10 1 0.37 1.02
 5 -10 2 4.67 1.29
 5 -10 3 29.6 2.25
 5 -9 -4 7.99 1.08
 5 -9 -3 10.38 1.24
 5 -9 -1 75.39 2.42
 5 -9 0 48.64 2.09
 5 -9 1 77.6 2.67
 5 -9 2 -0.55 1.17
 5 -9 4 12.32 1.82
 5 -8 -3 93.35 2.56
 5 -8 -2 43.43 1.81
 5 -8 -1 1.66 0.88
 5 -8 0 88.05 2.58
 5 -8 1 15.59 1.51
 5 -8 2 -0.73 1.07
 5 -8 3 69.33 2.91
 5 -7 -3 3.86 0.95
 5 -7 -2 2.32 0.79
 5 -7 -1 33.71 1.67
 5 -7 0 33.71 1.75
 5 -7 2 151.88 3.74
 5 -7 3 1.24 1.19
 5 -7 4 10.15 1.88
 5 -6 -2 15.02 1.21
 5 -6 -1 0.86 0.61
 5 -6 0 210.28 3.8
 5 -6 1 -0.46 0.78
 5 -6 2 -0.88 0.77
 5 -6 3 16.35 1.78
 5 -6 4 14.22 1.97
 5 -5 -2 291.7 4.18
 5 -5 -1 120.03 2.72
 5 -5 0 272.06 4.23
 5 -5 1 98.81 2.73
 5 -5 2 42.28 2.13
 5 -5 3 30.38 2.12
 5 -5 4 142.67 4.09
 5 -4 -1 6.77 0.94
 5 -4 0 34.66 1.64
 5 -4 1 5.29 0.94
 5 -4 2 0.64 0.84
 5 -4 4 10.66 1.8
 5 -3 -1 64 1.98
 5 -3 1 24.03 1.45
 5 -3 2 15.37 1.46
 5 -3 3 3.36 1.13
 5 -2 -1 0.62 0.66
 5 -2 0 422.92 4.88
 5 -2 1 0.48 0.64
 5 -2 2 7.82 1.23
 5 -2 3 1.39 1.06
 5 -2 4 5.9 1.56
 5 -1 -2 452.87 4.8
 5 -1 -1 100.67 2.3
 5 -1 0 285.15 3.95
 5 -1 1 88.85 2.39
 5 -1 2 27.09 1.61
 5 -1 4 222.53 4.63
 5 0 0 0.2 0.55
 5 0 1 1.34 0.65
 5 0 2 0.22 0.67
 5 0 3 206.59 4.3
 5 0 4 0.95 1.27
 5 1 0 284.72 3.78
 5 1 1 90.42 2.32
 5 1 2 29.2 1.63
 5 1 3 22.68 1.7
 5 2 1 -0.7 0.64
 5 2 2 7.61 0.98
 5 2 3 3.26 1.14
 5 3 2 15.34 1.26
 5 3 3 4.05 1.08
 5 4 1 6.94 0.84
 5 4 2 1.22 0.6
 5 5 -1 118.29 2.17
 5 6 -2 14.9 0.88
 5 6 -1 0.67 0.37
 6 -15 -4 37.88 2.16
 6 -15 -3 1.12 1.12
 6 -15 -2 8.88 1.39
 6 -15 -1 0.43 1.18
 6 -14 -5 7.01 1.32
 6 -14 -4 8.11 1.43
 6 -14 -3 8.45 1.41
 6 -14 -2 24.36 1.94
 6 -14 -1 21.7 1.92
 6 -14 0 -0.55 1.04
 6 -13 -6 23.41 1.93
 6 -13 -5 38.06 2.15
 6 -13 -4 68.89 2.67
 6 -13 -3 2.75 1.14
 6 -13 -2 81.31 2.87
 6 -13 -1 6.09 1.37
 6 -13 1 14.44 1.82
 6 -12 -6 52.3 2.48
 6 -12 -5 4.17 1.23
 6 -12 -4 2.51 1.09
 6 -12 -3 38.63 2.15
 6 -12 -2 3.81 1.28
 6 -12 -1 2.91 1.12
 6 -12 1 27.36 2.18
 6 -11 -7 16.97 1.88
 6 -11 -6 2.17 1.32
 6 -11 -5 35.14 2.08
 6 -11 -4 3.62 1.08
 6 -11 -2 53.58 2.41
 6 -11 -1 2.16 1.22
 6 -11 0 2.02 1.39
 6 -11 1 2 1.37
 6 -11 2 1.49 1.29
 6 -10 -6 0.77 1.26
 6 -10 -4 42.44 2.17
 6 -10 -3 4.6 1.08
 6 -10 -2 66.41 2.61
 6 -10 -1 7.83 1.48
 6 -10 0 2.31 1.25
 6 -10 1 6.75 1.45
 6 -9 -5 28.71 1.95
 6 -9 -4 120.32 3.27
 6 -9 -3 0.38 0.93
 6 -9 -2 222.94 4.43
 6 -9 -1 7.39 1.33
 6 -9 0 270.19 5.13
 6 -9 1 9.47 1.68
 6 -8 -5 6.55 1.19
 6 -8 -4 1.09 0.98
 6 -8 -3 45.07 2.14
 6 -8 -2 0.98 1.05
 6 -8 -1 2.03 0.93
 6 -8 0 3.6 1.24
 6 -8 1 30.23 2.13
 6 -8 2 13.16 1.87
 6 -7 -4 19.8 1.61
 6 -7 -3 48.65 2.15
 6 -7 -2 147.98 3.45
 6 -7 -1 3.74 1.17
 6 -7 0 39.77 2.12
 6 -7 1 5.9 1.33
 6 -7 2 34.57 2.26
 6 -6 -4 53.07 2.21
 6 -6 -3 1.34 0.85
 6 -6 -2 71.38 2.44
 6 -6 -1 0.42 0.81
 6 -6 1 56.3 2.54
 6 -6 2 10.86 1.7
 6 -6 3 12.43 1.76
 6 -5 -4 44.67 2.06
 6 -5 -3 1.54 0.75
 6 -5 -2 114.98 2.96
 6 -5 0 147.2 3.49
 6 -5 1 3.15 1.02
 6 -5 2 1.28 1.06
 6 -5 3 15.46 1.97
 6 -4 -3 23.04 1.59
 6 -4 -2 0.64 0.83
 6 -4 -1 1.43 0.81
 6 -4 0 0.35 0.76
 6 -4 1 10.41 1.52
 6 -4 2 10.12 1.49
 6 -3 -3 47.16 1.99
 6 -3 -2 129.47 3.03
 6 -3 0 48.84 2.1
 6 -3 1 7.52 1.39
 6 -3 2 112.13 3.38
 6 -3 3 48.42 2.59
 6 -2 -3 -0.24 0.72
 6 -2 -2 14.99 1.28
 6 -2 -1 2.27 0.79
 6 -2 0 0.88 0.95
 6 -2 1 128.61 3.28
 6 -2 2 1.57 1.12
 6 -2 3 20.56 2.01
 6 -2 4 0.79 1.33
 6 -1 -2 1.3 0.79
 6 -1 -1 1.17 0.71
 6 -1 0 3.02 0.99
 6 -1 1 0.03 0.77
 6 -1 2 53.53 2.39
 6 -1 3 30.48 2.17
 6 0 -3 0.02 0.58
 6 0 -2 1.86 0.69
 6 0 -1 0.47 0.64
 6 0 0 2.92 0.84
 6 0 1 -0.97 0.78
 6 0 2 8.36 1.34
 6 0 3 -0.1 1.17
 6 1 -3 12.94 1.2
 6 1 -2 1.32 0.66
 6 1 -1 2.24 0.88
 6 1 0 3.3 0.87
 6 1 1 0.28 0.81
 6 1 2 53.54 2.32
 6 1 3 30.15 2.05
 6 2 -3 -0.28 0.69
 6 2 -2 12.94 1.15
 6 2 -1 2.76 0.75
 6 2 0 0.5 0.65
 6 2 1 128.63 3.01
 6 2 2 1.54 1.06
 6 2 3 22.84 1.87
 6 3 -3 47.72 1.81
 6 3 -2 129.68 2.73
 6 3 0 48.27 1.8
 6 3 2 113.82 2.95
 6 4 -2 0.95 0.68
 6 4 -1 0.62 0.59
 6 4 0 1.68 0.7
 6 5 -3 1.13 0.72
 6 6 -3 0.67 0.46
 7 -13 -3 4.16 1.33
 7 -12 -4 0.49 1.23
 7 -12 -3 2.38 1.33
 7 -12 -1 11.61 1.74
 7 -11 -5 0.09 1.28
 7 -11 -4 87.56 3.12
 7 -11 -3 17.27 1.88
 7 -11 -2 19.89 1.98
 7 -10 -6 48.04 2.58
 7 -10 -5 73.42 2.93
 7 -10 -4 9.15 1.68
 7 -10 -3 2.31 1.24
 7 -10 -2 7 1.47
 7 -10 0 2.76 1.54
 7 -9 -6 3.27 1.26
 7 -9 -5 24.32 2.06
 7 -9 -4 10.45 1.6
 7 -9 -3 7.6 1.44
 7 -9 -2 29.1 2.08
 7 -9 0 0.17 1.13
 7 -9 1 12.74 1.85
 7 -8 -6 62 2.83
 7 -8 -5 1.15 1.35
 7 -8 -4 8.62 1.47
 7 -8 -3 8.09 1.38
 7 -8 -1 17.28 1.83
 7 -8 0 22.32 2.04
 7 -8 1 0.37 1.19
 7 -7 -6 15.65 1.87
 7 -7 -3 7.49 1.4
 7 -7 -2 10.81 1.49
 7 -7 0 59.21 2.69
 7 -6 -5 48.5 2.48
 7 -6 -3 2.54 1.08
 7 -6 -2 35.52 2.2
 7 -6 -1 7.49 1.48
 7 -6 1 20.08 2.09
 7 -5 -4 28.13 2
 7 -5 -3 7.13 1.44
 7 -5 -2 98.24 3.13
 7 -5 -1 61.99 2.6
 7 -5 0 27.21 2.06
 7 -5 1 15.94 1.89
 7 -5 2 65.75 3.1
 7 -4 -5 18.74 1.82
 7 -4 -4 13.96 1.56
 7 -4 -3 11.82 1.59
 7 -4 -1 18.3 1.72
 7 -4 0 15.55 1.69
 7 -4 1 0.17 1.21
 7 -4 2 12.05 1.88
 7 -3 -5 54.21 2.47
 7 -3 -4 28.81 1.89
 7 -3 -3 2.63 1.2
 7 -3 -2 5.08 1.12
 7 -3 -1 1.65 1.1
 7 -3 0 3.74 1.24
 7 -3 1 1.02 1.22
 7 -3 2 10.27 1.8
 7 -2 -4 380.23 5.78
 7 -2 -3 0 0.86
 7 -2 -2 198.58 4.16
 7 -2 -1 1.18 1.11
 7 -2 0 29.06 1.95
 7 -2 2 11.54 1.63
 7 -1 -4 5.04 1.18
 7 -1 -3 3.07 1.03
 7 -1 -2 87.58 2.74
 7 -1 -1 30.19 1.88
 7 -1 0 19.98 1.7
 7 -1 1 8.91 1.62
 7 0 -4 -0.08 0.84
 7 0 -3 12.56 1.41
 7 0 -2 -0.5 0.74
 7 0 -1 20.95 1.63
 7 0 0 -0.31 1.06
 7 0 1 0 1
 7 0 2 0.07 1.24
 7 1 -4 4.65 1.19
 7 1 -3 1.99 0.87
 7 1 -2 89.95 2.69
 7 1 -1 27.1 1.73
 7 1 0 19.83 1.64
 7 1 2 19.37 1.86
 7 2 -3 0.92 0.84
 7 2 -2 193 3.76
 7 2 0 29.93 1.81
 7 2 1 3.61 1.26
 7 2 2 11.88 1.62
 7 3 -4 24.69 1.67
 7 3 -3 1.09 0.8
 7 3 -2 6.7 1.07
 7 3 -1 1.52 0.95
 7 3 0 4 0.97
 7 4 -4 12.6 1.37
 7 4 -3 11.27 1.25
 7 4 -2 0.45 0.69
 7 5 -3 5.75 0.86
 8 -9 -3 1.58 1.28
 8 -8 -5 4.33 1.66
 8 -8 -4 7.53 1.54
 8 -8 -3 22.89 2.19
 8 -8 -2 30.43 2.32
 8 -7 -5 1.07 1.2
 8 -7 -4 21.98 2.12
 8 -7 -2 0.49 1.16
 8 -7 -1 32.43 2.4
 8 -6 -6 31.04 2.41
 8 -6 -5 77.54 3.16
 8 -6 -4 22.73 2.08
 8 -6 -2 55.25 2.69
 8 -6 -1 22.27 2.12
 8 -5 -6 8.03 1.6
 8 -5 -5 3.62 1.32
 8 -5 -4 96.08 3.34
 8 -5 -3 0.45 1.27
 8 -5 -2 0.76 1.09
 8 -5 -1 24.14 2.13
 8 -5 0 40.87 2.66
 8 -4 -6 129.13 3.87
 8 -4 -5 1.43 1.15
 8 -4 -4 122.68 3.65
 8 -4 -2 0.16 1.19
 8 -4 -1 18.57 1.95
 8 -3 -6 1.62 1.32
 8 -3 -3 14.62 1.75
 8 -3 -2 24.09 1.98
 8 -3 0 5.39 1.53
 8 -2 -5 99.24 3.31
 8 -2 -4 5.07 1.5
 8 -2 -3 50.4 2.48
 8 -2 -2 11.39 1.71
 8 -2 0 4.46 1.56
 8 -1 -6 0.49 1.12
 8 -1 -3 4.39 1.38
 8 -1 0 2.87 1.34
 8 0 -6 244.36 5.25
 8 0 -5 -0.36 1.03
 8 0 -4 243.98 4.92
 8 0 -1 -0.5 1.19
 8 0 0 199.88 4.38
 8 0 1 1.14 1.39
 8 1 -6 2 1.34
 8 1 -5 16.93 1.81
 8 1 -4 149.18 3.72
 8 1 -3 3.67 1.27
 8 1 -2 22.41 1.78
 8 1 -1 47.17 2.3
 8 1 0 1.78 1.3
 8 1 1 -0.93 1.27
 8 2 -5 97.02 3.13
 8 2 -4 5.33 1.22
 8 2 -3 50.94 2.31
 8 2 -2 10.24 1.38
 8 2 -1 43.68 2.18
 8 2 0 2.2 1.26
 8 3 -6 1.09 1.26
 8 3 -5 8.52 1.47
 8 3 -4 112.78 3.16
 8 3 -2 25.1 1.8
 8 3 -1 54.21 2.22
 8 4 -6 128.83 3.54
 8 4 -5 1.87 0.98
 8 4 -4 128.13 3.27
 8 4 -3 8.12 1.2
 8 5 -6 8.1 1.47
 8 5 -5 4.02 0.99
 9 0 -4 -0.27 1.4
 9 0 -3 6.52 1.58
 9 1 -4 9.78 1.59
 9 1 -3 70.64 2.88
 9 2 -4 8.02 1.52
 9 2 -3 -1.12 1.03
 -3 -5 5 7.88 0.5
 -3 -5 6 128.43 1.96
 -3 -5 7 193.34 2.77
 -3 -4 5 217.05 2.21
 -3 -4 6 12.59 0.77
 -3 -4 7 3.26 0.64
 -3 -3 5 7.46 0.57
 -3 -3 7 67.71 1.79
 -3 -3 8 2.72 0.79
 -3 -2 5 0.19 0.32
 -3 -2 7 0.8 0.53
 -3 -1 5 2.01 0.42
 -3 -1 7 168.29 3.02
 -3 -1 8 79.75 2.33
 -3 -1 9 4.15 1.02
 -3 0 7 11.36 1.07
 -3 0 8 0.6 0.7
 -3 1 7 172.43 3.25
 -3 1 8 77.02 2.4
 -3 2 6 41.5 1.52
 -3 2 7 0.78 0.62
 -3 2 8 185.97 3.81
 -2 -8 4 84.43 1.08
 -2 -8 5 113.44 1.61
 -2 -7 4 197.98 1.69
 -2 -7 5 68.49 1.3
 -2 -6 3 13.34 0.32
 -2 -6 4 240.25 1.94
 -2 -6 5 14.44 0.68
 -2 -6 7 84.74 1.99
 -2 -5 3 60.11 0.71
 -2 -5 4 104.29 1.36
 -2 -5 5 0.54 0.32
 -2 -5 7 0.49 0.53
 -2 -5 8 60.93 1.97
 -2 -4 3 2.21 0.23
 -2 -4 4 6.29 0.45
 -2 -4 5 79.28 1.55
 -2 -4 7 16.25 1.09
 -2 -4 8 3.4 0.81
 -2 -3 3 1.45 0.22
 -2 -3 4 303.59 2.47
 -2 -3 5 49.37 1.26
 -2 -3 8 287.26 4.29
 -2 -3 9 0.7 0.84
 -2 -2 3 15.95 0.52
 -2 -2 4 98.06 1.52
 -2 -2 5 42.89 1.22
 -2 -2 7 92 2.26
 -2 -2 8 10.64 1.2
 -2 -2 9 30.1 1.75
 -2 -1 3 11.15 0.5
 -2 -1 4 17.71 0.73
 -2 -1 5 14.27 0.82
 -2 -1 6 52.56 1.6
 -2 -1 7 -0.04 0.6
 -2 -1 8 234.29 4.07
 -2 -1 9 1.3 0.82
 -2 0 3 -0.18 0.2
 -2 0 5 0.25 0.41
 -2 0 6 97.6 2.17
 -2 0 7 0.3 0.55
 -2 0 9 0.13 0.84
 -2 1 3 11.21 0.58
 -2 1 4 18.12 0.82
 -2 1 6 50.78 1.66
 -2 1 7 0.6 0.59
 -2 1 8 237.02 4.25
 -2 1 9 2.55 1.13
 -2 2 4 94.64 1.76
 -2 2 6 11.25 0.94
 -2 2 8 11.88 1.33
 -2 3 4 307.54 3.25
 -2 3 6 110.07 2.48
 -2 3 7 -0.39 0.57
 -2 3 9 -0.13 1.05
 -2 4 4 7.13 0.71
 -2 4 6 39.24 1.58
 -2 4 8 2.85 0.99
 -2 4 9 -0.51 0.96
 -2 5 5 -0.19 0.42
 -2 5 6 4.75 0.92
 -2 5 7 0.01 0.83
 -2 6 5 13.39 1.03
 -2 6 6 34.82 1.62
 -2 6 8 45.95 2.23
 -1 -11 4 54.74 1.23
 -1 -10 4 110.65 1.74
 -1 -9 4 4.66 0.51
 -1 -9 6 5.19 0.71
 -1 -8 3 10.41 0.52
 -1 -8 4 183.81 2.18
 -1 -8 5 1.02 0.44
 -1 -8 6 314.06 3.72
 -1 -8 7 19.14 1.22
 -1 -7 3 50 0.97
 -1 -7 5 6.05 0.67
 -1 -7 6 83.74 1.97
 -1 -7 7 15.08 1.15
 -1 -6 3 74.16 1.17
 -1 -6 4 0.41 0.34
 -1 -6 5 2.38 0.54
 -1 -6 6 0.24 0.47
 -1 -6 7 2.91 0.72
 -1 -6 8 5.91 1.01
 -1 -5 4 124.56 1.85
 -1 -5 6 54.65 1.66
 -1 -5 7 1.3 0.64
 -1 -4 2 412.76 1.85
 -1 -4 3 177.59 1.74
 -1 -4 4 197.03 2.28
 -1 -4 5 0.63 0.4
 -1 -4 6 195.2 3.09
 -1 -4 7 21.14 1.32
 -1 -4 9 3.3 1.06
 -1 -3 2 324.14 1.67
 -1 -3 3 238.61 2.02
 -1 -3 4 7.39 0.57
 -1 -3 5 10.35 0.79
 -1 -3 6 5.24 0.75
 -1 -3 7 8.51 1.02
 -1 -3 8 0.63 0.74
 -1 -3 9 -0.49 0.96
 -1 -2 2 4267.05 6.16
 -1 -2 3 35.91 0.84
 -1 -2 4 202.94 2.37
 -1 -2 6 13.96 1.04
 -1 -2 7 1.6 0.71
 -1 -2 8 -0.59 0.86
 -1 -2 9 5.08 1.25
 -1 -1 3 612.01 3.36
 -1 -1 4 136.61 2
 -1 -1 6 30.32 1.37
 -1 -1 7 4.2 0.89
 -1 -1 8 49.1 2.1
 -1 -1 9 1.27 0.98
 -1 0 2 0 0.17
 -1 0 3 204.54 2.07
 -1 0 4 -0.01 0.27
 -1 0 6 0.62 0.52
 -1 0 7 15.46 1.29
 -1 0 9 3.92 1.1
 -1 1 2 40.62 0.81
 -1 1 3 601.66 3.61
 -1 1 4 138.13 2.08
 -1 1 6 31.04 1.41
 -1 1 7 4.53 0.85
 -1 1 8 45.86 2.11
 -1 2 2 4353.38 8.29
 -1 2 3 36.03 0.98
 -1 2 4 198.57 2.6
 -1 2 6 13 1.1
 -1 2 7 0.89 0.67
 -1 2 8 0.81 0.98
 -1 2 9 5.82 1.36
 -1 3 2 316.67 2.47
 -1 3 3 234.49 2.48
 -1 3 4 7.59 0.61
 -1 3 5 11.38 0.91
 -1 3 6 5.3 0.83
 -1 3 7 6.79 1.12
 -1 3 8 0.76 1.01
 -1 3 9 -0.22 0.91
 -1 4 2 433.16 3.08
 -1 4 4 196.65 2.75
 -1 4 5 0.06 0.54
 -1 4 6 194.27 3.5
 -1 4 7 21.26 1.49
 -1 5 5 61.66 1.83
 -1 5 6 53.9 1.91
 -1 5 7 1.9 0.95
 -1 6 6 -0.09 0.56
 -1 6 7 2.48 0.83
 -1 6 8 8.52 1.31
 -1 7 5 5.83 0.9
 -1 7 7 12.41 1.46
 -1 7 8 44.49 2.37
 -1 8 4 178.95 3.03
 -1 8 5 1.48 0.67
 -1 8 6 311.76 4.86
 -1 8 7 18.44 1.66
 -1 9 6 4.17 0.95
 -1 9 7 -0.06 0.85
 0 -12 4 117.22 2.21
 0 -12 5 23.37 1.2
 0 -11 5 13.93 1
 0 -11 6 33.42 1.54
 0 -10 5 25.08 1.23
 0 -10 6 20.33 1.29
 0 -9 5 2.6 0.6
 0 -9 7 4.32 0.93
 0 -8 5 11.93 0.94
 0 -8 6 36.31 1.58
 0 -8 7 14.51 1.29
 0 -7 4 0.08 0.46
 0 -7 5 16.54 1.02
 0 -7 7 63.17 2.17
 0 -7 8 19.29 1.51
 0 -6 4 345.15 3.45
 0 -6 5 17.73 1.05
 0 -6 6 59.82 1.94
 0 -6 7 15.27 1.34
 0 -6 8 48.92 2.12
 0 -5 3 2.83 0.43
 0 -5 4 297.6 3.18
 0 -5 5 3.61 0.68
 0 -5 6 91.53 2.33
 0 -5 7 26.42 1.58
 0 -5 8 3.61 1.11
 0 -4 3 137.67 1.85
 0 -4 5 3.09 0.62
 0 -4 6 326.97 4.33
 0 -4 7 6.72 0.99
 0 -4 8 6.43 1.22
 0 -3 3 95.59 1.55
 0 -3 4 18.01 0.88
 0 -3 6 16.15 1.18
 0 -3 7 81.84 2.48
 0 -3 8 34 1.92
 0 -2 2 259.12 2.01
 0 -2 3 876.02 4.52
 0 -2 4 98.31 1.9
 0 -2 6 15.55 1.14
 0 -2 8 12.73 1.46
 0 -1 2 760.55 3.35
 0 -1 4 158.66 2.41
 0 -1 6 9.97 1.04
 0 -1 7 65.62 2.29
 0 -1 8 6.97 1.21
 0 0 1 0.04 0.13
 0 0 2 2721.36 6.48
 0 0 4 260.79 3.06
 0 0 5 0.33 0.47
 0 0 6 619.28 6
 0 0 7 0.24 0.85
 0 0 8 34.71 2.01
 0 1 1 1229.17 3.2
 0 1 2 762.76 3.56
 0 1 3 88.63 1.56
 0 1 4 153.89 2.42
 0 1 6 9.52 1.07
 0 1 7 65.67 2.33
 0 1 8 7.28 1.34
 0 2 1 44.87 0.7
 0 2 2 264.62 2.19
 0 2 3 892.71 4.86
 0 2 4 95.44 1.92
 0 2 5 6.17 0.7
 0 2 6 16.17 1.24
 0 3 1 1438.3 4.09
 0 3 2 553.16 3.27
 0 3 5 15.11 1.07
 0 3 6 16.71 1.27
 0 3 7 79.76 2.62
 0 3 8 37.1 2.15
 0 4 1 6.53 0.41
 0 4 2 400.13 2.94
 0 4 6 335.3 4.73
 0 4 7 6.7 1.12
 0 5 1 187.99 1.84
 0 5 2 315.49 2.74
 0 5 3 3.48 0.47
 0 5 7 23.95 1.65
 0 5 8 4.58 1.19
 0 6 3 318.31 3.34
 0 6 5 17.34 1.18
 0 6 6 58.78 2.17
 0 7 4 0.29 0.54
 0 7 5 15.79 1.15
 0 7 6 43.95 1.96
 0 7 7 61.87 2.52
 0 7 8 20.01 1.81
 0 8 4 23.68 1.23
 0 8 5 12.09 1.15
 0 9 4 280.62 3.95
 0 9 5 3.03 0.76
 0 10 6 18.73 1.64
 0 10 7 2.27 1.12
 1 -13 5 10.64 1.14
 1 -12 6 1.91 0.82
 1 -11 5 0.78 0.76
 1 -11 6 26.55 1.62
 1 -10 6 21.46 1.48
 1 -10 7 50.41 2.17
 1 -9 4 9.95 0.91
 1 -9 5 25.33 1.4
 1 -9 6 10.62 1.24
 1 -9 7 12.43 1.4
 1 -8 4 13.92 1.02
 1 -8 5 38.34 1.62
 1 -8 6 53.93 2.08
 1 -8 7 52.2 2.21
 1 -7 5 6 0.83
 1 -7 8 54.05 2.38
 1 -6 5 3.16 0.77
 1 -6 6 33.04 1.67
 1 -6 7 28.86 1.79
 1 -5 5 47.46 1.74
 1 -5 7 20.81 1.62
 1 -5 8 0.04 0.87
 1 -4 5 34.23 1.52
 1 -4 6 51.2 2.01
 1 -4 7 132.09 3.31
 1 -4 8 43.98 2.22
 1 -3 3 138.05 2.16
 1 -3 5 31.99 1.42
 1 -3 6 74.36 2.33
 1 -3 8 29.71 2.01
 1 -2 7 4.06 1.14
 1 -2 8 31.19 1.99
 1 -1 2 250.24 2.39
 1 -1 6 75.79 2.39
 1 -1 8 5.56 1.34
 1 0 2 -0.13 0.26
 1 0 5 24.25 1.34
 1 0 6 -0.47 0.57
 1 0 8 0.14 0.97
 1 1 1 184.29 1.59
 1 1 2 250.54 2.39
 1 1 5 49.38 1.77
 1 1 6 71.85 2.33
 1 1 7 19.98 1.59
 1 1 8 5.09 1.2
 1 2 0 1895.62 3.22
 1 2 1 74.72 1.05
 1 2 2 466.12 3.28
 1 2 5 0.27 0.49
 1 2 6 250.68 4.25
 1 2 7 3.83 1.02
 1 2 8 33.73 2.12
 1 3 0 1897.03 3.43
 1 3 1 0.31 0.21
 1 3 2 146.49 1.91
 1 3 3 140.78 2.2
 1 3 6 73.88 2.41
 1 3 7 9.39 1.35
 1 3 8 31.68 2.13
 1 4 0 1817.56 3.74
 1 4 1 767.33 3.44
 1 4 2 456.22 3.34
 1 4 3 16.67 0.87
 1 4 5 35.62 1.55
 1 4 6 49.85 2.07
 1 4 7 133.91 3.5
 1 4 8 41.65 2.35
 1 5 0 0.39 0.17
 1 5 1 77.48 1.22
 1 5 3 389.71 3.75
 1 5 4 9.54 0.9
 1 5 5 46.22 1.81
 1 5 6 43.52 2.02
 1 5 8 0.35 0.96
 1 6 1 326 2.5
 1 6 2 9.4 0.65
 1 6 3 11.47 0.81
 1 6 6 32.78 1.81
 1 6 7 26.08 1.86
 1 6 8 0.59 1.31
 1 7 2 55.58 1.34
 1 7 4 2.48 0.61
 1 7 5 6.46 0.89
 1 7 7 0.87 1.02
 1 8 2 312.72 3.18
 1 8 5 35.04 1.68
 1 8 7 52.1 2.45
 1 9 2 7.98 0.72
 1 9 4 9.61 0.97
 1 9 5 26.67 1.58
 1 10 3 15.31 1.02
 1 10 4 6.5 0.89
 1 10 5 6.86 1.14
 1 10 6 22.74 1.69
 1 10 7 52.02 2.49
 1 11 3 0.7 0.58
 1 11 4 0.65 0.76
 1 11 6 29.87 1.95
 1 11 7 -0.45 0.92
 1 12 5 34.88 1.88
 1 12 6 1.55 0.97
 2 -14 5 0.56 0.93
 2 -13 6 1.41 1.01
 2 -12 5 47.58 2.08
 2 -12 6 121.79 3.18
 2 -11 5 1.35 0.8
 2 -11 6 0.64 0.91
 2 -10 5 4.6 1.07
 2 -9 5 23.6 1.54
 2 -9 6 2.99 0.94
 2 -8 4 -0.26 0.67
 2 -8 5 36.66 1.77
 2 -8 6 38.84 1.99
 2 -8 7 3.14 1.12
 2 -7 4 1.59 0.61
 2 -7 6 2.02 0.94
 2 -7 7 83.59 2.9
 2 -6 6 90.5 2.79
 2 -6 7 3.96 1.15
 2 -5 4 234.88 3.65
 2 -5 6 0.83 0.94
 2 -5 7 13.02 1.53
 2 -4 4 100.09 2.38
 2 -4 5 12.06 1.21
 2 -4 6 4.5 0.99
 2 -4 7 0.07 0.95
 2 -3 4 5.43 0.85
 2 -3 5 6.1 1.01
 2 -3 6 2.47 0.92
 2 -3 7 85.19 2.93
 2 -2 4 62.61 1.88
 2 -2 5 64.91 2.14
 2 -2 6 23.4 1.64
 2 -2 7 6.83 1.38
 2 -1 4 100.13 2.33
 2 -1 5 -0.37 0.68
 2 -1 6 0.23 0.7
 2 0 4 260.36 3.71
 2 0 5 0.01 0.58
 2 0 6 47.63 2.16
 2 0 7 -0.52 1
 2 1 5 -0.6 0.55
 2 1 6 -0.07 0.69
 2 2 1 282.21 2.41
 2 2 4 64.07 1.9
 2 2 5 69.13 2.25
 2 2 7 7.2 1.25
 2 3 -1 301.83 1.13
 2 3 0 708.06 2.86
 2 3 1 374.94 2.75
 2 3 2 127.89 2.02
 2 3 4 5.34 0.75
 2 3 5 6.32 0.95
 2 3 6 1.63 0.96
 2 3 7 85.59 3.02
 2 4 1 107.94 1.54
 2 4 2 448.94 3.7
 2 4 4 101.29 2.38
 2 4 5 14.14 1.21
 2 4 6 3.45 1.08
 2 4 7 0.6 0.91
 2 5 0 0.53 0.2
 2 5 2 114.77 1.97
 2 5 4 230.66 3.6
 2 5 5 6.16 1.02
 2 5 6 -0.17 0.94
 2 5 7 11.32 1.62
 2 6 0 594.1 2.74
 2 6 2 187.03 2.49
 2 6 4 264.47 3.88
 2 6 5 30.57 1.68
 2 6 6 96.35 2.97
 2 6 7 3.39 1.32
 2 7 0 71.59 1.04
 2 7 1 130.22 1.79
 2 7 2 156.57 2.36
 2 7 4 2.78 0.68
 2 7 5 5.05 0.91
 2 7 6 0.63 0.85
 2 8 1 94.16 1.59
 2 8 2 0.91 0.46
 2 8 3 0.19 0.54
 2 8 4 0.51 0.71
 2 8 7 1.59 1.2
 2 9 1 0.38 0.35
 2 9 3 7.12 0.85
 2 9 4 229.53 3.82
 2 9 5 23.87 1.59
 2 9 6 2.44 1.05
 2 10 4 149 3.07
 2 10 5 2.61 0.92
 2 11 3 -0.46 0.46
 2 11 4 6.9 0.95
 2 11 5 1.32 0.91
 2 11 6 0.41 0.9
 2 12 3 0.48 0.58
 2 12 4 24.19 1.54
 3 -12 5 5.39 1.19
 3 -11 5 2.69 1.2
 3 -10 5 29.78 1.89
 3 -10 6 30.34 2.11
 3 -9 4 -0.8 0.79
 3 -9 5 13.55 1.55
 3 -8 4 144.15 3.28
 3 -8 5 1.54 0.96
 3 -8 6 47.94 2.39
 3 -7 4 19.76 1.51
 3 -7 5 0.13 0.92
 3 -6 5 29.62 1.83
 3 -6 6 1.74 1.09
 3 -5 4 23.74 1.49
 3 -5 5 22.28 1.61
 3 -5 6 38.89 2.12
 3 -4 4 106.39 2.72
 3 -4 5 14.93 1.36
 3 -3 4 0.02 0.55
 3 -3 5 2.62 0.84
 3 -2 3 0.89 0.55
 3 -2 4 27.97 1.5
 3 -2 6 47.16 2.29
 3 -2 7 0.45 1.02
 3 -1 4 32.42 1.59
 3 -1 5 16.34 1.49
 3 -1 7 5.27 1.28
 3 0 3 54.88 1.72
 3 0 4 0.26 0.63
 3 0 5 22.22 1.53
 3 0 6 1.11 1.11
 3 1 2 189.28 2.78
 3 1 3 25.12 1.21
 3 1 5 15.41 1.41
 3 1 6 9.76 1.34
 3 2 1 5.71 0.55
 3 2 3 1.18 0.51
 3 2 4 26.99 1.46
 3 2 5 5.94 1.05
 3 2 6 46.02 2.29
 3 2 7 -0.18 0.97
 3 3 0 27.42 0.77
 3 3 1 24.51 0.89
 3 3 2 12.63 0.82
 3 3 3 5.4 0.83
 3 3 4 1.09 0.69
 3 3 5 2.11 0.8
 3 3 6 2.81 1.02
 3 3 7 2 1.35
 3 4 -1 204.03 1.41
 3 4 1 0.19 0.35
 3 4 2 339.08 3.63
 3 4 3 46.62 1.62
 3 4 4 101.53 2.6
 3 4 5 13.93 1.36
 3 4 6 42.84 2.15
 3 5 -1 265.75 1.44
 3 5 1 10.77 0.66
 3 5 4 24.22 1.46
 3 5 5 21.19 1.62
 3 5 6 36.92 2.06
 3 6 -1 125.94 0.87
 3 6 1 1.51 0.42
 3 6 3 1.21 0.53
 3 6 4 0.32 0.65
 3 6 5 24.47 1.65
 3 6 6 1.89 1.03
 3 7 1 71.87 1.47
 3 7 3 0.08 0.48
 3 7 4 20.38 1.35
 3 7 5 -0.03 0.72
 3 7 6 24.33 1.9
 3 8 0 214.7 1.94
 3 8 1 -0.25 0.31
 3 8 5 1.67 0.97
 3 8 6 51.1 2.41
 3 9 1 10.96 0.65
 3 9 3 8.71 0.97
 3 9 4 -0.28 0.65
 3 9 5 13.39 1.48
 3 9 6 39.25 2.17
 3 10 3 0.48 0.67
 3 10 4 40.1 1.82
 3 10 5 30.7 1.84
 3 11 3 10.6 0.97
 3 11 4 38.73 1.83
 3 11 5 1.78 0.98
 3 12 4 45.25 1.93
 3 12 5 5.06 1.08
 4 -13 4 48.66 2.43
 4 -11 4 -0.72 1.08
 4 -10 4 37.37 2.1
 4 -10 5 3.72 1.32
 4 -9 4 75.34 2.8
 4 -9 5 19.87 1.76
 4 -8 5 2.34 1.07
 4 -7 5 5.4 1.17
 4 -6 5 1.37 0.95
 4 -5 4 21.9 1.66
 4 -5 5 2.39 1.16
 4 -5 6 1.64 1.11
 4 -4 3 21.47 1.38
 4 -4 4 4.24 0.95
 4 -4 5 2.09 0.98
 4 -4 6 0.13 1.28
 4 -3 3 90.77 2.52
 4 -3 4 56.83 2.25
 4 -3 5 7.74 1.25
 4 -2 3 68.1 2.21
 4 -2 4 15.55 1.45
 4 -2 5 0.43 0.88
 4 -2 6 21.91 1.92
 4 -1 2 195.15 3.14
 4 -1 3 55.42 1.99
 4 -1 4 9.62 1.18
 4 -1 5 1.28 0.94
 4 -1 6 42.58 2.35
 4 0 2 318.16 4.09
 4 0 3 -0.4 0.56
 4 0 4 -0.22 0.66
 4 0 5 0.2 1.09
 4 0 6 1.02 1.03
 4 1 3 53.9 1.91
 4 1 4 10.6 1.22
 4 1 5 1.02 0.9
 4 1 6 47.18 2.43
 4 2 1 43.17 1.37
 4 2 2 7.12 0.85
 4 2 3 64.44 2.05
 4 2 5 0.18 0.86
 4 2 6 19.44 1.84
 4 3 0 917.22 5
 4 3 1 33.44 1.2
 4 3 3 91.78 2.41
 4 3 4 57.92 2.24
 4 4 0 14.55 0.72
 4 4 1 5.64 0.65
 4 4 3 22.55 1.36
 4 4 4 4.17 0.92
 4 4 5 0.82 0.85
 4 4 6 1.1 1.05
 4 5 0 196.06 2.23
 4 5 1 41.77 1.29
 4 5 3 11.51 1.12
 4 5 4 20.44 1.48
 4 5 5 3.65 1.11
 4 5 6 2.59 1.18
 4 6 0 81.48 1.44
 4 6 1 45.81 1.33
 4 6 2 17.91 1.07
 4 6 3 34.54 1.59
 4 6 4 59.31 2.22
 4 7 1 16.57 0.85
 4 7 2 39.2 1.44
 4 7 3 88.14 2.33
 4 7 4 28.75 1.66
 4 7 5 6.8 1.26
 4 8 3 39.09 1.66
 4 8 4 38.14 1.85
 4 8 5 1.15 0.9
 4 9 3 0.92 0.6
 4 9 5 18.54 1.62
 4 10 4 34.62 1.78
 4 10 5 2.35 0.94
 5 -8 4 15.08 1.8
 5 -6 3 16.64 1.6
 5 -6 4 16.81 1.78
 5 -5 3 28.96 1.82
 5 -5 4 147.82 3.78
 5 -5 5 7.86 1.48
 5 -4 4 12.07 1.5
 5 -4 5 -0.17 1.15
 5 -3 3 4.59 1.02
 5 -3 4 100.31 3.13
 5 -3 5 10.19 1.46
 5 -2 2 6.64 1.06
 5 -2 3 3.38 1.08
 5 -2 4 5.58 1.2
 5 -2 5 0.55 0.97
 5 -1 2 27.32 1.55
 5 -1 3 22.35 1.53
 5 -1 4 237.4 4.76
 5 -1 5 7.57 1.36
 5 0 2 0.04 0.67
 5 0 3 197.86 3.93
 5 0 4 0.39 1
 5 0 5 0.82 1.03
 5 1 1 90.46 2.19
 5 1 2 28.03 1.48
 5 1 3 24.24 1.5
 5 1 4 229.25 4.61
 5 2 1 -0.38 0.56
 5 2 2 8.24 0.99
 5 2 3 1.46 0.93
 5 2 4 5.97 1.28
 5 2 5 1.04 1.12
 5 3 2 15.45 1.19
 5 3 3 5.15 0.97
 5 3 4 102.94 3.05
 5 3 5 9.67 1.45
 5 4 0 34.93 1.17
 5 4 1 6.26 0.73
 5 4 2 1.4 0.63
 5 4 4 11.52 1.4
 5 4 5 1.74 1.06
 5 5 3 31.32 1.67
 5 5 4 144.53 3.47
 5 5 5 8.07 1.44
 5 6 3 18.84 1.41
 5 6 4 16.41 1.54
 5 6 5 0.68 1.04
 5 7 3 0.05 0.63
 5 7 4 8.79 1.32
 5 8 4 12.86 1.43
 6 -8 3 0.29 1.34
 6 -7 3 45.28 2.46
 6 -4 2 11.06 1.36
 6 -4 3 -0.8 0.86
 6 -3 2 109.22 3.09
 6 -3 3 45.79 2.27
 6 -2 2 2.29 0.94
 6 -2 4 1.36 1.08
 6 -1 2 50.35 2.19
 6 -1 4 51.52 2.53
 6 0 3 -0.62 0.79
 6 0 4 87.84 3.1
 6 1 1 0.34 0.61
 6 1 2 51.37 2.08
 6 1 4 48.85 2.45
 6 2 0 1.44 0.62
 6 2 1 123.77 2.72
 6 2 2 1.08 0.8
 6 2 3 21.06 1.69
 6 3 1 8.05 0.99
 6 3 2 112.3 2.83
 6 3 3 50.48 2.22
 6 3 4 109.79 3.25
 6 4 4 65.85 2.62
 6 5 3 16.33 1.48
 6 5 4 -0.88 0.79
 7 -6 2 3.44 1.38
 7 -5 2 63.78 2.73
 7 -4 2 14.89 1.74
 7 -3 1 -0.23 0.86
 7 -3 2 9.89 1.54
 7 -2 2 12.77 1.54
 7 -1 1 8.9 1.34
 7 -1 2 19.05 1.68
 7 0 0 0.67 0.66
 7 0 1 1.06 0.93
 7 0 2 -1.29 0.73
 7 1 1 9.01 1.15
 7 1 2 22.12 1.66
 7 2 2 11.11 1.43
 8 -2 0 3.71 1.18
 8 -2 1 10.07 1.46
 -5 4 5 0.95 0.27
 -5 5 5 0.17 0.25
 -5 6 5 4.51 0.48
 -5 6 6 14.55 0.83
 -5 7 6 186.31 2.59
 -5 8 5 3.2 0.48
 -5 8 6 81.42 1.81
 -5 9 5 0.1 0.38
 -5 9 6 92.9 1.99
 -5 10 5 10.21 0.83
 -5 10 6 19.54 1.08
 -5 11 5 3.42 0.62
 -4 -4 9 1.7 0.8
 -4 -2 8 1.11 0.58
 -4 -2 9 11.16 1.21
 -4 -1 4 149.85 1.44
 -4 -1 7 1.03 0.49
 -4 -1 8 0.29 0.65
 -4 -1 9 10.17 1.24
 -4 0 4 664.36 2.88
 -4 0 5 0.09 0.25
 -4 0 7 0.18 0.48
 -4 0 8 11.01 1.06
 -4 0 9 0.81 0.76
 -4 1 4 147.72 1.43
 -4 1 5 44.62 1.06
 -4 1 7 1.06 0.48
 -4 1 8 -0.23 0.55
 -4 1 9 8.65 1.04
 -4 2 3 1.92 0.18
 -4 2 4 9.62 0.44
 -4 2 5 0.18 0.29
 -4 2 7 329.48 3.84
 -4 2 8 1.22 0.59
 -4 2 9 12.87 1.18
 -4 3 3 305.42 1.77
 -4 3 4 328.26 2.32
 -4 3 5 62.28 1.3
 -4 3 7 9.99 0.84
 -4 3 8 35.89 1.54
 -4 3 9 5.36 0.99
 -4 4 3 -0.06 0.18
 -4 4 4 439.96 2.89
 -4 4 5 2.36 0.39
 -4 4 6 0.49 0.39
 -4 4 7 11.41 0.91
 -4 4 8 5.64 0.82
 -4 4 9 0.63 0.66
 -4 5 4 12.58 0.6
 -4 5 6 46.47 1.4
 -4 5 7 0.04 0.54
 -4 5 8 78.21 2.2
 -4 6 3 8.43 0.52
 -4 6 4 76.64 1.42
 -4 6 7 177.87 3.02
 -4 6 8 4.01 0.81
 -4 6 9 1.21 0.68
 -4 7 3 275.35 2.69
 -4 7 4 120.69 1.9
 -4 7 6 161.14 2.65
 -4 7 7 14.2 1.05
 -4 7 8 17.61 1.22
 -4 8 3 0.35 0.33
 -4 8 5 1.52 0.48
 -4 8 6 1.97 0.59
 -4 8 7 28.89 1.36
 -4 8 8 1.04 0.71
 -4 9 4 113.02 2.05
 -4 9 5 29.12 1.19
 -4 9 6 2.08 0.6
 -4 9 7 0.36 0.56
 -4 9 8 176.27 3.42
 -4 10 4 103.67 2.09
 -4 10 5 15.18 0.98
 -4 10 7 40.03 1.68
 -4 10 8 2.56 0.87
 -4 11 4 0.39 0.45
 -4 11 5 23.91 1.22
 -4 11 6 0.66 0.59
 -4 11 7 4.4 0.87
 -4 11 8 2.11 0.76
 -4 12 4 35.35 1.47
 -4 12 5 -0.01 0.58
 -4 12 6 5.42 0.88
 -4 12 7 39.1 1.73
 -4 13 5 20.85 1.29
 -4 13 6 2.52 0.82
 -4 13 7 0.8 0.73
 -4 14 5 15.75 1.23
 -4 14 6 22.04 1.43
 -4 14 7 1.38 0.83
 -4 15 5 4.26 0.85
 -4 15 6 45.49 1.95
 -3 -3 9 4.56 0.96
 -3 -2 9 1.1 0.76
 -3 -1 8 78.26 2.38
 -3 -1 9 3.05 0.89
 -3 0 7 10.45 0.96
 -3 0 8 -0.26 0.56
 -3 0 9 3.49 0.94
 -3 1 4 1325.47 5.36
 -3 1 5 1.62 0.41
 -3 1 6 126.31 2.36
 -3 1 9 3.26 0.95
 -3 2 2 761.18 2.25
 -3 2 3 15.91 0.5
 -3 2 4 0.51 0.31
 -3 2 5 -0.24 0.35
 -3 2 6 44.72 1.49
 -3 2 7 0.66 0.58
 -3 2 9 0.42 0.83
 -3 3 3 44.36 0.84
 -3 3 4 615.45 3.74
 -3 3 5 8.01 0.68
 -3 3 6 0.66 0.5
 -3 3 7 66.42 1.98
 -3 3 8 2.71 0.83
 -3 3 9 4.63 0.94
 -3 4 2 59.44 0.91
 -3 4 3 218.17 1.94
 -3 4 4 103.91 1.66
 -3 4 6 13.81 0.93
 -3 4 7 3.99 0.69
 -3 4 8 8.52 1.01
 -3 4 9 8.46 1.19
 -3 5 2 331.6 2.35
 -3 5 3 31.43 0.83
 -3 5 4 676.77 4.22
 -3 5 6 130.08 2.48
 -3 5 9 5.84 1.13
 -3 6 2 174.09 1.93
 -3 6 3 12.96 0.64
 -3 6 4 2.38 0.42
 -3 6 6 57.02 1.72
 -3 6 7 1.23 0.63
 -3 6 8 107.78 2.77
 -3 6 9 2.8 0.85
 -3 7 2 23.78 0.83
 -3 7 3 19.06 0.8
 -3 7 6 83.89 2.06
 -3 7 7 3.24 0.77
 -3 7 8 41.75 1.85
 -3 7 9 6.98 1.13
 -3 8 3 124.59 2
 -3 8 5 71.93 1.79
 -3 8 6 14.27 1.03
 -3 8 8 26.7 1.58
 -3 9 4 52.81 1.49
 -3 9 5 8.03 0.81
 -3 9 8 1.55 0.81
 -3 10 3 16 0.9
 -3 10 4 7.72 0.78
 -3 10 5 19.99 1.13
 -3 10 6 55.97 1.84
 -3 10 7 0.36 0.74
 -3 10 8 29.25 1.64
 -3 11 3 6.82 0.72
 -3 11 4 1.8 0.51
 -3 11 5 65.23 1.95
 -3 11 6 138.25 2.93
 -3 11 7 3.3 0.8
 -3 12 3 59.3 1.79
 -3 12 4 42.71 1.54
 -3 12 5 14.44 1.11
 -3 12 6 4.99 0.84
 -3 12 7 0.75 0.75
 -3 13 3 -0.38 0.45
 -3 13 4 37.65 1.52
 -3 13 5 1.35 0.76
 -3 13 6 34.88 1.73
 -3 13 7 84.66 2.59
 -3 14 4 2.15 0.72
 -3 14 5 25.09 1.46
 -3 15 4 1.99 0.74
 -3 15 5 52.41 2.03
 -3 15 6 47.44 1.98
 -3 16 4 3.07 0.93
 -3 16 5 1 0.75
 -3 17 5 1.04 0.84
 -2 -2 9 30.73 1.82
 -2 -1 9 1.41 0.89
 -2 0 8 7.55 1.1
 -2 0 9 -0.2 0.83
 -2 1 2 298.58 1.61
 -2 1 7 -0.18 0.46
 -2 1 9 2.73 0.95
 -2 2 1 197.31 1.15
 -2 2 2 584.16 2.45
 -2 2 4 96.71 1.68
 -2 2 6 12.52 0.94
 -2 2 7 96.47 2.56
 -2 2 8 11.2 1.28
 -2 2 9 30.27 1.82
 -2 3 1 306.02 1.75
 -2 3 2 1009.18 3.49
 -2 3 3 1.26 0.25
 -2 3 4 313.52 3.03
 -2 3 7 0.17 0.62
 -2 3 8 279.83 4.67
 -2 3 9 0.47 0.76
 -2 4 1 3.9 0.34
 -2 4 3 1.51 0.32
 -2 4 6 44.7 1.6
 -2 4 7 18.21 1.28
 -2 4 8 3.65 0.98
 -2 5 1 7.44 0.41
 -2 5 2 17.06 0.61
 -2 5 4 105.94 1.89
 -2 5 6 4.22 0.74
 -2 5 7 0.23 0.62
 -2 5 8 61.56 2.26
 -2 5 9 10.08 1.36
 -2 6 1 80.65 1.34
 -2 6 2 1143.25 4.94
 -2 6 3 12.1 0.63
 -2 6 7 85.57 2.43
 -2 7 1 84.47 1.5
 -2 7 2 241.54 2.46
 -2 7 3 10.47 0.66
 -2 7 6 13.67 1.06
 -2 7 7 0.54 0.7
 -2 7 8 79.14 2.6
 -2 8 2 27.09 0.95
 -2 8 3 0.42 0.34
 -2 8 4 77.8 1.77
 -2 8 5 115.91 2.38
 -2 8 6 0.5 0.64
 -2 8 7 26.18 1.56
 -2 8 8 0.18 0.69
 -2 9 4 215.72 3.04
 -2 9 5 4.83 0.73
 -2 9 6 76.59 2.21
 -2 9 7 0.44 0.72
 -2 9 8 2.05 1
 -2 10 3 9.33 0.78
 -2 10 4 159.88 2.76
 -2 10 5 -0.25 0.54
 -2 10 6 17.62 1.27
 -2 10 7 55.17 2.08
 -2 10 8 42.57 1.99
 -2 11 2 3.51 0.53
 -2 11 3 0.95 0.51
 -2 11 4 30.02 1.36
 -2 11 5 49.18 1.79
 -2 11 6 39.69 1.76
 -2 11 7 0.7 0.74
 -2 11 8 0.94 0.94
 -2 12 2 13.68 0.99
 -2 12 3 0.27 0.4
 -2 12 5 75.8 2.22
 -2 12 6 10.69 1.08
 -2 12 7 17.18 1.45
 -2 13 3 51.42 1.73
 -2 13 4 83.23 2.3
 -2 13 5 7.13 1.04
 -2 13 6 72.49 2.43
 -2 13 7 -0.02 0.74
 -2 14 3 0.47 0.57
 -2 14 4 24.93 1.45
 -2 14 5 19.21 1.35
 -2 14 6 0.22 0.7
 -2 14 7 19.63 1.61
 -2 15 3 -0.89 0.68
 -2 15 4 0.41 0.63
 -2 15 5 25.7 1.62
 -2 15 6 130.37 3.29
 -2 16 3 0.52 0.74
 -2 16 4 39.73 1.87
 -2 16 6 4.93 1.08
 -2 17 4 2.06 0.83
 -2 17 5 4.34 0.98
 -2 18 4 0.82 0.78
 -1 -1 9 0.87 0.93
 -1 0 8 -0.4 0.7
 -1 0 9 5.24 1.17
 -1 1 1 10.42 0.26
 -1 1 7 4.54 0.93
 -1 1 9 2.92 1
 -1 2 1 0.22 0.11
 -1 2 2 4203.56 7.72
 -1 2 6 12.94 1.05
 -1 2 7 -0.02 0.62
 -1 2 8 -0.06 0.7
 -1 2 9 5.08 1.11
 -1 3 4 8.26 0.68
 -1 3 6 5.22 0.75
 -1 3 7 10.43 1.19
 -1 3 8 -0.16 0.77
 -1 3 9 0.06 0.77
 -1 4 1 377.71 2.22
 -1 4 2 437.92 2.79
 -1 4 3 174.68 2.12
 -1 4 4 204.1 2.68
 -1 4 5 0.62 0.41
 -1 4 6 201.6 3.48
 -1 4 7 20.09 1.44
 -1 4 8 52.84 2.23
 -1 4 9 2.77 1.03
 -1 5 1 66.16 1.07
 -1 5 2 368.39 2.72
 -1 5 3 290.51 2.81
 -1 5 5 64 1.79
 -1 5 6 51.38 1.78
 -1 5 7 1.37 0.68
 -1 6 1 17.36 0.63
 -1 6 2 488.32 3.3
 -1 6 3 73.65 1.51
 -1 6 5 2.55 0.58
 -1 6 6 -0.02 0.6
 -1 6 7 2.58 0.74
 -1 6 8 7.47 1.14
 -1 7 1 1.23 0.27
 -1 7 2 413.62 3.26
 -1 7 5 6.37 0.71
 -1 7 6 80.05 2.28
 -1 7 7 12.28 1.13
 -1 7 8 51.36 2.26
 -1 8 1 103.2 1.67
 -1 8 2 199.08 2.45
 -1 8 4 198.19 2.96
 -1 8 5 1.35 0.58
 -1 8 6 312.81 4.5
 -1 9 1 15.6 0.77
 -1 9 4 3.68 0.6
 -1 9 6 4.21 0.78
 -1 9 7 1.42 0.9
 -1 9 8 43.47 2.16
 -1 10 3 63.48 1.69
 -1 10 4 107.17 2.3
 -1 10 5 1.59 0.57
 -1 10 8 25.63 1.72
 -1 11 1 0.44 0.37
 -1 11 2 190.15 2.86
 -1 11 3 0.34 0.4
 -1 11 4 56 1.78
 -1 11 6 89.21 2.57
 -1 11 7 10.66 1.18
 -1 12 1 62.08 1.77
 -1 12 2 8.57 0.82
 -1 12 3 2.67 0.58
 -1 12 5 0.51 0.56
 -1 12 6 147.64 3.33
 -1 12 7 12.86 1.42
 -1 13 2 81.28 2.11
 -1 13 3 32.57 1.44
 -1 13 4 11.28 1.09
 -1 13 5 1.62 0.85
 -1 13 6 6.38 1.02
 -1 13 7 -0.76 0.66
 -1 14 2 57.56 1.94
 -1 14 3 21.7 1.32
 -1 14 5 0.55 0.67
 -1 14 6 1.8 0.89
 -1 15 2 17.47 1.24
 -1 15 4 15.14 1.32
 -1 15 5 71.62 2.5
 -1 15 6 23.5 1.67
 -1 16 3 29.09 1.67
 -1 16 4 2.39 0.84
 -1 16 5 1.43 0.78
 -1 17 3 3.65 1.06
 -1 17 4 21.51 1.56
 -1 17 5 1.95 0.92
 0 0 8 34.59 2
 0 1 7 67.71 2.38
 0 1 8 9.39 1.28
 0 2 0 221.45 1.11
 0 2 1 46.27 0.71
 0 2 6 16.14 1.14
 0 2 7 17.44 1.4
 0 2 8 11.92 1.45
 0 3 0 0.07 0.15
 0 3 1 1396.23 4.05
 0 3 2 562.09 3.31
 0 3 5 16.02 1.02
 0 3 6 16.04 1.16
 0 3 8 35.87 2.04
 0 4 0 9883.02 10.61
 0 4 2 397 2.86
 0 4 5 3.8 0.66
 0 4 7 6.79 1.13
 0 4 8 8.86 1.35
 0 5 0 3.38 0.31
 0 5 5 3.68 0.65
 0 5 6 89.95 2.48
 0 5 7 28.54 1.73
 0 5 8 2.61 0.92
 0 6 0 301.66 2.39
 0 6 1 101.89 1.47
 0 6 6 57.53 1.99
 0 6 7 13.76 1.34
 0 6 8 48.58 2.29
 0 7 0 0.24 0.26
 0 7 4 0.65 0.39
 0 7 5 17.99 1.16
 0 7 6 46.45 1.85
 0 7 7 60.45 2.26
 0 7 8 21.25 1.63
 0 8 4 26.51 1.22
 0 8 5 12.37 0.98
 0 8 6 36.1 1.72
 0 8 7 13.59 1.4
 0 8 8 10.93 1.46
 0 9 3 7.42 0.71
 0 9 4 283.8 3.77
 0 9 5 2.45 0.69
 0 9 6 112.27 2.88
 0 9 7 4.17 1.1
 0 10 4 173.35 3.04
 0 10 5 25.43 1.44
 0 10 6 20.65 1.42
 0 10 7 3.41 0.9
 0 11 3 10.94 0.83
 0 11 4 0.1 0.45
 0 11 6 32.44 1.68
 0 11 7 28.69 1.8
 0 12 2 267.59 3.58
 0 12 3 169.1 3.08
 0 12 5 23.14 1.46
 0 12 6 6.56 1.13
 0 12 7 2.99 0.97
 0 13 1 0.11 0.51
 0 13 3 27.92 1.4
 0 13 6 40.69 2.01
 0 14 1 15.3 1.05
 0 14 2 0.97 0.51
 0 14 3 17.65 1.24
 0 14 5 20.78 1.52
 0 14 6 3.26 0.94
 0 15 2 -0.49 0.5
 0 15 3 -0.11 0.53
 0 15 4 0.68 0.82
 0 15 5 12.51 1.37
 0 15 6 17.78 1.65
 0 16 2 208.14 3.95
 0 16 3 82.42 2.52
 0 16 4 71.83 2.43
 0 16 5 15.85 1.5
 0 17 3 26.04 1.69
 0 17 4 18.09 1.51
 0 17 5 3.36 0.94
 0 18 3 4.45 1.15
 1 0 8 0.68 1.11
 1 1 0 518.36 1.48
 1 1 7 18.86 1.42
 1 1 8 5.34 1.3
 1 2 0 1925.26 3.44
 1 2 1 74.16 1.04
 1 2 6 254.72 4.22
 1 2 7 4.8 1.16
 1 2 8 36.06 2.15
 1 3 0 1892.49 4.03
 1 3 1 0.11 0.18
 1 3 3 143.53 2.2
 1 3 5 31.83 1.46
 1 3 6 72.17 2.32
 1 3 7 10.96 1.21
 1 3 8 29.48 1.98
 1 4 0 1844.14 4.66
 1 4 1 787.92 3.6
 1 4 2 471.01 3.39
 1 4 6 49.04 1.94
 1 4 7 133.02 3.41
 1 4 8 44.71 2.21
 1 5 0 0.36 0.25
 1 5 1 74.45 1.22
 1 5 3 390.11 3.7
 1 5 6 42.34 1.82
 1 5 7 19.66 1.54
 1 5 8 -0.09 0.82
 1 6 0 19.43 0.63
 1 6 1 327.64 2.65
 1 6 2 10.03 0.63
 1 6 4 475.11 4.72
 1 6 5 2.03 0.7
 1 6 6 31.07 1.62
 1 6 8 -0.77 0.92
 1 7 4 2.71 0.63
 1 7 6 46.55 1.93
 1 8 1 207.73 2.45
 1 8 3 1.67 0.46
 1 8 4 11.47 0.93
 1 8 5 36.55 1.64
 1 8 7 53.13 2.24
 1 9 0 1.41 0.36
 1 9 1 17.12 0.81
 1 9 3 232.36 3.23
 1 9 5 25.61 1.48
 1 9 6 10.87 1.13
 1 9 7 10.78 1.4
 1 10 3 15.18 0.98
 1 10 4 7.05 0.79
 1 10 5 8.61 1.08
 1 10 6 20.3 1.5
 1 11 1 52.63 1.48
 1 11 2 4.1 0.61
 1 11 4 1.28 0.56
 1 11 5 0.8 0.79
 1 11 6 28.04 1.75
 1 11 7 0.86 0.84
 1 12 1 26.89 1.15
 1 12 2 25.16 1.25
 1 12 3 1.15 0.64
 1 12 4 15.26 1.11
 1 12 5 32.83 1.74
 1 12 6 1.13 0.8
 1 13 2 0.3 0.47
 1 13 3 90.13 2.39
 1 13 4 6.85 0.97
 1 13 5 11.98 1.24
 1 13 6 0.19 0.74
 1 14 2 314.72 4.28
 1 14 3 15.63 1.24
 1 14 4 36.09 1.81
 1 14 5 10.5 1.26
 1 14 6 79.57 2.77
 1 15 1 56.62 1.99
 1 15 2 1.7 0.68
 1 15 3 0.13 0.58
 1 15 4 1.23 0.74
 1 15 5 -0.08 0.82
 1 16 2 14.04 1.26
 1 16 3 -0.47 0.75
 1 16 4 74.8 2.57
 1 16 5 16.01 1.47
 1 17 2 1.09 0.78
 1 17 3 23.12 1.62
 1 18 3 5.02 1.02
 2 0 7 0.25 0.92
 2 1 0 312.48 1.52
 2 1 6 -0.64 0.61
 2 1 7 47.17 2.26
 2 2 0 402.74 1.84
 2 2 1 281.39 2.19
 2 2 5 70.93 2.15
 2 2 6 21.35 1.53
 2 2 7 6.66 1.18
 2 3 0 704.02 2.67
 2 3 1 376.64 2.58
 2 3 2 132.96 1.95
 2 3 3 1.7 0.43
 2 3 4 4.32 0.67
 2 3 5 5.78 0.9
 2 3 6 2.77 0.84
 2 3 7 87.78 2.93
 2 4 0 88.91 1.09
 2 4 1 102.86 1.43
 2 4 2 453.4 3.57
 2 4 5 13.08 1.12
 2 4 6 4.92 0.95
 2 4 7 0.66 0.82
 2 5 0 0.53 0.2
 2 5 6 1.01 0.7
 2 5 7 12.63 1.44
 2 6 1 56.67 1.17
 2 6 2 187.12 2.46
 2 6 4 257.36 3.67
 2 6 6 92.09 2.72
 2 6 7 3.23 0.95
 2 7 1 124.19 1.83
 2 7 3 0.48 0.4
 2 7 4 1.75 0.53
 2 7 5 5.39 0.84
 2 7 6 1.82 0.91
 2 7 7 85.78 2.85
 2 8 0 75.55 1.45
 2 8 1 92.7 1.7
 2 8 3 0.03 0.39
 2 8 4 -0.57 0.55
 2 8 5 38.25 1.74
 2 8 7 1.83 0.94
 2 9 0 86.34 1.65
 2 9 3 7.15 0.82
 2 9 4 232.68 3.71
 2 9 5 26.08 1.53
 2 9 6 2.72 0.87
 2 10 2 55.45 1.6
 2 10 3 48.98 1.65
 2 10 4 154.65 3.09
 2 10 5 3.9 0.87
 2 10 6 49.46 2.11
 2 11 1 44.67 1.41
 2 11 2 96.78 2.17
 2 11 3 0.59 0.48
 2 11 4 6.29 0.86
 2 11 5 0.74 0.69
 2 11 6 0.08 0.9
 2 12 1 59.08 1.7
 2 12 2 79 2.1
 2 12 3 -0.32 0.47
 2 12 4 23.35 1.38
 2 12 5 43.46 1.92
 2 12 6 126.37 3.28
 2 13 1 6.91 0.83
 2 13 3 2.76 0.85
 2 13 4 99.8 2.7
 2 13 5 32.86 1.82
 2 14 1 29.28 1.44
 2 14 2 0.22 0.65
 2 14 3 16.73 1.28
 2 14 4 16.13 1.42
 2 14 5 0.23 0.77
 2 15 2 44.72 1.83
 2 15 3 -0.06 0.68
 2 15 4 3.55 0.9
 2 15 5 1.43 0.85
 2 16 2 55.29 2.07
 2 16 3 -0.45 0.6
 2 16 4 8.52 1.24
 2 17 2 0.23 0.71
 2 17 3 1.55 0.87
 2 18 3 1.99 1.01
 3 -2 7 0.41 0.78
 3 -1 7 5.51 1.16
 3 0 6 0.34 0.74
 3 0 7 19.83 1.72
 3 1 5 14.69 1.19
 3 1 6 10.45 1.33
 3 1 7 5.63 1.14
 3 2 2 2.48 0.45
 3 2 4 25.47 1.29
 3 2 5 4.86 0.86
 3 2 6 46.98 2.14
 3 2 7 -0.38 0.8
 3 3 0 29.57 0.62
 3 3 2 12.68 0.74
 3 3 4 0.4 0.56
 3 3 5 1.5 0.7
 3 3 6 3.27 0.89
 3 3 7 3.5 1.03
 3 4 0 279.85 1.97
 3 4 1 -0.04 0.2
 3 4 2 344.92 3.31
 3 4 4 103.33 2.43
 3 4 5 12.49 1.23
 3 4 6 44.02 2.04
 3 4 7 24.03 1.79
 3 5 1 10.65 0.57
 3 5 2 184.75 2.49
 3 5 4 25.14 1.28
 3 5 5 24.02 1.49
 3 5 6 38.68 1.9
 3 6 0 49.6 1.03
 3 6 1 1.47 0.32
 3 6 3 1.67 0.58
 3 6 4 0.57 0.58
 3 6 5 29.68 1.63
 3 6 6 0.54 0.78
 3 7 0 259.61 2.47
 3 7 4 20.27 1.23
 3 7 5 -0.37 0.7
 3 7 6 24.33 1.68
 3 8 0 214.87 2.41
 3 8 1 0.28 0.3
 3 8 2 433.32 4.08
 3 8 5 1.69 0.85
 3 9 0 56.84 1.33
 3 9 2 41.3 1.35
 3 9 3 8.9 0.89
 3 9 4 0.13 0.58
 3 9 5 14.89 1.33
 3 9 6 37.77 1.94
 3 10 1 1.89 0.47
 3 10 3 0.93 0.51
 3 10 4 43.25 1.77
 3 10 6 29.66 1.8
 3 11 3 8.62 0.86
 3 11 4 42.46 1.79
 3 12 0 60.91 1.75
 3 12 1 0.48 0.44
 3 12 2 208.97 3.41
 3 12 5 4.62 0.91
 3 13 1 2.33 0.65
 3 13 2 -0.68 0.57
 3 13 3 0.65 0.75
 3 13 4 25.78 1.59
 3 13 5 1.39 0.95
 3 14 1 -0.51 0.61
 3 14 2 2.02 0.63
 3 14 3 -0.06 0.62
 3 14 4 41.05 1.89
 3 15 2 4.42 0.87
 3 15 3 16.28 1.36
 3 15 4 18.36 1.49
 3 16 2 24.67 1.57
 3 16 3 0.74 0.71
 3 17 2 6.34 1.04
 3 17 3 2.44 0.97
 4 -2 6 21.99 1.63
 4 -1 6 45.38 2.15
 4 0 0 4.48 0.31
 4 0 5 0.14 0.65
 4 0 6 0.45 0.76
 4 1 0 883.55 3.13
 4 1 1 35.61 0.95
 4 1 2 191.42 2.57
 4 1 3 52.79 1.6
 4 1 4 13.13 1.1
 4 1 6 43.71 2.06
 4 2 1 46.03 1.05
 4 2 3 69.63 1.86
 4 2 4 14.57 1.14
 4 2 5 1.34 0.8
 4 2 6 19.49 1.58
 4 3 1 35.85 0.94
 4 3 3 91.97 2.09
 4 3 4 60.45 1.95
 4 3 5 5.13 0.93
 4 3 6 81.4 2.62
 4 4 0 15.98 0.52
 4 4 1 6.09 0.48
 4 4 4 4.81 0.77
 4 4 5 0.95 0.66
 4 4 6 0.86 0.77
 4 5 0 196.44 1.87
 4 5 1 41.46 1.06
 4 5 3 12.85 0.94
 4 5 4 20.96 1.29
 4 5 5 2.43 0.76
 4 5 6 3.85 0.98
 4 6 0 83.54 1.33
 4 6 1 43.45 1.12
 4 6 3 35.12 1.38
 4 6 4 60.26 1.96
 4 6 5 1.96 0.74
 4 6 6 113.6 3.04
 4 7 0 235.3 2.35
 4 7 1 15.39 0.75
 4 7 2 40.45 1.3
 4 7 3 90.6 2.13
 4 7 4 28.41 1.44
 4 7 5 5.83 0.94
 4 8 0 30.93 0.94
 4 8 2 32.95 1.22
 4 8 3 39.99 1.51
 4 8 4 40.8 1.69
 4 8 5 0.74 0.8
 4 9 0 8.99 0.6
 4 9 1 26.8 1.06
 4 9 2 12 0.86
 4 9 3 0.01 0.48
 4 9 4 74.67 2.21
 4 9 5 19.97 1.43
 4 10 1 35.41 1.24
 4 10 2 2.49 0.55
 4 10 3 4.44 0.74
 4 10 4 35.8 1.64
 4 10 5 3.23 0.85
 4 11 1 6.47 0.67
 4 11 2 24.08 1.23
 4 11 3 66.87 2.04
 4 11 4 -0.01 0.59
 4 11 5 6.91 1.05
 4 12 0 26.07 1.14
 4 12 1 1.31 0.45
 4 12 2 0.75 0.59
 4 12 4 57.58 2.09
 4 13 1 21.72 1.18
 4 13 2 23.62 1.3
 4 13 3 1.87 0.73
 4 13 4 50.84 2.04
 4 14 2 3.15 0.74
 4 14 3 -0.39 0.57
 4 15 1 1.81 0.7
 4 15 2 120.61 2.82
 4 15 3 34.45 1.7
 4 16 2 0.59 0.66
 -8 3 6 0.47 0.73
 -8 4 5 2.53 0.7
 -8 4 6 127.7 2.84
 -8 5 5 3 0.78
 -8 5 6 10.11 1.13
 -8 6 5 74.47 2.17
 -8 6 6 30.1 1.69
 -8 7 5 1.52 0.66
 -8 8 5 3.76 0.79
 -8 9 5 1.52 0.67
 -7 2 3 0.32 0.41
 -7 3 3 0.83 0.39
 -7 3 4 28.84 1.24
 -7 4 3 10.55 0.79
 -7 4 4 13.11 1.02
 -7 5 3 7.75 0.72
 -7 5 4 31.21 1.46
 -7 5 5 45.76 1.72
 -7 6 3 1.86 0.56
 -7 6 5 48.99 1.86
 -7 6 6 0.71 0.8
 -7 7 3 7.64 0.87
 -7 7 4 99.97 2.41
 -7 7 5 15.54 1.24
 -7 7 6 13.73 1.31
 -7 7 7 -0.35 0.63
 -7 8 2 0.87 0.6
 -7 8 3 7.71 0.94
 -7 8 4 8.64 0.89
 -7 8 5 2.33 0.74
 -7 8 6 62.34 2.38
 -7 8 7 43.61 2.05
 -7 9 2 27.76 1.37
 -7 9 3 10.04 1.12
 -7 9 4 13.06 1.13
 -7 9 5 27.94 1.54
 -7 9 6 5.61 1.11
 -7 10 3 3.39 0.79
 -7 10 5 70.77 2.29
 -7 10 6 48.06 2.12
 -7 11 2 19.11 1.22
 -7 11 4 90.16 2.67
 -7 11 5 -0.05 0.64
 -7 12 2 10.67 1.05
 -7 12 3 3.81 0.96
 -7 12 4 -0.57 0.65
 -7 12 5 1.26 0.92
 -7 13 2 -0.58 0.52
 -6 -1 2 0.78 0.27
 -6 0 2 2.3 0.36
 -6 1 2 0.8 0.31
 -6 2 2 13.11 0.68
 -6 3 1 3.02 0.41
 -6 3 3 47.99 1.35
 -6 4 1 0.55 0.36
 -6 4 3 22.57 1.06
 -6 5 2 115.08 2.03
 -6 5 3 0.78 0.54
 -6 5 4 45.25 1.63
 -6 6 1 0.43 0.42
 -6 6 2 71.86 1.76
 -6 6 3 0.56 0.48
 -6 6 4 55.39 1.79
 -6 7 1 4.04 0.62
 -6 7 3 46.78 1.56
 -6 7 4 18.89 1.18
 -6 8 0 2.82 0.61
 -6 8 1 1.4 0.46
 -6 8 2 0.65 0.48
 -6 8 4 0.84 0.6
 -6 8 6 0.66 0.67
 -6 8 7 2.84 1.04
 -6 9 0 271.33 3.69
 -6 9 1 7.59 0.84
 -6 9 3 0.4 0.62
 -6 9 4 125.4 2.84
 -6 9 5 25.94 1.58
 -6 9 6 52.92 2.19
 -6 9 7 8.34 1.2
 -6 10 1 9.8 0.88
 -6 10 3 4.38 0.81
 -6 10 4 40.78 1.74
 -6 10 5 7.74 1.15
 -6 10 6 3.03 0.88
 -6 10 7 0.69 0.79
 -6 11 0 1.31 0.71
 -6 11 1 1.32 0.61
 -6 11 3 21.87 1.41
 -6 11 4 5.7 0.95
 -6 11 5 31.18 1.68
 -6 11 6 2.03 0.85
 -6 12 0 15.94 1.29
 -6 12 1 1.96 0.71
 -6 12 2 2.57 0.85
 -6 12 3 39.24 1.9
 -6 12 4 1.97 0.87
 -6 12 5 4.91 0.91
 -6 12 6 53.62 2.25
 -6 13 0 129.77 3.07
 -6 13 1 6.3 0.91
 -6 13 2 79.68 2.45
 -6 13 3 1.05 0.89
 -6 13 4 73.47 2.6
 -6 14 0 -0.47 0.62
 -6 14 3 8.85 1.23
 -6 14 4 7.94 1.31
 -6 14 5 8.53 1.25
 -6 15 1 0.11 0.68
 -6 15 2 5.16 0.99
 -6 15 3 0.48 0.8
 -5 -2 1 0.16 0.13
 -5 -1 1 97.83 1.04
 -5 1 0 278.99 1.68
 -5 1 1 94.39 1.23
 -5 2 1 -0.02 0.23
 -5 2 2 9.49 0.61
 -5 3 1 62.12 1.22
 -5 4 -1 6.02 0.48
 -5 4 1 6.13 0.53
 -5 5 3 25.66 1.1
 -5 6 3 47.62 1.53
 -5 7 -1 -0.16 0.33
 -5 7 1 35.03 1.29
 -5 7 3 4.61 0.68
 -5 7 4 322.27 4.07
 -5 8 1 1.29 0.47
 -5 8 2 40.54 1.41
 -5 8 3 95.84 2.24
 -5 8 5 4.49 0.8
 -5 9 -1 78.41 2.03
 -5 9 1 71.5 1.93
 -5 9 2 24.04 1.25
 -5 9 3 9.34 0.82
 -5 9 4 7.59 1.04
 -5 9 5 -0.44 0.49
 -5 9 7 51.89 2.42
 -5 10 -1 1.15 0.6
 -5 10 0 48.83 1.61
 -5 10 1 -0.69 0.4
 -5 10 2 19.62 1.22
 -5 10 4 3.7 0.74
 -5 10 5 11.09 1.2
 -5 10 6 19.87 1.46
 -5 10 7 20.89 1.56
 -5 11 -2 180.69 3.4
 -5 11 -1 9.72 1.02
 -5 11 1 17.7 1.14
 -5 11 2 30.65 1.49
 -5 11 3 10.89 1.06
 -5 11 5 3.2 0.81
 -5 11 6 157.43 3.67
 -5 11 7 0.97 0.81
 -5 12 -2 1.75 0.7
 -5 12 -1 25.2 1.49
 -5 12 1 -0.12 0.49
 -5 12 3 6.84 1
 -5 12 4 1.51 0.74
 -5 12 5 26.8 1.59
 -5 12 6 45.81 2.14
 -5 12 7 3.03 1.11
 -5 13 -2 31.34 1.64
 -5 13 -1 40.92 1.86
 -5 13 0 3.96 0.87
 -5 13 1 26.29 1.47
 -5 13 2 31.84 1.71
 -5 13 3 -0.35 0.71
 -5 13 5 0.29 0.71
 -5 13 6 19.85 1.52
 -5 14 -2 3.3 0.86
 -5 14 0 5.25 0.92
 -5 14 1 0.05 0.66
 -5 14 2 20.65 1.49
 -5 14 3 57.96 2.36
 -5 14 4 10.24 1.16
 -5 14 6 10.83 1.28
 -5 15 -1 12.89 1.35
 -5 15 0 13.57 1.39
 -5 15 3 16.89 1.5
 -5 15 4 88.22 2.91
 -5 15 5 2.53 0.96
 -5 16 0 58.97 2.43
 -5 16 1 2.07 0.83
 -5 16 2 12.36 1.25
 -5 16 3 1.02 0.82
 -5 16 4 0.49 0.87
 -5 17 1 3.63 0.98
 -4 0 0 4.76 0.23
 -4 1 1 9.51 0.43
 -4 2 -1 44.59 0.81
 -4 3 -1 32.77 0.82
 -4 3 1 29.32 0.84
 -4 4 -1 5.26 0.45
 -4 4 0 16.13 0.68
 -4 4 1 24.65 0.8
 -4 4 2 23.42 0.88
 -4 5 -1 41.75 1.12
 -4 5 1 11.17 0.63
 -4 6 0 82.49 1.63
 -4 7 3 268.35 3.32
 -4 8 -2 32.58 1.31
 -4 8 -1 3.3 0.56
 -4 8 1 62.16 1.68
 -4 8 2 36.08 1.25
 -4 8 3 0.43 0.4
 -4 8 4 174.45 3.01
 -4 9 -2 10.52 0.87
 -4 9 -1 27.27 1.23
 -4 9 0 9.62 0.74
 -4 9 1 36.41 1.41
 -4 9 3 3.07 0.59
 -4 9 5 26.88 1.42
 -4 10 -2 2.31 0.69
 -4 10 -1 32.66 1.43
 -4 10 0 45.23 1.51
 -4 10 2 2.71 0.58
 -4 10 3 14.43 1.01
 -4 10 5 13.53 1.13
 -4 10 7 36.85 1.85
 -4 10 8 2.22 0.84
 -4 11 -2 23.52 1.38
 -4 11 0 0.09 0.41
 -4 11 1 21.75 1.21
 -4 11 4 0.46 0.5
 -4 11 5 27.21 1.59
 -4 11 6 1.09 0.78
 -4 11 7 2.18 0.89
 -4 11 8 1.49 0.93
 -4 12 -2 1.69 0.68
 -4 12 -1 0.51 0.55
 -4 12 0 26.6 1.32
 -4 12 1 55.47 1.95
 -4 12 3 2.04 0.67
 -4 12 5 -0.12 0.58
 -4 12 6 5.71 1.09
 -4 12 7 36.77 1.97
 -4 13 -2 22.46 1.49
 -4 13 -1 21.95 1.45
 -4 13 3 22.14 1.47
 -4 13 5 20.82 1.46
 -4 13 6 2.75 0.82
 -4 13 7 1.9 0.84
 -4 14 -2 3.19 0.84
 -4 14 0 4.19 0.91
 -4 14 1 15.98 1.21
 -4 14 2 0.27 0.63
 -4 14 3 17.71 1.47
 -4 14 5 14.28 1.2
 -4 15 -1 1.82 0.81
 -4 15 1 4.93 0.97
 -4 15 2 97.66 2.82
 -4 15 3 77.68 2.66
 -4 15 4 53.06 2.21
 -4 15 5 4.57 1.09
 -4 15 6 44.75 2.06
 -4 16 -2 0.16 0.76
 -4 16 -1 0.67 0.75
 -4 16 0 4.94 1.03
 -4 16 2 22.82 1.59
 -4 16 3 1.84 0.81
 -4 16 4 1.66 0.93
 -4 16 5 0.08 0.75
 -4 17 -1 4.75 1.04
 -4 17 0 5.53 1.1
 -4 17 3 13.13 1.42
 -4 17 4 4.35 1.18
 -4 18 0 1.03 0.94
 -4 18 1 3.38 1.13
 -4 18 2 0.5 0.76
 -4 18 3 8.54 1.25
 -3 -1 0 237.67 0.94
 -3 1 -1 0.1 0.12
 -3 2 -1 5.88 0.35
 -3 3 -1 23.43 0.68
 -3 3 1 84.71 1.27
 -3 4 -2 334.72 2.9
 -3 4 -1 0.43 0.28
 -3 5 -2 183.61 2.39
 -3 5 1 265.67 2.54
 -3 6 -1 1.11 0.4
 -3 7 1 1.48 0.36
 -3 8 -2 433.92 4.3
 -3 9 -2 41.91 1.49
 -3 9 2 -0.17 0.31
 -3 9 3 4.07 0.62
 -3 9 4 54.59 1.68
 -3 10 -2 20.07 1.12
 -3 10 -1 2.32 0.55
 -3 10 0 161.84 2.69
 -3 10 1 121.52 2.47
 -3 10 3 15.91 0.99
 -3 10 4 8.81 0.93
 -3 10 5 17.7 1.1
 -3 10 6 56.75 2.01
 -3 10 7 0.38 0.67
 -3 10 8 30.94 1.73
 -3 11 -2 33.32 1.51
 -3 11 0 192.47 3.03
 -3 11 1 3.77 0.7
 -3 11 3 7.3 0.72
 -3 11 4 3.01 0.68
 -3 11 7 3.48 0.84
 -3 11 8 76.38 2.6
 -3 12 -2 211.2 3.74
 -3 12 -1 0.06 0.52
 -3 12 0 58.12 1.8
 -3 12 1 1.18 0.55
 -3 12 2 0.21 0.46
 -3 12 3 59.82 1.89
 -3 12 6 4.99 0.98
 -3 12 7 1.88 0.8
 -3 13 -2 0.17 0.63
 -3 13 -1 2.9 0.79
 -3 13 0 -0.06 0.5
 -3 13 3 0.41 0.48
 -3 13 4 38.71 1.64
 -3 13 5 1.8 0.67
 -3 13 7 79.37 2.6
 -3 14 -2 2.29 0.75
 -3 14 -1 -0.21 0.56
 -3 14 0 101.61 2.57
 -3 14 1 52.83 1.93
 -3 14 2 1.08 0.68
 -3 14 3 3.75 0.86
 -3 14 4 1.28 0.63
 -3 14 6 43.3 1.93
 -3 14 7 1.29 0.87
 -3 15 -2 5.21 0.98
 -3 15 -1 62.18 2.38
 -3 15 0 42.09 1.86
 -3 15 2 44.98 1.96
 -3 15 3 1.45 0.74
 -3 15 4 1.54 0.76
 -3 15 5 50.03 2.06
 -3 16 -2 25.35 1.77
 -3 16 -1 3.86 0.94
 -3 16 0 -0.23 0.69
 -3 16 1 29.82 1.66
 -3 16 2 9.82 1.15
 -3 16 4 3.51 0.95
 -3 16 5 2.42 0.93
 -3 16 6 0.94 0.78
 -3 17 -2 6.18 1.28
 -3 17 -1 0.06 0.72
 -3 17 0 13.67 1.48
 -3 17 3 -0.7 0.64
 -3 17 4 102.63 3.12
 -3 17 5 0.12 0.83
 -3 18 -2 12.23 1.46
 -3 18 -1 -0.78 0.9
 -3 18 0 26.09 1.87
 -3 18 1 12.8 1.39
 -3 18 2 -0.12 0.66
 -3 18 3 0.85 0.76
 -3 18 4 -0.33 0.86
 -3 19 0 -0.7 0.75
 -3 19 1 0.55 0.83
 -3 19 2 2.17 1.04
 -3 19 3 -0.5 0.71
 -2 0 0 720.02 1.91
 -2 1 -1 226.88 1.43
 -2 2 -1 288.21 1.93
 -2 3 -1 373.1 2.38
 -2 3 0 720.35 3.11
 -2 5 -2 114.2 1.81
 -2 6 1 81.11 1.41
 -2 7 -2 149.31 2.36
 -2 8 2 25.67 1.02
 -2 9 -2 124.31 2.42
 -2 10 -2 58.5 1.81
 -2 10 -1 -0.21 0.32
 -2 10 3 9.52 0.83
 -2 10 5 0.47 0.43
 -2 11 -3 0.27 0.53
 -2 11 -1 43.69 1.51
 -2 11 2 3.79 0.61
 -2 11 3 1.3 0.46
 -2 11 4 30.69 1.41
 -2 11 5 52.78 1.88
 -2 11 7 0.17 0.57
 -2 11 8 1.04 0.74
 -2 12 -3 0.48 0.56
 -2 12 -2 73.44 2.2
 -2 12 -1 64.31 1.96
 -2 12 1 -0.01 0.41
 -2 12 2 12.5 0.93
 -2 12 3 -0.43 0.41
 -2 12 6 10.4 1.17
 -2 12 7 18.06 1.42
 -2 12 8 -0.42 0.66
 -2 13 -3 2.71 0.81
 -2 13 -2 36.95 1.65
 -2 13 -1 5.23 0.8
 -2 13 3 53.78 1.82
 -2 13 5 10.59 1.09
 -2 13 7 0.06 0.68
 -2 14 -2 0.34 0.57
 -2 14 -1 28.38 1.53
 -2 14 0 9.69 0.94
 -2 14 1 4.31 0.72
 -2 14 3 0.54 0.58
 -2 14 4 28.52 1.51
 -2 14 5 21.12 1.37
 -2 14 6 1.17 0.66
 -2 14 7 19.89 1.4
 -2 15 -1 4.11 0.86
 -2 15 1 0.74 0.55
 -2 15 2 17.05 1.3
 -2 15 3 -0.62 0.54
 -2 15 4 0.28 0.61
 -2 16 -2 58.86 2.36
 -2 16 -1 21.59 1.62
 -2 16 1 -0.47 0.47
 -2 16 2 3.29 0.87
 -2 16 3 -0.17 0.76
 -2 16 6 6.59 1.12
 -2 17 -2 -0.58 0.9
 -2 17 -1 8.02 1.15
 -2 17 0 7.91 1.11
 -2 17 2 2.96 0.83
 -2 17 3 30.17 1.76
 -2 17 4 3.3 0.9
 -2 17 5 4.82 1.12
 -2 18 -1 58.69 2.41
 -2 18 0 8.06 1.28
 -2 18 1 0.1 0.77
 -2 18 3 1.43 0.75
 -2 18 4 0.58 0.9
 -2 19 -2 19.87 1.87
 -2 19 -1 -0.25 0.76
 -2 19 0 45.18 2.32
 -2 19 1 7.81 1.13
 -2 19 2 17.06 1.39
 -2 19 3 0.66 0.67
 -2 20 0 6.18 1.2
 -2 20 1 0.48 1.03
 -1 2 0 1884.9 3.72
 -1 3 -1 0.07 0.19
 -1 4 -2 475.33 3.35
 -1 4 -1 777.79 3.59
 -1 4 1 363.56 2.27
 -1 5 1 64.2 1.13
 -1 6 -2 8.86 0.6
 -1 6 -1 318.07 2.7
 -1 7 -2 53.57 1.37
 -1 8 2 207.97 2.55
 -1 9 5 22.63 1.16
 -1 9 7 -0.44 0.56
 -1 10 -3 14.33 1
 -1 10 -2 245.38 3.41
 -1 10 4 115.15 2.35
 -1 10 5 1.18 0.53
 -1 10 6 8.43 0.92
 -1 10 7 0.87 0.56
 -1 11 -3 0.75 0.5
 -1 11 -2 4.92 0.67
 -1 11 2 196.81 2.91
 -1 11 3 0.23 0.34
 -1 12 -3 1.04 0.56
 -1 12 -2 28.65 1.42
 -1 12 -1 27.42 1.25
 -1 12 1 59.26 1.72
 -1 12 2 8.35 0.84
 -1 12 3 2.33 0.52
 -1 12 4 31.11 1.31
 -1 12 5 -0.09 0.45
 -1 13 -3 91.94 2.62
 -1 13 -2 -0.36 0.52
 -1 13 -1 0.84 0.6
 -1 13 0 1.64 0.5
 -1 13 2 78.68 2.14
 -1 13 3 29.64 1.33
 -1 13 4 9.15 0.9
 -1 13 5 1.52 0.55
 -1 13 6 5.85 0.85
 -1 14 -3 13.92 1.21
 -1 14 -2 314.68 4.69
 -1 14 1 13.4 1.04
 -1 14 3 23.83 1.39
 -1 14 4 153.62 3.1
 -1 14 5 -0.19 0.51
 -1 14 6 1.63 0.63
 -1 15 -2 2.74 0.85
 -1 15 1 -0.02 0.45
 -1 15 2 17.64 1.2
 -1 15 3 2.98 0.78
 -1 15 5 63.92 2.18
 -1 15 6 23.1 1.42
 -1 16 -2 13.41 1.41
 -1 16 -1 2.77 0.8
 -1 16 0 -0.08 0.55
 -1 16 1 23.56 1.36
 -1 16 2 24.4 1.41
 -1 16 3 28.42 1.61
 -1 16 4 3.37 0.87
 -1 16 5 1.64 0.75
 -1 17 -2 1.09 0.79
 -1 17 -1 3.15 0.84
 -1 17 0 0.63 0.75
 -1 17 1 2.89 0.82
 -1 17 2 35.63 1.65
 -1 17 3 3.43 0.79
 -1 17 4 22.05 1.5
 -1 17 5 4.47 0.95
 -1 18 -2 131.38 3.65
 -1 18 -1 43.41 2.15
 -1 18 0 14.51 1.48
 -1 18 1 4.02 0.89
 -1 18 2 17.56 1.32
 -1 18 3 3.48 0.84
 -1 18 4 50.95 2.07
 -1 18 5 1.53 0.88
 -1 19 -2 1.58 0.9
 -1 19 -1 38.01 2.12
 -1 19 0 5.56 1.05
 -1 19 1 0.03 0.91
 -1 19 2 4.95 0.97
 -1 19 3 3.42 0.9
 -1 19 4 0.18 0.66
 -1 20 -1 1.03 1.07
 -1 20 3 37.87 1.95
 0 3 0 0.19 0.14
 0 4 -1 6.49 0.37
 0 4 1 7.44 0.36
 0 5 -1 190.75 1.94
 0 5 0 3.17 0.3
 0 5 1 189.38 1.68
 0 6 -1 99.01 1.52
 0 7 -1 592.34 3.93
 0 7 0 0.38 0.31
 0 7 3 47.66 1.15
 0 9 -1 10.22 0.64
 0 9 0 0.2 0.25
 0 9 3 7.63 0.59
 0 9 5 2.29 0.48
 0 10 0 2.1 0.39
 0 11 -2 4.22 0.66
 0 11 3 11.66 0.79
 0 11 4 0.11 0.4
 0 11 5 13.97 0.87
 0 12 -2 266.15 3.84
 0 12 -1 15.6 1.02
 0 12 1 15.45 0.92
 0 13 -2 24.18 1.35
 0 13 -1 -0.62 0.36
 0 13 0 0.53 0.4
 0 13 1 -0.19 0.34
 0 13 2 25.36 1.23
 0 13 3 27.34 1.32
 0 14 -2 1.11 0.59
 0 14 1 13.6 0.9
 0 14 2 1.55 0.53
 0 14 3 15.43 1.08
 0 15 -2 -0.17 0.55
 0 15 0 0.4 0.5
 0 15 1 47.4 1.7
 0 15 2 0.64 0.47
 0 15 3 0.74 0.63
 0 15 4 0.01 0.48
 0 16 -2 205.35 4.08
 0 16 -1 12.1 1.22
 0 16 1 10.98 0.98
 0 16 4 71.19 2.13
 0 17 -2 14.73 1.51
 0 17 -1 0.61 0.66
 0 17 0 0.29 0.61
 0 17 1 -0.01 0.66
 0 17 2 13.32 1.1
 0 17 3 23.71 1.35
 0 18 -1 2.77 0.82
 0 18 0 132.2 3.33
 0 18 1 4.35 0.93
 0 18 2 41.43 1.82
 0 18 3 3.1 0.82
 0 19 -2 0.82 0.86
 0 19 0 -0.39 0.83
 0 19 1 11.47 1.34
 0 19 2 -0.38 0.63
 0 19 3 1.22 0.69
 0 20 -1 0.65 0.81
 0 20 0 12.29 1.42
 0 20 1 0.26 0.83
 0 20 2 54.55 2.28
 0 20 3 16.96 1.5
 1 2 0 1855.93 2.72
 1 3 0 1941.48 3.64
 1 3 1 0.16 0.1
 1 4 0 1779.62 4.04
 1 5 -1 65.19 1.12
 1 5 0 0.24 0.17
 1 5 2 86.31 1.11
 1 8 2 319.63 2.65
 1 9 0 1.12 0.35
 1 9 1 17.7 0.75
 1 9 2 8.85 0.59
 1 9 3 222.01 2.4
 1 10 -1 12.57 0.83
 1 10 0 76.48 1.58
 1 10 3 14.7 0.76
 1 11 -2 192.08 3.13
 1 12 -2 6.93 0.76
 1 12 3 1.69 0.42
 1 13 -2 83.22 2.29
 1 13 -1 3.59 0.63
 1 13 0 0.79 0.5
 1 13 1 0.68 0.45
 1 13 2 0.1 0.36
 1 14 -2 56.3 1.99
 1 14 -1 11.08 0.91
 1 15 -2 15.67 1.24
 1 15 -1 -0.34 0.46
 1 15 1 57.49 1.82
 1 15 2 1.78 0.54
 1 16 -1 22.97 1.46
 1 16 0 -0.53 0.51
 1 16 1 3.56 0.82
 1 16 2 13.68 1
 1 17 -1 3.01 0.8
 1 17 0 0.4 0.62
 1 17 1 4.34 0.83
 1 17 2 1.39 0.53
 1 19 -1 -0.11 0.83
 1 19 0 5.39 0.88
 1 20 -1 4.85 1.04
 1 20 0 18.14 1.51
 1 20 1 0.68 0.82
 2 3 2 125.23 0.78
 2 4 2 435.71 1.56
 2 5 0 0.19 0.14
 2 5 1 45.18 0.6
 2 6 0 600.08 2.95
 2 6 1 57.21 0.81
 2 8 -1 1.1 0.37
 2 8 0 77.49 1.35
 2 8 1 95.53 1.34
 2 8 2 0.7 0.21
 2 9 1 0.62 0.26
 2 9 2 125.88 1.55
 2 10 -1 25.41 1.04
 2 10 0 218.43 2.62
 2 10 1 0.21 0.24
 2 11 0 7.46 0.65
 2 12 -1 0.3 0.5
 2 14 -1 2.44 0.63
 2 15 -1 1.64 0.64
 2 16 -1 0.11 0.52
 2 17 0 9.6 1.04
 0 -12 1 15.98 0.54
 0 -12 2 259.17 2.49
 0 -12 3 164.37 2.5
 0 -11 -1 167.98 1.29
 0 -11 0 -0.12 0.17
 0 -11 1 171.1 1.62
 0 -11 2 4.92 0.54
 0 -11 3 12.73 0.84
 0 -11 4 0.45 0.59
 0 -10 0 2.57 0.26
 0 -10 1 16.94 0.58
 0 -10 2 132.85 1.85
 0 -10 3 109.19 2.1
 0 -9 0 0.13 0.17
 0 -9 1 11 0.49
 0 -9 2 67.24 1.35
 0 -9 3 6.96 0.73
 0 -8 0 697.41 2.43
 0 -8 1 8.87 0.44
 0 -8 2 27.33 0.88
 0 -8 3 206.22 2.72
 0 -7 0 0.18 0.15
 0 -7 1 566.38 2.7
 0 -6 0 292.62 1.44
 0 -6 1 99.04 1.16
 0 -6 2 598.31 3.57
 0 -6 3 317.75 3.24
 0 -5 1 182.38 1.47
 0 -5 2 313.21 2.58
 0 -5 3 2.95 0.54
 0 -4 2 387.23 2.79
 0 -4 3 132.8 2.09
 0 -3 1 1449.06 3.76
 0 -3 2 550.73 3.29
 0 -3 3 99.21 1.83
 0 -3 4 16.01 1.04
 0 -2 1 45.88 0.7
 0 -2 2 271.03 2.32
 0 -2 3 913.4 5.23
 0 -1 1 1209.93 3.27
 0 -1 2 753.9 3.76
 0 -1 3 83.59 1.72
 0 0 2 2737.67 7.08
 0 1 1 1211.37 3.27
 0 1 2 765.64 3.77
 1 -14 3 15.74 1.08
 1 -14 4 34.87 1.68
 1 -13 -1 5.01 0.5
 1 -13 0 1.57 0.38
 1 -13 1 0.04 0.38
 1 -13 3 94.36 2.16
 1 -13 4 9.01 1.11
 1 -13 5 11.52 1.35
 1 -12 -1 56.11 1.15
 1 -12 1 26 0.93
 1 -12 2 27.72 1.13
 1 -12 3 1.14 0.57
 1 -12 4 16.28 1.3
 1 -12 5 32.34 1.82
 1 -11 0 436.5 3.1
 1 -11 1 53.97 1.26
 1 -11 2 4.16 0.62
 1 -11 4 0.29 0.75
 1 -11 5 0.63 0.84
 1 -10 0 77.4 1.37
 1 -10 1 223.56 2.42
 1 -10 2 251.03 3
 1 -10 5 6.92 1.07
 1 -9 0 1.36 0.34
 1 -9 1 16.77 0.75
 1 -9 2 8.5 0.74
 1 -9 4 10.55 1.09
 1 -9 5 26.46 1.66
 1 -8 0 1026.87 4.38
 1 -8 2 307.67 3.14
 1 -8 4 12.93 1.09
 1 -8 5 36.09 1.83
 1 -7 0 1044 4.28
 1 -7 1 18.22 0.72
 1 -7 2 55.04 1.36
 1 -7 5 5.65 0.97
 1 -7 6 45.44 2.27
 1 -6 0 20.04 0.67
 1 -6 1 326.57 2.63
 1 -6 2 9.43 0.69
 1 -6 3 10.81 0.89
 1 -6 4 460.83 4.96
 1 -6 5 3.15 0.83
 1 -5 1 74.65 1.33
 1 -5 2 88.99 1.64
 1 -5 3 390.92 3.94
 1 -5 4 10.44 1
 1 -5 5 46.95 1.94
 1 -5 6 43.14 2.17
 1 -4 1 781.24 3.78
 1 -4 2 459.38 3.5
 1 -4 3 17.23 0.95
 1 -4 5 37.35 1.8
 1 -3 1 0.36 0.32
 1 -3 2 142.54 1.96
 1 -3 3 139.53 2.36
 1 -3 5 30.24 1.64
 1 -2 1 73.6 1.13
 1 -2 2 466.78 3.43
 1 -2 5 0.4 0.8
 1 -1 1 183.47 1.68
 1 -1 2 244.33 2.45
 1 -1 5 46.78 1.87
 1 0 1 2275.96 5.53
 1 0 2 0.1 0.31
 1 1 0 512.46 1.86
 1 1 1 188.95 1.59
 1 1 2 251.97 2.47
 1 2 0 1913.81 3.18
 1 2 1 73.56 1.01
 1 2 2 461.38 3.25
 1 2 3 0.99 0.42
 1 3 1 0.01 0.24
 1 3 2 145.62 1.86
 1 3 3 141.02 2.26
 1 4 1 769.99 3
 1 4 2 456.66 3.17
 1 6 -1 17.65 0.31
 2 -14 1 29.42 1.27
 2 -14 2 1.57 0.74
 2 -14 3 20.31 1.42
 2 -14 4 14.58 1.44
 2 -14 5 -0.25 1.07
 2 -13 2 39.36 1.55
 2 -13 3 3.74 0.95
 2 -13 4 99.37 2.8
 2 -13 5 31.88 2
 2 -12 -1 0.2 0.46
 2 -12 0 184.55 2.65
 2 -12 2 76.89 2.02
 2 -12 3 0.3 0.71
 2 -12 4 25.9 1.68
 2 -12 5 45.98 2.25
 2 -12 6 126.94 3.65
 2 -11 -1 14.37 0.82
 2 -11 0 8.09 0.76
 2 -11 2 99.44 2.23
 2 -11 3 0.81 0.81
 2 -11 4 6.61 1.09
 2 -11 5 1.44 1.13
 2 -11 6 0.31 1.28
 2 -10 0 214.74 2.7
 2 -10 1 0.35 0.5
 2 -10 4 154.25 3.35
 2 -10 5 3.71 1.14
 2 -10 6 51.23 2.57
 2 -9 0 86.94 1.71
 2 -9 1 0.14 0.44
 2 -9 3 6.23 0.89
 2 -9 4 225.07 4.07
 2 -9 5 25.32 1.84
 2 -8 0 78.04 1.57
 2 -8 1 97.82 1.97
 2 -8 3 -0.3 0.5
 2 -8 4 -0.11 0.63
 2 -8 5 37.59 2.02
 2 -8 6 42.46 2.37
 2 -7 0 69.01 1.43
 2 -7 1 126.03 2.15
 2 -7 4 2.07 0.9
 2 -7 5 4.18 1.17
 2 -7 6 1.23 1.12
 2 -6 0 580.92 3.91
 2 -6 1 56.77 1.39
 2 -6 4 262.15 4.19
 2 -6 5 29.77 1.86
 2 -6 6 94.92 3.24
 2 -5 1 45.54 1.23
 2 -5 2 114.64 2.16
 2 -5 6 0.92 1.02
 2 -4 0 85.29 1.45
 2 -4 1 106.32 1.8
 2 -4 4 102.65 2.56
 2 -4 5 13.19 1.37
 2 -4 6 5.23 1.34
 2 -3 1 369.67 3.16
 2 -3 4 6.28 0.89
 2 -3 5 6.27 1.05
 2 -3 6 1.68 1
 2 -2 1 279.78 2.68
 2 -2 4 62.56 2
 2 -2 6 20 1.76
 2 -1 1 222.61 2.34
 2 -1 4 99.41 2.48
 2 -1 5 -0.11 0.68
 2 -1 6 0.11 0.84
 2 0 0 697.9 3.44
 2 0 1 0.01 0.33
 2 0 3 -0.16 0.49
 2 0 4 262.73 3.96
 2 0 5 0.73 0.9
 2 1 0 309.7 2.21
 2 1 1 233.24 2.25
 2 1 3 2.47 0.59
 2 1 4 101.95 2.47
 2 1 5 0.71 0.91
 2 2 0 396 2.35
 2 2 1 279.5 2.38
 2 3 0 727.69 3.03
 2 3 1 366.72 2.63
 2 3 3 1.73 0.53
 2 3 4 4.67 0.87
 2 4 0 87.08 1.02
 2 4 1 101.56 1.4
 2 4 2 456.98 3.6
 2 4 3 0.03 0.43
 2 4 4 101.17 2.41
 2 5 0 0.49 0.17
 2 5 2 114.2 1.85
 2 6 0 585.59 1.99
 2 6 1 59.6 1.05
 2 6 2 186.26 2.28
 3 -15 -2 39.93 1.54
 3 -15 -1 5.24 0.86
 3 -15 0 42.02 1.62
 3 -15 1 60.04 1.96
 3 -15 3 14.49 1.46
 3 -14 -2 1.17 0.66
 3 -14 -1 51.59 1.69
 3 -14 0 103.52 2.34
 3 -14 1 0.51 0.74
 3 -14 2 2.61 0.94
 3 -14 3 -0.71 0.79
 3 -14 4 41.73 2.22
 3 -13 -1 84.25 2.07
 3 -13 0 0.39 0.58
 3 -13 1 2.37 0.8
 3 -13 3 0.25 0.84
 3 -13 4 24.04 1.87
 3 -12 -1 1.4 0.66
 3 -12 0 57.78 1.8
 3 -12 1 0.24 0.6
 3 -12 2 207.93 3.75
 3 -12 3 15.94 1.5
 3 -12 4 45.46 2.26
 3 -12 5 6.39 1.35
 3 -11 0 202.61 3.19
 3 -11 1 79.57 2.11
 3 -11 2 34.65 1.63
 3 -11 4 40.54 2.16
 3 -11 5 2.13 1.22
 3 -10 1 0.82 0.56
 3 -10 4 44.22 2.18
 3 -10 5 30.74 2.14
 3 -9 2 44.26 1.71
 3 -9 3 10 1.2
 3 -9 4 -0.28 0.79
 3 -9 5 14.73 1.73
 3 -9 6 39.22 2.55
 3 -8 2 439.61 4.85
 3 -8 3 35.47 1.75
 3 -8 4 141.11 3.46
 3 -8 5 1.46 1.24
 3 -8 6 50.32 2.71
 3 -7 2 17.8 1.22
 3 -7 3 0.45 0.65
 3 -7 4 21.37 1.62
 3 -7 5 0.39 1
 3 -7 6 25.64 2.18
 3 -6 0 49.46 1.44
 3 -6 2 5.87 0.84
 3 -6 3 1.09 0.76
 3 -6 4 1.77 0.86
 3 -6 5 26.82 1.94
 3 -6 6 0.05 1.25
 3 -5 0 280.56 3.21
 3 -5 2 180.16 3.03
 3 -5 4 25.45 1.63
 3 -5 5 23.64 1.86
 3 -5 6 37.33 2.38
 3 -4 6 43.88 2.56
 3 -3 3 5.6 0.85
 3 -3 4 0.62 0.7
 3 -3 5 1.71 1.03
 3 -2 3 1.63 0.67
 3 -2 4 29.68 1.64
 3 -2 6 48.96 2.59
 3 -1 1 0.16 0.4
 3 -1 3 25.05 1.33
 3 -1 4 33.87 1.74
 3 -1 5 14.16 1.58
 3 -1 6 8.91 1.5
 3 0 1 0.43 0.42
 3 0 4 0.6 0.7
 3 0 5 22.02 1.71
 3 0 6 -0.34 1
 3 1 1 0.73 0.42
 3 1 3 24.9 1.32
 3 1 4 32.61 1.72
 3 1 5 15.12 1.58
 3 2 1 5.7 0.62
 3 2 2 3.07 0.57
 3 2 3 1.03 0.65
 3 2 4 29.36 1.62
 3 3 1 23.01 0.89
 3 3 2 12.41 0.88
 3 3 4 0.55 0.85
 3 3 5 2.27 0.94
 3 4 1 0.11 0.31
 3 4 2 342.05 3.59
 3 4 4 104.8 2.67
 3 4 5 14.25 1.5
 3 5 1 10.31 0.65
 3 5 2 184.3 2.63
 3 5 4 23.83 1.46
 3 6 -1 128.83 1.35
 3 6 1 1.26 0.38
 3 7 -1 1.46 0.23
 3 7 1 73 1.35
 3 7 2 18.75 0.91
 3 8 0 212.63 1.41
 4 -16 -2 21.73 1.47
 4 -16 0 4.68 0.98
 4 -16 1 -0.94 0.92
 4 -15 -3 74.97 2.3
 4 -15 -2 97.37 2.51
 4 -15 0 76.5 2.34
 4 -15 1 1.17 1.01
 4 -15 2 120.57 3.22
 4 -15 3 34.77 2.13
 4 -14 -2 1 0.75
 4 -14 -1 15.12 1.31
 4 -14 0 4.95 1.02
 4 -14 1 16.31 1.44
 4 -14 2 4.3 1.27
 4 -14 3 0.02 1.06
 4 -13 -2 202.17 3.64
 4 -13 0 0.57 0.71
 4 -13 1 17.86 1.47
 4 -13 2 24.57 1.74
 4 -13 3 2.8 1.15
 4 -13 4 52.25 2.61
 4 -12 -1 54.56 1.94
 4 -12 0 29.57 1.6
 4 -12 1 1.07 0.88
 4 -12 2 1.11 1.07
 4 -12 3 28.39 1.95
 4 -12 4 54.17 2.63
 4 -11 -1 21.56 1.34
 4 -11 1 4.6 1.02
 4 -11 2 23.61 1.64
 4 -11 3 65.11 2.61
 4 -11 4 -0.04 0.99
 4 -10 -1 84.29 2.25
 4 -10 0 49.35 1.86
 4 -10 1 32.29 1.64
 4 -10 2 2.98 1.04
 4 -10 3 4.35 1.27
 4 -10 4 33.35 2.22
 4 -9 -1 36.42 1.58
 4 -9 1 26.12 1.52
 4 -9 3 0.44 0.98
 4 -9 4 77.16 2.95
 4 -9 5 19.85 2.04
 4 -8 -1 62.08 1.9
 4 -8 0 34.21 1.55
 4 -8 1 4.53 0.92
 4 -8 2 31.17 1.72
 4 -8 3 42.85 2.1
 4 -8 4 41.68 2.35
 4 -7 0 236.29 3.58
 4 -7 2 41.98 1.83
 4 -7 3 91.11 2.85
 4 -7 4 30.58 2.08
 4 -7 5 7.56 1.67
 4 -6 1 45.77 1.73
 4 -6 2 16.42 1.34
 4 -6 3 33.15 1.86
 4 -6 4 62.08 2.61
 4 -6 5 0.72 1.3
 4 -5 1 42.01 1.66
 4 -5 2 11.38 1.15
 4 -5 3 13.01 1.39
 4 -5 4 19.35 1.79
 4 -5 5 2.18 1.43
 4 -5 6 2.83 1.67
 4 -4 1 5.69 0.86
 4 -4 2 173.73 3.34
 4 -4 5 1.36 1.11
 4 -4 6 0.99 1.48
 4 -3 1 35.67 1.5
 4 -3 4 60.14 2.49
 4 -3 5 6.28 1.57
 4 -3 6 74.68 3.26
 4 -2 2 7.72 0.91
 4 -2 3 65.06 2.24
 4 -2 6 19.59 2.11
 4 -1 0 858.93 5.84
 4 -1 4 12.41 1.5
 4 -1 5 -0.28 1.24
 4 0 0 4.4 0.62
 4 0 2 316.58 4.15
 4 0 3 -0.19 0.65
 4 0 4 -0.07 0.85
 4 0 5 -0.19 1.02
 4 0 6 0.34 1.42
 4 1 0 850.9 5.52
 4 1 2 187.1 3.21
 4 1 3 54.4 2.04
 4 1 4 10.12 1.44
 4 1 5 1.43 1.3
 4 2 0 27.72 1.1
 4 2 2 7.12 0.87
 4 2 3 71.07 2.24
 4 2 5 0.34 1.15
 4 3 0 901.92 5.4
 4 3 2 240.26 3.53
 4 3 3 92.49 2.49
 4 3 4 57.21 2.27
 4 3 5 6.18 1.43
 4 4 0 15.48 0.82
 4 4 1 6.16 0.74
 4 4 3 21.93 1.39
 4 4 4 3.92 1.13
 4 4 5 1.09 1
 4 5 -1 11.74 0.68
 4 5 0 190.79 2.38
 4 5 1 40.77 1.3
 4 5 3 12.3 1.16
 4 5 4 21.21 1.58
 4 6 -1 272.74 2.49
 4 6 0 80.7 1.53
 4 6 1 45.92 1.32
 4 6 4 62.96 2.2
 4 7 -1 31.77 0.82
 5 -16 -3 -0.07 0.86
 5 -16 -2 13.23 1.49
 5 -16 -1 1.46 0.92
 5 -15 -3 18.51 1.56
 5 -15 -2 5.84 1.11
 5 -15 -1 5.29 1.13
 5 -15 0 12.95 1.49
 5 -15 1 13.19 1.61
 5 -14 -3 56.28 2.28
 5 -14 -2 20.97 1.63
 5 -14 -1 -0.34 0.83
 5 -14 0 5.22 1.25
 5 -14 1 1.74 0.98
 5 -14 2 4.2 1.27
 5 -13 -1 28.84 1.8
 5 -13 0 3.58 1.13
 5 -13 2 35.13 2.17
 5 -12 -2 37.5 1.91
 5 -12 -1 0.25 0.9
 5 -12 0 100.7 2.92
 5 -12 1 25.27 1.82
 5 -12 2 2.25 1.33
 5 -12 3 18.82 1.97
 5 -11 -2 32.07 1.73
 5 -11 -1 17.31 1.44
 5 -11 0 70.22 2.51
 5 -11 2 184.83 4.14
 5 -11 3 8.34 1.68
 5 -10 -1 0.07 0.76
 5 -10 0 52.94 2.18
 5 -10 1 0.75 0.83
 5 -10 2 2.68 1.05
 5 -10 3 32.22 2.28
 5 -9 -1 73.75 2.37
 5 -9 0 48.21 2.08
 5 -9 1 78.2 2.59
 5 -9 2 1.17 0.94
 5 -9 3 25.69 2.11
 5 -9 4 12.6 1.72
 5 -8 -1 0.74 0.69
 5 -8 0 92.82 2.65
 5 -8 1 14.99 1.42
 5 -8 2 -0.09 0.9
 5 -8 3 72.68 2.87
 5 -8 4 13.51 1.94
 5 -7 -1 34.28 1.65
 5 -7 1 0.92 0.82
 5 -7 3 0.22 1.17
 5 -7 4 9.21 1.59
 5 -6 -1 0.94 0.66
 5 -6 0 208.62 3.73
 5 -6 1 -0.36 0.75
 5 -6 2 0.05 0.95
 5 -6 3 18.09 1.81
 5 -6 4 14.65 1.77
 5 -5 -1 123.33 2.72
 5 -5 0 267.29 4.18
 5 -5 1 100.27 2.73
 5 -5 3 31.79 2.12
 5 -5 4 142.81 3.97
 5 -4 -1 6.38 0.97
 5 -4 0 35.89 1.63
 5 -4 1 6.38 1.1
 5 -4 2 1.63 1
 5 -4 3 145.77 3.69
 5 -4 4 10.83 1.78
 5 -3 0 25.74 1.43
 5 -3 1 24.5 1.47
 5 -3 2 15.32 1.38
 5 -3 3 4.48 1.3
 5 -3 4 98.37 3.31
 5 -3 5 9.06 1.6
 5 -2 0 427.4 4.92
 5 -2 1 -0.32 0.69
 5 -2 2 7.79 1.14
 5 -2 3 2.02 0.99
 5 -2 4 4.2 1.27
 5 -2 5 -0.42 1.09
 5 -1 1 89.54 2.4
 5 -1 2 27 1.63
 5 -1 3 22.43 1.74
 5 -1 4 215.54 4.61
 5 -1 5 8.46 1.55
 5 0 0 0 0.52
 5 0 2 -0.18 0.65
 5 0 3 197.93 4.18
 5 1 2 27.67 1.56
 5 1 5 9.44 1.57
 5 2 1 -0.1 0.57
 5 2 2 7.3 1.03
 5 2 3 2.13 1
 5 2 5 0.4 1.16
 5 3 1 25.73 1.32
 5 3 2 16.49 1.32
 5 3 3 5.3 1.17
 5 3 4 101.09 3.15
 5 3 5 9.49 1.53
 5 4 -1 6 0.72
 5 4 1 7.35 0.86
 5 4 3 144.28 3.28
 5 4 5 0.65 1.25
 5 5 -1 122 2.16
 5 5 1 99.72 2.21
 5 5 2 40.21 1.66
 5 5 3 30.92 1.68
 6 -15 -4 39.62 2.21
 6 -15 -3 0.91 1
 6 -15 -2 7.43 1.36
 6 -15 -1 1.12 1.1
 6 -14 -4 9.25 1.52
 6 -14 -3 9.31 1.43
 6 -14 -2 22.62 1.87
 6 -14 -1 18.19 1.78
 6 -14 0 -0.05 1.23
 6 -13 -3 1.73 1.24
 6 -13 -2 80.37 2.84
 6 -13 -1 9.27 1.55
 6 -13 0 136 3.65
 6 -13 1 16.01 1.9
 6 -12 -3 37.17 2.1
 6 -12 1 30.85 2.11
 6 -11 -1 2.08 1.13
 6 -11 0 2.25 1.1
 6 -11 1 0.67 1.23
 6 -11 2 1.44 1.47
 6 -10 -2 62.68 2.47
 6 -10 -1 9.05 1.32
 6 -10 0 2.56 1.2
 6 -10 1 6.16 1.29
 6 -10 2 17.89 1.99
 6 -9 -2 213.92 4.38
 6 -9 -1 8.32 1.31
 6 -9 0 278.61 5.03
 6 -9 1 10.71 1.46
 6 -9 2 38.31 2.4
 6 -8 -2 1.49 0.89
 6 -8 0 2.32 1.22
 6 -8 1 27.46 1.99
 6 -8 2 12.27 1.58
 6 -8 3 -0.54 1.3
 6 -7 -2 149.56 3.46
 6 -7 -1 3.33 1.1
 6 -7 0 41.75 2.14
 6 -7 1 5.94 1.31
 6 -7 2 34.89 2.26
 6 -7 3 45.73 2.6
 6 -6 -2 73.13 2.48
 6 -6 -1 0.78 0.78
 6 -6 0 3.86 1.03
 6 -6 1 57.35 2.47
 6 -6 2 10.02 1.54
 6 -6 3 13.85 1.77
 6 -5 -1 2.36 0.91
 6 -5 0 151.34 3.52
 6 -5 1 3.14 1.05
 6 -5 3 16.62 1.89
 6 -4 -1 0.59 0.68
 6 -4 1 11.82 1.47
 6 -4 2 11.92 1.74
 6 -4 3 -0.25 1.06
 6 -3 0 50.43 2.09
 6 -3 3 50.1 2.61
 6 -3 4 113.17 3.8
 6 -2 -1 2.45 0.78
 6 -2 0 1.65 0.92
 6 -2 2 1.53 1.23
 6 -2 3 21.64 2.02
 6 -2 4 1.31 1.34
 6 -1 -1 1.52 0.83
 6 -1 0 1.35 0.78
 6 -1 1 0.34 0.78
 6 -1 2 50.47 2.34
 6 -1 3 28.5 2.13
 6 -1 4 49.04 2.65
 6 0 -1 0.07 0.75
 6 0 0 2.28 0.79
 6 0 1 -1.12 0.73
 6 0 2 7.16 1.23
 6 0 3 -0.91 1.06
 6 0 4 87.97 3.27
 6 1 -1 1.49 0.8
 6 1 0 2.67 0.95
 6 1 1 -0.17 0.72
 6 1 2 51.03 2.28
 6 1 3 33.13 2.13
 6 1 4 52.09 2.67
 6 2 -2 14.62 1.15
 6 2 -1 1.77 0.71
 6 2 0 1.28 0.78
 6 2 2 1.07 1.01
 6 2 3 23.65 1.87
 6 2 4 2.93 1.49
 6 3 -2 131.21 2.69
 6 3 1 8.05 1.07
 6 3 2 114.94 3.06
 6 3 3 47.24 2.31
 6 3 4 107.53 3.4
 6 4 -2 0.14 0.56
 6 4 -1 0.64 0.61
 6 4 0 0.78 0.67
 6 4 1 10.47 1.19
 6 4 2 11.33 1.36
 6 4 3 0.25 0.92
 7 -13 -3 4.77 1.41
 7 -12 -4 -0.01 1.19
 7 -12 -3 3.34 1.2
 7 -12 -2 10.2 1.56
 7 -12 -1 13.83 1.84
 7 -11 -3 18.45 1.88
 7 -11 -2 22.15 1.98
 7 -11 -1 11.24 1.71
 7 -11 0 69.51 3
 7 -10 -3 1.96 1.32
 7 -10 -2 6.93 1.48
 7 -10 -1 7.55 1.51
 7 -10 0 3.44 1.31
 7 -9 -3 6.95 1.3
 7 -9 -2 29.78 2.1
 7 -9 -1 44.6 2.43
 7 -9 0 -0.37 1.02
 7 -9 1 12.01 1.7
 7 -8 -3 6.97 1.45
 7 -8 -2 1.21 1.06
 7 -8 -1 19.04 1.85
 7 -8 0 26.07 2.09
 7 -8 1 1.66 1.37
 7 -7 -3 7.03 1.46
 7 -7 -2 13.95 1.64
 7 -7 -1 3.06 1.25
 7 -7 0 59.2 2.71
 7 -7 1 0.99 1.12
 7 -6 -2 36.9 2.14
 7 -6 -1 6.58 1.34
 7 -6 0 4.61 1.27
 7 -6 1 20.4 2.01
 7 -6 2 5.25 1.5
 7 -5 -1 59.51 2.58
 7 -5 0 25.55 1.95
 7 -5 1 15.63 1.83
 7 -5 2 60.58 2.9
 7 -4 -2 0.79 1.11
 7 -4 -1 19.1 1.76
 7 -4 0 16.21 1.68
 7 -4 1 -0.48 1.13
 7 -4 2 14.69 1.83
 7 -3 -2 5.16 1.29
 7 -3 0 2.47 1.14
 7 -3 1 0.48 0.99
 7 -3 2 10.97 1.79
 7 -2 -2 192.12 4.02
 7 -2 -1 0.23 1.02
 7 -2 0 30.55 1.98
 7 -2 1 3.67 1.26
 7 -1 -2 86.64 2.69
 7 -1 -1 30.64 1.86
 7 -1 0 22.7 1.76
 7 -1 1 7.8 1.49
 7 -1 2 20.17 1.96
 7 0 -2 -0.56 0.85
 7 0 -1 20.71 1.6
 7 0 1 1.89 1.12
 7 0 2 -1.17 1.22
 7 1 -2 84.1 2.54
 7 1 -1 27.18 1.71
 7 1 0 22.08 1.67
 7 1 1 9.82 1.41
 7 1 2 20.3 1.9
 7 2 -3 0.86 0.85
 7 2 -1 1.25 0.82
 7 2 0 29.12 1.76
 7 2 1 2.91 1.03
 7 2 2 11.93 1.56
 7 3 -3 1.77 0.77
 7 3 -2 5.89 0.99
 7 3 -1 2.26 0.85
 7 3 0 4.31 1.05
 7 3 1 -0.13 0.89
 7 3 2 9.99 1.43
 7 4 -2 1.72 0.63
 8 -9 -3 2.25 1.39
 8 -8 -4 7.59 1.57
 8 -8 -3 20.57 2.08
 8 -8 -2 29.89 2.33
 8 -7 -4 22.64 2.05
 8 -7 -3 23 2.08
 8 -7 -2 -0.23 1.19
 8 -7 -1 35.01 2.43
 8 -6 -4 21.96 2
 8 -6 -2 56.96 2.74
 8 -5 -3 3.23 1.44
 8 -5 -2 -0.2 1.09
 8 -4 -1 18.77 2
 8 -4 0 118.3 3.67
 8 -3 -3 14.88 1.63
 8 -3 -2 23.23 1.99
 8 -3 -1 50.97 2.56
 8 -3 0 7.71 1.52
 8 -2 -2 11.95 1.54
 8 -2 0 2.41 1.38
 8 -1 -1 51.9 2.46
 8 -1 0 2.79 1.27
 8 0 -3 0.32 0.91
 8 0 -2 5.49 1.29
 8 0 -1 -0.28 0.92
 8 1 -2 19.22 1.71
 8 1 -1 47.19 2.28
 8 1 0 3.62 1.25
 8 1 1 -0.06 1.19
 8 2 -4 3.84 1.13
 8 2 -3 54.62 2.28
 8 2 -2 11.46 1.39
 8 2 -1 40.2 2.07
 8 2 0 3.34 1.29
 8 3 -4 120.31 3.1
 8 3 -3 14.84 1.47
 8 3 -1 50.76 2.13
 9 -1 -4 10.53 1.71
 9 -1 -3 63.75 2.83
 9 0 -4 -0.88 1.17
 9 0 -3 3.28 1.42
 9 1 -4 10.72 1.59
 9 1 -3 67.02 2.73
 -7 10 1 7.69 1.16
 -7 11 1 11.9 1.36
 -7 12 1 12.77 1.47
 -7 12 2 10.47 1.31
 -6 10 0 2.24 0.89
 -6 11 0 0.98 0.8
 -6 11 1 1 0.91
 -6 12 0 15.13 1.37
 -6 12 1 0.73 0.95
 -6 13 0 133.13 3.04
 -6 13 1 7.67 1.29
 -6 13 2 81.36 2.63
 -6 14 0 -0.1 1.05
 -6 14 1 18.75 1.66
 -6 14 2 21.51 1.74
 -6 15 1 0.09 0.97
 -6 15 2 5.83 1.31
 -6 15 3 0.26 1.09
 -5 4 -1 5.36 0.56
 -5 7 -1 0.55 0.53
 -5 8 -1 16.43 1.02
 -5 10 -1 0.69 0.68
 -5 11 -1 10.51 1.17
 -5 12 0 100.87 2.52
 -5 12 1 0.07 0.78
 -5 13 -1 42.93 1.9
 -5 13 1 26.99 1.64
 -5 14 -1 1.83 1.01
 -5 14 0 5.11 1.07
 -5 14 1 0.33 0.96
 -5 14 2 21.08 1.65
 -5 15 -1 12.86 1.51
 -5 15 0 13.7 1.53
 -5 15 1 6.11 1.24
 -5 15 2 5.95 1.18
 -5 15 3 17.6 1.71
 -5 16 -1 21.73 1.85
 -5 16 0 56.4 2.36
 -5 16 1 1.59 1.02
 -5 16 3 0.32 1.11
 -5 16 4 -0.79 1.27
 -5 17 1 3.49 1.23
 -4 3 -2 230.09 1.81
 -4 4 -2 177.9 1.84
 -4 5 -2 13.91 0.68
 -4 5 -1 41.29 1.08
 -4 6 -2 16.28 0.8
 -4 6 -1 41.3 1.16
 -4 8 -2 31.71 1.19
 -4 9 -2 10.58 0.9
 -4 9 -1 24.66 1.17
 -4 10 -2 3.14 0.76
 -4 10 -1 34.1 1.4
 -4 10 0 47.29 1.58
 -4 11 -2 22.23 1.34
 -4 11 -1 6.01 0.92
 -4 11 0 -0.15 0.55
 -4 12 -2 1.16 0.87
 -4 12 -1 1.41 0.84
 -4 12 0 28.26 1.47
 -4 12 1 54.32 1.89
 -4 13 -2 22.86 1.55
 -4 13 0 0.28 0.8
 -4 13 1 49.42 1.93
 -4 14 -2 4.9 1.1
 -4 14 -1 18.47 1.55
 -4 14 0 4.21 1.02
 -4 14 1 16.6 1.43
 -4 14 2 0.86 0.81
 -4 15 -2 124.7 3.08
 -4 15 -1 1.43 0.96
 -4 15 0 80.93 2.56
 -4 15 1 5.91 1.04
 -4 15 2 96.45 2.75
 -4 15 3 77.16 2.56
 -4 16 -2 0.08 1.06
 -4 16 -1 0.24 1.09
 -4 16 0 5.86 1.35
 -4 16 2 20.86 1.69
 -4 16 3 4.39 1.15
 -4 16 4 1.26 1.22
 -4 16 5 1.03 1.24
 -4 17 -1 6.71 1.45
 -4 17 0 6.34 1.27
 -4 17 1 29.87 1.97
 -4 17 2 33.72 2.05
 -4 17 3 15.86 1.63
 -4 17 4 5.49 1.23
 -4 18 0 -0.02 1.2
 -4 18 1 2.87 1.42
 -4 18 2 1.38 1.35
 -4 18 3 10.25 1.6
 -3 2 -2 3.17 0.3
 -3 3 -3 4.67 0.37
 -3 4 -3 49.2 1.06
 -3 4 -2 351.68 2.47
 -3 5 -3 26.74 0.85
 -3 5 -2 183.03 2.02
 -3 5 -1 10.47 0.59
 -3 6 -3 1.44 0.45
 -3 6 -2 6.74 0.59
 -3 6 -1 1.66 0.38
 -3 7 -3 0.89 0.49
 -3 7 -2 18.61 0.88
 -3 7 -1 69.44 1.44
 -3 9 -3 9.23 0.88
 -3 9 -1 12 0.87
 -3 10 -3 1.3 0.71
 -3 10 -2 21.06 1.16
 -3 10 -1 1.31 0.58
 -3 10 0 164.68 2.67
 -3 11 -4 40.04 1.7
 -3 11 -3 9.94 1.05
 -3 11 -2 34.02 1.45
 -3 11 -1 80.02 1.99
 -3 11 0 198.11 3.1
 -3 12 -4 47.24 1.88
 -3 12 -2 214.52 3.55
 -3 12 -1 0.44 0.64
 -3 12 0 58.58 1.82
 -3 12 1 1.38 0.58
 -3 13 -4 23.07 1.63
 -3 13 -3 0.52 0.93
 -3 13 -2 0.1 0.86
 -3 13 -1 2.39 0.75
 -3 13 0 0.1 0.73
 -3 13 1 84.58 2.25
 -3 13 2 165.1 3.22
 -3 14 -3 1.04 1.04
 -3 14 -2 1.1 0.91
 -3 14 -1 -0.59 0.66
 -3 14 0 104.36 2.6
 -3 14 1 53.5 1.93
 -3 14 2 0.7 0.85
 -3 14 3 5.08 0.95
 -3 15 -2 4.58 1.07
 -3 15 -1 59.81 2.24
 -3 15 0 42.98 1.94
 -3 15 1 6.43 1.03
 -3 15 2 43.37 1.9
 -3 15 3 3.87 1.11
 -3 15 4 1.24 1.05
 -3 15 5 54.57 2.19
 -3 16 -3 0.29 0.99
 -3 16 -2 26.03 1.83
 -3 16 -1 6.08 1.31
 -3 16 0 -0.58 0.89
 -3 16 1 28.61 1.78
 -3 16 2 12.35 1.45
 -3 16 3 16.38 1.57
 -3 16 4 3.86 1.06
 -3 16 6 0.76 1.02
 -3 17 -2 7.98 1.47
 -3 17 -1 -0.79 1.03
 -3 17 0 15.66 1.62
 -3 17 2 215.99 4.22
 -3 17 3 -0.69 0.95
 -3 17 4 103 2.93
 -3 17 5 -0.41 0.91
 -3 18 -2 9.36 1.64
 -3 18 -1 -0.29 1.02
 -3 18 0 24.66 1.9
 -3 18 1 14.45 1.69
 -3 18 2 -0.17 0.97
 -3 18 3 1.35 1.25
 -3 19 0 -0.01 1.11
 -3 19 1 0.22 1.32
 -3 19 2 2.27 1.22
 -3 19 3 0.61 1.29
 -2 1 -2 3.39 0.21
 -2 2 -3 109.99 1.11
 -2 3 -3 2.14 0.32
 -2 3 -2 127.27 1.31
 -2 4 -4 102.04 1.56
 -2 4 -3 0.24 0.3
 -2 4 -2 435.03 2.65
 -2 4 -1 100.96 1.26
 -2 5 -4 221.52 2.41
 -2 5 -3 6.85 0.56
 -2 5 -2 115.09 1.58
 -2 6 -4 253.21 2.8
 -2 6 -3 82.88 1.58
 -2 6 -2 190.83 2.18
 -2 6 -1 56.27 1.16
 -2 7 -3 -0.06 0.39
 -2 7 -2 151.52 2.13
 -2 7 -1 125.92 1.85
 -2 8 -1 96.75 1.73
 -2 8 0 74.23 1.5
 -2 9 -3 7.65 0.86
 -2 10 -3 49.66 1.63
 -2 10 -2 58.95 1.66
 -2 10 -1 -0.25 0.47
 -2 11 -5 0.56 0.85
 -2 11 -3 0.09 0.7
 -2 11 -2 98.65 2.21
 -2 11 -1 46.33 1.51
 -2 11 0 8.63 0.81
 -2 11 1 14.39 0.94
 -2 12 -5 45.12 2
 -2 12 -4 25.32 1.52
 -2 12 -3 0.03 0.64
 -2 12 -2 78.54 2.11
 -2 12 -1 65.85 1.88
 -2 12 0 195.85 3.1
 -2 12 1 -0.2 0.44
 -2 13 -4 104.46 2.75
 -2 13 -3 1.94 0.82
 -2 13 -2 40.2 1.73
 -2 13 -1 6.51 0.88
 -2 13 0 62.68 1.92
 -2 13 1 73.89 2.01
 -2 13 2 67.78 1.96
 -2 13 3 57.98 1.86
 -2 14 -4 15.31 1.58
 -2 14 -1 28.35 1.55
 -2 14 1 3.7 0.79
 -2 14 2 139.32 2.84
 -2 14 3 1.03 0.67
 -2 14 4 27.63 1.5
 -2 14 5 22.71 1.46
 -2 15 -4 5.57 1.24
 -2 15 -3 -1.03 0.81
 -2 15 -2 43.79 2.02
 -2 15 -1 3.77 0.89
 -2 15 0 57.09 2.09
 -2 15 1 0.86 0.7
 -2 15 2 16.55 1.35
 -2 15 3 -0.67 0.78
 -2 15 4 0.93 0.76
 -2 15 5 25.89 1.63
 -2 16 -3 1.07 1.08
 -2 16 -2 63.97 2.44
 -2 16 -1 19.45 1.59
 -2 16 0 86.85 2.61
 -2 16 1 -0.81 0.77
 -2 16 2 2 0.89
 -2 16 3 -0.11 0.86
 -2 16 4 42.41 1.92
 -2 16 5 25.47 1.62
 -2 17 -4 21.86 2
 -2 17 -3 1.1 1.26
 -2 17 -2 -0.59 1.2
 -2 17 -1 8.8 1.33
 -2 17 0 8.02 1.23
 -2 17 1 68.58 2.46
 -2 17 2 1.26 0.97
 -2 17 3 28.29 1.81
 -2 17 5 5.25 1.13
 -2 18 -3 4.76 1.38
 -2 18 -2 35.26 2.2
 -2 18 0 8.85 1.45
 -2 18 1 1.59 1.11
 -2 18 2 4.65 1.16
 -2 18 3 1.8 1.05
 -2 18 4 -1 0.99
 -2 18 5 50.41 2.21
 -2 19 -1 -0.5 1.27
 -2 19 0 49.79 2.47
 -2 19 1 8.41 1.38
 -2 19 2 16.45 1.76
 -2 19 3 0.09 1.06
 -2 19 4 0.21 1.22
 -2 20 0 5.78 1.6
 -2 20 1 0.24 1.28
 -2 20 2 36.91 2.32
 -1 1 -2 249.73 1.38
 -1 2 -3 1.27 0.27
 -1 2 -2 448.66 2.15
 -1 2 -1 71.18 0.76
 -1 3 -3 143.07 1.63
 -1 3 -2 141.87 1.4
 -1 3 -1 0.06 0.17
 -1 4 -4 36.36 1.03
 -1 4 -3 17.68 0.69
 -1 4 -2 458.62 2.74
 -1 4 -1 767.62 3.19
 -1 5 -4 10.83 0.74
 -1 5 -3 395.35 3.08
 -1 5 -2 83.96 1.31
 -1 5 -1 73.83 1.18
 -1 6 -4 454.93 3.86
 -1 6 -3 11.7 0.73
 -1 6 -2 9.19 0.58
 -1 6 -1 324.14 2.56
 -1 6 0 20.27 0.68
 -1 7 -3 27.18 1.04
 -1 7 -2 56.68 1.29
 -1 7 -1 18.66 0.76
 -1 8 -5 36.45 1.49
 -1 8 -2 309.97 3.14
 -1 8 -1 207.4 2.43
 -1 9 -5 26.92 1.42
 -1 9 -1 16.23 0.85
 -1 9 1 15.42 0.79
 -1 10 -4 7.72 0.94
 -1 10 -3 16.26 1.1
 -1 11 -5 0.65 0.78
 -1 11 -4 0.69 0.78
 -1 11 -3 0.84 0.66
 -1 11 -2 4.26 0.78
 -1 11 -1 59.53 1.66
 -1 11 3 0.37 0.49
 -1 12 -5 33.46 1.77
 -1 12 -4 15.09 1.32
 -1 12 -3 0.34 0.64
 -1 12 -2 29.2 1.4
 -1 12 -1 28.55 1.29
 -1 12 0 167.08 2.83
 -1 12 1 59.43 1.66
 -1 12 2 8.75 0.87
 -1 12 3 3.2 0.63
 -1 12 4 34.37 1.39
 -1 13 -5 12.4 1.53
 -1 13 -3 94.93 2.53
 -1 13 -2 0.23 0.65
 -1 13 -1 0.69 0.69
 -1 13 0 1.68 0.64
 -1 13 1 5.02 0.73
 -1 13 2 81.48 2.01
 -1 13 3 32.02 1.38
 -1 13 4 10.66 1
 -1 14 -5 9.75 1.41
 -1 14 -4 35.85 1.98
 -1 14 -2 318.02 4.57
 -1 14 -1 127.77 2.78
 -1 14 0 97.15 2.4
 -1 14 1 9.7 1.05
 -1 14 2 58.68 1.86
 -1 14 3 22.97 1.32
 -1 14 4 154.34 3.01
 -1 15 -5 -0.6 1.06
 -1 15 -4 0.99 1.18
 -1 15 -3 0.56 0.99
 -1 15 -2 2.44 1.06
 -1 15 -1 56.34 2.07
 -1 15 0 105.74 2.64
 -1 15 1 0.5 0.85
 -1 15 2 16.82 1.27
 -1 15 3 3.32 0.86
 -1 15 4 14.98 1.27
 -1 16 -5 18.4 1.89
 -1 16 -4 81.51 2.86
 -1 16 -3 0.45 0.98
 -1 16 -2 12.9 1.51
 -1 16 -1 3 0.94
 -1 16 0 0.25 0.78
 -1 16 1 25.62 1.58
 -1 16 2 25.34 1.56
 -1 16 3 27.64 1.61
 -1 16 4 3.68 0.95
 -1 17 -4 4.41 1.45
 -1 17 -1 2.95 1.08
 -1 17 0 0.01 1.05
 -1 17 1 4.51 1.11
 -1 17 2 36.49 1.92
 -1 17 3 4.44 1.14
 -1 17 4 23.29 1.61
 -1 18 -3 4.84 1.53
 -1 18 -2 132.39 3.58
 -1 18 -1 50.07 2.34
 -1 18 0 15.15 1.61
 -1 18 1 4.56 1.23
 -1 18 2 20.2 1.7
 -1 18 3 4.72 1.23
 -1 18 4 54.96 2.2
 -1 19 -3 0.14 1.2
 -1 19 -2 1.15 1.34
 -1 19 -1 43.43 2.38
 -1 19 0 6.5 1.29
 -1 19 1 -0.42 0.97
 -1 19 2 5.09 1.38
 -1 19 3 2.75 1.22
 -1 19 4 0.72 1.12
 -1 20 -1 1.12 1.44
 -1 20 0 17.11 1.92
 -1 20 1 5.71 1.49
 -1 20 2 42.83 2.3
 -1 20 3 41.38 2.25
 0 1 -2 747.55 2.84
 0 1 -1 1216.65 2.67
 0 2 -3 919.78 4.11
 0 2 -2 262.87 1.86
 0 2 0 220.59 1.06
 0 3 -3 97.73 1.49
 0 3 -2 556.43 2.91
 0 3 -1 1434.24 3.87
 0 3 0 -0.01 0.15
 0 4 -4 35.33 1.1
 0 4 -3 130.77 1.76
 0 4 -2 394.51 2.67
 0 4 -1 7.33 0.41
 0 4 0 9848.4 10.23
 0 5 -4 303.98 3.17
 0 5 -3 3.09 0.45
 0 5 -2 313.73 2.57
 0 5 -1 181.41 1.78
 0 5 0 3.47 0.35
 0 6 -4 352.65 3.61
 0 6 -3 319.47 3.11
 0 6 -2 595.76 3.79
 0 6 0 293.92 2.26
 0 6 1 100.82 1.36
 0 7 -5 17.62 1.12
 0 7 -3 48.74 1.36
 0 7 -2 96.18 1.71
 0 7 0 0.06 0.29
 0 8 -5 12.21 1.11
 0 8 -2 27.67 1.04
 0 9 -5 2.16 0.74
 0 9 -4 283.32 3.79
 0 9 2 67.47 1.37
 0 9 3 8.09 0.64
 0 9 4 277.18 2.72
 0 10 -6 20.74 1.55
 0 10 -5 26.75 1.53
 0 10 -4 173.85 3.22
 0 10 -3 107.53 2.3
 0 10 0 2.56 0.49
 0 10 1 15.06 0.83
 0 10 3 99.09 1.84
 0 11 -6 34.22 1.91
 0 11 -5 14.8 1.37
 0 11 -4 0.17 0.75
 0 12 -6 4.86 1.2
 0 12 -5 21.36 1.61
 0 12 -4 124.3 2.9
 0 12 -3 169.71 3.26
 0 12 -2 272.72 3.79
 0 12 -1 15.99 1.07
 0 12 0 8.07 0.81
 0 12 1 14.83 0.98
 0 12 2 275.16 3.33
 0 13 -6 37.58 2.11
 0 13 -5 5.08 1.26
 0 13 -4 115.79 2.95
 0 13 -3 25.78 1.52
 0 13 -2 27.11 1.46
 0 13 -1 -0.1 0.49
 0 13 0 0.51 0.64
 0 13 1 0.22 0.55
 0 13 2 26.47 1.24
 0 13 3 27.04 1.24
 0 14 -6 2 1.16
 0 14 -4 6.76 1.26
 0 14 -2 1.52 0.83
 0 14 0 88.06 2.27
 0 14 1 14.32 1.14
 0 14 2 1.97 0.67
 0 15 -6 15.88 1.89
 0 15 -5 9.48 1.61
 0 15 -4 0.93 1.03
 0 15 -3 -0.28 0.83
 0 15 0 -0.1 0.82
 0 15 1 46.18 1.8
 0 15 2 0.52 0.8
 0 15 3 0.11 0.77
 0 16 -5 17.64 1.94
 0 16 -4 77.17 2.85
 0 16 -3 84.83 2.84
 0 16 -1 13.25 1.37
 0 16 0 49.95 2.03
 0 16 2 221.97 3.81
 0 16 3 85.03 2.35
 0 17 -5 3.22 1.5
 0 17 -4 18.69 1.94
 0 17 -3 26.11 2.03
 0 17 -2 15.48 1.69
 0 17 -1 0.07 1.09
 0 17 0 0.58 1.08
 0 17 1 1.21 1.06
 0 17 2 14.98 1.43
 0 17 3 27.04 1.69
 0 18 -4 7.39 1.61
 0 18 -3 3.28 1.33
 0 18 -2 44.47 2.38
 0 18 0 132.5 3.37
 0 18 1 4.18 1.09
 0 18 3 2.46 1.03
 0 19 -2 1.26 1.43
 0 19 -1 8.89 1.49
 0 19 0 1.52 1.17
 0 19 2 -0.84 0.95
 0 20 -2 53.62 2.76
 0 20 -1 2.85 1.3
 0 20 0 12.39 1.63
 0 20 2 56.97 2.46
 1 2 -2 4308.32 8.51
 1 2 -1 -0.14 0.18
 1 2 0 1879.57 3.57
 1 3 -3 233.88 2.44
 1 3 -2 326.7 2.52
 1 3 -1 35.07 0.75
 1 3 0 1882.89 4.12
 1 3 1 0.11 0.13
 1 4 -3 171.3 2.21
 1 4 -2 427.89 3.01
 1 4 -1 382.38 2.48
 1 4 0 1833.59 4.62
 1 4 1 766.65 2.6
 1 4 2 457.31 1.81
 1 4 3 16.89 0.37
 1 5 -4 119.53 2.16
 1 5 -3 287.92 2.96
 1 5 -2 382.07 3.03
 1 5 -1 66.32 1.2
 1 5 0 0.49 0.28
 1 5 1 74.56 1
 1 5 2 87.07 0.98
 1 5 3 390.19 1.87
 1 6 -4 0.19 0.5
 1 6 -3 72.06 1.58
 1 6 0 20.09 0.67
 1 6 1 325.53 2.24
 1 7 -5 7.7 0.96
 1 7 -3 49.39 1.43
 1 8 -5 1.48 0.68
 1 8 -4 180.09 3.01
 1 8 2 314.43 2.55
 1 8 3 2.17 0.37
 1 9 -4 4.68 0.85
 1 9 -1 16.35 0.86
 1 9 0 1.32 0.4
 1 9 1 17.37 0.79
 1 9 2 8.66 0.6
 1 9 3 233.65 2.31
 1 10 -5 0.37 0.82
 1 10 -4 111.37 2.58
 1 10 0 77.41 1.66
 1 10 1 226.03 2.69
 1 10 2 250.81 2.71
 1 11 -6 95.76 2.89
 1 11 -5 45.37 1.98
 1 11 -4 59.43 2.05
 1 11 -3 0.65 0.63
 1 12 -6 147.17 3.57
 1 12 -5 1.15 1.07
 1 12 -3 3.09 0.77
 1 12 -1 59.67 1.78
 1 12 0 168.08 2.8
 1 12 1 28.36 1.21
 1 13 -6 6.95 1.4
 1 13 -5 0.38 0.91
 1 13 -4 11.9 1.38
 1 13 -3 32.97 1.68
 1 13 -2 86.92 2.36
 1 13 -1 4.52 0.8
 1 13 0 2.11 0.64
 1 13 1 0.89 0.58
 1 13 2 0.69 0.54
 1 14 -6 1.24 1.27
 1 14 -5 0.08 1.03
 1 14 -4 150.68 3.54
 1 14 -3 21.38 1.57
 1 14 -2 59.96 2.12
 1 14 -1 11.92 1.16
 1 14 0 94.01 2.35
 1 14 1 133.67 2.75
 1 14 2 330 4.02
 1 15 -6 26.25 2.19
 1 15 -5 70.01 2.83
 1 15 -4 16.7 1.71
 1 15 -3 2.27 1.04
 1 15 -2 15.31 1.46
 1 15 0 109.95 2.67
 1 15 1 59.05 1.96
 1 15 2 1.45 0.74
 1 16 -6 16.82 2.06
 1 16 -5 0.87 1.14
 1 16 -3 28.45 1.97
 1 16 -2 26.4 1.8
 1 16 -1 25.64 1.67
 1 16 0 -0.77 0.89
 1 16 1 3.23 0.92
 1 16 2 13.92 1.3
 1 17 -5 4.55 1.61
 1 17 -4 22.27 2.05
 1 17 -2 38.84 2.13
 1 17 -1 3.22 1.11
 1 17 1 2.96 0.98
 1 17 2 0.71 0.91
 1 18 -4 57.72 2.82
 1 18 -3 4.97 1.33
 1 18 -2 19.23 1.87
 1 18 -1 5.2 1.28
 1 18 0 17.57 1.73
 1 18 1 43.78 2.13
 1 18 2 131.35 3.12
 1 19 -3 3.06 1.5
 1 19 -2 7.62 1.45
 1 19 -1 0.14 1.32
 1 19 0 8.01 1.35
 1 19 1 41.76 2.19
 1 19 2 2.37 1.06
 1 20 -2 44.01 2.63
 1 20 -1 6.57 1.52
 1 20 0 15.93 1.89
 1 20 1 1.62 1.31
 2 3 -1 303.02 2.4
 2 3 0 700.41 3.04
 2 4 -2 3.43 0.47
 2 4 -1 3.82 0.46
 2 4 0 85.75 1.19
 2 4 1 105.49 1.07
 2 5 -2 16.56 0.8
 2 5 -1 7.04 0.53
 2 5 0 0.35 0.23
 2 5 1 45.49 0.82
 2 5 2 115.28 0.98
 2 6 2 186.2 1.52
 2 7 -2 236.37 2.89
 2 7 -1 84.33 1.63
 2 8 -5 113.57 2.75
 2 8 -4 85.44 2.19
 2 8 -2 27.5 1.15
 2 8 -1 1.33 0.41
 2 8 0 74.82 1.53
 2 8 1 99.19 1.62
 2 8 2 1.15 0.33
 2 9 -5 4.93 0.93
 2 9 -4 219.23 3.64
 2 9 -3 78.99 2.02
 2 9 -1 45.91 1.38
 2 9 0 89.02 1.83
 2 9 1 0.66 0.36
 2 10 -5 0.66 0.88
 2 10 -4 159.54 3.16
 2 10 -3 8.29 0.93
 2 10 1 0.38 0.45
 2 11 -5 48.61 2.1
 2 11 -4 30.48 1.65
 2 11 -3 1.38 0.63
 2 11 -2 4.47 0.73
 2 11 -1 13.28 0.99
 2 12 -5 80.09 2.69
 2 12 -4 111.86 2.93
 2 12 -3 -0.65 0.73
 2 12 -1 0.08 0.63
 2 13 -6 73.31 2.92
 2 13 -5 8.57 1.34
 2 13 -4 85.92 2.71
 2 13 -3 57.45 2.15
 2 13 -2 67.53 2.17
 2 13 -1 74.49 2.16
 2 13 0 63.29 1.92
 2 13 1 6.12 0.84
 2 14 -6 0.24 1.14
 2 14 -5 19.92 1.88
 2 14 -4 26.53 1.87
 2 14 -2 143.16 3.16
 2 14 -1 3.24 0.96
 2 14 0 10.73 1.15
 2 14 1 28.81 1.41
 2 15 -6 128.03 3.89
 2 15 -5 26.45 2.14
 2 15 -4 0.53 1.01
 2 15 -3 -0.01 0.82
 2 15 -2 15.07 1.49
 2 15 -1 0.91 0.85
 2 15 0 55.33 2.04
 2 16 -6 6.8 1.82
 2 16 -5 22.98 2.12
 2 16 -4 43.32 2.4
 2 16 -3 1.25 1.24
 2 16 -2 2.28 1.19
 2 16 -1 -1.01 0.83
 2 16 1 19.11 1.49
 2 17 -5 5.05 1.48
 2 17 -4 1.69 1.34
 2 17 -3 30.39 2.11
 2 17 -2 1.22 1.21
 2 17 -1 66.08 2.52
 2 17 0 7.98 1.32
 2 17 1 7.36 1.25
 2 18 -3 1.47 1.18
 2 18 -1 -0.16 1.19
 2 18 0 7.61 1.3
 2 18 1 61.08 2.38
 2 19 -3 -0.07 1.21
 2 19 -2 18.49 2
 2 19 -1 11.4 1.56
 2 19 1 -0.07 0.97
 2 20 -2 37.69 2.58
 2 20 -1 -0.65 1.34
 2 20 0 5.74 1.37
 3 6 -2 171.75 2.6
 3 6 -1 127.86 2.08
 3 6 0 49.65 1.17
 3 7 -2 23.22 1.11
 3 7 -1 0.87 0.39
 3 7 0 255.19 2.7
 3 7 1 73.43 1.32
 3 8 -4 112.05 2.67
 3 8 -3 120.62 2.51
 3 8 -1 24.49 1.09
 3 8 0 214.94 2.65
 3 8 1 0.16 0.33
 3 9 -4 53.22 1.97
 3 9 0 59.55 1.53
 3 10 -4 7.66 1.14
 3 10 -2 2.98 0.76
 3 11 -4 2.41 0.9
 3 11 -3 7.51 1
 3 11 -2 94.43 2.37
 3 12 -5 14.75 1.63
 3 12 -4 45.07 2.09
 3 12 -3 63.86 2.24
 3 12 -2 0.92 0.73
 3 12 -1 1.24 0.74
 3 12 0 61.42 1.82
 3 13 -5 2.55 1.32
 3 13 -4 39.82 2.09
 3 13 -2 162.24 3.31
 3 13 -1 84.88 2.36
 3 13 0 1.06 0.69
 3 14 -5 23.69 2.04
 3 14 -4 2.55 1.32
 3 14 -2 1.86 0.97
 3 14 -1 53.35 2.05
 3 14 0 105.79 2.56
 3 15 -5 57.47 2.78
 3 15 -4 1.71 1.38
 3 15 -3 3.74 1.29
 3 15 -1 6.42 1.24
 3 15 0 43.34 1.9
 3 16 -5 3.91 1.49
 3 16 -2 9.93 1.38
 3 16 -1 30.43 1.93
 3 16 0 -0.42 0.92
 3 17 -5 -0.45 1.56
 3 17 -4 95.71 3.43
 3 17 -3 -0.18 1.3
 3 17 -2 212.87 4.4
 3 17 -1 36.44 2.13
 3 17 0 15.18 1.59
 3 18 -4 1.57 1.6
 3 18 -3 -0.42 1.13
 3 18 -1 13.08 1.63
 3 18 0 27.47 1.9
 3 19 -3 0 1.23
 3 19 -2 4.12 1.59
 3 19 -1 1.26 1.18
 4 10 -2 2.8 0.85
 4 10 -1 79.82 2.09
 4 11 -3 168.33 3.51
 4 11 -2 14.29 1.31
 4 11 -1 21.97 1.31
 4 12 -3 2.39 1.07
 4 12 -2 40.66 1.88
 4 12 -1 56.49 1.95
 4 13 -4 77.67 2.92
 4 13 -3 21.9 1.76
 4 13 -2 199.72 3.95
 4 14 -4 83.18 3.06
 4 14 -3 19.84 1.78
 4 14 -2 0.71 1.02
 4 15 -4 53.14 2.7
 4 15 -3 76.33 2.85
 4 15 -2 94.96 2.96
 4 15 -1 5.64 1.1
 4 16 -3 4.35 1.49
 4 16 -2 22.16 1.88
 4 16 -1 36 2.02
 4 17 -3 12.3 1.78
 4 17 -1 28.87 1.97
 4 18 -3 8.14 1.72
 4 18 -2 1.01 1.31
 4 18 -1 3.62 1.27
 -8 2 7 3.17 0.82
 -8 3 7 117.12 2.96
 -8 4 6 131.55 3.01
 -8 4 7 0.12 0.74
 -8 5 6 7.43 1.06
 -8 6 6 31.65 1.72
 -8 7 5 1.9 0.75
 -8 7 6 4 0.91
 -7 -2 5 8.45 0.84
 -7 -1 5 66.11 1.87
 -7 0 5 33.05 1.41
 -7 0 6 0.25 0.52
 -7 1 5 65.74 1.95
 -7 1 6 13.48 1.2
 -7 1 7 2.41 0.76
 -7 1 8 129.34 3.43
 -7 2 4 391.27 4.19
 -7 2 5 9.77 0.92
 -7 2 6 14.53 1.2
 -7 2 7 3.15 0.9
 -7 3 3 0.98 0.42
 -7 3 4 28.16 1.28
 -7 3 5 51.69 1.82
 -7 3 6 -0.15 0.56
 -7 3 7 -0.43 0.7
 -7 3 8 102.59 3.14
 -7 4 3 11.73 0.85
 -7 4 4 12.42 0.99
 -7 4 5 17.08 1.19
 -7 4 6 41.54 1.87
 -7 4 7 83.95 2.68
 -7 4 8 14.04 1.47
 -7 5 3 5.99 0.75
 -7 5 4 29.63 1.44
 -7 5 5 44.01 1.81
 -7 5 6 3.9 0.9
 -7 5 7 16.43 1.49
 -7 6 2 36.21 1.39
 -7 6 3 2.68 0.63
 -7 6 4 137.96 2.91
 -7 6 6 1.55 0.73
 -7 6 7 23.01 1.67
 -7 7 2 14.11 1.04
 -7 7 3 7.39 0.84
 -7 7 5 14.86 1.29
 -7 7 6 14.52 1.38
 -7 7 7 -0.32 0.69
 -7 8 2 0.65 0.54
 -7 8 3 5.88 0.88
 -7 8 4 9.53 1.04
 -7 8 5 1.57 0.78
 -7 8 6 62.24 2.4
 -7 8 7 40.97 2.06
 -7 9 2 26.51 1.41
 -7 9 4 10.37 1.16
 -7 9 5 24.23 1.53
 -7 9 6 4.65 0.98
 -7 10 2 5.22 0.91
 -7 10 3 2.16 0.73
 -7 10 5 73.43 2.54
 -7 10 6 49.34 2.25
 -7 11 1 14.25 1.27
 -7 11 2 21.03 1.46
 -7 11 3 16.69 1.35
 -7 11 5 0.47 0.76
 -7 12 2 11.47 1.25
 -7 12 3 3.88 0.92
 -7 12 4 -0.29 0.66
 -7 12 5 0.9 0.87
 -7 13 2 -0.29 0.67
 -7 13 3 2.83 0.91
 -6 -2 3 0.05 0.26
 -6 -1 3 12.35 0.68
 -6 0 2 1.54 0.3
 -6 0 3 -0.31 0.26
 -6 0 4 43.77 1.42
 -6 1 2 1.57 0.32
 -6 1 4 6.67 0.73
 -6 1 5 10.69 0.96
 -6 2 2 12.85 0.69
 -6 2 4 12.61 0.91
 -6 3 1 3.24 0.44
 -6 3 3 49.28 1.46
 -6 3 5 66.43 2.05
 -6 3 6 91.27 2.58
 -6 4 3 21.03 1.07
 -6 4 4 25.27 1.23
 -6 4 5 2.64 0.64
 -6 4 6 73.93 2.41
 -6 4 7 0.42 0.67
 -6 5 1 2.69 0.5
 -6 5 2 113.2 2.15
 -6 5 3 1.2 0.5
 -6 5 4 43.87 1.61
 -6 5 5 4.22 0.76
 -6 5 6 13.38 1.31
 -6 5 7 3.57 0.9
 -6 5 8 48.19 2.34
 -6 6 0 2.76 0.57
 -6 6 1 0.99 0.48
 -6 6 3 1.51 0.57
 -6 6 4 52.59 1.83
 -6 6 6 0.86 0.71
 -6 6 7 0.62 0.71
 -6 6 8 10.59 1.46
 -6 7 0 42.08 1.52
 -6 7 1 3.5 0.59
 -6 7 2 150.25 2.73
 -6 7 3 52.18 1.74
 -6 7 5 77.92 2.38
 -6 7 7 25.76 1.66
 -6 7 8 40.83 2.22
 -6 8 0 2.67 0.65
 -6 8 1 0.68 0.58
 -6 8 2 1.22 0.55
 -6 8 4 1.04 0.66
 -6 8 5 6.39 1
 -6 8 6 -0.16 0.6
 -6 8 7 0.71 0.72
 -6 8 8 27.75 1.95
 -6 9 0 278.19 4.1
 -6 9 1 8.9 1
 -6 9 2 214.16 3.6
 -6 9 3 0.64 0.59
 -6 9 4 123.2 2.96
 -6 9 5 25.74 1.63
 -6 9 6 49.69 2.13
 -6 9 7 8.4 1.27
 -6 10 1 9.12 1.05
 -6 10 2 65.23 2.14
 -6 10 4 42.76 1.89
 -6 10 5 7.92 1.13
 -6 10 6 2.49 0.89
 -6 10 7 -0.04 0.77
 -6 11 0 1.22 0.66
 -6 11 1 1.36 0.63
 -6 11 2 54.82 2.08
 -6 11 3 25.61 1.54
 -6 11 4 4.45 0.99
 -6 11 5 34.07 1.84
 -6 11 6 1.92 0.85
 -6 12 0 13.69 1.3
 -6 12 1 1.57 0.71
 -6 12 2 2.35 0.85
 -6 12 3 37.57 1.85
 -6 12 4 2.45 0.8
 -6 13 0 128.46 3.24
 -6 13 1 7.62 1.16
 -6 13 2 83.48 2.7
 -6 13 3 1.74 0.76
 -6 14 0 -0.29 0.64
 -6 14 1 21.03 1.6
 -6 14 2 22.71 1.7
 -6 14 4 7.83 1.28
 -6 15 1 -0.46 0.7
 -6 15 2 5.89 1.17
 -6 15 3 1.66 0.83
 -5 -4 2 22.27 0.57
 -5 -3 2 106.88 1.29
 -5 -2 2 8.83 0.46
 -5 -1 1 97.09 0.96
 -5 -1 2 447.26 2.93
 -5 0 1 15.36 0.5
 -5 0 3 435.09 3.67
 -5 1 2 449.19 3.33
 -5 1 3 14.08 0.78
 -5 2 0 427.14 2.96
 -5 2 1 0.13 0.24
 -5 2 2 8.25 0.6
 -5 2 4 14.37 0.92
 -5 3 2 105.61 1.87
 -5 4 1 5.09 0.56
 -5 4 4 3.26 0.61
 -5 4 5 1.13 0.53
 -5 5 3 28.83 1.2
 -5 5 4 67.92 1.95
 -5 5 5 0.48 0.56
 -5 5 7 61.43 2.37
 -5 6 2 15.62 0.93
 -5 6 4 1.98 0.55
 -5 6 5 3.59 0.7
 -5 6 6 15.25 1.35
 -5 6 7 18.74 1.56
 -5 6 8 6.97 1.11
 -5 7 0 32.06 1.28
 -5 7 1 34.95 1.3
 -5 7 2 3.26 0.65
 -5 7 3 3.37 0.64
 -5 7 4 329.29 4.35
 -5 7 5 1.34 0.6
 -5 7 7 1.28 0.74
 -5 7 8 59.21 2.56
 -5 8 1 0.82 0.46
 -5 8 2 40.33 1.45
 -5 8 5 3.04 0.74
 -5 8 6 81.25 2.64
 -5 8 7 0.48 0.77
 -5 8 8 57.15 2.57
 -5 9 0 46.96 1.68
 -5 9 1 72.32 2.03
 -5 9 2 23.51 1.23
 -5 9 3 8.76 0.95
 -5 9 4 7.74 0.88
 -5 9 5 -0.24 0.63
 -5 9 7 47.56 2.26
 -5 9 8 4.11 1.1
 -5 10 0 49.61 1.77
 -5 10 1 0.32 0.54
 -5 10 2 17.21 1.19
 -5 10 3 65.09 2.08
 -5 10 4 4.29 0.84
 -5 10 6 20.48 1.56
 -5 11 1 14.96 1.13
 -5 11 2 29.71 1.5
 -5 11 4 315.22 4.88
 -5 11 5 3.78 0.89
 -5 11 6 166.86 3.87
 -5 11 7 0.35 0.81
 -5 12 1 0.25 0.69
 -5 12 2 33.91 1.62
 -5 12 4 1.65 0.81
 -5 12 5 25.91 1.73
 -5 12 7 1.35 1
 -5 13 0 3.82 0.9
 -5 13 1 26.7 1.66
 -5 13 2 29.23 1.69
 -5 13 3 -0.47 0.57
 -5 13 5 0.91 0.92
 -5 13 6 19.19 1.63
 -5 14 0 4.91 1.06
 -5 14 1 0.6 0.72
 -5 14 2 20.19 1.58
 -5 14 3 49.46 2.1
 -5 14 4 8.78 1.19
 -5 15 0 15 1.47
 -5 15 1 4.7 0.98
 -5 15 2 3.98 0.95
 -5 15 3 17.92 1.56
 -5 15 4 79.91 2.72
 -5 15 5 4.41 1.01
 -5 16 1 0.97 0.8
 -5 16 2 14.06 1.49
 -5 16 3 0.18 0.77
 -5 17 2 66.22 2.71
 -4 -3 1 30.02 0.41
 -4 -2 1 601.32 2.21
 -4 -1 1 9.47 0.37
 -4 0 0 4.27 0.27
 -4 0 1 0.01 0.15
 -4 0 2 9 0.5
 -4 1 0 877.48 3.54
 -4 1 1 8.94 0.46
 -4 1 2 16.13 0.68
 -4 2 0 26.25 0.75
 -4 2 1 596.45 3.5
 -4 2 2 5.77 0.51
 -4 3 0 904.48 4.53
 -4 3 1 28.75 0.86
 -4 3 2 164.33 2.17
 -4 3 3 320.76 3.38
 -4 4 0 16.02 0.73
 -4 4 1 25.12 0.87
 -4 4 2 23.84 0.92
 -4 4 3 -0.05 0.34
 -4 5 0 195.01 2.5
 -4 5 1 11.05 0.65
 -4 5 2 189.26 2.61
 -4 5 4 11.12 0.88
 -4 6 9 0.3 0.85
 -4 7 3 281.46 3.64
 -4 7 5 59.37 2.04
 -4 7 6 162.37 3.46
 -4 8 -1 3.66 0.61
 -4 8 0 33.25 1.32
 -4 8 2 37.29 1.38
 -4 8 3 0.3 0.55
 -4 8 4 182.14 3.27
 -4 8 5 1.2 0.59
 -4 8 6 0.77 0.65
 -4 8 7 31.19 1.85
 -4 8 8 -0.23 0.8
 -4 9 -1 26.99 1.32
 -4 9 0 9.84 0.87
 -4 9 2 356.56 4.23
 -4 9 3 2.89 0.61
 -4 9 4 109.55 2.59
 -4 9 6 1.86 0.72
 -4 9 7 -0.21 0.72
 -4 10 -1 34.41 1.56
 -4 10 0 47.57 1.66
 -4 10 2 2.16 0.64
 -4 10 3 16.47 1.15
 -4 10 4 102.17 2.64
 -4 10 5 13.09 1.18
 -4 10 6 35.12 1.87
 -4 10 7 42.61 2.1
 -4 10 8 1.74 0.95
 -4 11 0 -0.28 0.48
 -4 11 1 19.29 1.22
 -4 11 2 14.29 1.07
 -4 11 3 169.42 3.3
 -4 11 4 -0.3 0.47
 -4 11 5 27.81 1.68
 -4 11 6 0.28 0.7
 -4 11 7 2.31 0.98
 -4 11 8 1.27 0.87
 -4 12 -1 1.24 0.78
 -4 12 0 29.92 1.56
 -4 12 1 56.64 2
 -4 12 3 1.47 0.71
 -4 12 4 33.35 1.76
 -4 12 5 0.43 0.66
 -4 12 6 5.8 1.05
 -4 13 -1 19.69 1.51
 -4 13 0 0.06 0.57
 -4 13 1 48.39 1.98
 -4 13 2 193.6 3.68
 -4 13 3 20.44 1.4
 -4 13 5 20 1.6
 -4 13 6 2.51 0.94
 -4 13 7 2.01 1.12
 -4 14 -1 17.55 1.47
 -4 14 0 3.61 0.82
 -4 14 1 15.99 1.41
 -4 14 2 -0.05 0.58
 -4 14 3 18.82 1.44
 -4 14 5 17.17 1.49
 -4 14 6 22.78 1.71
 -4 15 0 77.88 2.7
 -4 15 1 5.35 1.02
 -4 15 2 101.72 2.97
 -4 15 3 72.04 2.52
 -4 15 5 4.48 1.03
 -4 15 6 50.21 2.38
 -4 16 0 4.25 1.04
 -4 16 1 34.89 1.91
 -4 16 3 2 0.86
 -4 16 4 0.66 0.78
 -4 16 5 0.69 0.95
 -4 17 0 4.95 1.11
 -4 17 1 26.15 1.72
 -4 17 2 34.31 2.03
 -4 17 3 14.85 1.45
 -4 17 4 3.77 1.08
 -4 18 0 0.11 0.88
 -4 18 1 2.57 1.03
 -4 18 2 1.55 0.96
 -4 18 3 9.9 1.38
 -3 -1 0 227.01 0.99
 -3 -1 1 307.83 1.81
 -3 0 0 -0.08 0.09
 -3 0 1 433.02 2.34
 -3 1 0 230.12 1.66
 -3 1 1 305.34 2.14
 -3 2 0 3.2 0.31
 -3 2 2 787.89 4.27
 -3 3 -1 23.16 0.79
 -3 3 0 27.56 0.74
 -3 3 1 88.26 1.39
 -3 3 2 165.35 2.09
 -3 4 -1 0.12 0.24
 -3 4 1 212.49 2.28
 -3 4 2 61 1.35
 -3 5 -1 10.34 0.66
 -3 5 0 272.37 2.69
 -3 5 1 268.66 2.73
 -3 5 2 338.19 3.22
 -3 5 3 32.57 1.16
 -3 6 -1 1.71 0.41
 -3 6 1 123.66 1.98
 -3 6 2 176.23 2.49
 -3 7 1 1.01 0.34
 -3 7 4 75.51 2
 -3 7 7 5.41 0.96
 -3 8 4 103.07 2.35
 -3 8 5 76.27 2.25
 -3 8 7 0.17 0.62
 -3 8 8 29.61 1.9
 -3 9 -1 10.32 0.84
 -3 9 2 0.35 0.44
 -3 9 3 3.62 0.61
 -3 9 4 52.65 1.78
 -3 9 8 0.85 0.77
 -3 10 -1 2.09 0.55
 -3 10 0 164.08 2.94
 -3 10 1 122 2.43
 -3 10 2 1.78 0.5
 -3 10 4 9.15 0.94
 -3 10 5 17.54 1.19
 -3 10 6 55.38 2.13
 -3 10 7 0.79 0.71
 -3 10 8 29.46 1.83
 -3 11 -1 80.79 2.26
 -3 11 0 198.67 3.35
 -3 11 1 3.67 0.6
 -3 11 4 1.47 0.57
 -3 11 5 64.53 2.18
 -3 11 7 6.13 1.09
 -3 12 -1 0.81 0.68
 -3 12 0 56.46 1.94
 -3 12 2 0.96 0.47
 -3 12 3 59.77 2
 -3 12 5 14.17 1.32
 -3 12 6 4.01 0.89
 -3 13 -1 2.23 0.73
 -3 13 0 0.83 0.68
 -3 13 3 -0.17 0.46
 -3 13 4 39.01 1.85
 -3 13 5 2.08 0.86
 -3 13 6 35.28 1.93
 -3 13 7 89.74 2.94
 -3 14 -1 0.66 0.65
 -3 14 2 0.74 0.63
 -3 14 3 3.23 0.8
 -3 14 4 1.45 0.72
 -3 14 5 22.37 1.53
 -3 14 6 45.46 2.2
 -3 14 7 0.4 0.81
 -3 15 -1 64.78 2.49
 -3 15 1 4.34 0.94
 -3 15 2 42.39 1.91
 -3 15 4 2.67 0.93
 -3 15 5 51.46 2.22
 -3 15 6 45.56 2.18
 -3 16 -1 4 0.93
 -3 16 0 -0.75 0.59
 -3 16 1 27.31 1.68
 -3 16 2 11.16 1.25
 -3 16 3 17.66 1.49
 -3 16 4 3.11 0.85
 -3 16 6 0.47 0.77
 -3 17 0 11.47 1.28
 -3 17 1 34.54 1.94
 -3 17 3 0.29 0.84
 -3 17 5 -0.7 0.67
 -3 18 0 25.58 1.82
 -3 18 1 13.42 1.49
 -3 18 2 0.66 0.8
 -3 18 3 -0.04 0.8
 -3 18 4 0.7 0.98
 -3 19 0 0.03 0.93
 -3 19 1 0.38 0.85
 -3 19 2 3.28 1.16
 -3 19 3 -0.64 0.83
 -2 1 1 70.89 0.97
 -2 2 -1 280.15 2.08
 -2 2 0 382.62 2.13
 -2 3 -1 376.54 2.66
 -2 3 0 697.26 3.24
 -2 3 1 313.05 2.34
 -2 4 -1 100.56 1.52
 -2 4 0 84.04 1.28
 -2 4 1 3.68 0.35
 -2 4 2 3.6 0.36
 -2 5 0 0.41 0.22
 -2 5 1 7.59 0.52
 -2 5 2 16.52 0.72
 -2 6 0 574.19 3.84
 -2 7 -1 124.74 2.08
 -2 7 3 9.82 0.74
 -2 7 5 67.85 1.99
 -2 7 9 -0.38 0.73
 -2 8 2 27.35 1.09
 -2 8 6 0.08 0.5
 -2 8 7 28.67 1.65
 -2 8 8 0.42 0.7
 -2 9 4 210.3 3.31
 -2 9 5 4.86 0.76
 -2 9 6 76.58 2.39
 -2 9 7 0 0.64
 -2 9 8 0.82 0.74
 -2 10 -1 0.7 0.43
 -2 10 2 634.93 5.33
 -2 10 3 9.65 0.87
 -2 10 5 0.18 0.48
 -2 10 7 55.21 2.21
 -2 11 -1 43.49 1.57
 -2 11 2 3.71 0.57
 -2 11 4 30.87 1.46
 -2 11 5 48.61 1.88
 -2 11 6 36.34 1.74
 -2 11 7 0.92 0.74
 -2 11 8 1.59 0.81
 -2 12 1 0.46 0.44
 -2 12 2 14.67 1.04
 -2 12 3 -0.05 0.41
 -2 12 4 115.17 2.73
 -2 12 7 15.58 1.43
 -2 13 -1 5.31 0.86
 -2 13 0 59.78 1.96
 -2 13 1 72.66 2.11
 -2 13 2 62.56 1.96
 -2 13 4 87.08 2.47
 -2 13 6 74.09 2.52
 -2 13 7 -0.78 0.8
 -2 14 -1 28.28 1.61
 -2 14 1 2.97 0.66
 -2 14 2 127.56 2.84
 -2 14 3 1.03 0.68
 -2 14 4 25.91 1.54
 -2 14 5 22.19 1.51
 -2 14 6 0.05 0.81
 -2 14 7 20.46 1.61
 -2 15 -1 4.17 0.88
 -2 15 1 -0.16 0.64
 -2 15 2 14.71 1.22
 -2 15 3 0.06 0.54
 -2 15 4 -0.38 0.55
 -2 15 6 133.32 3.36
 -2 16 1 0.05 0.6
 -2 16 2 1.68 0.74
 -2 16 3 0.3 0.61
 -2 16 4 41.09 1.9
 -2 16 5 24.89 1.65
 -2 16 6 5.39 1.03
 -2 17 1 62.45 2.39
 -2 17 2 1.64 0.9
 -2 17 3 28.15 1.73
 -2 17 4 2.05 0.8
 -2 17 5 3.17 0.91
 -2 18 0 8.46 1.34
 -2 18 1 -0.61 0.68
 -2 18 2 6.32 1.2
 -2 18 3 0.73 0.81
 -2 18 4 0.4 0.74
 -2 19 0 46.96 2.36
 -2 19 1 8.03 1.22
 -2 19 2 14.58 1.55
 -2 19 3 -0.19 0.69
 -2 20 1 -0.49 0.89
 -2 20 2 41.31 2.21
 -1 1 0 519.39 1.74
 -1 2 0 1891.7 4.05
 -1 3 -1 0.1 0.18
 -1 3 0 1934.83 4.73
 -1 3 1 33.73 0.72
 -1 4 -1 760.84 3.77
 -1 4 0 1861.19 5.24
 -1 4 1 362.7 2.45
 -1 5 0 0.63 0.26
 -1 5 2 365.43 2.97
 -1 6 -1 321.14 2.88
 -1 6 0 19.72 0.71
 -1 6 1 18.02 0.71
 -1 7 3 49.36 1.37
 -1 7 8 46.98 2.08
 -1 8 2 201.35 2.58
 -1 8 5 1.04 0.5
 -1 8 7 18.64 1.29
 -1 8 8 83.82 2.65
 -1 9 0 1.1 0.4
 -1 9 2 173.97 2.56
 -1 9 4 3.86 0.6
 -1 9 5 25.55 1.34
 -1 9 7 -0.05 0.7
 -1 10 5 0.79 0.5
 -1 10 6 8.5 1.02
 -1 10 7 0.52 0.62
 -1 10 8 27.17 1.64
 -1 11 -1 52.78 1.63
 -1 11 3 0.37 0.4
 -1 11 4 55.98 1.79
 -1 11 7 11.75 1.23
 -1 12 -1 28.91 1.36
 -1 12 0 167.33 2.94
 -1 12 3 2.53 0.65
 -1 12 5 0.18 0.61
 -1 12 6 146.01 3.18
 -1 13 -1 0.72 0.59
 -1 13 0 1.9 0.64
 -1 13 1 3.68 0.61
 -1 13 3 34.26 1.49
 -1 13 4 10.47 1.02
 -1 13 6 4.24 0.83
 -1 14 -1 119.05 2.83
 -1 14 0 97.45 2.47
 -1 14 1 10.38 1.02
 -1 14 2 58.93 1.89
 -1 14 3 20.38 1.22
 -1 14 4 145.68 3.05
 -1 14 5 0.19 0.59
 -1 14 6 0.54 0.64
 -1 15 -1 60.95 2.24
 -1 15 0 99.21 2.61
 -1 15 1 0.14 0.53
 -1 15 2 14.71 1.2
 -1 15 3 1.64 0.58
 -1 15 4 15.94 1.23
 -1 15 6 21.82 1.49
 -1 16 -1 2.12 0.76
 -1 16 0 -0.62 0.52
 -1 16 2 24.4 1.5
 -1 16 3 26.33 1.52
 -1 16 4 3.13 0.83
 -1 16 5 1.5 0.73
 -1 17 0 0.75 0.65
 -1 17 1 5.42 1.04
 -1 17 2 35.61 1.79
 -1 17 3 2.65 0.77
 -1 17 5 2.42 0.78
 -1 18 0 16.05 1.48
 -1 18 1 3.84 0.94
 -1 18 2 19.46 1.45
 -1 18 3 3.24 0.88
 -1 18 4 50.82 2.11
 -1 19 0 5.12 1.2
 -1 19 1 -0.77 0.6
 -1 19 2 4.34 0.94
 -1 19 3 4.82 1.04
 -1 19 4 0.27 0.77
 -1 20 1 5.92 1.19
 0 3 1 1450.73 3.89
 0 4 -1 6.96 0.42
 0 4 0 9974.85 10.64
 0 5 2 302.79 2.48
 0 6 -1 96.1 1.51
 0 6 3 324.82 3.03
 0 7 -1 584.46 3.93
 0 7 0 -0.11 0.19
 0 7 4 0.3 0.39
 0 8 2 28.96 0.96
 0 8 3 207.55 2.61
 0 8 5 12.53 0.95
 0 8 6 35.05 1.5
 0 9 0 0.3 0.26
 0 9 3 7.18 0.66
 0 9 6 108.47 2.5
 0 10 0 2.96 0.46
 0 10 1 15.48 0.8
 0 10 2 128.87 2.17
 0 10 4 174.91 2.82
 0 10 5 24.86 1.23
 0 11 5 15.38 1.06
 0 12 5 21.99 1.18
 0 13 -1 0.15 0.42
 0 13 0 0.53 0.4
 0 13 1 -0.74 0.4
 0 13 2 26.3 1.21
 0 14 -1 14.87 1.1
 0 14 1 15.62 1.04
 0 14 2 1.22 0.5
 0 15 -1 44.33 1.77
 0 15 0 -0.37 0.44
 0 15 2 0.64 0.6
 0 15 3 0 0.44
 0 15 4 1.29 0.51
 0 16 0 50.22 1.94
 0 16 1 11.64 1.1
 0 16 2 217.86 3.73
 0 16 3 84.09 2.32
 0 17 0 -0.68 0.72
 0 17 1 0.41 0.64
 0 17 2 14.44 1.21
 0 17 3 26.36 1.48
 0 18 0 131.24 3.24
 0 18 1 3.74 0.82
 0 19 1 13.11 1.34
 0 19 2 -0.08 0.6
 0 20 1 1.8 0.95
 1 3 0 1928.69 3.33
 1 3 1 0.11 0.11
 1 4 0 1843.64 4.03
 1 4 1 793.71 2.7
 1 5 0 0.38 0.19
 1 5 1 75.16 0.98
 1 5 2 86.2 1.21
 1 7 0 1025.92 4.4
 1 7 3 27.14 0.88
 1 7 4 3.03 0.47
 1 8 2 316.8 2.73
 1 8 3 1 0.3
 1 8 4 13.43 0.75
 1 9 0 1.83 0.34
 1 9 1 16.57 0.7
 1 9 2 8.25 0.56
 1 9 3 229.51 2.64
 1 10 0 79.16 1.61
 1 10 1 226.37 2.56
 1 10 3 16.41 0.83
 1 11 0 420.95 3.83
 1 11 2 5.32 0.57
 1 13 0 1.3 0.47
 1 13 1 1.15 0.45
 1 13 2 0.3 0.32
 1 14 0 89.43 2.16
 1 14 1 126.51 2.44
 1 15 0 104.53 2.46
 1 16 0 -0.09 0.49
 1 16 1 2.77 0.6
 1 17 1 3.76 0.75
 2 4 2 448.14 2.11
 2 5 1 46.2 0.55
 2 5 2 116.75 1.13
 2 5 3 7.21 0.42
 2 6 1 60.2 0.77
 2 7 0 69.51 1.07
 2 7 1 132.42 1.32
 2 8 2 0.58 0.19
 2 9 0 87.57 1.47
 2 9 1 0.42 0.23
 2 10 0 216.88 2.43
 2 10 1 -0.05 0.24
 2 11 0 8.02 0.6
 2 11 1 43.19 1.09
 -5 7 -3 0.73 1.01
 -5 8 -3 72.01 2.3
 -5 9 -3 23.17 1.79
 -5 10 -3 29.42 1.96
 -5 11 -3 7.39 1.49
 -5 12 -3 17.07 1.96
 -5 13 -3 17.21 1.98
 -5 13 -2 36.07 2.29
 -5 14 -2 5.04 1.66
 -4 7 -4 30.22 1.61
 -4 8 -4 38.17 1.82
 -4 9 -4 75.61 2.4
 -4 9 -3 0.09 0.97
 -4 10 -4 36.08 2.01
 -4 11 -4 0.32 1.23
 -4 11 -3 64.27 2.41
 -4 12 -3 31.92 2.09
 -4 13 -4 50.59 2.55
 -4 13 -3 2.07 1.37
 -4 13 -2 22.82 1.95
 -4 14 -2 2.8 1.49
 -4 15 -3 36.06 2.46
 -4 15 -2 124.51 3.54
 -4 16 -2 0.8 1.51
 -4 16 -1 -0.06 1.44
 -4 18 0 0.01 1.53
 -3 0 -3 57.78 0.96
 -3 1 -3 25.94 0.78
 -3 3 -4 0.68 0.55
 -3 6 -4 1.36 0.76
 -3 7 -4 21.01 1.35
 -3 7 -3 0.83 0.73
 -3 8 -5 0.35 1.02
 -3 8 -4 148.73 3.15
 -3 8 -3 36.91 1.57
 -3 9 -5 14.82 1.58
 -3 9 -4 -0.36 0.89
 -3 9 -3 10.93 1.17
 -3 10 -4 44.78 2.04
 -3 10 -3 0.37 0.89
 -3 11 -4 41.44 2.1
 -3 11 -3 12.25 1.41
 -3 12 -4 43.4 2.25
 -3 12 -3 15.6 1.66
 -3 13 -5 1.99 1.44
 -3 13 -4 25.02 2.08
 -3 13 -3 1.16 1.2
 -3 13 -2 0.09 1.07
 -3 14 -4 37.65 2.46
 -3 15 -4 18.32 2.19
 -3 15 -3 14.52 1.91
 -3 15 -1 61.98 2.52
 -3 17 -2 12.22 1.95
 -3 17 -1 -0.76 1.47
 -3 17 0 13.43 1.85
 -3 18 -1 0.83 1.47
 -3 18 2 1.73 1.52
 -3 19 0 -0.92 1.46
 -3 19 1 1.8 1.57
 -3 19 2 4.29 1.53
 -3 19 3 0.59 1.42
 -2 0 -3 0.21 0.26
 -2 1 -4 98.86 1.4
 -2 1 -3 2.1 0.38
 -2 2 -4 62.98 1.34
 -2 2 -3 107.69 1.48
 -2 3 -4 5.78 0.68
 -2 4 -3 -0.03 0.44
 -2 7 -5 6.31 1.05
 -2 8 -5 37.97 1.77
 -2 8 -4 -0.38 0.75
 -2 9 -5 26.16 1.7
 -2 9 -4 227.05 3.75
 -2 9 -3 8.14 0.98
 -2 10 -5 4.71 1.22
 -2 10 -4 154.08 3.13
 -2 11 -6 1.53 1.38
 -2 11 -5 0.49 1.16
 -2 11 -2 102.26 2.48
 -2 12 -6 125.45 3.45
 -2 12 -5 45.79 2.34
 -2 12 -4 24.73 1.87
 -2 12 -3 -0.31 0.94
 -2 13 -5 31.64 2.26
 -2 13 -4 108.25 3.12
 -2 14 -5 0.11 1.38
 -2 14 -4 14.51 1.85
 -2 14 -3 20.44 1.94
 -2 14 -2 1.22 1.05
 -2 14 -1 30.88 1.73
 -2 15 -3 0.65 1.42
 -2 15 -1 4.63 1.19
 -2 15 0 58.52 2.33
 -2 16 -4 7.57 1.84
 -2 16 -3 0.14 1.42
 -2 16 -2 64.23 2.76
 -2 16 0 87.7 2.75
 -2 17 -2 -0.25 1.36
 -2 17 -1 8.77 1.62
 -2 17 0 9.35 1.62
 -2 17 1 65.96 2.55
 -2 17 2 2.75 1.29
 -2 18 -3 2.33 1.6
 -2 18 -2 32.44 2.48
 -2 18 0 9.52 1.64
 -2 18 1 -0.61 1.17
 -2 18 2 5.33 1.4
 -2 19 -1 0.22 1.57
 -2 19 0 47.81 2.69
 -2 19 2 16.48 1.81
 -2 20 1 0.58 1.43
 -2 20 2 41.75 2.45
 -1 -1 -3 410.14 1.47
 -1 0 -4 -0.25 0.3
 -1 0 -3 6.42 0.37
 -1 0 -2 -0.16 0.17
 -1 1 -5 46.24 1.06
 -1 1 -4 9.9 0.6
 -1 1 -3 417.34 2.38
 -1 1 -2 253.5 1.6
 -1 2 -5 -0.16 0.46
 -1 2 -4 1707.48 5.9
 -1 2 -3 1.46 0.35
 -1 3 -5 32.04 1.15
 -1 3 -4 3.62 0.57
 -1 3 -3 139.13 1.78
 -1 4 -5 35.83 1.3
 -1 4 -4 34.05 1.15
 -1 4 -3 17.59 0.8
 -1 5 -6 44.81 1.65
 -1 5 -4 9.47 0.87
 -1 5 -3 391.14 3.31
 -1 6 -6 32.03 1.56
 -1 6 -5 3.6 0.86
 -1 6 -3 9.96 0.82
 -1 7 -6 44.46 1.89
 -1 7 -5 6.33 1
 -1 7 -2 57.17 1.42
 -1 8 -6 52.47 2.11
 -1 8 -4 12.79 1.14
 -1 9 -6 12.28 1.52
 -1 9 -4 10.78 1.17
 -1 10 -6 23.28 1.91
 -1 10 -4 8.21 1.21
 -1 10 -3 14.7 1.28
 -1 10 -2 257.54 3.46
 -1 11 -6 30.04 2.12
 -1 11 -5 0.61 1.13
 -1 11 -4 0.26 0.9
 -1 11 -2 4.52 0.86
 -1 12 -6 1.47 1.43
 -1 12 -4 16.44 1.65
 -1 12 -3 0.93 0.84
 -1 12 -2 29.83 1.57
 -1 13 -6 -0.16 1.48
 -1 13 -4 8.43 1.54
 -1 13 -3 92.73 2.68
 -1 13 -2 -0.33 0.88
 -1 13 -1 0.72 0.8
 -1 14 -5 12.09 1.84
 -1 14 -3 14.34 1.68
 -1 14 -2 318.61 4.83
 -1 14 -1 129.12 2.9
 -1 14 0 99.48 2.46
 -1 14 1 10.29 1.21
 -1 15 -5 0.05 1.43
 -1 15 -4 0.27 1.34
 -1 15 -1 61.14 2.31
 -1 15 0 103.26 2.68
 -1 15 1 0.68 0.91
 -1 15 2 16.96 1.36
 -1 16 -5 19.6 2.4
 -1 16 -4 81.64 3.23
 -1 16 -3 -0.2 1.34
 -1 16 -2 12.34 1.62
 -1 16 -1 2.81 1.2
 -1 16 0 -0.13 1.06
 -1 16 1 24.03 1.62
 -1 17 -4 5.22 1.91
 -1 17 -2 0.73 1.3
 -1 17 -1 4.36 1.49
 -1 17 0 0.06 1.11
 -1 17 1 4.98 1.27
 -1 17 2 42.51 2
 -1 18 -3 3.78 1.71
 -1 18 -2 133.26 3.8
 -1 18 -1 49.45 2.6
 -1 18 0 16.6 1.84
 -1 18 1 6.09 1.39
 -1 18 2 21.26 1.76
 -1 19 -2 1.33 1.66
 -1 19 -1 44.69 2.64
 -1 19 1 0.91 1.3
 -1 20 -1 0.93 1.71
 -1 20 0 18.01 2.22
 -1 20 1 6.83 1.55
 0 -1 -3 84.92 1.04
 0 -1 -2 740.38 2.21
 0 0 -5 -0.17 0.42
 0 0 -4 263.75 2.21
 0 0 -3 0.12 0.25
 0 0 -2 2690.75 4.67
 0 1 -5 7.05 0.7
 0 1 -4 155.83 1.9
 0 1 -2 753.8 2.8
 0 1 -1 1193.76 2.65
 0 2 -6 15.4 1.01
 0 2 -5 6.26 0.76
 0 2 -4 94.76 1.67
 0 2 -3 904.94 4.03
 0 2 -2 269.2 1.91
 0 2 -1 45.5 0.67
 0 3 -5 16.32 0.98
 0 3 -4 17.21 0.86
 0 3 -3 97.2 1.5
 0 3 -2 569.18 3.01
 0 3 -1 1441.15 3.98
 0 4 -5 4.77 0.77
 0 4 -4 35.94 1.18
 0 4 -3 135.75 1.9
 0 4 -2 386.25 2.74
 0 4 -1 6.72 0.46
 0 5 -6 91.83 2.23
 0 5 -4 298.61 3.26
 0 5 -3 3.21 0.53
 0 5 -2 312.57 2.66
 0 5 -1 188.02 1.86
 0 6 -7 16.57 1.57
 0 6 -6 62.78 2.02
 0 6 -3 325.82 3.25
 0 6 -2 595.2 3.88
 0 6 -1 99.15 1.56
 0 7 -7 64.48 2.33
 0 7 -5 17.67 1.31
 0 7 -3 48.22 1.42
 0 7 -1 553.41 3.65
 0 8 -7 13.57 1.58
 0 8 -6 37.53 1.91
 0 8 -5 12.13 1.27
 0 9 -7 4.42 1.43
 0 9 -6 114.81 2.97
 0 9 -5 4.13 1.03
 0 9 -4 273.92 3.94
 0 9 -1 11.01 0.81
 0 9 0 0.34 0.44
 0 10 -6 21.8 1.87
 0 10 -5 26.69 1.75
 0 10 -4 173.25 3.41
 0 10 -3 107.81 2.4
 0 10 0 2 0.58
 0 11 -7 28.9 2.26
 0 11 -5 15.42 1.68
 0 11 -3 11.65 1.24
 0 11 -2 4.55 0.83
 0 11 1 170.82 2.51
 0 12 -5 21.02 1.9
 0 12 -4 125.16 3.09
 0 12 -3 163.39 3.32
 0 12 -2 269.48 3.92
 0 13 -7 -0.3 1.56
 0 13 -6 38.3 2.54
 0 13 -5 4.98 1.52
 0 13 -4 117.95 3.14
 0 13 -3 26.12 1.74
 0 13 -2 27.77 1.62
 0 13 -1 0.05 0.83
 0 13 0 0.23 0.7
 0 13 1 0.07 0.65
 0 14 -6 2.61 1.67
 0 14 -5 23.51 2.23
 0 14 -3 15.63 1.68
 0 14 -1 14.83 1.37
 0 14 0 86.66 2.27
 0 14 1 15.03 1.2
 0 15 -6 18.76 2.26
 0 15 -4 -0.22 1.26
 0 15 -3 0.76 1.18
 0 15 -2 -0.55 1
 0 15 -1 46.2 2.05
 0 15 0 0.61 0.87
 0 15 1 49.49 1.86
 0 16 -5 19.68 2.25
 0 16 -3 82.13 2.98
 0 16 -2 206.4 4.12
 0 16 -1 12.69 1.47
 0 16 0 55.62 2.21
 0 16 1 13.07 1.41
 0 17 -5 3.17 1.95
 0 17 -1 0.23 1.15
 0 17 0 0.77 1.21
 0 17 1 0.33 1
 0 18 -4 9.46 1.95
 0 18 0 132.72 3.38
 0 18 1 3.92 1.34
 0 19 -2 0.47 1.62
 0 19 -1 10.41 1.77
 0 19 0 -0.24 1.29
 0 19 1 13.1 1.7
 0 20 -1 1.75 1.64
 0 20 0 13.13 1.9
 0 21 0 -0.03 1.43
 1 0 -4 0.27 0.39
 1 0 -3 197.99 1.99
 1 0 -2 0 0.24
 1 1 -5 78.41 1.66
 1 1 -4 142.4 2.02
 1 1 -3 595.2 3.47
 1 1 -1 10.2 0.43
 1 2 -4 199.68 2.46
 1 2 -3 36.57 1
 1 2 -2 4328.77 8.37
 1 2 -1 -0.11 0.22
 1 2 0 1911.44 3.77
 1 3 -5 12.17 0.97
 1 3 -4 8.05 0.76
 1 3 -3 241.75 2.48
 1 3 -2 320.54 2.5
 1 3 0 1892.26 4.14
 1 3 1 0.17 0.15
 1 4 -6 193.89 3.28
 1 4 -4 199.35 2.67
 1 4 -3 170.69 2.23
 1 4 -2 426.07 3.05
 1 4 -1 372.05 2.47
 1 4 0 1840.02 4.58
 1 4 1 755.29 2.31
 1 5 -7 1.68 1.03
 1 5 -6 54.88 1.91
 1 5 -4 122.2 2.25
 1 5 -3 276.9 2.94
 1 5 -2 364.01 2.98
 1 5 -1 64.53 1.2
 1 5 0 0.76 0.3
 1 5 1 75.46 0.93
 1 6 -6 0.98 0.9
 1 6 -3 71.88 1.63
 1 6 -1 17.91 0.76
 1 6 0 19.89 0.68
 1 6 1 321.12 2.06
 1 6 2 9.85 0.37
 1 7 -6 87.5 2.49
 1 7 -5 6.97 1.07
 1 7 -3 50.43 1.49
 1 7 0 1011.5 4.52
 1 7 1 17.5 0.63
 1 7 2 57.96 0.92
 1 8 -7 22.27 1.9
 1 8 -6 320.58 4.81
 1 8 -5 1.3 0.84
 1 8 -4 196.18 3.29
 1 8 -1 106.15 1.9
 1 9 -7 0.9 1.35
 1 9 -6 6.87 1.34
 1 9 -5 23.94 1.6
 1 9 -4 4.58 0.97
 1 9 -1 16.47 0.91
 1 9 0 1.66 0.51
 1 9 2 7.89 0.57
 1 10 -7 0.29 1.36
 1 10 -5 0.82 0.98
 1 10 -4 116.68 2.73
 1 10 -3 61.77 1.94
 1 10 -1 10.72 0.94
 1 10 0 76.64 1.66
 1 10 1 225.59 2.56
 1 10 2 259.78 2.44
 1 11 -7 13.55 1.94
 1 11 -5 50.05 2.2
 1 11 -2 195.87 3.26
 1 11 1 57.82 1.47
 1 11 2 3.75 0.51
 1 12 -7 14.29 2
 1 12 -6 151.88 3.87
 1 12 -5 0.94 1.18
 1 12 -4 34.17 1.96
 1 12 -3 3.71 1.03
 1 12 -2 8.29 1.05
 1 12 -1 60.67 1.86
 1 13 -7 -1.01 1.64
 1 13 -4 9.64 1.45
 1 13 -3 28.78 1.79
 1 13 -2 86.18 2.4
 1 14 -6 2.49 1.58
 1 14 -4 149.43 3.67
 1 14 0 99.83 2.4
 1 14 1 132.62 2.74
 1 15 -6 26.71 2.47
 1 15 -5 72.14 3.14
 1 15 -4 15.3 1.91
 1 15 -3 3.12 1.32
 1 15 -2 17.11 1.69
 1 15 -1 0.15 0.92
 1 15 0 108.03 2.62
 1 16 -4 3.86 1.69
 1 16 -3 30.66 2.24
 1 16 -2 26.09 2.04
 1 16 -1 27.32 1.81
 1 16 0 0.98 1
 1 17 -5 5.49 1.92
 1 17 -4 23.53 2.32
 1 17 -2 42.1 2.34
 1 17 -1 4.7 1.31
 1 17 0 0.18 1.17
 1 18 -2 19.83 2.2
 1 18 -1 6.23 1.56
 1 19 -3 2.85 1.68
 1 19 -1 0.88 1.51
 1 19 0 9.36 1.65
 1 20 -2 48.32 2.86
 1 20 -1 7.85 1.83
 1 20 0 14.64 1.86
 2 1 -4 17.65 0.94
 2 1 -3 10.7 0.71
 2 1 -2 313.24 2.67
 2 2 -5 41.89 1.49
 2 2 -4 94.56 1.95
 2 2 -3 15.79 0.84
 2 2 -2 582.46 3.67
 2 2 -1 200.47 2.01
 2 3 -6 121.76 2.59
 2 3 -4 299.86 3.31
 2 3 -3 1.62 0.48
 2 3 -2 975.85 4.85
 2 3 -1 303.32 2.49
 2 3 0 708.65 3.25
 2 4 -7 18 1.54
 2 4 -6 43.42 1.8
 2 4 -4 7.66 0.87
 2 4 -3 2.74 0.55
 2 4 -2 3.05 0.53
 2 4 -1 3.75 0.49
 2 4 0 86.19 1.29
 2 5 -6 5.64 1.1
 2 5 -2 17.72 0.85
 2 5 0 0.32 0.32
 2 5 1 45.29 0.85
 2 6 -7 89.34 2.73
 2 6 -6 35.71 1.77
 2 6 -5 15.17 1.26
 2 6 0 589.44 3.49
 2 6 1 59.83 1.06
 2 7 -7 0 1.16
 2 7 -6 13 1.49
 2 8 -8 0.49 1.42
 2 8 -6 1.43 1.06
 2 8 -5 115.67 2.81
 2 8 -4 84.85 2.22
 2 8 -2 27.05 1.21
 2 8 -1 1.06 0.49
 2 8 0 78.87 1.6
 2 8 1 95.56 1.56
 2 9 -8 1.12 1.54
 2 9 -7 0.18 1.36
 2 9 -5 5.93 1.2
 2 9 -3 80.29 2.11
 2 9 -1 46.78 1.44
 2 9 0 89.02 1.81
 2 9 1 0.72 0.43
 2 10 -8 44.35 2.7
 2 10 -7 54.24 2.67
 2 10 -6 16.93 1.78
 2 10 -5 0.06 1.07
 2 10 -4 163.26 3.26
 2 10 -3 9.94 1.08
 2 10 0 213.24 2.77
 2 10 1 -0.37 0.45
 2 11 -8 1.8 1.62
 2 11 -7 1.77 1.63
 2 11 -4 30 1.76
 2 11 -3 2.03 0.92
 2 11 -2 4.78 0.9
 2 11 0 7.63 0.87
 2 11 1 48.4 1.33
 2 12 -6 9.4 1.77
 2 12 -5 78.78 2.82
 2 12 -4 110.84 2.97
 2 12 -3 -0.29 0.86
 2 12 -2 14.05 1.33
 2 12 -1 -0.01 0.75
 2 13 -6 71.51 3.15
 2 13 -5 10.4 1.7
 2 13 -4 84.25 2.8
 2 13 -3 56.7 2.22
 2 13 -2 68.5 2.23
 2 13 -1 74.55 2.19
 2 13 0 64.21 1.9
 2 14 -7 19.79 2.42
 2 14 -6 -0.7 1.49
 2 14 -5 21.09 2.13
 2 14 -4 28.69 2.12
 2 14 -3 0.4 1.08
 2 14 -2 141.3 3.21
 2 14 0 9.7 1.2
 2 15 -6 128.37 4.11
 2 15 -5 24.5 2.38
 2 15 -4 0.51 1.31
 2 15 -3 0.25 1.3
 2 15 -2 16.46 1.67
 2 15 -1 0.9 0.98
 2 15 0 57.04 2.06
 2 16 -6 5.93 2.15
 2 16 -5 26.84 2.56
 2 16 -4 44.74 2.69
 2 16 -3 1.48 1.34
 2 16 -2 1.76 1.36
 2 16 -1 -0.55 1.04
 2 17 -5 6.15 1.89
 2 17 -4 0.8 1.73
 2 17 -3 29.91 2.41
 2 17 -2 1.67 1.44
 2 17 -1 69.51 2.63
 2 17 0 9.54 1.28
 2 18 -3 1.72 1.64
 2 18 -2 6.58 1.63
 2 18 -1 -0.21 1.25
 2 19 -3 0.76 1.82
 2 19 -2 15.46 2.12
 2 19 -1 9.65 1.81
 2 20 -2 42.76 2.86
 3 2 -4 0.48 0.56
 3 3 -6 0.88 0.91
 3 4 -6 14.72 1.44
 3 4 -5 221.79 3.61
 3 5 -7 193.33 3.86
 3 5 -6 135.84 3.07
 3 5 -3 30.18 1.3
 3 5 -2 334.01 3.49
 3 5 -1 255.26 2.81
 3 6 -7 0.6 1.23
 3 6 -6 58.12 2.27
 3 6 -5 12.79 1.34
 3 6 -2 173.07 2.68
 3 6 -1 126.81 2.17
 3 6 0 49.83 1.23
 3 7 -7 5.2 1.43
 3 7 -6 95.35 2.8
 3 7 -5 39.49 1.84
 3 7 -4 76.72 2.22
 3 7 -2 24.26 1.23
 3 7 0 259.61 2.8
 3 8 -8 27.31 2.36
 3 8 -6 15.17 1.65
 3 8 -4 110.12 2.68
 3 8 -3 120.35 2.55
 3 8 -1 23.62 1.15
 3 8 0 219.41 2.71
 3 9 -7 159.04 3.97
 3 9 -6 8.82 1.43
 3 9 -4 56.37 2.12
 3 9 -3 3.59 0.91
 3 9 0 61.8 1.56
 3 10 -8 30.9 2.63
 3 10 -7 0.45 1.51
 3 10 -6 58.69 2.66
 3 10 -5 21.62 1.81
 3 10 -3 16.55 1.37
 3 10 -2 3.22 0.83
 3 10 0 160.84 2.64
 3 11 -6 135.29 3.75
 3 11 -5 68.89 2.7
 3 11 -4 2.82 1.11
 3 11 -3 7.64 1.22
 3 11 -2 90 2.4
 3 11 -1 3.93 0.89
 3 12 -7 1.96 1.81
 3 12 -6 5.6 1.57
 3 12 -5 16.19 1.84
 3 12 -4 45.12 2.24
 3 12 -3 65.33 2.39
 3 13 -7 88.87 3.65
 3 13 -3 -0.69 1
 3 13 -2 158.39 3.31
 3 13 -1 83.89 2.38
 3 14 -7 -0.09 1.76
 3 14 -4 1.67 1.45
 3 14 -3 4.61 1.32
 3 14 -2 0.44 1.13
 3 14 -1 55.38 2.13
 3 15 -4 3.75 1.69
 3 16 -5 2.01 1.9
 3 16 -3 19.52 2.09
 3 16 -2 11.33 1.75
 3 16 -1 29.42 1.97
 3 17 -5 0.22 1.66
 3 17 -3 -0.03 1.46
 3 17 -2 215.13 4.45
 3 18 -4 1.88 1.99
 3 18 -2 -0.9 1.41
 3 19 -3 0.3 1.74
 3 19 -2 4.64 1.72
 4 5 -5 39.15 1.91
 4 5 -4 13.1 1.29
 4 6 -6 30.2 1.93
 4 6 -5 4.86 1.08
 4 6 -4 79.15 2.35
 4 7 -7 14.19 1.92
 4 7 -6 158.66 3.72
 4 7 -5 53.38 2.26
 4 7 -4 119.22 2.88
 4 7 -3 287.14 4.13
 4 7 -1 31.25 1.37
 4 8 -7 33.5 2.45
 4 8 -6 1.72 1.3
 4 8 -5 2.01 1.05
 4 8 -4 178.38 3.78
 4 8 -3 0.18 0.78
 4 9 -8 184.19 4.63
 4 9 -7 -0.62 1.48
 4 9 -6 2.39 1.32
 4 9 -5 26.8 1.94
 4 9 -4 116.21 3.03
 4 9 -3 3.07 0.96
 4 9 -2 353.81 4.51
 4 10 -6 39.94 2.43
 4 10 -4 103.55 2.96
 4 10 -3 16.49 1.53
 4 10 -2 2.93 0.9
 4 10 -1 83.38 2.19
 4 11 -6 -0.26 1.54
 4 11 -5 27.29 2.18
 4 11 -4 -0.38 1.09
 4 11 -2 13.77 1.42
 4 12 -7 40.59 2.94
 4 12 -3 1.21 1.13
 4 12 -2 42.91 2.01
 4 12 -1 53.88 2
 4 13 -7 1.42 2
 4 13 -6 2.18 1.64
 4 13 -5 21.58 2.21
 4 13 -4 76.69 3
 4 13 -2 199.94 4.16
 4 13 -1 51.93 2.01
 4 14 -5 14.33 2.07
 4 14 -4 86.65 3.26
 4 14 -3 18.08 1.91
 4 14 -2 -0.59 1.17
 4 15 -6 42.26 3.1
 4 15 -3 74.33 2.95
 4 15 -2 100.77 3.1
 4 16 -5 -0.3 1.87
 4 16 -4 2.35 1.65
 4 16 -2 22.82 2.15
 4 17 -4 2.67 1.9
 4 17 -3 14.19 2.1
 4 17 -2 34.99 2.41
 4 18 -2 1.81 1.52
 5 8 -6 81.99 3.11
 5 8 -4 6.28 1.3
 5 9 -6 100.41 3.53
 5 9 -5 -0.75 1.33
 5 9 -4 11.6 1.61
 5 9 -3 11.69 1.42
 5 10 -7 24.05 2.63
 5 10 -6 18.78 2.19
 5 10 -4 4.24 1.3
 5 10 -3 67.22 2.54
 5 11 -7 0.77 1.68
 5 11 -6 169.27 4.44
 5 11 -5 6.14 1.59
 5 11 -4 319.64 5.66
 5 11 -2 30.93 1.92
 5 12 -7 1.07 1.76
 5 12 -6 45.86 2.98
 5 12 -4 1.86 1.38
 5 12 -2 38.54 2.11
 5 13 -6 21.05 2.62
 5 13 -3 -0.02 1.32
 5 13 -2 29.18 2.08
 5 14 -6 10.34 2.22
 5 14 -5 13.95 2.21
 5 14 -4 11.93 1.92
 5 14 -3 55.52 2.76
 5 15 -4 87.4 3.5
 5 16 -4 0.86 1.62
 5 16 -3 0.19 1.56
 -4 -2 5 0.06 0.15
 -4 -1 5 47.42 0.83
 -4 -1 6 335.66 2.69
 -4 0 5 -0.02 0.22
 -4 0 6 1.26 0.35
 -4 1 5 45.64 1.01
 -4 1 6 337.96 3.05
 -4 1 7 1.51 0.49
 -4 2 5 0.28 0.29
 -4 2 7 335.94 3.6
 -4 3 7 10.23 0.85
 -4 3 8 36.03 1.46
 -4 4 5 2.47 0.45
 -4 4 6 0.28 0.45
 -4 4 7 10.2 0.89
 -4 4 8 5.42 0.87
 -4 5 6 47.19 1.47
 -4 5 7 0.61 0.52
 -4 6 5 5.63 0.7
 -4 6 6 27.24 1.23
 -4 6 7 174 3.14
 -4 6 8 5.26 0.89
 -4 7 6 164.28 2.98
 -4 7 7 14.08 1.14
 -4 7 8 19.78 1.38
 -4 8 6 0.75 0.69
 -4 8 8 0.43 0.66
 -4 9 7 0.24 0.68
 -4 9 8 183 3.8
 -4 10 8 2.35 0.94
 -3 -7 6 85.38 1.65
 -3 -6 5 11.27 0.58
 -3 -6 6 54.94 1.34
 -3 -5 4 668.38 2.81
 -3 -5 5 7.18 0.5
 -3 -5 6 128.21 2.01
 -3 -4 4 106.8 1.12
 -3 -4 5 218.11 2.13
 -3 -4 7 3.36 0.56
 -3 -3 4 614.79 2.58
 -3 -3 5 6.77 0.48
 -3 -3 6 0.94 0.39
 -3 -3 8 2.43 0.62
 -3 -2 4 0.16 0.17
 -3 -2 5 0.4 0.27
 -3 -2 6 39.94 1.16
 -3 -2 7 1.46 0.52
 -3 -2 8 184.03 3.03
 -3 -1 3 45.65 0.54
 -3 -1 4 1289.19 4.12
 -3 -1 6 124.95 2.03
 -3 -1 7 172.74 2.73
 -3 0 3 278.54 1.62
 -3 0 4 0.18 0.22
 -3 0 5 330.93 2.81
 -3 0 7 11.35 0.86
 -3 0 8 -0.2 0.5
 -3 1 3 45.64 0.8
 -3 1 4 1320.97 4.85
 -3 1 5 1.99 0.4
 -3 1 7 164.31 2.73
 -3 1 8 80.11 2.14
 -3 1 9 4.03 0.86
 -3 2 3 17.1 0.58
 -3 2 4 0.16 0.23
 -3 2 5 -0.05 0.33
 -3 2 7 0.55 0.46
 -3 2 8 185.97 3.34
 -3 2 9 -0.31 0.6
 -3 3 3 43.29 0.96
 -3 3 4 606.1 3.82
 -3 3 5 6.59 0.61
 -3 3 6 0.19 0.4
 -3 3 7 64.98 1.84
 -3 3 8 2.91 0.8
 -3 3 9 4.58 0.92
 -3 4 4 105.62 1.78
 -3 4 6 14.73 0.95
 -3 4 7 3.46 0.69
 -3 4 9 7.06 1.06
 -3 5 4 682.33 4.61
 -3 5 6 134.24 2.58
 -3 5 7 202.83 3.38
 -3 5 9 5.19 0.99
 -3 6 5 10.93 0.82
 -3 6 6 55.81 1.72
 -3 6 7 0.54 0.58
 -3 6 8 99.02 2.63
 -3 6 9 1.99 0.87
 -3 7 5 38.71 1.4
 -3 7 6 90.25 2.23
 -3 7 7 3.25 0.76
 -3 7 8 37.26 1.79
 -3 7 9 6.54 1.02
 -3 8 4 105.61 2.23
 -3 8 5 70.02 1.91
 -3 8 6 13.47 1.06
 -3 8 7 -0.04 0.59
 -3 8 8 29.04 1.71
 -3 9 6 7.62 0.93
 -3 9 8 1.19 0.9
 -3 10 5 19.95 1.32
 -3 10 6 58.67 2.09
 -3 10 7 -0.15 0.73
 -3 10 8 32.15 1.84
 -3 11 7 3.94 1.09
 -3 12 6 3.94 1.01
 -3 12 7 1.74 0.92
 -3 13 7 81.76 2.84
 -2 -8 7 27.52 1.37
 -2 -7 7 0.02 0.5
 -2 -7 8 79.59 2.3
 -2 -6 7 87.1 2.18
 -2 -5 7 0.37 0.62
 -2 -4 5 74.35 1.56
 -2 -4 7 18.18 1.15
 -2 -4 8 3.59 0.86
 -2 -4 9 0.58 0.76
 -2 -3 4 301.63 2.52
 -2 -3 5 49.57 1.27
 -2 -3 7 0 0.52
 -2 -3 8 281.27 4.22
 -2 -3 9 1.3 0.82
 -2 -2 4 93.9 1.42
 -2 -2 5 40.47 1.17
 -2 -2 7 97.55 2.29
 -2 -2 9 33.84 1.71
 -2 -1 2 304.9 1.12
 -2 -1 3 11.5 0.43
 -2 -1 4 17.93 0.68
 -2 -1 5 13.66 0.76
 -2 -1 7 0.21 0.55
 -2 -1 8 236.08 3.85
 -2 -1 9 1.09 0.73
 -2 0 2 11.3 0.31
 -2 0 3 0.08 0.15
 -2 0 4 6.25 0.45
 -2 0 5 -0.13 0.28
 -2 0 7 0.6 0.5
 -2 0 8 8.84 1.08
 -2 0 9 -0.52 0.79
 -2 1 2 308.3 1.71
 -2 1 3 11.28 0.47
 -2 1 4 16.98 0.7
 -2 1 6 54.82 1.59
 -2 1 7 -0.1 0.51
 -2 1 8 242.8 4.02
 -2 1 9 1.53 0.77
 -2 2 2 572.53 2.68
 -2 2 4 98.3 1.6
 -2 2 5 40.02 1.21
 -2 2 7 92.9 2.31
 -2 2 8 10.43 1.18
 -2 2 9 28.94 1.69
 -2 3 2 1004.85 3.97
 -2 3 3 1.03 0.24
 -2 3 4 304.25 2.86
 -2 3 6 119.23 2.42
 -2 3 7 0.35 0.55
 -2 3 9 0.37 0.8
 -2 4 2 3.42 0.37
 -2 4 4 6.19 0.58
 -2 4 6 39.08 1.46
 -2 4 7 15.87 1.19
 -2 4 8 3.64 0.92
 -2 4 9 0.78 0.76
 -2 5 2 18.11 0.73
 -2 5 3 58.24 1.28
 -2 5 4 106.55 1.95
 -2 5 7 0.38 0.55
 -2 5 8 59.92 2.2
 -2 5 9 12.7 1.41
 -2 6 5 14.89 0.93
 -2 6 6 33.51 1.46
 -2 6 8 45.31 2.02
 -2 6 9 12.95 1.44
 -2 7 3 11.02 0.76
 -2 7 5 69.04 1.88
 -2 7 6 14.41 1.1
 -2 7 7 -0.17 0.75
 -2 8 4 79.28 1.91
 -2 8 6 0.32 0.6
 -2 8 8 0.03 0.78
 -2 9 4 218.87 3.31
 -2 9 5 3.86 0.73
 -2 9 6 74.35 2.24
 -2 9 7 0.04 0.65
 -2 9 8 0.39 0.79
 -2 10 4 164.35 3.04
 -2 10 5 -0.01 0.51
 -2 10 6 17 1.35
 -2 10 7 55.41 2.18
 -2 10 8 44.27 2.14
 -2 11 4 28.64 1.46
 -2 11 5 47.38 1.86
 -2 11 6 35.68 1.83
 -2 11 7 0.23 0.77
 -2 11 8 1.97 0.99
 -2 12 4 106.37 2.75
 -2 12 5 77.62 2.43
 -2 12 7 16.49 1.52
 -2 13 6 71.96 2.62
 -2 13 7 -0.3 0.76
 -2 14 6 -0.8 0.99
 -2 14 7 20.84 1.77
 -1 -10 8 25.07 1.65
 -1 -8 8 89.85 2.69
 -1 -7 8 45.12 2.02
 -1 -6 7 1.96 0.68
 -1 -6 8 6.57 1.1
 -1 -5 7 1.39 0.81
 -1 -5 8 96.27 2.78
 -1 -5 9 2.91 0.95
 -1 -4 6 197.46 3.22
 -1 -4 7 22.41 1.4
 -1 -4 8 56.55 2.2
 -1 -4 9 2.27 0.89
 -1 -3 6 5.55 0.75
 -1 -3 7 7.96 1.01
 -1 -3 8 -0.08 0.67
 -1 -3 9 -0.77 0.74
 -1 -2 6 13.49 0.96
 -1 -2 7 0.3 0.64
 -1 -2 8 -0.62 0.67
 -1 -2 9 6.51 1.27
 -1 -1 6 29.52 1.33
 -1 -1 7 5.34 0.95
 -1 -1 8 48.4 2.07
 -1 0 2 -0.07 0.13
 -1 0 3 203.2 2.01
 -1 0 4 -0.01 0.26
 -1 0 6 0.01 0.43
 -1 0 7 16.89 1.21
 -1 0 8 -0.05 0.78
 -1 0 9 4.27 1.08
 -1 1 2 40.42 0.73
 -1 1 3 592.87 3.46
 -1 1 4 139.6 2.08
 -1 1 6 27.4 1.26
 -1 2 1 0 0.13
 -1 2 2 4340.33 7.63
 -1 2 3 37.3 0.94
 -1 2 4 205.07 2.53
 -1 2 6 12.1 0.93
 -1 2 7 1.12 0.64
 -1 2 8 -0.09 0.71
 -1 2 9 4.68 1.1
 -1 3 1 35.87 0.7
 -1 3 2 332.13 2.31
 -1 3 3 242.55 2.37
 -1 3 4 7.15 0.58
 -1 3 6 4.92 0.71
 -1 3 7 8.76 1.05
 -1 3 8 0.04 0.74
 -1 3 9 0.18 0.82
 -1 4 1 387.05 2.46
 -1 4 2 434.58 2.87
 -1 4 3 170.98 2.1
 -1 4 4 196.71 2.6
 -1 4 5 0.36 0.36
 -1 4 6 186.04 3.26
 -1 4 7 19.58 1.38
 -1 4 9 2.47 1.04
 -1 5 1 66.45 1.19
 -1 5 2 382.98 2.91
 -1 5 3 289.75 2.84
 -1 5 5 62.86 1.75
 -1 5 8 95.07 2.85
 -1 5 9 3.06 1.12
 -1 6 2 468.81 3.46
 -1 6 5 2.41 0.62
 -1 6 6 0.63 0.53
 -1 6 7 2.35 0.89
 -1 6 8 5.69 1.14
 -1 7 5 7.25 0.9
 -1 7 6 78.93 2.29
 -1 7 7 12.63 1.18
 -1 7 8 48.52 2.22
 -1 8 5 1.41 0.61
 -1 8 6 324.84 4.62
 -1 8 7 22.94 1.6
 -1 8 8 90.56 2.91
 -1 9 4 4.5 0.67
 -1 9 5 23.84 1.35
 -1 9 6 5.6 0.9
 -1 9 7 0.02 0.88
 -1 9 8 38.58 2.1
 -1 10 3 61.84 1.77
 -1 10 4 114.38 2.53
 -1 10 5 1.45 0.6
 -1 10 7 0.59 0.76
 -1 10 8 24.64 1.86
 -1 11 3 0.05 0.41
 -1 11 6 92.51 2.78
 -1 12 3 2.48 0.59
 -1 12 4 33.14 1.61
 -1 12 5 -0.5 0.55
 -1 12 7 13.31 1.54
 -1 13 4 10.46 1.04
 -1 13 5 1.58 0.87
 -1 13 6 4.11 1.1
 -1 13 7 0.72 1.12
 -1 14 5 -0.25 0.85
 -1 14 6 0.61 1.02
 -1 15 5 64.5 2.56
 -1 15 6 21.73 1.8
 0 -9 8 21.78 1.75
 0 -8 8 12.83 1.48
 0 -7 8 20.37 1.69
 0 -6 8 48.99 2.26
 0 -5 8 2.91 1.04
 0 -4 7 6.53 1.01
 0 -3 6 14.5 1.11
 0 -3 8 39.31 2.07
 0 -2 6 15.09 1.18
 0 -2 7 17.08 1.41
 0 -2 8 12.73 1.45
 0 -1 5 6.62 0.75
 0 -1 6 8.72 0.97
 0 -1 7 67.86 2.37
 0 -1 8 8.69 1.24
 0 0 4 269.72 3.11
 0 0 5 0.04 0.39
 0 0 6 627.46 6.13
 0 0 7 0.57 0.81
 0 0 8 34.47 1.95
 0 1 1 1184.22 3.15
 0 1 2 774.33 3.57
 0 1 3 85.76 1.54
 0 1 4 159.46 2.46
 0 1 5 6.64 0.74
 0 1 6 10.65 1.07
 0 1 7 63.15 2.25
 0 1 8 7.6 1.25
 0 2 0 230.24 1.2
 0 2 1 46.35 0.71
 0 2 2 273.49 2.23
 0 2 3 929.92 4.99
 0 2 4 96.13 1.94
 0 2 6 15.7 1.19
 0 2 7 17.05 1.35
 0 2 8 12.82 1.42
 0 3 1 1438.71 4.13
 0 3 6 14.4 1.17
 0 3 8 38.07 2.02
 0 4 2 392.16 2.87
 0 4 5 4.18 0.68
 0 4 6 333.24 4.56
 0 4 7 6.55 1.03
 0 4 8 6.97 1.17
 0 5 1 182.54 1.83
 0 5 2 308.19 2.69
 0 5 5 3.19 0.63
 0 5 6 87.76 2.44
 0 5 8 3.71 1.02
 0 6 1 100.19 1.49
 0 6 6 63.43 2.11
 0 6 7 12.86 1.37
 0 6 8 46.15 2.25
 0 7 4 -0.15 0.43
 0 7 7 61.63 2.35
 0 7 8 22.56 1.8
 0 8 2 25.46 0.98
 0 8 4 24 1.15
 0 8 5 11.31 0.94
 0 8 7 13.22 1.44
 0 8 8 14.16 1.61
 0 9 1 10.34 0.74
 0 9 3 7.53 0.68
 0 9 4 278.04 3.82
 0 9 5 2.73 0.67
 0 9 6 112.69 2.95
 0 9 7 4.35 0.99
 0 10 3 104.16 2.27
 0 10 4 168.72 3.16
 0 10 5 21.83 1.36
 0 10 6 18.98 1.39
 0 10 7 2.04 1
 0 11 3 12.11 0.94
 0 11 4 0.1 0.58
 0 11 5 14.06 1.29
 0 12 3 167.32 3.17
 0 12 4 117.15 2.8
 0 12 6 3.65 0.93
 0 12 7 3.45 0.99
 0 13 6 39.49 2.14
 0 14 3 14.29 1.28
 0 14 4 5.63 1.02
 0 14 5 22.66 1.7
 0 14 6 1.76 0.91
 0 15 4 0.21 0.78
 0 15 6 17.94 1.75
 1 -6 8 -0.51 0.85
 1 -5 8 0.81 0.95
 1 -4 7 135.05 3.43
 1 -4 8 40.73 2.21
 1 -3 6 76.43 2.44
 1 -3 7 9.3 1.3
 1 -3 8 32.25 2.01
 1 -2 6 250.71 4.23
 1 -2 7 3.58 1.06
 1 -1 6 74.79 2.39
 1 -1 7 20.89 1.64
 1 -1 8 4.16 1.1
 1 0 5 25.77 1.27
 1 0 6 0.4 0.59
 1 0 7 193.41 4.05
 1 0 8 0.25 1.04
 1 1 6 78.96 2.45
 1 1 7 19.76 1.57
 1 1 8 4.89 1.14
 1 2 0 1898.41 3.38
 1 2 1 74.71 1.07
 1 2 2 452.98 3.24
 1 2 5 0.48 0.63
 1 2 7 4.26 1.07
 1 2 8 30.27 1.92
 1 3 0 1886.48 3.89
 1 3 1 0.15 0.2
 1 3 2 145.72 1.92
 1 3 5 30.66 1.43
 1 3 6 72.53 2.3
 1 3 7 11.89 1.41
 1 3 8 34.64 2.08
 1 4 0 1836.95 4.44
 1 4 1 781.36 3.63
 1 4 2 455.07 3.37
 1 4 4 35.16 1.36
 1 4 5 36.55 1.56
 1 4 6 49.83 2.01
 1 5 0 0.66 0.26
 1 5 1 73.16 1.22
 1 5 4 10.7 0.84
 1 5 5 43.7 1.72
 1 5 6 42.52 1.9
 1 5 8 0.83 1.05
 1 6 0 20.02 0.64
 1 6 1 324.68 2.68
 1 6 2 9.67 0.63
 1 6 4 470.76 4.77
 1 6 5 3.22 0.69
 1 6 6 34.49 1.79
 1 6 7 27.34 1.81
 1 6 8 0.38 1
 1 7 0 1033.25 4.65
 1 7 2 55.45 1.37
 1 7 4 3.02 0.67
 1 7 5 6.25 0.88
 1 7 6 42.88 1.91
 1 7 7 0.01 0.73
 1 8 1 213.31 2.49
 1 8 2 306.96 3.28
 1 8 4 13.57 1.04
 1 8 5 34.33 1.66
 1 8 7 52.27 2.36
 1 9 3 225.73 3.29
 1 9 4 10.52 0.97
 1 9 5 25.76 1.52
 1 10 3 15.25 1.04
 1 10 4 7.75 0.87
 1 10 6 23.75 1.66
 1 10 7 53.2 2.41
 1 11 2 5.41 0.64
 1 11 3 0.23 0.46
 1 11 4 0.5 0.54
 1 11 6 27.91 1.77
 1 11 7 -0.21 1.05
 1 12 3 1.25 0.55
 1 12 4 14.69 1.22
 1 12 5 34 1.79
 1 12 6 1.11 1.02
 1 13 2 -0.24 0.47
 1 13 4 6.66 0.95
 1 13 6 0.23 0.82
 1 14 3 16.22 1.33
 1 14 4 36.95 1.89
 1 14 6 76.73 2.87
 1 15 3 0.41 0.76
 1 15 4 1.61 1.02
 1 15 5 0.27 0.83
 1 16 4 74.13 2.66
 2 -5 7 12.96 1.5
 2 -4 7 1.19 0.92
 2 -3 6 3.17 0.9
 2 -2 6 22.06 1.56
 2 -2 7 7.41 1.25
 2 -1 5 -0.17 0.52
 2 -1 6 -0.45 0.64
 2 -1 7 46.8 2.36
 2 0 5 0.02 0.52
 2 0 6 42.59 1.95
 2 1 4 101.21 2.34
 2 1 5 -0.62 0.57
 2 1 6 1.02 0.83
 2 1 7 50.04 2.35
 2 2 0 392.27 2.07
 2 2 1 277.96 2.36
 2 2 4 62.69 1.86
 2 2 5 68.18 2.22
 2 2 6 20.09 1.52
 2 2 7 6.48 1.18
 2 3 0 718.38 2.85
 2 3 1 378.59 2.79
 2 3 2 129.58 2.03
 2 3 4 4.81 0.71
 2 3 5 5.97 0.92
 2 3 6 1.63 0.82
 2 4 0 87.25 1.08
 2 4 1 102.8 1.5
 2 4 2 454.41 3.74
 2 4 4 106.53 2.44
 2 4 5 12.65 1.12
 2 4 6 4.19 0.92
 2 4 7 1.38 1.09
 2 5 0 0.24 0.19
 2 5 2 119.03 1.99
 2 5 5 6.62 0.9
 2 5 6 0.27 0.86
 2 5 7 12.31 1.53
 2 6 0 592.25 3.19
 2 6 1 56.67 1.2
 2 6 2 182.2 2.49
 2 6 4 263.46 3.84
 2 6 5 28.8 1.55
 2 6 6 97.47 2.88
 2 6 7 3.59 1.01
 2 7 1 130.1 1.91
 2 7 2 148.27 2.35
 2 7 3 0.3 0.39
 2 7 4 1.87 0.56
 2 7 5 5.02 0.9
 2 8 1 96.87 1.78
 2 8 3 0.13 0.45
 2 8 4 0.58 0.68
 2 8 5 39.79 1.86
 2 8 6 41.05 2.08
 2 8 7 3.13 1.18
 2 9 1 0.25 0.38
 2 9 5 25.51 1.62
 2 9 6 2.72 0.97
 2 10 2 54.06 1.58
 2 10 4 152.28 3.16
 2 10 5 2.93 0.97
 2 11 2 101.21 2.25
 2 11 3 0.57 0.64
 2 11 5 1.36 0.88
 2 12 1 60.04 1.71
 2 12 3 0.71 0.59
 2 12 4 23.34 1.54
 2 12 6 130.15 3.51
 2 13 3 2.25 0.68
 2 13 4 104.41 2.88
 2 13 5 31.65 1.83
 2 14 3 19.52 1.35
 2 14 4 13.73 1.41
 2 14 5 -0.44 0.76
 2 15 3 -0.27 0.66
 2 16 3 1.52 0.96
 2 16 4 7.18 1.21
 3 -4 6 44.23 2.3
 3 -3 6 3.34 0.98
 3 -3 7 2.08 1.21
 3 -2 7 -0.46 1.08
 3 -1 6 12.23 1.58
 3 -1 7 4.49 1.22
 3 0 4 -0.47 0.45
 3 0 5 22.46 1.53
 3 0 6 -0.3 0.92
 3 1 3 26.21 1.25
 3 1 4 34.92 1.58
 3 1 5 15.63 1.35
 3 1 6 11.17 1.52
 3 1 7 4.56 1.33
 3 2 -1 76.22 0.73
 3 2 1 6.54 0.52
 3 2 2 3.29 0.5
 3 2 3 0.27 0.4
 3 2 4 29.27 1.52
 3 2 5 4.11 1.02
 3 2 6 49.47 2.28
 3 2 7 0.21 1.04
 3 3 -1 86.25 0.73
 3 3 0 28.71 0.71
 3 3 1 24.83 0.87
 3 3 2 11.64 0.79
 3 3 3 4.7 0.7
 3 3 4 0.47 0.54
 3 3 5 2 0.82
 3 3 6 2.68 0.91
 3 3 7 4.05 1.21
 3 4 -1 207.47 1.22
 3 4 0 276.18 2.13
 3 4 1 0.8 0.34
 3 4 2 344.95 3.61
 3 4 6 42.76 2.16
 3 5 -1 263.1 1.56
 3 5 1 10.7 0.64
 3 5 3 27.24 1.23
 3 5 4 26.54 1.39
 3 5 5 22.27 1.5
 3 5 6 36.91 1.94
 3 6 -1 124.47 1.25
 3 6 1 1.22 0.34
 3 6 4 0.29 0.68
 3 6 5 26.24 1.58
 3 7 0 258.56 2.37
 3 7 3 0.13 0.57
 3 7 5 1 0.73
 3 7 6 24.31 1.73
 3 8 0 223.63 2.36
 3 8 1 0 0.39
 3 8 2 442.74 4.3
 3 8 3 36.32 1.51
 3 8 4 145.71 3.11
 3 8 5 -0.12 0.69
 3 8 6 49.97 2.3
 3 9 0 62.13 1.33
 3 9 2 43.25 1.45
 3 9 3 8.22 0.94
 3 9 4 0.21 0.59
 3 9 5 15.38 1.39
 3 9 6 39.56 2.13
 3 10 0 160.28 2.27
 3 10 3 0.26 0.53
 3 10 4 40.37 1.83
 3 10 5 29.86 1.73
 3 10 6 31.69 1.92
 3 11 1 77.66 1.84
 3 11 2 35.48 1.44
 3 11 4 40.61 1.89
 3 11 5 3.8 0.97
 3 12 1 0.41 0.44
 3 12 2 212.97 3.46
 3 12 4 43.01 1.95
 3 12 5 4.25 0.98
 3 13 1 1.74 0.61
 3 13 2 -0.02 0.52
 3 13 3 -0.12 0.77
 3 13 5 3.21 1.01
 3 14 2 1.81 0.8
 3 14 3 -0.24 0.68
 3 15 2 3.66 0.94
 3 15 3 14.19 1.31
 3 16 3 2.53 0.91
 4 -5 6 3.31 1.34
 4 -4 6 0.93 0.99
 4 -3 6 76.46 2.91
 4 -2 5 1.08 0.94
 4 -2 6 19.74 1.87
 4 -1 5 1.68 0.94
 4 -1 6 47.11 2.42
 4 0 4 0.54 0.65
 4 0 5 -0.29 0.74
 4 0 6 1.06 0.98
 4 1 3 51.97 1.84
 4 1 4 11.67 1.21
 4 1 5 1.26 0.84
 4 1 6 43.54 2.22
 4 2 -1 579.27 2.62
 4 2 0 26.25 0.81
 4 2 1 45.69 1.27
 4 2 3 71.51 2.1
 4 2 4 14.12 1.28
 4 2 5 1.02 0.95
 4 2 6 17.85 1.61
 4 3 -1 29.62 0.58
 4 3 0 931.78 4.47
 4 3 1 33.96 1.12
 4 3 3 89.6 2.31
 4 3 5 6.9 1.16
 4 3 6 76.8 2.81
 4 4 -1 25.56 0.53
 4 4 0 15.04 0.62
 4 4 1 5.96 0.58
 4 4 3 20.22 1.2
 4 4 4 3.58 0.82
 4 4 5 1.35 0.82
 4 4 6 0.36 1.02
 4 5 0 197.04 2.05
 4 5 1 40.56 1.2
 4 5 2 13.33 0.9
 4 5 3 10.67 0.98
 4 5 4 19.43 1.39
 4 5 5 2.62 1
 4 5 6 1.87 0.95
 4 6 0 83.14 1.39
 4 6 1 42.51 1.22
 4 6 2 18.43 1.02
 4 6 3 33.09 1.47
 4 6 4 62.47 2.2
 4 6 5 2.37 1.02
 4 7 0 240.34 2.35
 4 7 1 14.8 0.81
 4 7 2 40.6 1.43
 4 7 4 30.8 1.62
 4 7 5 6.71 1.19
 4 8 2 32.4 1.31
 4 8 3 38.67 1.61
 4 8 4 38.39 1.82
 4 8 5 1.44 0.89
 4 9 2 10.86 0.91
 4 9 3 -0.06 0.66
 4 9 4 74.47 2.41
 4 10 3 4.16 0.84
 4 10 4 35.88 1.78
 4 10 5 3.72 0.98
 4 11 3 61.7 2.07
 4 11 4 -0.93 0.67
 4 13 3 2.12 0.7
 4 13 4 53.62 2.18
 5 -4 5 0.31 0.95
 5 -3 5 10.59 1.49
 5 -2 4 4.03 1.07
 5 -2 5 -0.39 0.85
 5 -1 4 220.08 4.3
 5 -1 5 9.39 1.47
 5 0 3 200.64 3.73
 5 0 4 0.21 0.73
 5 0 5 0.68 0.97
 5 1 2 29.75 1.38
 5 1 3 21.38 1.43
 5 1 4 235.79 4.43
 5 1 5 8.67 1.31
 5 2 2 6.23 0.79
 5 2 3 2.77 0.8
 5 2 4 5.56 1.06
 5 2 5 -0.39 0.78
 5 3 3 4.18 0.86
 5 3 5 9.98 1.4
 5 4 2 1.42 0.54
 5 4 4 11.52 1.26
 5 4 5 0.37 0.82
 5 5 2 41.3 1.47
 5 5 3 29.38 1.53
 5 5 4 146.17 3.31
 5 5 5 7.68 1.26
 5 6 3 18.22 1.26
 5 6 4 16.24 1.41
 5 6 5 -0.15 0.9
 5 7 3 1.54 0.6
 5 7 4 8.48 1.2
 5 8 4 13.24 1.31
 6 -4 4 65.25 2.66
 6 -3 4 108.23 3.19
 6 -2 4 2.28 1.03
 6 -1 2 51.39 1.95
 6 -1 3 31.24 1.75
 6 0 2 10.1 1.01
 6 0 3 0.1 0.79
 6 1 3 30.74 1.72
 6 1 4 49.97 2.24
 6 2 4 2.05 0.87
 6 3 4 111.72 3
 0 -7 0 0.24 0.09
 0 -5 0 3.08 0.16
 0 -2 1 45.52 0.51
 0 -1 1 1221.58 2.72
 0 0 1 0.22 0.15
 0 1 1 1208.27 3.09
 0 4 -1 7.67 0.2
 1 -9 0 1.87 0.2
 1 -8 1 208.61 1.17
 1 -8 2 313.32 1.92
 1 -7 1 17.7 0.41
 1 -7 2 58.13 0.94
 1 -7 3 28.87 0.85
 1 -6 1 324.41 1.7
 1 -6 3 10.96 0.61
 1 -5 1 75.56 0.88
 1 -5 2 86.56 1.19
 1 -5 3 383.82 3
 1 -4 1 773.66 2.78
 1 -4 2 462.08 2.73
 1 -4 3 17.4 0.74
 1 -4 4 35.6 1.24
 1 -3 1 0.08 0.18
 1 -3 2 144.59 1.6
 1 -3 3 137.24 1.92
 1 -2 1 72.36 0.92
 1 -2 2 448.53 2.81
 1 -2 3 1.54 0.4
 1 -1 2 249.91 2.18
 1 -1 3 416.54 3.36
 1 0 0 0.44 0.17
 1 0 1 2212.44 5.14
 1 0 2 -0.05 0.29
 1 1 0 518.66 2
 1 1 1 190.54 1.57
 1 1 2 249.51 2.26
 1 2 0 1905.16 3.82
 1 2 2 463.01 3.12
 1 3 0 1897.48 3.85
 1 3 1 0.25 0.24
 1 3 2 143.38 1.82
 1 4 0 1836.56 3.88
 1 4 1 774.58 3.36
 1 4 2 460.87 3.25
 1 4 3 18.78 0.87
 1 5 -1 63.11 0.6
 1 5 0 0.41 0.18
 1 5 1 76.47 1.14
 1 5 3 396.51 3.7
 1 6 0 20.64 0.47
 1 6 1 334.68 2.37
 1 6 2 9.72 0.62
 1 7 0 1013.62 3.04
 1 7 1 18.41 0.61
 2 -11 0 9.07 0.42
 2 -11 1 45.9 0.78
 2 -10 0 215.07 1.76
 2 -10 1 0.1 0.21
 2 -10 2 58.45 1.08
 2 -10 3 47.71 1.12
 2 -9 0 89.48 1.23
 2 -9 1 0.42 0.23
 2 -9 2 131.34 1.64
 2 -9 3 6.84 0.58
 2 -8 0 77.39 1.16
 2 -8 1 98.34 1.33
 2 -8 2 0.98 0.31
 2 -8 3 0.17 0.32
 2 -7 2 154.74 1.87
 2 -7 3 0.18 0.35
 2 -6 0 597.61 3.11
 2 -6 2 180.13 2.05
 2 -6 3 83.35 1.68
 2 -5 1 44.37 0.94
 2 -5 2 115.27 1.69
 2 -5 3 7.54 0.65
 2 -5 4 227.51 3.09
 2 -4 1 105.65 1.44
 2 -4 2 450.03 3.27
 2 -4 3 0.27 0.42
 2 -4 4 96.65 2.07
 2 -4 5 14.09 1.14
 2 -3 0 708.27 3.39
 2 -3 1 366.79 2.64
 2 -3 3 2.24 0.47
 2 -3 4 6.03 0.77
 2 -3 5 6.03 0.86
 2 -2 0 401.58 2.56
 2 -2 2 86.75 1.52
 2 -2 3 106.29 1.95
 2 -2 4 64.39 1.76
 2 -2 5 68.6 2.13
 2 -1 2 2.85 0.4
 2 -1 3 2.31 0.49
 2 -1 5 0 0.64
 2 0 0 687.39 3.32
 2 0 1 -0.24 0.31
 2 0 2 1248.53 5.7
 2 0 4 266.06 3.55
 2 0 5 0.18 0.7
 2 1 1 227.99 2.19
 2 1 4 97.28 2.19
 2 1 5 0.15 0.61
 2 2 0 391.33 2.52
 2 2 1 272.74 2.4
 2 2 4 63.61 1.79
 2 2 5 65.83 2.21
 2 3 0 717.73 3.41
 2 3 1 373.49 2.83
 2 3 2 133.16 1.99
 2 4 0 89.2 1.25
 2 4 2 451.48 3.66
 2 4 4 97.71 2.3
 2 5 -1 6.55 0.38
 2 5 0 0.04 0.2
 2 5 2 112.45 1.92
 2 6 -1 80.79 1.07
 2 6 0 605.16 3.2
 2 6 2 186.56 2.49
 2 7 -1 84.17 1.06
 2 7 1 124.83 1.76
 2 7 2 150.18 2.3
 2 7 3 0.25 0.42
 2 8 -1 0.9 0.2
 2 8 1 95.52 1.61
 2 8 2 0.52 0.47
 2 8 3 -0.01 0.51
 2 9 -2 142.32 1.04
 2 9 0 87.52 1.29
 2 9 1 0.01 0.28
 2 9 3 7.89 0.91
 2 10 0 219.28 1.96
 2 10 1 0.27 0.34
 3 -12 -1 1.68 0.38
 3 -11 0 192.57 2.11
 3 -11 1 80.86 1.43
 3 -10 0 156.57 1.98
 3 -10 1 1.36 0.38
 3 -10 2 20.31 0.85
 3 -9 0 61.51 1.28
 3 -9 1 11.36 0.66
 3 -9 2 42.67 1.19
 3 -9 3 10.35 0.78
 3 -9 4 0.06 0.5
 3 -8 0 217.45 2.38
 3 -8 1 0.04 0.36
 3 -8 3 35.48 1.26
 3 -8 4 147.84 2.69
 3 -7 0 257.06 2.58
 3 -7 1 70.41 1.42
 3 -7 4 21.84 1.19
 3 -6 1 1.97 0.45
 3 -6 3 1.63 0.49
 3 -6 4 1.1 0.61
 3 -6 5 25.43 1.47
 3 -5 0 280.75 2.7
 3 -5 3 29.26 1.21
 3 -5 5 22.46 1.41
 3 -4 0 274.25 2.67
 3 -4 1 0.21 0.32
 3 -4 3 45.74 1.45
 3 -4 4 104.56 2.38
 3 -4 5 13.67 1.21
 3 -3 0 29.77 0.93
 3 -3 1 24.12 0.92
 3 -3 4 0.71 0.69
 3 -3 5 1.23 0.81
 3 -2 0 3.26 0.41
 3 -2 3 0.95 0.57
 3 -2 4 27.02 1.38
 3 -2 5 4.73 0.86
 3 -1 1 0.46 0.29
 3 -1 3 24.95 1.19
 3 -1 4 35.77 1.57
 3 -1 5 15.95 1.32
 3 0 3 57.54 1.7
 3 0 4 -0.12 0.59
 3 0 5 23.44 1.45
 3 1 4 34.88 1.58
 3 1 5 16.43 1.39
 3 2 1 5.89 0.55
 3 2 3 1.45 0.57
 3 2 4 26.46 1.38
 3 2 5 3.33 0.84
 3 3 3 5.04 0.74
 3 3 4 0.82 0.58
 3 4 0 277.47 2.69
 3 4 1 0.72 0.34
 3 4 3 46.99 1.63
 3 4 4 104.87 2.6
 3 4 5 13.01 1.34
 3 5 0 283.92 2.73
 3 5 3 28.4 1.34
 3 5 4 24.59 1.36
 3 6 -1 127.49 1.76
 3 6 0 49.33 1.18
 3 6 1 1.07 0.49
 3 6 3 1.53 0.68
 3 6 4 1.62 0.73
 3 7 -2 24.51 0.77
 3 7 -1 1.33 0.35
 3 7 0 256.18 2.64
 3 7 2 19.62 1.03
 3 7 3 -0.15 0.5
 3 7 4 20.05 1.39
 3 8 -1 25.63 0.82
 3 8 0 217.76 2.44
 3 8 2 465.04 4.47
 3 8 3 35.34 1.52
 3 8 4 143.11 3.17
 3 9 -2 0.56 0.23
 3 9 -1 179.03 1.98
 3 9 0 59.01 1.3
 3 9 2 43.04 1.47
 3 9 3 8.33 0.99
 3 10 0 161.65 2.1
 3 10 2 20.78 1.14
 3 10 3 0.59 0.69
 3 11 2 34.13 1.36
 4 -11 1 5.21 0.65
 4 -10 1 33.3 1.19
 4 -10 2 2.07 0.59
 4 -9 2 11.15 0.89
 4 -9 3 -0.44 0.58
 4 -8 1 4.16 0.63
 4 -8 2 33.46 1.3
 4 -8 3 38.63 1.48
 4 -8 4 40.93 1.68
 4 -7 1 16.39 0.94
 4 -7 2 42.36 1.45
 4 -7 3 92.53 2.2
 4 -7 4 28.49 1.5
 4 -7 5 6.62 1.03
 4 -6 2 18.74 1.07
 4 -6 3 35.56 1.48
 4 -6 4 58.94 2.03
 4 -6 5 2.41 1
 4 -5 4 19.94 1.38
 4 -5 5 2.33 0.9
 4 -4 2 184.58 2.97
 4 -4 3 21.18 1.28
 4 -4 4 4.52 0.98
 4 -3 2 238.6 3.36
 4 -3 3 91.46 2.28
 4 -3 4 58.27 2.05
 4 -3 5 6.14 1.11
 4 -2 3 68.38 2.03
 4 -2 4 13.95 1.31
 4 -2 5 0.03 0.89
 4 -1 -1 9.38 0.72
 4 -1 2 198.35 3.06
 4 -1 3 52.81 1.83
 4 -1 4 12.87 1.24
 4 -1 5 0.08 0.85
 4 0 2 311.37 3.84
 4 0 3 0.39 0.53
 4 0 4 0.68 0.68
 4 0 5 0.31 0.98
 4 1 -1 9.44 0.76
 4 1 3 53.23 1.85
 4 1 4 8.41 1.15
 4 1 5 -0.24 0.78
 4 2 -1 578.2 4.39
 4 2 2 7.63 0.84
 4 2 3 70.28 2.11
 4 2 4 14.33 1.36
 4 2 5 1.81 1.08
 4 3 -1 30.1 1.11
 4 3 1 34.87 1.33
 4 3 2 240.53 3.48
 4 3 3 88.09 2.34
 4 3 4 56.58 2.2
 4 3 5 4.99 1.12
 4 4 -1 24.62 1.02
 4 4 1 6.65 0.79
 4 4 2 179.18 3.06
 4 4 3 20.49 1.35
 4 4 4 4.04 1.03
 4 4 5 0.65 0.89
 4 5 -2 190.97 2.5
 4 5 2 11.5 1
 4 5 4 18.7 1.45
 4 5 5 3.69 1.23
 4 6 -2 8.67 0.7
 4 6 -1 267.45 2.97
 4 6 2 17.5 1.11
 4 6 5 2.17 1.04
 4 7 -1 32.49 1.12
 4 7 1 18.31 1.03
 4 7 2 41.9 1.63
 4 7 3 89.22 2.5
 4 7 4 29.93 1.82
 4 8 -3 0.73 0.41
 4 8 -2 36.18 1.1
 4 8 1 3.82 0.65
 4 8 2 31.77 1.47
 4 8 4 38.25 1.99
 4 9 -2 353.22 3.14
 4 9 1 26.15 1.21
 4 9 2 10.5 1.06
 4 9 3 0.87 0.8
 4 9 4 73.85 2.57
 4 10 3 5.34 1.01
 4 11 1 6.89 0.74
 4 11 2 23.17 1.36
 5 -12 -2 35.89 1.44
 5 -12 -1 0.29 0.54
 5 -11 -1 17.21 1.06
 5 -11 0 65.53 1.76
 5 -11 1 9.57 0.96
 5 -10 -1 -0.16 0.53
 5 -10 0 56.68 1.69
 5 -10 1 0.42 0.55
 5 -10 2 4.17 0.77
 5 -9 -1 74.69 1.93
 5 -9 0 46.91 1.58
 5 -9 1 79.61 2.04
 5 -9 2 0.78 0.73
 5 -9 3 23.64 1.41
 5 -8 -1 1.34 0.55
 5 -8 0 90.72 2.12
 5 -8 1 16.93 1.12
 5 -8 2 -0.3 0.62
 5 -8 3 70.41 2.16
 5 -8 4 11.81 1.26
 5 -7 -1 35.39 1.4
 5 -7 0 34.98 1.41
 5 -7 1 0.44 0.52
 5 -7 2 152.49 2.97
 5 -7 3 1 0.76
 5 -7 4 9.09 1.25
 5 -6 1 -0.09 0.51
 5 -6 2 -0.14 0.63
 5 -6 3 19.05 1.4
 5 -6 4 15.16 1.41
 5 -6 5 -0.97 0.84
 5 -5 0 266.75 3.6
 5 -5 2 40.41 1.68
 5 -5 4 145.15 3.31
 5 -5 5 6.35 1.19
 5 -4 -1 5.82 0.72
 5 -4 1 7.47 0.93
 5 -4 2 1.29 0.64
 5 -4 3 143.14 3.09
 5 -4 5 -0.16 0.92
 5 -3 -1 65.42 1.81
 5 -3 0 27.12 1.25
 5 -3 1 24.47 1.32
 5 -3 3 5.83 0.97
 5 -3 4 96.15 2.82
 5 -3 5 10.05 1.41
 5 -2 -1 -0.18 0.43
 5 -2 0 432.4 4.55
 5 -2 1 0.4 0.61
 5 -2 2 6.23 0.87
 5 -2 3 1.79 0.79
 5 -2 4 4.06 1
 5 -2 5 1.6 1.15
 5 -1 -1 95.58 2.14
 5 -1 0 285.74 3.75
 5 -1 1 89.15 2.23
 5 -1 2 28.68 1.51
 5 -1 3 22.03 1.43
 5 -1 4 240.71 4.58
 5 -1 5 8.31 1.4
 5 0 0 0.28 0.46
 5 0 1 1.59 0.58
 5 0 2 -0.76 0.51
 5 0 3 202.1 3.87
 5 0 4 -0.34 0.84
 5 0 5 1.54 1.23
 5 1 0 282.07 3.73
 5 1 1 91.95 2.27
 5 1 3 21.97 1.49
 5 1 4 216.35 4.41
 5 1 5 6.9 1.29
 5 2 -2 8.76 0.82
 5 2 -1 0.4 0.45
 5 2 1 -0.49 0.6
 5 2 2 7.22 0.93
 5 2 3 1.94 0.81
 5 2 4 4.6 1.3
 5 2 5 -0.88 1.1
 5 3 -2 104.08 2.18
 5 3 -1 62.98 1.75
 5 3 1 25.33 1.32
 5 3 2 14.36 1.22
 5 3 3 5.06 1
 5 3 5 8.49 1.38
 5 4 -1 7.01 0.84
 5 4 1 6.84 0.88
 5 4 2 0.92 0.63
 5 4 3 146.55 3.36
 5 4 5 -0.06 1.03
 5 5 -2 285.99 3.51
 5 5 -1 124.51 2.41
 5 5 1 100.53 2.4
 5 5 2 41.73 1.75
 5 5 3 30.97 1.74
 5 5 4 146.45 3.62
 5 5 5 8.09 1.45
 5 6 -3 49.76 1.53
 5 6 -2 14.43 0.94
 5 6 -1 0.95 0.52
 5 6 1 -0.74 0.61
 5 6 2 -0.1 0.61
 5 6 3 18.31 1.5
 5 6 4 15.73 1.65
 5 7 -3 4.42 0.68
 5 7 -2 3.15 0.63
 5 7 -1 34.36 1.35
 5 7 0 33.12 1.41
 5 7 1 0.65 0.57
 5 7 2 153.02 3.19
 5 7 3 1.05 0.84
 5 7 4 8.25 1.29
 5 8 -4 5 0.62
 5 8 -3 93.27 1.97
 5 8 -2 41.97 1.39
 5 8 -1 0.43 0.55
 5 8 0 91.16 2.18
 5 8 1 16.36 1.18
 5 8 2 0.53 0.79
 5 8 3 71.55 2.48
 5 8 4 13.54 1.5
 5 9 -1 73.87 1.86
 5 9 0 46.63 1.6
 5 9 1 80.56 2.22
 5 9 2 0.51 0.88
 5 9 3 23.79 1.73
 5 9 4 13.35 1.6
 5 10 -1 -0.32 0.3
 5 10 0 52.21 1.69
 5 10 2 3.79 1.05
 5 10 3 31 1.8
 5 10 4 29.05 2.11
 5 11 1 12.6 1.09
 5 11 3 5.55 1.08
 5 12 3 17.18 1.57
 6 -13 -3 1.94 0.82
 6 -12 -3 39.22 1.7
 6 -12 -2 3.16 0.86
 6 -11 -2 49.82 1.83
 6 -11 -1 1.47 0.67
 6 -11 0 0.54 0.65
 6 -10 -2 62.52 2.04
 6 -10 -1 8.64 1.06
 6 -10 1 6.93 1.01
 6 -9 -2 214.75 3.66
 6 -9 -1 6.95 0.96
 6 -9 0 284.85 4.15
 6 -9 1 12.49 1.21
 6 -9 2 40.49 1.77
 6 -8 -2 1.95 0.74
 6 -8 -1 1.4 0.65
 6 -8 0 2.83 0.88
 6 -8 1 30.07 1.6
 6 -8 3 0.89 0.81
 6 -7 -2 153.28 3.16
 6 -7 -1 3.12 0.73
 6 -7 0 41.86 1.76
 6 -7 1 7.34 1.03
 6 -7 2 35.3 1.75
 6 -7 3 46.29 2.04
 6 -6 -2 68.78 2.15
 6 -6 -1 1.02 0.73
 6 -6 0 2.8 0.83
 6 -6 2 8.17 1.06
 6 -6 3 11.89 1.37
 6 -5 -2 113.04 2.62
 6 -5 0 154.07 3.17
 6 -5 1 2.9 0.92
 6 -5 2 1.2 0.83
 6 -5 3 15.9 1.5
 6 -4 -2 0.16 0.55
 6 -4 -1 0.33 0.57
 6 -4 0 0.52 0.61
 6 -4 1 10.94 1.17
 6 -4 2 9.8 1.24
 6 -4 3 0.69 0.83
 6 -3 -2 130.96 2.81
 6 -3 -1 3.63 0.76
 6 -3 0 48.71 1.85
 6 -3 2 116.51 2.99
 6 -3 3 47.86 2.17
 6 -3 4 108.57 3.23
 6 -2 -2 13.89 1.15
 6 -2 -1 2.36 0.81
 6 -2 0 -0.21 0.72
 6 -2 2 0.79 0.89
 6 -2 3 22.47 1.71
 6 -2 4 0.92 1.16
 6 -1 -2 1.19 0.73
 6 -1 -1 0.68 0.59
 6 -1 1 -0.39 0.68
 6 -1 3 28.51 1.8
 6 -1 4 49 2.41
 6 0 -2 1.67 0.75
 6 0 -1 0.42 0.56
 6 0 0 2.78 0.73
 6 0 1 -0.68 0.73
 6 0 2 9.03 1.31
 6 0 3 0.08 0.9
 6 0 4 86.76 3.03
 6 1 -2 1.23 0.6
 6 1 -1 1.42 0.73
 6 1 0 1.32 0.67
 6 1 1 0.15 0.71
 6 1 2 50.55 2.16
 6 1 3 32.25 1.9
 6 1 4 47.62 2.4
 6 2 -2 14.88 1.17
 6 2 -1 1.75 0.66
 6 2 0 0.79 0.72
 6 2 1 128.1 3.03
 6 2 2 1.47 0.89
 6 2 3 22.69 1.76
 6 2 4 2.39 1.17
 6 3 -3 45.63 1.74
 6 3 -2 134.15 2.8
 6 3 -1 4.28 0.9
 6 3 0 49.53 1.88
 6 3 1 7.71 1.07
 6 3 2 115.48 3.08
 6 3 3 48.32 2.28
 6 4 -3 22.12 1.33
 6 4 -2 -0.13 0.66
 6 4 -1 0.33 0.67
 6 4 0 0.36 0.69
 6 4 2 10.55 1.27
 6 4 3 -0.23 0.86
 6 5 -3 1.17 0.58
 6 5 -1 3.66 0.75
 6 5 1 2.4 0.9
 6 5 2 0.32 1.02
 6 5 3 13.73 1.62
 6 6 -4 56.11 1.86
 6 6 -3 0.82 0.56
 6 6 -1 0.88 0.75
 6 6 0 2.27 0.74
 6 6 1 57.88 2.19
 6 6 2 12.08 1.44
 6 6 3 12.23 1.52
 6 7 -4 19.01 1.21
 6 7 -3 50.49 1.74
 6 7 -2 150.78 2.88
 6 7 -1 3.83 0.83
 6 7 0 41.26 1.8
 6 7 3 45.94 2.27
 6 8 -4 1.82 0.54
 6 8 -3 47.3 1.67
 6 8 -2 0.56 0.58
 6 8 -1 1.32 0.79
 6 8 3 -0.62 0.9
 6 9 -2 221.7 3.46
 6 9 -1 8.8 1.04
 6 9 0 278.16 4.17
 6 9 1 11.31 1.26
 6 9 2 40.5 2.02
 6 9 3 3.64 1.12
 6 10 0 2.18 0.76
 6 10 2 13.49 1.46
 6 11 1 2.02 0.98
 6 11 2 1.28 0.85
 7 -12 -4 0.17 0.81
 7 -11 -4 88.1 2.68
 7 -11 -3 15.76 1.42
 7 -11 -2 20.82 1.46
 7 -11 -1 12.78 1.29
 7 -10 -3 2.28 0.99
 7 -10 -2 6.5 1.04
 7 -10 -1 7.71 1.15
 7 -10 0 3.42 0.89
 7 -9 -3 8.71 1.17
 7 -9 -2 28.97 1.68
 7 -9 -1 42.99 1.92
 7 -9 1 13.86 1.38
 7 -8 -2 0.94 0.96
 7 -8 0 23.85 1.61
 7 -8 1 1.19 0.9
 7 -7 -3 6.52 1.13
 7 -7 -2 11.17 1.33
 7 -7 -1 3.18 1.04
 7 -7 0 61.66 2.26
 7 -7 1 0.88 0.86
 7 -7 2 75.33 2.58
 7 -6 -3 2.3 0.94
 7 -6 -2 38.39 1.83
 7 -6 -1 5.5 0.99
 7 -6 0 3.71 0.94
 7 -6 1 18.85 1.58
 7 -6 2 3.92 1.26
 7 -5 -3 6.04 1.18
 7 -5 -1 60.52 2.27
 7 -5 0 27.09 1.73
 7 -5 1 16.06 1.53
 7 -5 2 63.11 2.45
 7 -4 -3 15.28 1.44
 7 -4 -2 1.39 0.91
 7 -4 -1 17.64 1.54
 7 -4 0 13.76 1.46
 7 -4 1 0.54 0.98
 7 -4 2 13.44 1.52
 7 -3 -3 0.96 0.89
 7 -3 -2 5.37 0.98
 7 -3 -1 2.64 1.04
 7 -3 0 4.57 1.16
 7 -3 1 -0.12 0.9
 7 -2 -3 0.48 0.7
 7 -2 -2 192.17 3.79
 7 -2 -1 1.22 0.76
 7 -2 0 29.35 1.8
 7 -2 1 4.07 1.23
 7 -2 2 9.8 1.34
 7 -1 -3 2.32 0.84
 7 -1 -2 87.05 2.57
 7 -1 -1 28.31 1.7
 7 -1 0 22.62 1.6
 7 -1 1 7.45 1.2
 7 -1 2 20.05 1.74
 7 0 -3 13.67 1.33
 7 0 -2 -0.01 0.71
 7 0 -1 22.12 1.55
 7 0 0 -0.17 0.73
 7 0 1 1.31 1.06
 7 0 2 0.03 0.9
 7 1 -3 1.95 0.79
 7 1 -2 85.94 2.54
 7 1 -1 28.68 1.71
 7 1 0 21.73 1.6
 7 1 1 7.27 1.24
 7 1 2 19.46 1.75
 7 2 -3 0.55 0.77
 7 2 -2 194.84 3.77
 7 2 -1 1.32 0.96
 7 2 0 30.17 1.74
 7 2 1 3.72 1.04
 7 2 2 11.5 1.55
 7 3 -4 26.63 1.62
 7 3 -3 2.24 0.78
 7 3 -2 5.43 0.98
 7 3 -1 1.42 0.77
 7 3 0 3.05 1.04
 7 3 1 1.25 1.08
 7 3 2 10.75 1.58
 7 4 -4 13.93 1.34
 7 4 -3 12.75 1.23
 7 4 -2 0.15 0.75
 7 4 -1 19.85 1.52
 7 4 0 14.58 1.42
 7 4 1 0.18 0.86
 7 4 2 15.23 1.66
 7 5 -4 27.81 1.58
 7 5 -3 6.27 1.04
 7 5 -1 58.63 2.22
 7 5 0 24.76 1.7
 7 5 1 16.41 1.61
 7 6 -5 50.1 2.01
 7 6 -4 135.63 3.03
 7 6 -3 2.06 0.82
 7 6 -2 37.71 1.8
 7 6 -1 6.9 1.07
 7 6 2 2.39 1.06
 7 7 -5 15.38 1.32
 7 7 -4 106.25 2.68
 7 7 -3 8.48 1.13
 7 7 -2 16.56 1.35
 7 7 -1 4.7 1.14
 7 7 0 59.94 2.29
 7 7 1 0.12 1.03
 7 8 -4 13.27 1.22
 7 8 -3 7.42 1.05
 7 8 -2 1.83 0.78
 7 8 -1 16.84 1.42
 7 8 0 22.15 1.65
 7 8 1 0.31 0.94
 7 9 -2 29.33 1.59
 7 9 -1 41.69 1.89
 7 9 0 0.18 0.87
 7 9 1 13.49 1.51
 7 10 -1 6.37 1.08
 7 10 0 3.63 1.05
 7 10 1 29.13 1.85
 8 -9 -4 42.88 2.16
 8 -9 -3 3.4 1.06
 8 -9 -2 3.58 1.06
 8 -8 -4 5.85 1.18
 8 -8 -3 21.38 1.66
 8 -8 -2 29 1.84
 8 -8 -1 42.14 2.09
 8 -7 -3 22.88 1.78
 8 -7 -2 1.05 0.91
 8 -7 -1 32.34 1.92
 8 -6 -4 21.1 1.69
 8 -6 -3 34.25 1.98
 8 -6 -2 56.07 2.37
 8 -6 -1 18.98 1.7
 8 -5 -3 1.85 1.12
 8 -5 -2 1.85 0.96
 8 -5 -1 25.71 1.79
 8 -5 0 40.43 2.18
 8 -4 -4 122.67 3.37
 8 -4 -3 8.9 1.45
 8 -4 -2 1.58 0.94
 8 -4 -1 16.19 1.61
 8 -4 0 122.16 3.34
 8 -3 -4 117.36 3.3
 8 -3 -2 23.78 1.7
 8 -3 -1 52.54 2.33
 8 -3 0 7.15 1.29
 8 -2 -3 54.47 2.3
 8 -2 -2 10.21 1.45
 8 -2 -1 42.6 2.15
 8 -2 0 2.38 1.03
 8 -1 -4 152.25 3.67
 8 -1 -3 5.42 1.31
 8 -1 -2 20.32 1.64
 8 -1 -1 47.89 2.3
 8 -1 0 1.95 1.24
 8 0 -4 251.88 4.69
 8 0 -3 0.31 1
 8 0 -2 4.89 1.22
 8 0 -1 -0.74 0.89
 8 0 0 200.37 4.27
 8 1 -5 16.62 1.6
 8 1 -3 2.99 1.17
 8 1 -2 21.92 1.74
 8 1 -1 46.83 2.24
 8 1 0 1.95 1.03
 8 2 -4 3.89 1.06
 8 2 -3 52.82 2.3
 8 2 -2 11.97 1.42
 8 2 -1 39.61 2.13
 8 3 -5 9.35 1.31
 8 3 -2 23.05 1.75
 8 3 -1 52.33 2.38
 8 3 0 5.54 1.27
 8 4 -6 132.33 3.52
 8 4 -5 2.17 1.07
 8 4 -4 123.26 3.24
 8 4 -3 6.49 1.14
 8 4 -2 0.15 0.83
 8 4 -1 16.44 1.6
 8 5 -5 3.78 1.02
 8 5 -4 101.45 2.93
 8 5 -3 1.44 0.88
 8 5 -2 1.42 0.97
 8 5 -1 24.93 1.76
 8 5 0 38.39 2.15
 8 6 -6 31.33 1.85
 8 6 -5 76.69 2.55
 8 6 -4 22.99 1.66
 8 6 -3 34.79 1.91
 8 6 -2 56.58 2.31
 8 6 -1 18.86 1.63
 8 7 -6 3.41 0.93
 8 7 -5 0.77 0.81
 8 7 -4 23.2 1.64
 8 7 -3 20.5 1.6
 8 7 -2 0.39 0.97
 8 7 -1 34.94 1.97
 8 8 -4 8.51 1.26
 8 8 -3 20.38 1.57
 8 8 -2 29.84 1.82
 8 8 -1 44.09 2.14
 8 9 -3 2.3 0.87
 8 9 -2 4.63 1.01
 -2 -4 -4 104.01 1.47
 -2 3 -7 80.88 2.84
 -2 4 -7 0.35 1.47
 -1 -5 -4 10.08 0.48
 -1 -4 -5 36.27 1.06
 -1 -4 -4 37.06 0.89
 -1 -4 -3 17.8 0.51
 -1 -3 -5 33.17 1.15
 -1 -2 -5 0.86 0.65
 -1 -1 -6 79.06 2.06
 -1 -1 -5 45.51 1.47
 -1 0 -7 187.2 3.88
 -1 0 -6 -0.18 0.88
 -1 1 -7 20.99 1.75
 -1 2 -7 5.06 1.39
 -1 3 -8 34.28 2.43
 -1 3 -7 13.44 1.74
 -1 4 -8 43.61 2.62
 -1 4 -7 132.87 3.43
 -1 5 -7 20.28 2.12
 -1 6 -7 28.68 2.36
 -1 7 -8 53.61 3.16
 -1 7 -7 -0.37 1.57
 -1 10 -7 55.01 3.2
 -1 11 -7 -2.22 1.76
 0 -6 -4 357.89 1.98
 0 -5 -4 300.09 2.17
 0 -5 -3 3.11 0.35
 0 -4 -5 5.02 0.67
 0 -4 -4 36.01 0.93
 0 -4 -3 133.53 1.33
 0 -4 -2 386.57 1.56
 0 -3 -6 14.91 1.11
 0 -3 -4 17.44 0.8
 0 -3 -3 100.99 1.28
 0 -3 -2 544.31 2.04
 0 -2 -7 18.11 1.47
 0 -2 -4 97.77 1.74
 0 -2 -3 905.52 3.77
 0 -2 -2 269.54 1.63
 0 -1 -7 67.75 2.18
 0 -1 -4 154.38 2.17
 0 -1 -3 87.72 1.33
 0 -1 -1 1200.38 2.27
 0 0 -7 0.33 1.07
 0 0 -6 626.9 5.51
 0 0 -5 0.19 0.67
 0 0 -4 268.27 2.84
 0 2 -8 13.87 1.85
 0 2 -7 17.12 1.72
 0 2 -6 14.46 1.38
 0 3 -8 39.29 2.41
 0 3 -7 81.22 2.7
 0 3 -6 15.31 1.52
 0 4 -6 331.46 4.8
 0 5 -8 3.52 1.75
 0 5 -7 24.61 2.12
 0 5 -6 86.04 2.68
 0 6 -8 50.52 2.88
 0 6 -7 14.72 1.88
 0 7 -8 22.96 2.5
 0 8 -7 14.26 2.09
 0 9 -8 22.11 2.63
 0 9 -7 4.46 1.84
 0 14 -6 4.64 2.07
 0 15 -6 19.54 2.6
 0 17 -5 1.46 1.98
 1 -6 -4 0.45 0.45
 1 -5 -6 55.13 1.54
 1 -5 -5 64.01 1.46
 1 -5 -4 121.35 1.83
 1 -5 -3 281.51 2.27
 1 -4 -5 0.52 0.57
 1 -4 -4 202.12 2.3
 1 -4 -3 174.66 1.86
 1 -4 -2 428.71 2.51
 1 -3 -4 7.91 0.71
 1 -3 -3 234 2.11
 1 -3 -2 326.06 2.2
 1 -2 -7 0.82 0.99
 1 -2 -4 202.2 2.43
 1 -2 -2 4338.4 7.67
 1 -2 -1 0.21 0.26
 1 -1 -8 51 2.24
 1 -1 -4 139.62 2.1
 1 -1 -3 590.45 3.52
 1 -1 -2 39.36 0.84
 1 -1 -1 10.39 0.46
 1 0 -8 -0.3 1.19
 1 0 -7 16.62 1.55
 1 0 -5 1.82 0.72
 1 0 -4 0.12 0.47
 1 0 -3 202.4 2.25
 1 0 -1 219.81 1.51
 1 1 -8 51.64 2.45
 1 1 -4 138.49 2.26
 1 1 -3 601.1 3.8
 1 1 -2 40.06 0.94
 1 1 0 500.81 1.82
 1 2 -8 0.1 1.35
 1 2 -7 1.05 1.18
 1 2 -4 201.48 2.77
 1 2 -3 36.54 1.09
 1 2 -2 4310.79 8.63
 1 2 0 1886.83 3.38
 1 3 -9 0.1 1.61
 1 3 -8 0.56 1.5
 1 3 -7 8.76 1.45
 1 3 -4 8.53 0.84
 1 3 -3 244.14 2.67
 1 3 0 1874.76 3.45
 1 4 -9 4 1.82
 1 4 -8 54.28 2.74
 1 4 -4 201.86 2.9
 1 4 0 1799.26 3.69
 1 5 -9 2.09 1.78
 1 5 -8 93.52 3.4
 1 5 -7 2.18 1.42
 1 5 -6 54.69 2.19
 1 5 -5 65.55 2.08
 1 5 0 0.76 0.28
 1 6 -7 2.88 1.5
 1 6 -6 0.33 1.14
 1 6 -5 2.8 0.92
 1 6 0 20.96 0.59
 1 7 -8 50.08 2.98
 1 7 -6 86.51 2.77
 1 8 -8 94.45 3.71
 1 8 -7 18.43 2.22
 1 8 -6 314.27 5.25
 1 9 -8 44.07 2.98
 1 9 -7 0.56 1.63
 1 9 -6 5.86 1.53
 1 9 -5 25.64 1.78
 1 9 1 17.93 0.46
 1 10 -8 24.84 2.72
 1 10 -7 -0.25 1.61
 1 10 1 234.23 1.52
 1 11 -7 12.41 2.14
 1 11 -6 91.51 3.34
 1 11 -5 50.4 2.4
 1 12 -7 14.4 2.3
 1 12 -6 148.93 4.06
 1 12 -5 0.69 1.37
 1 13 -6 8.08 1.87
 1 13 -5 1.53 1.54
 1 14 -6 0.41 1.74
 1 14 -5 0.79 1.65
 1 14 -4 154.35 3.65
 1 15 -6 24.79 2.73
 1 15 -5 68.65 3.07
 1 16 -6 19.1 2.55
 1 16 -5 2.08 1.68
 1 16 -3 31.57 2.07
 1 17 -5 4.12 1.97
 1 17 -4 23.99 2.31
 1 17 -3 4.96 1.46
 1 18 -4 58.38 2.94
 2 -6 -5 13.71 1.02
 2 -6 -4 244.92 2.82
 2 -5 -7 0.68 0.92
 2 -5 -5 0.3 0.63
 2 -5 -4 108.18 1.9
 2 -5 -3 60.47 1.35
 2 -4 -7 17.26 1.43
 2 -4 -5 79.8 1.84
 2 -4 -4 7.55 0.8
 2 -3 -8 278.29 4.61
 2 -3 -7 0.75 1.01
 2 -3 -5 50.42 1.58
 2 -3 -4 306.91 3.19
 2 -3 -3 1.56 0.48
 2 -3 -2 1009.31 4.71
 2 -2 -5 41.31 1.5
 2 -2 -4 95.9 1.9
 2 -2 -3 15.93 0.83
 2 -2 -2 588.11 3.63
 2 -1 -8 245.56 4.61
 2 -1 -7 -0.53 0.97
 2 -1 -6 58.22 1.95
 2 -1 -5 12.74 1.11
 2 -1 -4 17.47 1
 2 -1 -3 10.84 0.75
 2 -1 -2 310.32 2.66
 2 -1 -1 68.92 1.23
 2 0 -7 -0.07 1.04
 2 0 -6 97.59 2.43
 2 0 -4 6.93 0.83
 2 0 -3 0.24 0.42
 2 0 -1 -0.14 0.32
 2 1 -9 1.95 1.6
 2 1 -8 244.48 4.89
 2 1 -7 0.6 1.03
 2 1 -6 56.72 2.02
 2 1 -4 19.26 1.08
 2 1 -3 12 0.81
 2 1 -2 302.9 2.67
 2 1 -1 69.38 1.19
 2 2 -9 33.83 2.5
 2 2 -8 12.5 1.81
 2 2 -7 99.86 2.89
 2 2 -3 15.41 0.86
 2 2 -2 583.46 3.62
 2 2 -1 201.26 1.96
 2 2 0 392.76 2.33
 2 3 -8 288.22 5.49
 2 3 -7 -0.62 1.09
 2 3 -6 121.97 2.88
 2 3 -4 308.26 3.6
 2 3 -2 1005.6 4.84
 2 3 -1 298.03 2.35
 2 3 0 712.46 3.05
 2 4 -8 4.42 1.68
 2 4 -7 16.41 1.82
 2 4 -6 38.9 1.91
 2 4 0 88.83 1.21
 2 5 -9 11.53 2.09
 2 5 -7 0.09 1.23
 2 5 -6 5.62 1.26
 2 5 -5 0.29 0.77
 2 5 -3 57.84 1.52
 2 5 -1 7.41 0.59
 2 5 0 0.57 0.3
 2 6 -8 45.49 2.83
 2 6 -7 87.37 3.09
 2 6 -6 35.65 2
 2 6 -5 15.3 1.43
 2 6 -1 81.58 1.49
 2 6 0 594.5 2.81
 2 7 -7 0.63 1.49
 2 7 -5 70.61 2.29
 2 7 -3 10.66 1.04
 2 7 -2 244.93 2.86
 2 7 0 70.16 1.14
 2 8 -7 27.52 2.41
 2 8 -5 114.1 2.9
 2 8 -2 25.91 1.14
 2 8 0 76.33 1.24
 2 9 -7 0.3 1.65
 2 9 -6 80.3 2.94
 2 9 -5 5.86 1.27
 2 9 -4 218.29 3.79
 2 9 -2 139.01 2.43
 2 9 -1 48.43 1.26
 2 10 -6 17.17 2.04
 2 10 -4 158.99 3.19
 2 10 -2 621.97 4.9
 2 10 -1 23.88 1.04
 2 10 0 221.17 2.03
 2 11 -6 41.54 2.61
 2 11 -5 49.87 2.34
 2 11 -4 28.89 1.81
 2 11 -3 1.28 0.88
 2 11 -1 13.86 0.93
 2 12 -7 14.86 2.31
 2 12 -6 9.49 1.84
 2 12 -5 77.57 2.87
 2 12 -4 113.85 2.97
 2 12 -3 0.35 0.86
 2 13 -6 75.34 3.26
 2 13 -4 86.8 2.79
 2 13 -3 58.33 2.14
 2 13 -2 65.53 1.97
 2 14 -6 1.2 1.85
 2 14 -5 22.11 2.29
 2 14 -4 26.45 2.06
 2 15 -6 130.08 4.13
 2 15 -4 -0.11 1.34
 2 15 -3 0.13 1.15
 2 16 -6 3.92 2.12
 2 16 -5 23.82 2.42
 2 16 -4 48.07 2.59
 2 16 -3 2.16 1.09
 2 17 -5 5.22 1.83
 2 17 -4 3.07 1.59
 2 18 -5 45.76 3.04
 2 18 -4 0.51 1.46
 3 -7 -7 5.09 1.16
 3 -7 -6 95.6 2.34
 3 -6 -7 1.21 1.03
 3 -5 -7 201.14 3.49
 3 -5 -4 678.44 5.19
 3 -4 -7 4.56 1.19
 3 -4 -6 12.65 1.31
 3 -4 -4 103.18 2.14
 3 -4 -3 219.12 2.89
 3 -3 -7 65.52 2.31
 3 -3 -4 619.68 4.98
 3 -3 -3 42.99 1.35
 3 -2 -9 -0.3 1.41
 3 -2 -8 184.83 3.82
 3 -2 -6 43.91 1.82
 3 -1 -9 4.74 1.66
 3 -1 -8 82.05 2.86
 3 -1 -7 167.86 3.46
 3 -1 -6 131.65 2.87
 3 -1 -4 1277.32 7.1
 3 -1 -3 46.25 1.39
 3 0 -9 4.95 1.73
 3 0 -8 0.4 1.4
 3 0 -6 -0.35 0.9
 3 0 -4 0.13 0.58
 3 0 -1 413.86 3.33
 3 1 -9 5.12 1.75
 3 1 -8 82.9 3
 3 1 -6 130.9 2.97
 3 1 -4 1270.56 7.2
 3 1 -2 876.83 5.03
 3 1 -1 299.03 2.83
 3 2 -9 1.38 1.66
 3 2 -8 187.16 4.2
 3 2 -7 0.9 1.24
 3 2 -5 0.52 0.74
 3 2 -4 0.5 0.64
 3 2 -1 72.15 1.46
 3 3 -8 2.69 1.52
 3 3 -6 0.7 1.06
 3 3 -5 6.94 1.13
 3 4 -8 9.37 1.8
 3 4 -6 14.67 1.54
 3 4 -5 223.05 3.7
 3 4 -3 217.11 2.95
 3 5 -9 7.21 1.94
 3 5 -8 72.81 3.17
 3 5 -6 134.63 3.22
 3 5 -3 31.56 1.3
 3 5 -2 344.02 3.35
 3 6 -8 107.72 3.72
 3 6 -7 0.28 1.26
 3 6 -5 12.6 1.36
 3 6 -3 12.55 1.09
 3 6 -2 173.39 2.51
 3 7 -8 38.45 2.81
 3 7 -6 96.35 3
 3 7 -4 77.02 2.2
 3 8 -6 15.57 1.9
 3 8 -4 107.81 2.61
 3 8 -2 19.66 1.11
 3 8 -1 26.02 1.02
 3 9 -8 2.55 1.97
 3 9 -7 157.73 4.18
 3 9 -6 8.01 1.63
 3 9 -2 0.8 0.67
 3 9 -1 178.19 2.41
 3 10 -8 34.07 3.04
 3 10 -7 -0.04 1.57
 3 10 -6 66.03 2.89
 3 10 -5 20.12 1.87
 3 10 -4 8.41 1.26
 3 11 -8 78.39 3.83
 3 11 -7 4.64 1.84
 3 11 -5 65.66 2.67
 3 11 -4 2.98 1.12
 3 11 -3 7.03 1.13
 3 12 -7 2.15 1.8
 3 12 -4 46.08 2.16
 3 12 -3 64.27 2.18
 3 13 -7 84.72 3.65
 3 13 -6 34.07 2.62
 3 13 -5 2.8 1.56
 3 13 -4 40.62 2.2
 3 13 -3 -0.34 0.94
 3 14 -7 -0.56 1.83
 3 14 -6 41.34 2.89
 3 14 -5 23.65 2.32
 3 14 -4 0.96 1.36
 3 15 -6 45 3.01
 3 15 -5 58.71 2.93
 3 15 -4 3.16 1.52
 3 17 -5 0.7 1.77
 4 -6 -7 174.5 3.5
 4 -6 -6 29.46 1.78
 4 -5 -6 47.07 2.05
 4 -5 -5 43.02 1.85
 4 -4 -8 7.34 1.59
 4 -4 -7 10.85 1.55
 4 -4 -6 0.48 1.05
 4 -3 -9 6.87 1.72
 4 -3 -8 39.71 2.38
 4 -3 -5 61.86 2.12
 4 -2 -8 1.23 1.42
 4 -2 -7 338 5.29
 4 -2 -6 4.97 1.17
 4 -1 -9 9.6 1.89
 4 -1 -8 0.31 1.36
 4 -1 -6 345.33 4.91
 4 0 -9 1.25 1.62
 4 0 -7 -0.15 1.21
 4 0 -3 -0.16 0.61
 4 1 -8 -0.13 1.38
 4 1 -7 1.8 1.29
 4 1 -5 43.88 1.87
 4 1 -2 17.43 1.1
 4 2 -7 343.53 5.59
 4 2 -5 -0.22 0.85
 4 3 -8 39.19 2.54
 4 3 -6 433.07 5.71
 4 3 -2 164.52 2.75
 4 4 -9 1.7 1.89
 4 4 -6 -0.34 1.13
 4 4 -4 446.77 4.98
 4 4 -2 25.53 1.22
 4 5 -9 5.06 2.07
 4 5 -7 -0.31 1.4
 4 5 -5 42 1.98
 4 5 -2 191.55 2.84
 4 5 -1 10.75 0.92
 4 6 -8 6.16 1.94
 4 6 -7 166.35 4.12
 4 6 -6 28.58 2.04
 4 6 -4 78.87 2.3
 4 6 -2 8.11 1
 4 6 -1 278.17 3.14
 4 7 -6 161.2 3.8
 4 7 -4 123.84 2.83
 4 7 -2 47.6 1.6
 4 7 -1 33.03 1.23
 4 8 -8 -0.29 1.83
 4 8 -7 32.3 2.57
 4 8 -6 2 1.27
 4 8 -5 2.49 1.25
 4 8 -4 175.85 3.61
 4 8 -3 1.06 0.83
 4 8 -2 36.59 1.47
 4 9 -8 180.14 4.87
 4 9 -6 0.55 1.43
 4 9 -5 28.12 2.01
 4 9 -3 3.53 0.99
 4 10 -8 2.58 2.13
 4 10 -6 39.75 2.59
 4 10 -5 12.91 1.69
 4 10 -4 104.37 2.81
 4 11 -7 2.41 1.93
 4 11 -6 -0.76 1.56
 4 11 -5 27.67 2.14
 4 11 -4 0.6 1.12
 4 11 -3 172.58 3.51
 4 12 -7 41.7 2.94
 4 12 -6 8.2 1.86
 4 12 -5 0.11 1.31
 4 12 -4 35.01 2.09
 4 13 -5 23.18 2.18
 4 13 -4 76.5 2.72
 4 14 -6 21.25 2.45
 4 14 -5 19.34 2.09
 4 14 -4 80.33 2.81
 5 -5 -8 51.43 2.64
 5 -5 -7 64.16 2.69
 5 -5 -6 161.74 3.59
 5 -4 -8 29.81 2.38
 5 -4 -7 0.35 1.33
 5 -4 -6 46.43 2.28
 5 -4 -5 2.36 1.06
 5 -3 -9 0.7 1.65
 5 -3 -8 1.15 1.65
 5 -3 -7 10.54 1.71
 5 -3 -6 21.86 1.89
 5 -3 -5 0.91 1
 5 -3 -4 71.04 2.34
 5 -2 -9 -0.99 1.75
 5 -2 -8 29.02 2.44
 5 -2 -7 4.13 1.46
 5 -2 -6 9.92 1.56
 5 -2 -5 0.46 1.04
 5 -2 -4 16.05 1.41
 5 -1 -9 13.91 2.19
 5 -1 -8 31.89 2.52
 5 -1 -7 31.65 2.29
 5 -1 -6 53.35 2.39
 5 -1 -5 2.37 1.13
 5 -1 -3 13.66 1.33
 5 0 -9 4.22 1.9
 5 0 -6 -1.09 1.11
 5 0 -5 13.72 1.57
 5 0 -3 447.01 5.02
 5 1 -9 13.81 2.23
 5 1 -6 55.65 2.41
 5 1 -5 2.76 1.13
 5 1 -4 23.75 1.6
 5 1 -3 14.96 1.28
 5 2 -9 -0.5 1.76
 5 2 -8 28.52 2.46
 5 2 -7 4.17 1.52
 5 2 -6 9.58 1.5
 5 2 -5 0.69 1.07
 5 2 -4 15.27 1.47
 5 3 -9 -0.12 1.77
 5 3 -8 1.45 1.78
 5 3 -7 12.77 1.86
 5 3 -6 24.48 1.99
 5 3 -5 1.56 1.07
 5 3 -4 72.04 2.32
 5 4 -8 31.53 2.7
 5 4 -7 0.58 1.39
 5 4 -6 43.06 2.37
 5 4 -5 0.72 1.03
 5 4 -4 5.54 1.21
 5 4 -3 283.2 4.15
 5 5 -9 44.4 3.33
 5 5 -8 51.33 3.08
 5 5 -7 65.11 2.93
 5 5 -6 161.65 3.88
 5 5 -5 0.18 1.1
 5 5 -4 63.9 2.27
 5 5 -3 27.73 1.59
 5 6 -8 7.67 2
 5 6 -7 20.56 2.37
 5 6 -6 16.49 1.93
 5 6 -5 6.37 1.37
 5 6 -4 0.81 1.06
 5 6 -3 48.69 1.94
 5 7 -7 1.93 1.59
 5 7 -6 189.93 4.24
 5 7 -5 0.1 1.19
 5 7 -4 337.56 4.97
 5 7 -3 4.8 1.09
 5 8 -8 54.15 3.34
 5 8 -7 2.36 1.63
 5 8 -4 5.53 1.28
 5 8 -3 93.32 2.52
 5 9 -7 46.27 2.86
 5 9 -6 102.94 3.48
 5 9 -5 0.97 1.36
 5 9 -4 10.66 1.49
 5 9 -3 10.3 1.3
 5 10 -7 24.61 2.72
 5 10 -6 18.8 2.29
 5 10 -5 10.94 1.71
 5 10 -4 4.59 1.34
 5 10 -3 68.24 2.27
 5 11 -7 0.34 1.84
 5 11 -6 169.34 4.35
 5 11 -5 6.23 1.64
 5 11 -4 322.82 5.21
 5 12 -7 1.55 1.87
 5 12 -6 45.85 2.9
 5 12 -5 27.73 2.33
 5 13 -6 22.75 2.5
 5 13 -5 1.14 1.51
 5 14 -5 13.59 1.97
 6 -4 -8 183.4 4.44
 6 -4 -7 0.85 1.53
 6 -3 -9 14.43 2.29
 6 -3 -8 32.34 2.66
 6 -3 -6 93.86 3.18
 6 -2 -9 1.04 1.78
 6 -2 -8 1.97 1.8
 6 -2 -7 2.62 1.58
 6 -1 -9 28.84 2.88
 6 -1 -8 1.14 1.86
 6 -1 -7 7.71 1.78
 6 -1 -5 10.18 1.6
 6 0 -9 1.7 2
 6 0 -8 294.03 6.24
 6 0 -7 -0.1 1.64
 6 0 -6 151.57 3.85
 6 0 -5 0.59 1.18
 6 1 -9 27 2.85
 6 1 -8 -0.13 1.75
 6 1 -7 8.35 1.88
 6 1 -6 18.36 2.1
 6 1 -5 10.14 1.6
 6 2 -8 5.35 2.05
 6 2 -7 4.65 1.7
 6 2 -6 1.81 1.45
 6 2 -5 6.94 1.42
 6 2 -3 -0.23 1
 6 3 -8 34.9 2.89
 6 3 -7 20.98 2.29
 6 3 -5 64.43 2.69
 6 3 -4 60.45 2.46
 6 3 -3 47.16 2.08
 6 4 -8 182.52 4.84
 6 4 -7 0.2 1.71
 6 4 -6 71.6 3.05
 6 4 -5 3.55 1.37
 6 4 -3 22.71 1.73
 6 5 -7 4.58 1.77
 6 5 -5 3.42 1.46
 6 6 -6 0.65 1.47
 6 6 -4 56.37 2.45
 6 6 -3 1.6 1.07
 6 7 -7 27.19 2.58
 6 7 -6 51.91 2.9
 6 7 -5 82.36 3.06
 6 7 -3 49.59 2.17
 6 8 -8 31.94 3.06
 6 8 -7 0.26 1.82
 6 8 -6 1.95 1.62
 6 8 -5 7.65 1.69
 6 8 -4 1.29 1.3
 6 8 -3 47.55 2.16
 6 9 -7 10.24 2.11
 6 9 -5 25.38 2.25
 6 9 -4 129.73 3.41
 6 10 -7 -0.99 1.84
 6 10 -5 9.77 1.86
 6 11 -7 19.08 2.56
 6 11 -6 2.58 1.82
 6 11 -5 31.11 2.44
 6 12 -6 58.58 3.16
 6 12 -5 6.57 1.78
 6 13 -6 21.28 2.63
 6 13 -5 37.17 2.56
 7 -2 -8 141.12 4.33
 7 -2 -7 4.72 2.03
 7 -1 -8 127.56 4.27
 7 -1 -7 2.13 1.75
 7 -1 -6 11.71 2.1
 7 0 -8 1.72 2.01
 7 0 -7 106.54 3.88
 7 0 -6 0.39 1.56
 7 1 -8 127.9 4.32
 7 1 -7 2.31 1.81
 7 1 -6 14.36 2.09
 7 1 -5 66.56 3
 7 2 -8 135.71 4.51
 7 2 -7 3.47 1.83
 7 2 -6 18.29 2.23
 7 3 -8 108.28 4.24
 7 3 -7 -0.73 1.68
 7 3 -5 55.31 2.86
 7 3 -4 25.75 2.22
 7 4 -8 15.53 2.6
 7 4 -7 81.99 3.59
 7 4 -6 42.93 2.86
 7 4 -5 17.5 2.13
 7 4 -4 13.39 1.85
 7 5 -7 16.04 2.44
 7 5 -6 7.83 2.02
 7 5 -5 45.49 2.74
 7 6 -7 22.38 2.76
 7 6 -6 1.62 1.78
 7 6 -5 50.36 2.83
 7 6 -4 140.43 3.68
 7 7 -7 0.03 1.87
 7 7 -6 14.9 2.28
 7 7 -5 20.32 2.21
 7 7 -4 106.61 3.33
 7 8 -7 45.55 3.16
 7 8 -5 1.64 1.71
 7 9 -6 5.93 1.99
 7 9 -5 24.7 2.44
 7 10 -5 74.45 3.15
 7 11 -6 23.03 2.79
 7 11 -5 1.28 1.74
 8 2 -7 3.59 2.16
 8 6 -6 32.74 2.85
 8 8 -5 4.96 1.96
 -5 5 5 -0.22 0.22
 -5 6 5 4.99 0.5
 -5 8 5 3.61 0.55
 -5 10 6 19.83 1.12
 -4 -4 8 6.59 0.88
 -4 -3 7 8.93 0.82
 -4 -2 4 8.96 0.34
 -4 -2 5 -0.02 0.25
 -4 -2 6 3.16 0.49
 -4 -2 7 338.21 3.76
 -4 -2 8 1.85 0.67
 -4 -1 4 147.15 1.15
 -4 -1 5 44.13 0.97
 -4 -1 6 331.27 3.16
 -4 -1 7 1.55 0.54
 -4 -1 8 -0.39 0.46
 -4 0 4 673.11 2.48
 -4 0 5 0.21 0.24
 -4 0 6 1.85 0.45
 -4 0 7 0.7 0.44
 -4 0 8 11.19 0.97
 -4 1 4 147.66 1.29
 -4 1 5 47.35 1.02
 -4 1 6 326.37 3.13
 -4 1 7 1.77 0.53
 -4 1 8 -0.07 0.58
 -4 2 5 -0.06 0.27
 -4 2 7 334.59 3.71
 -4 2 8 0.88 0.63
 -4 3 4 330.55 2.28
 -4 3 5 63.61 1.27
 -4 3 7 11.69 0.88
 -4 4 4 455.21 2.9
 -4 4 5 2.16 0.4
 -4 4 7 10.78 0.88
 -4 4 8 7.97 0.93
 -4 5 4 13.31 0.61
 -4 5 5 37.51 1.08
 -4 5 8 76.97 2.1
 -4 6 4 76.2 1.43
 -4 6 6 29.27 1.16
 -4 6 7 175.88 2.92
 -4 6 8 4.43 0.75
 -4 7 6 161.7 2.66
 -4 7 7 15.19 1.06
 -4 7 8 20.34 1.3
 -4 8 5 2.37 0.56
 -4 8 6 1.53 0.54
 -4 8 7 34.65 1.48
 -4 9 5 29.15 1.2
 -4 9 6 1.9 0.65
 -4 9 7 0.55 0.57
 -4 9 8 176.74 3.35
 -4 10 5 14.31 0.97
 -4 10 7 39.86 1.67
 -4 10 8 3.22 0.9
 -4 11 5 25.68 1.25
 -4 11 6 0.07 0.53
 -4 11 7 4.07 0.88
 -4 12 5 0.1 0.51
 -4 12 6 5.93 0.87
 -4 12 7 35.46 1.67
 -4 13 5 20.91 1.36
 -4 13 6 3.51 0.79
 -4 14 6 21.14 1.43
 -4 15 6 45.3 2.01
 -3 -5 9 4.9 1.1
 -3 -4 9 10.17 1.27
 -3 -3 8 3.29 0.92
 -3 -2 9 0.47 0.79
 -3 -1 3 46.77 0.69
 -3 -1 7 170.45 3.01
 -3 -1 8 80.01 2.34
 -3 -1 9 4.03 0.99
 -3 0 3 274.41 1.58
 -3 0 4 0.28 0.25
 -3 0 5 317.14 3.05
 -3 0 7 11.61 0.97
 -3 0 8 0.48 0.62
 -3 0 9 4.28 0.92
 -3 1 3 44.01 0.69
 -3 1 4 1278.27 4.9
 -3 1 5 1.7 0.43
 -3 1 7 173.12 3.06
 -3 1 8 79.27 2.3
 -3 1 9 3.5 0.86
 -3 2 3 16.49 0.48
 -3 2 4 0.53 0.24
 -3 2 5 0.13 0.31
 -3 2 7 0.16 0.56
 -3 2 8 181.15 3.37
 -3 2 9 0.78 0.75
 -3 3 3 44.09 0.84
 -3 3 4 617.17 3.61
 -3 3 5 6.38 0.61
 -3 3 6 0.7 0.42
 -3 3 7 64.25 1.9
 -3 3 8 3.35 0.76
 -3 3 9 3.54 0.99
 -3 4 3 219.73 1.97
 -3 4 4 100.98 1.58
 -3 4 6 12.51 0.88
 -3 4 7 4.24 0.71
 -3 4 9 7.15 1.06
 -3 5 3 31.78 0.85
 -3 5 4 673.24 4.16
 -3 5 6 134.86 2.44
 -3 5 7 196.25 3.34
 -3 5 8 76.37 2.31
 -3 5 9 6.09 1.03
 -3 6 3 13.47 0.65
 -3 6 6 55.74 1.65
 -3 6 7 1.06 0.56
 -3 6 8 97.68 2.58
 -3 7 3 19.66 0.8
 -3 7 5 38.91 1.3
 -3 7 6 84.94 2.04
 -3 7 8 40.71 1.81
 -3 7 9 7.17 1.13
 -3 8 3 117.67 1.93
 -3 8 5 69.08 1.75
 -3 8 6 15.18 1.04
 -3 8 7 0.11 0.64
 -3 8 8 26.72 1.54
 -3 9 5 6.37 0.73
 -3 9 6 7.48 0.93
 -3 9 7 151.98 3.1
 -3 9 8 2.67 0.95
 -3 10 3 15.17 0.92
 -3 10 4 6.54 0.74
 -3 10 6 59.34 1.93
 -3 10 7 0.44 0.65
 -3 10 8 33.78 1.74
 -3 11 3 7.12 0.76
 -3 11 4 1.63 0.51
 -3 11 6 133.44 2.88
 -3 11 7 4.45 0.92
 -3 11 8 74.83 2.48
 -3 12 4 42.12 1.57
 -3 12 5 14.14 1.09
 -3 12 6 4.63 0.85
 -3 12 7 2.92 0.94
 -3 13 4 37.72 1.6
 -3 13 5 1.58 0.69
 -3 13 6 35.23 1.75
 -3 13 7 77.14 2.48
 -3 14 4 1.4 0.8
 -3 14 5 23.58 1.47
 -3 14 6 43.99 1.95
 -3 14 7 0 0.75
 -3 15 5 51.38 2.04
 -3 16 5 2.86 0.88
 -3 16 6 -0.1 0.81
 -2 -2 8 8.84 1.24
 -2 -2 9 32.78 1.91
 -2 -1 8 240.57 4.29
 -2 -1 9 2.06 1.08
 -2 0 7 0.37 0.55
 -2 0 8 6.29 1.03
 -2 0 9 -0.27 0.94
 -2 1 2 309.89 1.57
 -2 1 5 13.44 0.83
 -2 1 6 57.35 1.73
 -2 1 7 0.04 0.53
 -2 1 8 237.81 4.17
 -2 1 9 1.09 1
 -2 2 2 588.87 2.39
 -2 2 4 95.42 1.61
 -2 2 6 11.4 0.93
 -2 2 7 95.1 2.44
 -2 2 9 34.58 1.91
 -2 3 2 988.82 3.45
 -2 3 4 307.62 2.9
 -2 3 7 0.11 0.58
 -2 3 8 282.13 4.55
 -2 3 9 0.11 0.72
 -2 4 2 3.15 0.29
 -2 4 3 1.57 0.29
 -2 4 4 6.64 0.56
 -2 4 6 39.22 1.48
 -2 4 8 2.25 0.87
 -2 4 9 0.68 0.79
 -2 5 2 17.13 0.62
 -2 5 4 105.35 1.83
 -2 5 6 3.86 0.71
 -2 5 7 0.95 0.73
 -2 5 8 58.5 2.18
 -2 5 9 12.39 1.43
 -2 6 2 1124.66 4.9
 -2 6 3 12.33 0.61
 -2 6 5 13.86 0.85
 -2 6 6 33.97 1.44
 -2 6 7 89.13 2.46
 -2 6 8 48.71 2.09
 -2 6 9 14.81 1.5
 -2 7 2 238.28 2.46
 -2 7 3 10.92 0.67
 -2 7 5 69.24 1.8
 -2 7 6 12.19 0.97
 -2 7 7 -0.3 0.66
 -2 8 2 25.69 0.92
 -2 8 3 0.17 0.38
 -2 8 6 -0.08 0.49
 -2 8 8 -0.26 0.85
 -2 9 4 220.59 3.1
 -2 9 5 4.91 0.71
 -2 9 6 73.61 2.14
 -2 9 7 0.07 0.63
 -2 9 8 1.05 0.78
 -2 10 4 166.14 2.83
 -2 10 5 0.08 0.45
 -2 10 8 42.77 2.05
 -2 11 2 4.05 0.59
 -2 11 3 0.63 0.42
 -2 11 4 30.57 1.36
 -2 11 6 37.51 1.74
 -2 11 7 0.37 0.72
 -2 11 8 0.48 0.81
 -2 12 4 111.29 2.51
 -2 12 5 78.35 2.29
 -2 12 7 15.07 1.44
 -2 13 3 52.58 1.76
 -2 13 4 83.31 2.29
 -2 13 5 6.98 0.96
 -2 13 7 -0.56 0.68
 -2 14 3 1.11 0.7
 -2 14 4 24.48 1.47
 -2 14 6 0.31 0.73
 -2 14 7 20.89 1.69
 -2 15 4 0.61 0.72
 -2 15 5 26.08 1.67
 -2 15 6 127.7 3.26
 -2 16 4 38.08 1.91
 -2 16 5 22.79 1.64
 -2 16 6 3.61 1.16
 -1 -3 9 -0.15 0.87
 -1 -2 9 4.08 1.23
 -1 -1 8 48.55 2.17
 -1 -1 9 2.07 1.08
 -1 0 7 15.6 1.27
 -1 0 9 5.03 1.17
 -1 1 1 10.28 0.25
 -1 1 2 40.54 0.76
 -1 1 6 27.4 1.3
 -1 1 7 4.24 0.94
 -1 1 8 50.59 2.22
 -1 1 9 2.32 0.96
 -1 2 1 0.03 0.1
 -1 2 2 4316.38 7.56
 -1 2 4 195.74 2.55
 -1 2 6 13.42 1.1
 -1 2 7 0.56 0.75
 -1 2 8 0.14 0.72
 -1 2 9 6.44 1.2
 -1 3 1 35.93 0.64
 -1 3 2 323.51 2.23
 -1 3 3 241.15 2.38
 -1 3 4 8.31 0.66
 -1 3 6 4.45 0.72
 -1 3 7 6.68 1.02
 -1 3 8 1.79 0.93
 -1 3 9 -0.29 0.81
 -1 4 2 420.74 2.7
 -1 4 3 171.46 2.08
 -1 4 4 200.29 2.64
 -1 4 5 0.43 0.42
 -1 4 6 199.7 3.41
 -1 4 7 22.22 1.45
 -1 4 8 54.74 2.25
 -1 4 9 3.85 1.11
 -1 5 1 64.08 1.06
 -1 5 2 368.67 2.71
 -1 5 3 279.7 2.73
 -1 5 6 53.52 1.81
 -1 5 7 0.61 0.66
 -1 5 8 96.13 2.88
 -1 6 2 473.59 3.27
 -1 6 5 2.52 0.59
 -1 6 6 0.21 0.65
 -1 6 7 3.09 0.81
 -1 6 8 7.36 1.16
 -1 7 1 1.02 0.26
 -1 7 2 407.39 3.25
 -1 7 5 6.75 0.71
 -1 7 6 79.91 2.26
 -1 7 7 13.21 1.21
 -1 7 8 50.87 2.24
 -1 8 1 107.29 1.74
 -1 8 2 207.37 2.5
 -1 8 4 188.85 2.86
 -1 8 5 1.53 0.64
 -1 8 6 320.82 4.5
 -1 8 7 22.05 1.54
 -1 8 8 90.17 2.83
 -1 9 1 15.07 0.76
 -1 9 4 4.63 0.68
 -1 9 5 24.37 1.28
 -1 9 7 0.97 0.87
 -1 9 8 43.32 2.11
 -1 10 3 64.65 1.7
 -1 10 6 8.62 1.06
 -1 10 7 1.31 0.76
 -1 11 2 189.02 2.85
 -1 11 3 0.66 0.43
 -1 11 4 55.84 1.79
 -1 11 5 47.06 1.79
 -1 11 6 88.47 2.6
 -1 11 7 12.63 1.48
 -1 12 2 7.99 0.78
 -1 12 3 2.87 0.65
 -1 12 4 36.04 1.58
 -1 12 5 0.36 0.73
 -1 12 6 145.63 3.32
 -1 13 2 74.3 1.99
 -1 13 3 29.02 1.4
 -1 13 5 0.75 0.69
 -1 13 6 4.77 0.96
 -1 13 7 -0.89 0.79
 -1 14 2 58.21 1.95
 -1 14 4 145.93 3.16
 -1 14 5 0.85 0.81
 -1 14 6 1.81 0.92
 -1 15 3 1.9 0.67
 -1 15 5 65.73 2.36
 -1 15 6 23.42 1.71
 -1 16 4 2.51 0.84
 -1 16 5 0.93 0.91
 -1 17 4 23.64 1.63
 -1 17 5 2.31 0.98
 -1 18 4 52.15 2.34
 0 -1 8 8.42 1.29
 0 0 7 0.43 0.81
 0 0 8 35.81 2.06
 0 1 6 9.48 0.93
 0 1 8 9.75 1.4
 0 2 0 221.9 1.11
 0 2 1 46.97 0.71
 0 2 2 268.8 2.21
 0 2 5 5.98 0.81
 0 2 6 13.84 1.15
 0 2 7 19.08 1.5
 0 2 8 10.6 1.45
 0 3 0 0.03 0.13
 0 3 1 1396.46 4.02
 0 3 4 15.67 0.9
 0 3 5 16.27 1.08
 0 3 8 40.26 2.12
 0 4 0 9865.96 10.62
 0 4 2 391.32 2.84
 0 4 6 325.05 4.55
 0 4 8 8.54 1.28
 0 5 0 4.08 0.38
 0 5 1 189.91 1.83
 0 5 2 323.05 2.72
 0 5 5 3.41 0.67
 0 5 6 83.48 2.35
 0 5 7 24.51 1.58
 0 6 0 291.44 2.34
 0 6 5 16.8 1.1
 0 6 6 63.34 2.12
 0 6 7 14.53 1.43
 0 6 8 47.43 2.22
 0 7 0 0.04 0.2
 0 7 4 0.49 0.39
 0 7 5 17.83 1.16
 0 7 7 64.56 2.38
 0 7 8 22.62 1.74
 0 8 4 23.67 1.15
 0 8 6 33.51 1.69
 0 8 7 12.02 1.22
 0 9 3 6.84 0.7
 0 9 4 282.73 3.77
 0 9 5 3.72 0.82
 0 9 6 115.83 2.93
 0 9 7 3.71 1.07
 0 10 4 179.66 3.13
 0 10 5 25.98 1.45
 0 10 6 20.77 1.48
 0 11 2 5.46 0.67
 0 11 3 10.7 0.87
 0 11 4 0.88 0.51
 0 11 5 13.81 1.24
 0 11 6 33.17 1.74
 0 11 7 27.22 1.77
 0 12 1 16.48 1.01
 0 12 2 267.19 3.58
 0 12 4 123.51 2.78
 0 12 5 22.8 1.5
 0 12 6 4.56 0.95
 0 12 7 4.23 1.12
 0 13 1 -0.04 0.45
 0 13 3 26.4 1.38
 0 13 4 114.34 2.78
 0 13 5 4.23 0.89
 0 13 6 38.05 2.01
 0 14 2 1.54 0.56
 0 14 4 5.37 0.88
 0 14 5 22.16 1.57
 0 14 6 2.63 0.88
 0 15 2 -0.19 0.52
 0 15 3 0.08 0.58
 0 15 4 -0.27 0.77
 0 15 5 12.51 1.39
 0 15 6 16.33 1.65
 0 16 3 78.34 2.48
 0 16 4 69.79 2.44
 0 16 5 19.8 1.64
 0 17 3 27.5 1.73
 0 17 4 18.74 1.49
 0 17 5 4.15 1.08
 0 18 4 6.95 1.24
 1 -2 8 33.62 2.07
 1 0 7 189.91 4.06
 1 0 8 -0.49 1
 1 1 0 514.31 1.52
 1 1 6 75.43 2.41
 1 1 7 19.25 1.57
 1 1 8 6.18 1.31
 1 2 0 1915.21 3.45
 1 2 1 73.42 1.03
 1 2 5 0.32 0.57
 1 2 7 2.93 0.95
 1 2 8 35.53 2.15
 1 3 0 1917.3 4.08
 1 3 1 0.1 0.2
 1 3 2 145.84 1.89
 1 3 3 141.2 2.21
 1 3 6 73.68 2.38
 1 3 7 11.89 1.36
 1 3 8 33.77 2.1
 1 4 0 1821.24 4.58
 1 4 1 795.1 3.63
 1 4 2 463.37 3.37
 1 4 3 18.41 0.9
 1 4 7 134.94 3.42
 1 4 8 44.2 2.3
 1 5 1 73.43 1.21
 1 5 4 11.17 0.91
 1 5 5 45.62 1.74
 1 5 6 43.39 1.91
 1 5 7 20.3 1.55
 1 5 8 -0.94 0.76
 1 6 0 20.87 0.68
 1 6 1 327.42 2.67
 1 6 2 9.28 0.57
 1 6 5 3.54 0.68
 1 6 6 34.22 1.74
 1 6 7 27.43 1.82
 1 6 8 -1.09 0.81
 1 7 4 2.95 0.59
 1 7 5 4.9 0.88
 1 7 6 45.19 1.97
 1 7 7 1.19 0.84
 1 8 1 215.23 2.49
 1 8 3 0.89 0.43
 1 8 4 12.57 1.01
 1 8 6 51.87 2.13
 1 8 7 53.84 2.32
 1 9 0 0.88 0.32
 1 9 3 235.08 3.26
 1 9 5 26.98 1.41
 1 9 6 12.37 1.34
 1 9 7 12.11 1.45
 1 10 2 247.6 3.2
 1 10 4 7.89 0.97
 1 10 5 7.86 0.97
 1 10 6 23.24 1.62
 1 10 7 52.01 2.28
 1 11 1 53.49 1.51
 1 11 3 0.18 0.47
 1 11 4 0.03 0.6
 1 11 5 0.19 0.61
 1 11 6 29.06 1.72
 1 11 7 1.39 1.01
 1 12 1 29.4 1.24
 1 12 2 24.29 1.17
 1 12 3 0.6 0.56
 1 12 4 16.39 1.28
 1 12 5 32.4 1.72
 1 12 6 1.88 0.89
 1 13 1 0.81 0.5
 1 13 2 0.49 0.6
 1 13 4 6.49 0.93
 1 13 5 11.55 1.34
 1 13 6 1.02 0.96
 1 14 1 124.61 2.67
 1 14 2 329.4 4.39
 1 14 3 15.21 1.15
 1 14 4 33.81 1.72
 1 14 6 78.23 2.72
 1 15 2 2.14 0.67
 1 15 3 0.91 0.83
 1 15 4 1.38 0.94
 1 15 5 0.43 0.81
 1 16 2 13.5 1.22
 1 16 3 0.17 0.66
 1 16 4 74.2 2.51
 1 16 5 14.97 1.59
 1 17 3 23.4 1.59
 1 17 4 3.55 1.04
 2 -1 -1 67.41 0.53
 2 -1 7 47.98 2.29
 2 0 7 0.52 0.86
 2 1 6 -0.44 0.64
 2 1 7 46.05 2.2
 2 2 0 392.22 1.88
 2 2 1 276.73 2.23
 2 2 4 64.93 1.89
 2 2 5 69.1 2.18
 2 2 6 22.93 1.61
 2 3 0 718.24 2.75
 2 3 1 368.08 2.62
 2 3 2 133.81 1.99
 2 3 4 6.12 0.79
 2 3 6 2.35 0.89
 2 3 7 88.79 2.94
 2 4 0 87.72 1.09
 2 4 1 105.87 1.49
 2 4 2 451.64 3.6
 2 4 4 100.16 2.3
 2 4 5 12.83 1.09
 2 4 6 5.69 0.98
 2 4 7 1.22 0.85
 2 5 0 0.08 0.21
 2 5 2 112.27 1.88
 2 5 4 235.56 3.54
 2 5 6 0.73 0.73
 2 5 7 13.92 1.53
 2 6 1 57.63 1.21
 2 6 2 190.39 2.49
 2 6 4 261.6 3.72
 2 6 5 31.78 1.62
 2 6 6 94.43 2.8
 2 6 7 3.23 1.01
 2 7 1 129.84 1.91
 2 7 3 -0.2 0.32
 2 7 4 2.08 0.7
 2 7 5 4.24 0.83
 2 7 6 1.65 0.98
 2 7 7 88 2.92
 2 8 0 77.46 1.45
 2 8 1 96.56 1.76
 2 8 3 -0.01 0.38
 2 8 4 -0.49 0.42
 2 8 5 38.54 1.71
 2 9 0 86.46 1.67
 2 9 2 127.02 2.32
 2 9 3 7.06 0.83
 2 9 4 234.1 3.74
 2 9 5 25.52 1.48
 2 9 6 2.43 0.88
 2 10 2 53.37 1.55
 2 10 3 50.2 1.68
 2 10 4 153.46 3.09
 2 10 5 3.62 0.82
 2 10 6 52.86 2.23
 2 11 2 95.64 2.14
 2 11 3 0.33 0.57
 2 11 4 6.64 0.92
 2 11 5 1.46 0.75
 2 11 6 1.06 1.02
 2 12 1 62.54 1.76
 2 12 3 0.99 0.65
 2 12 4 24.84 1.51
 2 12 5 45.35 2.04
 2 12 6 130.56 3.38
 2 13 2 41.73 1.64
 2 13 3 3.38 0.76
 2 13 4 109.56 2.87
 2 13 5 32.49 1.86
 2 14 1 27.09 1.35
 2 14 2 0.58 0.55
 2 14 3 18.04 1.3
 2 14 4 16.03 1.42
 2 14 5 0.49 0.8
 2 15 1 4.97 0.83
 2 15 2 45.33 1.85
 2 15 3 0.36 0.85
 2 15 5 1.63 0.93
 2 16 2 58.67 2.14
 2 16 3 0.77 0.73
 2 17 2 -0.58 0.67
 2 17 3 1.5 0.87
 2 18 3 3.38 1.13
 3 -2 7 0.18 0.92
 3 -1 7 6.43 1.38
 3 0 6 0.12 0.74
 3 0 7 21.51 1.86
 3 1 0 224.19 1.64
 3 1 5 15.04 1.32
 3 1 6 11.42 1.37
 3 1 7 5.78 1.29
 3 2 0 3.36 0.27
 3 2 2 3.16 0.46
 3 2 4 29.36 1.42
 3 2 5 4.77 1
 3 2 6 45.79 2.15
 3 2 7 1.06 1.16
 3 3 -1 86.32 0.73
 3 3 0 28.54 0.63
 3 3 1 25.16 0.8
 3 3 2 12.24 0.74
 3 3 4 0.24 0.62
 3 3 5 1.12 0.78
 3 3 6 3.23 1
 3 3 7 3.89 1.22
 3 4 -1 203.21 1.37
 3 4 0 282.02 2.04
 3 4 1 0.34 0.29
 3 4 2 345.09 3.4
 3 4 3 48.68 1.54
 3 4 4 106.6 2.49
 3 4 5 13.52 1.3
 3 4 6 44.73 2.08
 3 4 7 21.34 1.72
 3 5 -1 268.49 1.85
 3 5 1 10.35 0.6
 3 5 2 179.29 2.5
 3 5 4 24.7 1.31
 3 5 5 21.73 1.48
 3 5 6 39.25 2.01
 3 6 0 49.41 1.02
 3 6 1 1.21 0.31
 3 6 3 1.59 0.51
 3 6 4 0.87 0.68
 3 6 5 25.9 1.57
 3 6 6 2.03 0.87
 3 7 0 263.43 2.47
 3 7 1 69.41 1.45
 3 7 3 0.66 0.45
 3 7 4 19.28 1.21
 3 7 5 0.64 0.71
 3 7 6 25.72 1.73
 3 8 0 216.55 2.4
 3 8 1 0.02 0.3
 3 8 3 36.41 1.44
 3 8 4 146.77 3.01
 3 8 5 0.96 0.78
 3 8 6 51.34 2.26
 3 9 0 57.74 1.35
 3 9 3 10.36 0.95
 3 9 4 0.56 0.72
 3 9 6 37.05 1.94
 3 10 1 1.45 0.52
 3 10 2 22.11 1.14
 3 10 3 1.71 0.66
 3 10 4 45.4 1.84
 3 10 5 30.21 1.75
 3 10 6 30.75 1.88
 3 11 0 191.16 2.73
 3 11 2 34.26 1.41
 3 11 3 10.3 1.03
 3 11 4 39.6 1.78
 3 11 5 2.75 0.96
 3 12 0 61.66 1.69
 3 12 1 0.93 0.48
 3 12 2 217.33 3.48
 3 12 3 14.84 1.19
 3 12 4 43.01 1.91
 3 12 5 5.27 1.05
 3 13 1 1.98 0.63
 3 13 2 0.55 0.69
 3 13 3 0.53 0.75
 3 13 4 25.07 1.63
 3 13 5 1.97 0.87
 3 14 1 0.2 0.6
 3 14 2 1.68 0.68
 3 14 3 -0.63 0.64
 3 14 4 40.43 1.94
 3 15 1 62.17 2.06
 3 15 2 4.54 0.97
 3 15 3 13.11 1.26
 3 15 4 17.24 1.48
 3 16 2 25.87 1.52
 3 16 3 1.57 0.94
 3 17 2 12.32 1.33
 3 17 3 2.47 0.84
 4 -2 6 19.86 1.72
 4 -1 6 47.74 2.32
 4 0 5 0.33 0.87
 4 0 6 1.41 1.05
 4 1 4 10.2 1.03
 4 1 5 0.4 0.71
 4 1 6 46.7 2.19
 4 2 1 45.47 1.11
 4 2 3 64.06 1.84
 4 2 4 15.83 1.23
 4 2 6 20.3 1.6
 4 3 -1 29.53 0.4
 4 3 1 35.19 0.99
 4 3 3 87.43 2.1
 4 3 4 59.6 2.01
 4 4 -1 25.26 0.49
 4 4 0 15.33 0.55
 4 4 1 5.4 0.49
 4 4 3 22.29 1.15
 4 4 4 4.31 0.8
 4 4 5 0.97 0.89
 4 4 6 -0.03 0.76
 4 5 0 194.56 1.9
 4 5 1 42.73 1.12
 4 5 3 11.44 0.95
 4 5 4 20.83 1.35
 4 5 5 3.22 0.92
 4 5 6 3.47 1.06
 4 6 0 83.85 1.36
 4 6 1 42.86 1.15
 4 6 2 16.93 0.94
 4 6 3 34.19 1.4
 4 6 5 1.67 0.81
 4 6 6 106.66 3.02
 4 7 0 244.26 2.4
 4 7 1 14.59 0.77
 4 7 2 39.38 1.33
 4 7 3 88.2 2.16
 4 7 4 27.9 1.48
 4 7 5 7.92 1.07
 4 8 0 32.8 0.97
 4 8 2 33.15 1.28
 4 8 3 41.19 1.58
 4 8 4 39.18 1.72
 4 8 5 1.45 0.76
 4 9 0 11.19 0.66
 4 9 1 26.68 1.07
 4 9 2 10.86 0.88
 4 9 3 -0.9 0.52
 4 9 4 78.33 2.35
 4 9 5 18.74 1.45
 4 10 2 2.02 0.62
 4 10 3 4.65 0.76
 4 10 4 37.66 1.76
 4 10 5 3.01 0.97
 4 11 0 -0.44 0.31
 4 11 1 6.63 0.71
 4 11 2 24.56 1.27
 4 11 3 63.07 2.02
 4 11 4 -0.41 0.68
 4 11 5 3.98 0.99
 4 12 1 1.72 0.5
 4 12 2 1.1 0.66
 4 12 3 28.48 1.51
 4 12 4 53.86 2.07
 4 13 1 19.71 1.12
 4 13 3 3.27 0.85
 4 13 4 52.37 2.08
 4 14 1 18.44 1.14
 4 14 2 4.91 0.83
 4 14 3 1.02 0.82
 4 15 2 120.93 2.79
 4 15 3 34.15 1.73
 4 16 2 0.4 0.71
 5 -3 5 11.21 1.35
 5 -2 5 -0.16 0.75
 5 -1 4 228.55 4
 5 -1 5 8.69 1.32
 5 0 4 0.52 0.67
 5 0 5 0.77 0.82
 5 1 5 8.97 1.22
 5 2 5 0.25 0.78
 5 3 4 97.63 2.49
 5 3 5 10 1.23
 5 4 5 1.2 0.73
 -6 5 6 8.96 0.82
 -6 5 7 4.26 0.73
 -6 6 6 0.59 0.43
 -6 6 7 0.62 0.6
 -6 7 5 82.04 1.83
 -6 7 6 49.48 1.54
 -6 8 5 6.38 0.75
 -6 8 6 -0.05 0.41
 -6 8 7 1 0.56
 -6 9 5 27.51 1.3
 -6 9 6 50.33 1.72
 -6 9 7 8.6 0.96
 -6 10 4 41.51 1.48
 -6 10 5 10.35 1.02
 -6 10 6 2 0.72
 -6 10 7 -0.38 0.52
 -6 11 4 3.79 0.71
 -6 11 5 32.79 1.52
 -6 11 6 1.29 0.72
 -6 12 5 5.22 0.9
 -6 12 6 54.47 2.05
 -5 -3 4 68.24 1.09
 -5 -3 9 0.95 0.79
 -5 -2 4 15.07 0.53
 -5 -2 5 0.6 0.31
 -5 -2 8 34.19 1.69
 -5 -2 9 0.17 0.73
 -5 -1 4 23.78 0.64
 -5 -1 5 1.52 0.38
 -5 -1 6 50.48 1.46
 -5 -1 7 34.01 1.44
 -5 -1 8 30.85 1.54
 -5 -1 9 11.62 1.23
 -5 0 4 0.22 0.19
 -5 0 5 12.41 0.67
 -5 0 6 -0.11 0.38
 -5 0 7 1.8 0.64
 -5 0 8 -0.43 0.52
 -5 0 9 3.17 0.83
 -5 1 3 15.08 0.38
 -5 1 4 22.04 0.66
 -5 1 5 1.9 0.4
 -5 1 6 53.19 1.51
 -5 1 7 31.84 1.41
 -5 1 8 32.26 1.6
 -5 1 9 10.3 1.18
 -5 2 3 8.45 0.38
 -5 2 5 0.69 0.36
 -5 2 6 9.32 0.78
 -5 2 7 3.64 0.72
 -5 2 8 27.45 1.47
 -5 2 9 0.92 0.67
 -5 3 3 0.26 0.2
 -5 3 4 69.35 1.28
 -5 3 6 23.61 1.09
 -5 3 8 1.39 0.71
 -5 3 9 1.14 0.75
 -5 4 4 4.96 0.46
 -5 4 6 42.13 1.42
 -5 4 7 1.66 0.59
 -5 4 9 0.54 0.76
 -5 5 3 28.52 0.89
 -5 5 5 0.54 0.38
 -5 5 6 171.61 2.88
 -5 5 7 64.51 1.99
 -5 5 8 51.45 1.97
 -5 5 9 38.95 1.9
 -5 6 3 50.25 1.24
 -5 6 5 4.49 0.56
 -5 6 6 15.77 1.04
 -5 6 7 18.47 1.22
 -5 6 8 8.09 1.08
 -5 6 9 2.17 0.95
 -5 7 4 330.74 3.44
 -5 7 5 -0.09 0.45
 -5 7 6 187.91 3.11
 -5 7 7 2.31 0.73
 -5 7 8 58.63 2.11
 -5 8 4 5.69 0.69
 -5 8 5 3.39 0.58
 -5 8 7 1.98 0.69
 -5 8 8 56.25 2.12
 -5 9 3 9.49 0.78
 -5 9 4 11.4 0.9
 -5 9 5 -0.04 0.41
 -5 9 6 96.76 2.34
 -5 9 7 48.71 1.9
 -5 9 8 4.61 1
 -5 10 3 65.05 1.76
 -5 10 4 3.65 0.65
 -5 10 5 9.12 0.91
 -5 10 6 20.72 1.29
 -5 10 8 0.59 0.74
 -5 11 3 11.97 0.97
 -5 11 5 3.18 0.7
 -5 11 7 1.61 0.69
 -5 12 3 8.15 0.95
 -5 12 4 0.77 0.63
 -5 12 5 27.89 1.52
 -5 12 6 44.75 1.9
 -5 12 7 1.97 0.76
 -5 13 4 13.72 1.18
 -5 13 5 1.41 0.78
 -5 13 6 20.38 1.52
 -5 13 7 15.02 1.41
 -5 14 4 9.99 1.16
 -5 14 5 12.23 1.36
 -5 14 6 12.06 1.37
 -5 15 4 81.71 2.51
 -5 15 5 2.38 0.91
 -5 16 5 33.48 1.83
 -4 -1 3 170.27 1.45
 -4 -1 9 8.54 1.27
 -4 0 3 -0.2 0.13
 -4 0 4 663.65 3.93
 -4 0 8 10.07 1.15
 -4 1 3 178.83 1.61
 -4 1 4 143.67 1.9
 -4 1 6 347.67 4.02
 -4 1 7 0.79 0.52
 -4 1 8 -0.16 0.72
 -4 1 9 8.74 1.16
 -4 2 2 6.46 0.31
 -4 2 3 1.83 0.27
 -4 2 4 9.26 0.57
 -4 2 6 4.29 0.62
 -4 2 7 327.16 4.38
 -4 2 8 0.84 0.66
 -4 2 9 12.78 1.31
 -4 3 3 317.08 2.42
 -4 3 4 334.18 3
 -4 3 7 10.37 1.02
 -4 3 8 36.92 1.81
 -4 3 9 6.02 1.08
 -4 4 3 -0.08 0.2
 -4 4 6 0 0.35
 -4 4 7 9.64 1.05
 -4 4 8 5.58 0.94
 -4 4 9 0.91 0.82
 -4 5 3 12.42 0.62
 -4 5 4 12.08 0.72
 -4 5 5 42.03 1.37
 -4 5 6 46.18 1.61
 -4 5 7 0.33 0.66
 -4 5 8 79.55 2.52
 -4 5 9 3.59 1.06
 -4 6 2 8.77 0.6
 -4 6 3 8.75 0.58
 -4 6 5 4.46 0.61
 -4 6 7 168.68 3.29
 -4 6 8 4.57 0.89
 -4 6 9 0.61 0.79
 -4 7 2 48.72 1.26
 -4 7 5 51.02 1.56
 -4 7 6 164.15 3.08
 -4 7 7 13.36 1.11
 -4 7 8 21.62 1.55
 -4 8 4 175.65 2.68
 -4 8 5 1.88 0.53
 -4 8 7 28.13 1.57
 -4 8 8 0.23 0.7
 -4 9 4 110.04 2.21
 -4 9 5 29.45 1.34
 -4 9 6 1.06 0.56
 -4 9 7 1.34 0.7
 -4 9 8 174.86 3.73
 -4 10 2 1.82 0.55
 -4 10 3 15.51 1.04
 -4 10 4 107.06 2.32
 -4 10 5 12.3 0.94
 -4 10 6 38.42 1.7
 -4 10 7 38.06 1.81
 -4 10 8 3.5 1.06
 -4 11 2 13.21 0.91
 -4 11 4 1.28 0.59
 -4 11 6 -0.42 0.52
 -4 11 7 3.34 0.84
 -4 11 8 1.12 0.78
 -4 12 3 0.89 0.67
 -4 12 4 37.03 1.67
 -4 12 5 0.17 0.66
 -4 12 7 37.98 1.88
 -4 13 3 20.08 1.29
 -4 13 5 22.44 1.49
 -4 13 6 4.26 0.98
 -4 13 7 0.92 0.74
 -4 14 3 19.41 1.36
 -4 14 5 15.52 1.34
 -4 14 6 20.8 1.55
 -4 15 3 72.02 2.38
 -4 15 4 55.64 2.22
 -4 15 5 5.09 0.99
 -4 15 6 46.1 2.12
 -4 16 4 1.34 0.78
 -4 16 5 0.11 0.78
 -4 17 4 3.04 1.06
 -3 0 2 0 0.11
 -3 0 9 3.98 1.01
 -3 1 2 917.91 2.99
 -3 1 3 44.67 0.93
 -3 1 8 82.27 2.7
 -3 1 9 3.3 0.93
 -3 2 2 797.69 3.08
 -3 2 3 15.99 0.61
 -3 2 4 0.29 0.29
 -3 2 9 0.32 0.76
 -3 3 1 85.07 1.03
 -3 3 3 41.88 0.96
 -3 3 4 623.17 4.31
 -3 3 6 0.59 0.46
 -3 4 1 212.38 1.84
 -3 4 2 57.96 1.01
 -3 4 3 226.25 2.32
 -3 4 4 102.97 1.86
 -3 4 6 13.87 1.02
 -3 4 7 4.23 0.82
 -3 4 8 8.82 1.14
 -3 4 9 8.75 1.31
 -3 5 1 269.17 2.31
 -3 5 3 32.19 0.97
 -3 5 5 7.71 0.76
 -3 5 6 132.57 2.71
 -3 5 8 72.45 2.51
 -3 5 9 4.52 1.14
 -3 6 1 128.81 1.76
 -3 6 2 175.99 2.09
 -3 6 3 12.96 0.72
 -3 6 5 11.58 0.88
 -3 6 7 0.12 0.7
 -3 6 9 2.7 1.07
 -3 7 1 1.34 0.34
 -3 7 2 23.14 0.88
 -3 7 5 37.04 1.4
 -3 7 6 95.41 2.4
 -3 7 7 3.64 0.85
 -3 8 1 25.48 0.96
 -3 8 6 14.56 1.17
 -3 8 7 -0.29 0.57
 -3 8 8 26.4 1.64
 -3 9 5 6.33 0.75
 -3 9 6 6.05 0.95
 -3 9 8 3.45 1.12
 -3 10 2 3.06 0.63
 -3 10 3 16.34 0.99
 -3 10 4 6.69 0.81
 -3 10 5 17.88 1.11
 -3 10 6 64.45 2.17
 -3 10 7 1.14 0.83
 -3 10 8 31.62 1.79
 -3 11 2 90.3 2.14
 -3 11 3 7.74 0.85
 -3 11 4 3.22 0.6
 -3 11 5 65.13 2.04
 -3 11 7 4.85 0.93
 -3 11 8 77.83 2.75
 -3 12 2 0.26 0.5
 -3 12 4 46.89 1.76
 -3 12 5 14.54 1.15
 -3 12 6 5.84 1.06
 -3 12 7 3.25 1.03
 -3 13 2 166.41 3.19
 -3 13 3 0.3 0.63
 -3 13 4 40.42 1.77
 -3 13 5 2.7 0.86
 -3 13 6 32.75 1.67
 -3 14 2 1.44 0.6
 -3 14 3 4.25 0.82
 -3 14 4 1.29 0.72
 -3 14 5 21.85 1.46
 -3 14 6 42.41 2.02
 -3 14 7 -0.13 0.79
 -3 15 2 42.37 1.87
 -3 15 3 2.44 0.76
 -3 15 4 2.63 0.82
 -3 15 6 44.43 2.09
 -3 16 3 18.78 1.49
 -3 16 4 2.79 0.89
 -3 16 5 2.08 0.98
 -3 17 3 0.16 0.69
 -3 17 4 103.34 3.13
 -3 17 5 -0.33 1.01
 -3 18 3 0.06 0.8
 -3 18 4 0.17 0.91
 -2 1 1 69.4 0.63
 -2 1 2 301.61 1.96
 -2 1 9 0.67 0.84
 -2 2 1 196 1.26
 -2 2 2 573.36 2.83
 -2 2 3 15.73 0.68
 -2 2 8 12.25 1.38
 -2 3 1 302.59 1.84
 -2 3 2 978.01 3.91
 -2 3 3 1.65 0.33
 -2 3 4 297.42 3.14
 -2 3 6 117.72 2.65
 -2 3 7 0.74 0.62
 -2 3 8 270.96 4.71
 -2 3 9 -0.2 0.87
 -2 4 1 3.62 0.34
 -2 4 2 3.25 0.35
 -2 4 3 1.96 0.34
 -2 4 4 5.95 0.52
 -2 4 5 74.74 1.85
 -2 4 6 41.69 1.62
 -2 4 8 2.94 0.9
 -2 4 9 0.54 0.97
 -2 5 5 0.28 0.38
 -2 5 6 3.68 0.66
 -2 5 7 0.72 0.73
 -2 5 8 56.42 2.29
 -2 5 9 10.93 1.48
 -2 6 2 1131.84 5.13
 -2 6 3 13.1 0.71
 -2 6 6 34.83 1.57
 -2 6 7 89.89 2.62
 -2 6 8 46.51 2.15
 -2 6 9 12.72 1.4
 -2 7 2 241.95 2.55
 -2 7 3 10.46 0.71
 -2 7 7 0.33 0.71
 -2 7 8 79.27 2.69
 -2 8 1 1.22 0.35
 -2 8 5 110.17 2.45
 -2 8 6 0 0.47
 -2 8 7 27 1.59
 -2 8 8 -0.34 0.68
 -2 9 4 215.67 3.18
 -2 9 5 5.43 0.81
 -2 9 7 -0.3 0.59
 -2 9 8 2.2 0.92
 -2 10 3 9.19 0.77
 -2 10 4 167.76 2.92
 -2 10 5 -0.36 0.52
 -2 10 6 17.47 1.26
 -2 10 7 54.92 2.24
 -2 10 8 44.66 2.16
 -2 11 1 13.3 0.91
 -2 11 3 1.46 0.45
 -2 11 4 31.95 1.38
 -2 11 5 50.19 1.88
 -2 11 6 37.74 1.8
 -2 11 7 0.71 0.8
 -2 11 8 0.4 0.85
 -2 12 1 0.46 0.45
 -2 12 2 14.67 1.11
 -2 12 3 -0.14 0.39
 -2 12 5 76.43 2.3
 -2 12 6 9.75 1.22
 -2 12 7 14.27 1.3
 -2 13 2 67.82 2.09
 -2 13 4 86.35 2.38
 -2 13 5 7.76 0.93
 -2 13 7 -1.12 0.81
 -2 14 2 135.58 2.98
 -2 14 3 0.48 0.74
 -2 14 4 28.09 1.57
 -2 14 5 19.49 1.45
 -2 14 6 -0.85 0.79
 -2 15 2 14.71 1.27
 -2 15 3 -0.34 0.78
 -2 15 4 0.35 0.63
 -2 16 2 1.28 0.67
 -2 16 3 0.83 0.9
 -2 16 5 25.98 1.76
 -2 16 6 4.19 1.11
 -2 17 2 2.24 1.05
 -2 17 4 2.22 1.01
 -2 17 5 4.39 1.22
 -2 18 3 1.43 0.85
 -2 18 4 0 0.95
 -2 19 3 -0.22 0.77
 -1 1 1 10.24 0.3
 -1 1 9 2.3 0.96
 -1 2 1 0.14 0.13
 -1 2 2 4284.55 8.62
 -1 2 8 0.12 0.73
 -1 2 9 4.05 0.99
 -1 3 0 1852.74 4.35
 -1 3 3 243.86 2.58
 -1 3 8 0.43 0.82
 -1 3 9 -0.47 0.78
 -1 4 0 1844.34 5.01
 -1 4 5 0.46 0.33
 -1 4 6 186.73 3.35
 -1 4 7 19.56 1.37
 -1 4 9 2.13 1
 -1 5 0 0.45 0.25
 -1 5 1 65.39 1.09
 -1 5 2 377.33 2.86
 -1 5 7 1.48 0.68
 -1 5 8 95.62 2.97
 -1 6 0 20.39 0.69
 -1 6 1 17.56 0.64
 -1 6 2 466.24 3.38
 -1 6 5 2.79 0.56
 -1 6 6 -0.16 0.51
 -1 6 7 3.61 0.82
 -1 6 8 6.42 1.09
 -1 7 0 1046.74 5.06
 -1 7 1 1.06 0.25
 -1 7 5 6.54 0.8
 -1 7 6 83.62 2.38
 -1 7 7 11.79 1.14
 -1 7 8 49.46 2.26
 -1 8 4 178.74 2.87
 -1 8 5 0.48 0.47
 -1 8 6 313.28 4.55
 -1 8 7 21.81 1.5
 -1 8 8 85.18 2.78
 -1 9 0 1.49 0.34
 -1 9 1 15.08 0.79
 -1 9 5 24.6 1.3
 -1 9 6 4.3 0.79
 -1 9 7 1.91 0.9
 -1 9 8 41.08 2.14
 -1 10 5 1.62 0.55
 -1 10 7 0.5 0.76
 -1 11 1 0.71 0.4
 -1 11 2 194.65 2.97
 -1 11 3 0.05 0.36
 -1 12 1 61.72 1.82
 -1 12 2 8.43 0.85
 -1 12 3 2.92 0.64
 -1 12 5 0.79 0.59
 -1 12 6 151.78 3.43
 -1 12 7 14.43 1.43
 -1 13 1 4.1 0.66
 -1 13 3 29.67 1.38
 -1 13 4 11.08 1.06
 -1 13 5 0.28 0.63
 -1 13 7 -0.47 0.74
 -1 14 1 13.26 1.08
 -1 14 3 22.44 1.42
 -1 14 5 0.64 0.71
 -1 14 6 0.85 0.73
 -1 15 1 0.52 0.57
 -1 15 2 15.87 1.23
 -1 15 4 15.74 1.4
 -1 15 5 65.04 2.34
 -1 15 6 23.92 1.72
 -1 16 2 24.26 1.46
 -1 16 4 2.58 0.85
 -1 16 5 -0.05 0.76
 -1 17 2 40.46 1.97
 -1 17 3 2.35 0.81
 -1 17 5 3.4 1.06
 -1 18 2 19.42 1.65
 -1 18 3 3.8 0.98
 -1 18 4 57.87 2.56
 -1 19 3 3.34 0.93
 0 2 0 238.04 1.2
 0 2 1 45.35 0.69
 0 2 8 12.76 1.45
 0 3 0 0.03 0.12
 0 3 1 1451.53 4.11
 0 3 2 555.1 3.22
 0 4 0 9545.61 11.05
 0 4 1 7.7 0.4
 0 4 2 399.93 2.86
 0 4 5 3.72 0.62
 0 4 6 324.92 4.53
 0 4 7 6.24 1.08
 0 4 8 5.99 1.23
 0 5 0 2.99 0.34
 0 5 1 185.25 1.78
 0 5 2 318.9 2.68
 0 5 3 3.08 0.41
 0 5 5 3.2 0.6
 0 5 6 88.52 2.43
 0 5 8 4.2 1.03
 0 6 1 96.68 1.4
 0 6 3 327.49 3.27
 0 6 5 17.14 1.02
 0 6 7 14.74 1.33
 0 6 8 51.12 2.32
 0 7 0 0.07 0.26
 0 7 1 576.28 3.61
 0 7 4 0.7 0.38
 0 7 5 16.91 1.12
 0 7 6 44.8 1.83
 0 7 8 19.4 1.52
 0 8 4 25.78 1.14
 0 8 5 11.13 0.98
 0 8 6 36.95 1.75
 0 8 7 13.02 1.24
 0 8 8 13.85 1.51
 0 9 0 0.39 0.28
 0 9 3 6.52 0.63
 0 9 4 281.26 3.74
 0 9 5 3.08 0.69
 0 9 6 118.13 2.93
 0 9 7 4.05 0.98
 0 9 8 20.83 1.64
 0 10 4 177.66 3.11
 0 10 5 21.54 1.25
 0 10 6 20.68 1.49
 0 10 7 2.34 0.97
 0 11 2 4.27 0.58
 0 11 3 11.68 0.9
 0 11 4 0.51 0.55
 0 11 5 13.35 1.11
 0 11 6 35.33 1.83
 0 11 7 28.29 1.79
 0 12 0 7.26 0.82
 0 12 1 15.85 1
 0 12 3 161.44 2.9
 0 12 4 120.93 2.68
 0 12 5 22.55 1.37
 0 12 7 4.33 0.99
 0 13 1 -0.19 0.52
 0 13 2 25.89 1.27
 0 13 3 27.16 1.38
 0 13 5 3.43 0.79
 0 14 1 14.27 1.04
 0 14 2 1.28 0.6
 0 14 3 15.04 1.16
 0 14 4 5.77 0.88
 0 14 5 21.98 1.51
 0 14 6 3.1 0.87
 0 15 1 49.19 1.87
 0 15 2 0.28 0.59
 0 15 3 0.25 0.61
 0 15 4 0.95 0.86
 0 15 5 11.97 1.33
 0 15 6 17.52 1.56
 0 16 4 72.79 2.49
 0 17 2 14.75 1.31
 0 17 3 29.64 1.84
 0 17 4 21.98 1.75
 0 17 5 2.47 1.04
 0 18 2 39.33 1.92
 0 18 3 3.7 1.03
 0 18 4 9.41 1.38
 0 19 3 1.29 0.84
 1 2 0 1904.76 2.98
 1 3 0 1914.21 3.8
 1 3 1 0.08 0.17
 1 3 7 14.24 1.38
 1 3 8 32.92 1.91
 1 4 1 776.87 3.36
 1 4 2 470.62 3.2
 1 4 3 18.58 0.84
 1 4 6 50.5 1.93
 1 4 7 131.56 3.22
 1 4 8 45.98 2.22
 1 5 0 0.3 0.19
 1 5 3 391.26 3.55
 1 5 5 47.31 1.66
 1 5 8 0.47 0.73
 1 6 1 328.92 2.53
 1 6 3 10.35 0.7
 1 6 4 465.05 4.5
 1 6 5 2.05 0.64
 1 6 6 31.41 1.57
 1 6 7 27.97 1.68
 1 6 8 -0.7 0.87
 1 7 4 3.58 0.58
 1 7 5 6.17 0.87
 1 7 6 43.96 1.87
 1 7 7 0.73 0.8
 1 8 2 321.68 3.18
 1 8 4 12.3 0.87
 1 8 6 54.36 2.06
 1 8 7 55.08 2.24
 1 9 0 0.96 0.34
 1 9 4 10.83 0.92
 1 9 6 11.38 1.22
 1 9 7 13.05 1.37
 1 10 0 71.47 1.61
 1 10 3 14.05 0.87
 1 10 4 7.67 0.87
 1 10 5 7.64 1.01
 1 10 6 21.28 1.48
 1 11 2 4.04 0.6
 1 11 3 0.37 0.43
 1 11 4 0.66 0.62
 1 11 5 0.08 0.58
 1 11 6 28.5 1.68
 1 11 7 1.38 0.81
 1 12 0 170.89 2.81
 1 12 2 26.94 1.2
 1 12 3 1.27 0.54
 1 12 4 14.3 1.12
 1 12 5 32.62 1.63
 1 12 6 1.12 0.82
 1 13 1 0.55 0.55
 1 13 3 91.35 2.3
 1 13 4 9.02 1.04
 1 14 3 15.17 1.19
 1 14 4 37.1 1.74
 1 15 1 54.52 1.87
 1 15 2 2.03 0.7
 1 15 3 1.52 0.77
 1 15 4 1.1 0.7
 1 15 5 0.34 0.69
 1 16 1 3.43 0.84
 1 16 2 12.3 1.14
 1 16 3 -0.32 0.8
 1 17 2 0.4 0.66
 1 17 3 21.32 1.56
 1 17 4 4.51 1.02
 1 18 3 5.72 1.08
 1 18 4 31.14 2
 1 19 3 -0.03 0.8
 2 2 0 389.5 1.3
 2 2 7 7.99 1.13
 2 3 0 706.56 2.19
 2 3 1 374.88 2.23
 2 3 6 2.44 0.78
 2 3 7 81.76 2.61
 2 4 1 104.9 1.26
 2 4 2 449.39 3.2
 2 4 3 0.26 0.35
 2 4 5 13.27 1.05
 2 4 6 4.64 0.92
 2 4 7 -0.21 0.76
 2 5 0 0.13 0.15
 2 5 1 46.08 0.91
 2 5 3 6.64 0.56
 2 5 6 1 0.68
 2 5 7 12.99 1.32
 2 6 2 184.07 2.22
 2 6 4 265.02 3.48
 2 6 5 29.36 1.38
 2 6 6 90.32 2.5
 2 6 7 3.78 0.86
 2 7 1 126.37 1.71
 2 7 2 151.22 2.14
 2 7 4 2.35 0.53
 2 7 5 4.2 0.74
 2 7 6 1.81 0.68
 2 7 7 84.76 2.62
 2 8 1 93.39 1.59
 2 8 2 0.71 0.35
 2 8 4 0.16 0.4
 2 8 6 42.41 1.84
 2 8 7 1.89 0.93
 2 9 0 88.69 1.67
 2 9 1 0.7 0.38
 2 9 3 6.02 0.62
 2 9 4 228.89 3.44
 2 9 5 27.4 1.45
 2 9 6 2.03 0.78
 2 9 7 0.35 0.83
 2 10 0 222.06 2.75
 2 10 3 50.34 1.56
 2 10 4 162.05 2.97
 2 10 5 3.4 0.7
 2 10 6 52.4 2.07
 2 11 3 0.44 0.41
 2 11 4 7.48 0.92
 2 11 5 2.02 0.68
 2 11 6 -0.49 0.67
 2 12 3 -0.41 0.39
 2 12 6 121.96 2.99
 2 13 2 41.35 1.62
 2 13 3 2.12 0.64
 2 13 4 104.04 2.58
 2 13 5 30.35 1.56
 2 13 6 1.54 0.73
 2 14 1 31.16 1.44
 2 14 2 0.84 0.55
 2 14 4 16.29 1.3
 2 14 5 -0.36 0.59
 2 15 2 45.92 1.89
 2 15 3 -0.77 0.55
 2 15 4 3.55 0.81
 2 15 5 1.18 0.88
 2 16 2 64.65 2.23
 2 16 3 0.56 0.82
 2 16 4 9.32 1.27
 2 17 2 0.01 0.79
 2 17 3 0.13 0.73
 2 17 4 22.36 1.65
 2 18 2 35.68 1.96
 2 18 3 2.09 0.8
 3 0 7 24.72 1.65
 3 1 7 4.43 0.99
 3 2 1 5.66 0.32
 3 2 5 4.91 0.82
 3 2 6 45.92 1.83
 3 2 7 0.17 0.63
 3 3 1 24.17 0.59
 3 3 2 12.1 0.59
 3 3 3 5.36 0.56
 3 3 4 0.57 0.4
 3 3 6 2.8 0.75
 3 4 2 352.5 2.86
 3 4 3 48.92 1.31
 3 4 5 12.05 0.99
 3 4 6 44.25 1.82
 3 5 2 187.62 2.15
 3 5 5 23.75 1.24
 3 6 1 1.48 0.25
 3 6 2 6.02 0.49
 3 6 4 1.53 0.49
 3 6 5 29.74 1.38
 3 6 6 2.45 0.73
 3 7 2 18.7 0.79
 3 7 4 21.45 1.09
 3 7 5 0.57 0.46
 3 8 1 -0.05 0.26
 3 8 2 446.23 3.64
 3 8 3 37 1.24
 3 8 5 0.91 0.52
 3 9 0 59.48 1.29
 3 9 1 10.41 0.65
 3 9 3 9.77 0.74
 3 9 4 0.29 0.38
 3 10 2 21.52 0.96
 3 10 3 1.52 0.45
 3 11 2 35.78 1.29
 3 11 3 9.15 0.77
 3 12 1 0.52 0.39
 3 13 1 3.21 0.58
 3 13 2 1 0.46
 3 14 2 1.69 0.62
 -6 12 -1 33.68 1.87
 -6 13 -1 15.34 1.67
 -5 9 -2 0.48 0.79
 -5 11 -2 190.64 3.54
 -5 12 -2 2.04 1.11
 -5 13 -1 43.09 2.02
 -5 14 -2 4.44 1.23
 -5 14 -1 1.83 1.2
 -5 15 0 14.78 1.77
 -5 16 0 55.68 2.5
 -4 7 -3 90.11 2.06
 -4 8 -3 42.07 1.42
 -4 9 -3 0.16 0.71
 -4 9 -2 10.67 1.02
 -4 10 -3 5.63 0.97
 -4 11 -2 25.17 1.47
 -4 12 -3 31.26 1.7
 -4 12 -2 0.39 0.87
 -4 13 -3 4.06 1.18
 -4 14 -3 0.32 1.06
 -4 14 -2 4.23 1.27
 -4 14 -1 17.91 1.57
 -4 15 -3 32.56 2.04
 -4 15 -2 122.31 3.13
 -4 15 -1 2.38 1.13
 -4 15 0 81.25 2.6
 -4 16 -2 1.32 1.23
 -4 16 -1 0.52 1.27
 -4 16 0 5.48 1.34
 -4 16 1 36.43 2.12
 -4 17 -1 5.36 1.42
 -4 17 0 5.34 1.39
 -4 17 1 30.33 2.11
 -4 17 2 35.55 2.17
 -4 18 0 -0.03 1.22
 -4 18 1 3.35 1.44
 -4 18 2 0.45 1.43
 -3 2 -3 1 0.28
 -3 3 -3 4.66 0.45
 -3 4 -3 47.72 1.05
 -3 6 -3 2 0.52
 -3 8 -3 35.12 1.27
 -3 9 -4 -0.14 0.72
 -3 9 -3 10.12 0.98
 -3 10 -4 42.86 1.65
 -3 10 -3 0.66 0.75
 -3 10 -2 20.01 1.2
 -3 11 -4 40.56 1.73
 -3 11 -3 11.18 1.19
 -3 12 -4 46.33 1.93
 -3 12 -3 15.46 1.34
 -3 12 -2 212 3.56
 -3 12 -1 1.02 0.71
 -3 13 -4 22.43 1.71
 -3 13 -3 0.57 0.92
 -3 13 -2 -0.25 0.94
 -3 13 -1 3.16 0.99
 -3 14 -4 37.97 2.05
 -3 14 -3 0.29 1.1
 -3 14 -1 0.83 0.91
 -3 14 0 105.25 2.63
 -3 15 -2 5.24 1.2
 -3 15 -1 64.9 2.32
 -3 15 1 6.32 1.24
 -3 16 -3 2.38 1.24
 -3 16 -2 25 1.96
 -3 16 -1 4.7 1.25
 -3 16 1 29.11 1.84
 -3 16 2 11.64 1.41
 -3 16 5 2.58 1.15
 -3 17 -3 2.1 1.34
 -3 17 -2 9.12 1.55
 -3 17 -1 0.21 1.27
 -3 17 0 14.14 1.6
 -3 17 1 34.27 2.07
 -3 17 2 208.49 3.97
 -3 17 3 -0.03 1.03
 -3 17 5 -0.91 1.13
 -3 18 -2 8.88 1.76
 -3 18 -1 0.68 1.31
 -3 18 1 14.11 1.79
 -3 18 2 -0.9 1.31
 -3 18 3 -0.67 1.24
 -3 18 4 -0.12 1.29
 -3 19 0 0.57 1.5
 -3 19 1 1.77 1.54
 -3 19 3 0.29 1.43
 -2 2 -3 111.33 1.09
 -2 3 -4 5.63 0.43
 -2 3 -3 2.8 0.35
 -2 4 -4 101.9 1.46
 -2 4 -3 0.1 0.32
 -2 5 -4 227.87 2.31
 -2 5 -3 8.04 0.6
 -2 6 -4 251.83 2.65
 -2 6 -3 80.87 1.55
 -2 6 -2 181.3 2.08
 -2 7 -3 0.06 0.45
 -2 7 -2 151.35 2.1
 -2 9 -4 231.49 3.21
 -2 9 -3 8.3 0.9
 -2 10 -3 49.74 1.6
 -2 10 -2 58.51 1.64
 -2 10 -1 -0.02 0.58
 -2 11 -4 8.43 1.11
 -2 11 -3 0.08 0.73
 -2 11 -2 102.31 2.2
 -2 11 -1 47.66 1.59
 -2 12 -4 24.47 1.6
 -2 12 -2 78.98 2.09
 -2 12 -1 66.62 1.88
 -2 13 -2 38.62 1.68
 -2 13 -1 6.18 0.91
 -2 13 0 61.89 1.92
 -2 14 -4 13.18 1.64
 -2 14 -3 21.08 1.59
 -2 14 -2 0.44 0.95
 -2 14 -1 29.22 1.6
 -2 14 0 11.01 1.18
 -2 15 -4 5.29 1.32
 -2 15 -3 0.86 1.03
 -2 15 -1 4.91 1.11
 -2 15 0 57.42 2.09
 -2 15 1 0.56 0.8
 -2 15 3 -0.37 0.81
 -2 15 4 0.22 0.98
 -2 16 -4 9.16 1.59
 -2 16 -3 -0.3 1.16
 -2 16 -2 63.57 2.43
 -2 16 -1 20.42 1.73
 -2 16 0 84.48 2.63
 -2 16 1 0.28 0.95
 -2 16 2 3.18 1.05
 -2 16 4 47.33 2.04
 -2 17 -4 18.79 2.08
 -2 17 -3 0.63 1.42
 -2 17 0 7.3 1.42
 -2 17 1 69.09 2.47
 -2 17 2 2.35 1.09
 -2 17 3 26.83 1.79
 -2 17 4 3.77 1.17
 -2 18 -3 2.8 1.55
 -2 18 -2 33.69 2.25
 -2 18 -1 59.76 2.63
 -2 18 0 9.43 1.47
 -2 18 1 0.85 1.33
 -2 18 2 6.55 1.34
 -2 18 3 2.43 1.3
 -2 18 4 -0.1 1.15
 -2 19 -2 18.55 2.06
 -2 19 -1 -0.48 1.31
 -2 19 0 46.43 2.49
 -2 19 1 11.9 1.68
 -2 19 2 16.09 1.9
 -2 19 3 0.91 1.32
 -2 19 4 0.33 1.26
 -2 20 1 0.47 1.27
 -2 20 2 40.76 2.5
 -1 1 -3 410.4 1.63
 -1 2 -4 1701.16 4.24
 -1 2 -3 1.09 0.25
 -1 2 -2 455.56 1.97
 -1 3 -4 2.84 0.42
 -1 3 -3 142.02 1.48
 -1 3 -2 141.37 1.33
 -1 4 -5 34.19 0.95
 -1 4 -4 35.29 0.93
 -1 4 -3 18.65 0.67
 -1 4 -2 457.73 2.59
 -1 5 -5 45.2 1.18
 -1 5 -4 10.42 0.72
 -1 5 -3 383.35 2.82
 -1 6 -4 461.56 3.6
 -1 6 -3 11.46 0.71
 -1 6 -2 9.21 0.6
 -1 7 -4 3.2 0.64
 -1 7 -3 27.5 1.01
 -1 7 -2 54.85 1.25
 -1 7 -1 18.04 0.75
 -1 8 -5 34.96 1.4
 -1 8 -2 314.14 3.07
 -1 8 -1 205.63 2.39
 -1 9 -5 28.16 1.41
 -1 9 -4 11.15 1.03
 -1 9 -1 17.69 0.92
 -1 10 -5 7.76 1.05
 -1 10 -4 8.58 1.03
 -1 10 -3 14.13 1.06
 -1 11 -5 0.96 0.93
 -1 11 -4 1.46 0.88
 -1 11 -3 0.06 0.71
 -1 11 -2 4.48 0.75
 -1 11 0 423.72 4
 -1 12 -5 35.04 1.82
 -1 12 -1 28.05 1.32
 -1 12 0 165.37 2.8
 -1 12 1 59.65 1.67
 -1 12 2 8.9 0.89
 -1 13 -5 11.91 1.48
 -1 13 -1 1.09 0.73
 -1 13 0 1.55 0.69
 -1 13 1 5.02 0.85
 -1 13 2 86 2.05
 -1 13 3 34.51 1.42
 -1 14 -5 11.56 1.54
 -1 14 -4 35.53 1.99
 -1 14 -3 16.06 1.54
 -1 14 -2 316.2 4.49
 -1 14 -1 128.16 2.74
 -1 14 0 99.19 2.41
 -1 14 1 12.08 1.14
 -1 14 2 59.97 1.91
 -1 14 3 23.35 1.36
 -1 15 -5 0.42 1.28
 -1 15 -4 0.88 1.23
 -1 15 -2 2.46 1.07
 -1 15 -1 60.95 2.12
 -1 15 0 108.98 2.64
 -1 15 1 0.38 0.75
 -1 15 2 14 1.28
 -1 15 3 2.56 0.96
 -1 15 4 13.77 1.14
 -1 16 -5 15.89 1.97
 -1 16 -4 84.94 2.91
 -1 16 -3 0.9 1.24
 -1 16 -2 14.12 1.63
 -1 16 -1 2.55 1.16
 -1 16 0 0.56 0.88
 -1 16 3 29.77 1.67
 -1 17 -3 23.24 2.02
 -1 17 -2 0.13 1.1
 -1 17 -1 4.61 1.32
 -1 17 1 3.83 1.16
 -1 17 2 41.46 2.03
 -1 17 3 3.45 1.2
 -1 18 -4 24.36 2.6
 -1 18 -3 6.23 1.55
 -1 18 -1 44.96 2.4
 -1 18 1 5.52 1.33
 -1 18 2 19.44 1.81
 -1 18 3 4.28 1.26
 -1 19 -2 2.56 1.47
 -1 19 -1 39.49 2.47
 -1 19 0 9.39 1.59
 -1 19 1 0.72 1.32
 -1 19 2 8.9 1.55
 -1 19 3 3.67 1.33
 -1 20 0 19.74 2.07
 -1 20 1 6.68 1.49
 -1 20 2 48.09 2.41
 -1 20 3 40.52 2.36
 0 1 -3 83.31 1.04
 0 1 -2 739.52 2.45
 0 1 -1 1198.91 2.38
 0 2 -4 95.55 1.42
 0 2 -3 900.4 3.55
 0 2 -2 262.18 1.68
 0 2 -1 45.78 0.64
 0 3 -4 17.23 0.74
 0 3 -3 98.5 1.33
 0 3 -2 555.02 2.7
 0 3 -1 1435.68 3.69
 0 4 -5 3.92 0.61
 0 4 -4 35.96 1.03
 0 4 -3 131.53 1.66
 0 4 -2 385.6 2.47
 0 4 -1 7.39 0.41
 0 5 -4 299.01 2.91
 0 5 -2 315.15 2.46
 0 5 -1 185.67 1.76
 0 5 0 3.97 0.41
 0 6 -5 17.35 1.05
 0 6 -4 340.19 3.27
 0 6 -3 325.04 2.96
 0 6 -2 595.94 3.62
 0 6 -1 99.5 1.47
 0 6 0 292.43 2.24
 0 7 -6 45.25 1.59
 0 7 -4 -0.29 0.5
 0 7 -2 97.48 1.65
 0 7 -1 571.9 3.56
 0 7 0 -0.03 0.3
 0 8 -5 12.57 1.08
 0 8 -2 28.52 1.05
 0 8 2 28.28 0.87
 0 8 3 212.69 2.11
 0 9 -6 118.16 2.6
 0 9 -4 286.68 3.64
 0 9 0 0.02 0.37
 0 9 1 11.44 0.69
 0 9 2 66.66 1.35
 0 9 3 7.48 0.63
 0 10 -6 20.73 1.55
 0 10 -5 23.09 1.44
 0 10 -4 173.18 3.09
 0 10 -3 109.83 2.26
 0 10 0 2.75 0.55
 0 10 1 15.75 0.88
 0 10 2 132.53 2.09
 0 10 3 107.54 1.84
 0 11 -5 16.23 1.44
 0 11 -4 -0.73 0.71
 0 11 -3 12.57 1.11
 0 11 -2 5.6 0.8
 0 11 -1 156.26 2.6
 0 12 -5 21.22 1.63
 0 12 -3 166.05 3.2
 0 12 -2 271.85 3.73
 0 12 -1 17.05 1.13
 0 12 0 7.49 0.83
 0 12 1 15.4 1.01
 0 12 2 258.7 3.17
 0 13 -6 40.25 2.19
 0 13 -5 4.74 1.21
 0 13 -4 114.17 2.86
 0 13 -3 27 1.61
 0 13 -2 24.85 1.47
 0 13 -1 -0.48 0.62
 0 13 0 0.42 0.64
 0 13 1 0.15 0.68
 0 13 2 25.47 1.29
 0 13 3 27.68 1.28
 0 14 -6 3.86 1.35
 0 14 -5 21.28 1.83
 0 14 -4 6.64 1.29
 0 14 -3 15.64 1.49
 0 14 -2 1.07 0.9
 0 14 -1 15.51 1.33
 0 14 0 90.08 2.29
 0 14 1 17.06 1.26
 0 14 2 1.36 0.75
 0 14 3 16.88 1.17
 0 15 -6 16.66 1.99
 0 15 -5 11.36 1.66
 0 15 -3 0.94 1.11
 0 15 -2 -0.04 0.96
 0 15 -1 47.15 1.93
 0 15 0 0.17 0.83
 0 15 1 48.25 1.86
 0 15 2 0.87 0.92
 0 15 3 0.57 0.74
 0 16 -5 18.23 1.95
 0 16 -2 219.53 4.1
 0 16 -1 11.9 1.45
 0 16 0 54.38 2.11
 0 16 1 12.37 1.29
 0 16 2 216.51 3.83
 0 17 -5 5.1 1.61
 0 17 -4 19.35 2.12
 0 17 -3 30.42 2.16
 0 17 -2 16.95 1.88
 0 17 -1 1.86 1.13
 0 17 0 1.13 1.15
 0 17 1 0.83 1.12
 0 17 2 16.2 1.57
 0 18 -4 9.75 1.74
 0 18 -3 4.57 1.54
 0 18 -2 44.73 2.44
 0 18 -1 2.58 1.25
 0 18 1 4.53 1.33
 0 18 2 41.12 2.12
 0 19 -3 1.38 1.64
 0 19 -2 0.26 1.4
 0 19 -1 12.27 1.72
 0 19 0 -0.04 1.19
 0 19 1 10.83 1.58
 0 19 2 -0.26 1.14
 0 20 -2 51.54 2.95
 0 20 -1 1.04 1.41
 0 20 2 56.15 2.57
 1 1 -2 40.46 0.83
 1 1 -1 10.71 0.4
 1 1 0 506.38 1.86
 1 2 -3 36.61 0.93
 1 2 -2 4281.67 8.01
 1 2 -1 -0.02 0.23
 1 2 0 1912.01 3.89
 1 2 1 72.3 0.63
 1 3 -4 7.95 0.65
 1 3 -3 236.33 2.3
 1 3 -2 326.49 2.42
 1 3 -1 35.22 0.74
 1 3 0 1879.35 4.3
 1 3 1 0 0.17
 1 4 -5 0.33 0.51
 1 4 -4 202.29 2.53
 1 4 -3 171.72 2.11
 1 4 -2 429.81 2.94
 1 4 -1 383.9 2.48
 1 4 0 1845.83 4.75
 1 4 1 768.97 2.75
 1 4 2 466.7 1.82
 1 5 -5 63.01 1.64
 1 5 -4 120.58 2.08
 1 5 -3 285.73 2.79
 1 5 -2 375.68 2.92
 1 5 0 0.33 0.28
 1 5 1 74.26 1.04
 1 5 2 86.71 1
 1 5 3 383.52 1.54
 1 6 -6 0.71 0.71
 1 6 -4 0.32 0.5
 1 6 -3 72.59 1.55
 1 6 -2 498.47 3.57
 1 6 0 20.43 0.72
 1 6 1 321.86 2.27
 1 6 3 10.84 0.44
 1 7 -6 83.27 2.17
 1 7 -3 48.65 1.39
 1 8 -6 324.63 4.33
 1 8 1 204.9 2.19
 1 8 2 313.7 2.55
 1 8 3 2.28 0.38
 1 9 -7 0.77 1.09
 1 9 -6 6.7 1.14
 1 9 -5 24.91 1.44
 1 9 -4 5.02 0.89
 1 9 -1 16.79 0.91
 1 9 0 1.86 0.47
 1 9 1 18.16 0.83
 1 9 2 8.48 0.66
 1 10 -7 0.9 1.08
 1 10 -6 7.94 1.32
 1 10 -5 1.22 0.83
 1 10 0 74.6 1.65
 1 10 1 227.02 2.72
 1 10 2 250.35 2.72
 1 11 -7 13.62 1.65
 1 11 -6 96.11 2.79
 1 11 -5 48.14 2.04
 1 11 -4 59.47 2.06
 1 11 -2 194.77 3.15
 1 12 -7 14 1.73
 1 12 -6 151.15 3.48
 1 12 -4 32.93 1.74
 1 12 -3 3.43 0.92
 1 12 -2 7.92 0.99
 1 12 -1 60.78 1.85
 1 12 1 27.88 1.24
 1 13 -6 4.97 1.45
 1 13 -5 0.86 1.07
 1 13 -4 9.51 1.34
 1 13 -3 33.12 1.75
 1 13 -2 81.38 2.3
 1 13 -1 5.47 0.9
 1 13 0 1.29 0.77
 1 13 1 0.68 0.73
 1 13 2 0.41 0.71
 1 14 -6 1.69 1.42
 1 14 -5 0.89 1.19
 1 14 -4 151.25 3.52
 1 14 -3 22.34 1.66
 1 14 -2 61.7 2.19
 1 14 -1 12.2 1.32
 1 14 0 96.94 2.44
 1 14 1 133.35 2.7
 1 14 2 329.93 4.07
 1 15 -6 24.41 2.12
 1 15 -5 73.22 2.82
 1 15 -2 17.01 1.57
 1 15 -1 0.05 0.86
 1 15 0 107.69 2.69
 1 15 1 58.28 2.04
 1 15 2 2.98 0.99
 1 16 -6 18.9 2.26
 1 16 -5 2.81 1.41
 1 16 -4 3.86 1.38
 1 16 -3 31.27 2.07
 1 16 -2 23.92 1.83
 1 16 -1 23.7 1.71
 1 16 0 -0.2 0.96
 1 16 1 4.04 1.14
 1 16 2 13.51 1.39
 1 17 -5 3.27 1.71
 1 17 -4 24.3 2.28
 1 17 -3 2.83 1.47
 1 17 -2 36.51 2.24
 1 17 -1 5.97 1.31
 1 17 0 1.16 1.22
 1 17 1 3.97 1.18
 1 17 2 0.92 1.04
 1 18 -4 51.22 2.86
 1 18 -3 4.99 1.7
 1 18 0 17.12 1.87
 1 18 1 47.49 2.36
 1 19 -3 3.64 1.52
 1 19 -2 8.7 1.8
 1 19 -1 -0.13 1.33
 1 19 1 40.81 2.37
 1 19 2 3.85 1.31
 1 20 0 16.55 1.95
 1 20 1 1.72 1.36
 2 2 -2 580.47 3.63
 2 2 -1 195.76 1.96
 2 3 -4 310.3 3.29
 2 3 -3 1.46 0.43
 2 3 -2 988.34 4.81
 2 3 -1 307.52 2.52
 2 3 0 706.52 3.35
 2 4 -4 6.87 0.81
 2 4 -3 2.23 0.53
 2 4 -1 3.65 0.5
 2 4 0 87.84 1.38
 2 4 1 105.64 1.28
 2 5 -4 105.38 2.1
 2 5 -1 7.02 0.62
 2 5 0 0.2 0.29
 2 5 1 46.19 0.94
 2 5 2 117.65 1.23
 2 6 -6 36.83 1.67
 2 7 -6 13.62 1.33
 2 7 -3 9.5 0.86
 2 7 -1 84.35 1.72
 2 7 0 70.7 1.45
 2 7 1 131.78 1.83
 2 7 2 153.1 1.76
 2 8 -5 117.02 2.65
 2 8 -2 28.62 1.18
 2 8 -1 1.65 0.5
 2 8 0 76.1 1.68
 2 8 1 96.92 1.74
 2 8 2 0.18 0.39
 2 9 -7 0.13 1.07
 2 9 -4 216.63 3.57
 2 9 -3 78.08 2
 2 9 -1 46.67 1.44
 2 9 0 85.59 1.79
 2 9 1 0.05 0.47
 2 9 2 132.42 1.97
 2 10 -6 17.83 1.62
 2 10 -5 0.17 0.93
 2 10 -4 163.66 3.27
 2 10 -3 8.45 1.03
 2 10 1 0.5 0.53
 2 10 2 59.3 1.39
 2 11 -7 1.04 1.24
 2 11 -6 38.17 2.16
 2 11 -5 51.99 2.15
 2 11 -4 29.71 1.65
 2 11 -3 1.08 0.76
 2 11 -2 3.85 0.79
 2 12 -7 16.32 1.92
 2 12 -6 11.2 1.58
 2 12 -5 80.87 2.67
 2 12 -4 108.04 2.87
 2 12 -3 -0.48 0.82
 2 12 -2 12.36 1.26
 2 12 -1 -0.17 0.72
 2 12 0 193.1 3.22
 2 12 1 65.4 1.82
 2 13 -5 9.69 1.46
 2 13 -4 83.99 2.71
 2 13 -3 57.9 2.18
 2 13 -2 65.59 2.22
 2 13 -1 75.48 2.23
 2 13 0 63.92 2.01
 2 13 1 5.94 0.97
 2 14 -7 20.62 2.2
 2 14 -6 0.23 1.3
 2 14 -4 25.39 1.94
 2 14 -3 1.14 1.12
 2 14 -2 138.63 3.15
 2 14 -1 3.3 0.95
 2 14 0 9.95 1.24
 2 14 1 30.37 1.58
 2 15 -6 132.62 3.87
 2 15 -5 25.29 2.25
 2 15 -4 -0.5 1.11
 2 15 -3 -0.71 0.93
 2 15 -2 14.45 1.64
 2 15 -1 0.21 0.89
 2 15 0 57.52 2.17
 2 16 -6 6.19 1.74
 2 16 -5 26.67 2.3
 2 16 -4 42.53 2.47
 2 16 -3 0.56 1.34
 2 16 -2 3.33 1.3
 2 16 -1 -0.11 1.02
 2 16 0 86.63 2.7
 2 16 1 19.95 1.67
 2 17 -5 5.87 1.79
 2 17 -4 1.76 1.47
 2 17 -3 32.14 2.26
 2 17 -2 3.02 1.44
 2 17 -1 65.16 2.68
 2 17 0 8.96 1.49
 2 18 -4 0.15 1.41
 2 18 -3 1.19 1.61
 2 18 -2 5.93 1.63
 2 18 -1 1.75 1.32
 2 18 0 9.32 1.6
 2 18 1 63.13 2.54
 2 19 -2 18.65 2.26
 2 19 -1 11.29 1.83
 2 19 0 46.85 2.55
 2 19 1 1.49 1.31
 2 20 -1 1.62 1.48
 2 20 0 8.03 1.7
 3 5 -3 30.5 1.25
 3 5 -2 337.87 3.49
 3 5 -1 260.7 2.88
 3 5 0 284.19 2.8
 3 6 -5 12.58 1.17
 3 6 -2 171.46 2.69
 3 6 -1 128.73 2.22
 3 6 0 48.33 1.27
 3 7 -4 77.47 2.17
 3 7 -1 1.41 0.53
 3 7 0 252.76 2.93
 3 7 1 73.82 1.54
 3 8 -5 72.51 2.32
 3 8 -1 24.61 1.21
 3 8 0 219.27 2.9
 3 8 1 0.12 0.46
 3 9 -6 7.36 1.35
 3 9 -5 7.56 1.21
 3 9 -2 0.15 0.61
 3 9 1 11.88 0.89
 3 10 -5 20.01 1.62
 3 10 -3 16.7 1.29
 3 10 -1 119.94 2.44
 3 11 -6 134.75 3.54
 3 11 -5 64.2 2.48
 3 11 -4 2.21 0.92
 3 11 -3 6.11 1.14
 3 11 -2 92.28 2.44
 3 11 -1 3.55 0.87
 3 12 -7 0.39 1.38
 3 12 -6 6.27 1.57
 3 12 -5 14.14 1.7
 3 12 -4 43.86 2.15
 3 12 -3 66.28 2.34
 3 12 -2 0.6 0.94
 3 12 0 60.26 1.93
 3 13 -7 92.63 3.39
 3 13 -5 2.28 1.27
 3 13 -3 0.39 1.11
 3 13 -2 162.94 3.4
 3 13 -1 86.55 2.47
 3 13 0 1.04 0.83
 3 14 -6 42.41 2.59
 3 14 -5 24.07 2.16
 3 14 -4 2.49 1.36
 3 14 -3 5.66 1.33
 3 15 -6 43.33 2.72
 3 15 -5 52.17 2.76
 3 15 -4 1.23 1.47
 3 15 -3 3.41 1.4
 3 15 -2 43.01 2.2
 3 15 -1 5.17 1.31
 3 15 0 43.7 2.08
 3 16 -6 1.03 1.73
 3 16 -5 2.62 1.77
 3 16 -4 2.69 1.61
 3 16 -2 11.92 1.64
 3 16 -1 30.22 2.11
 3 17 -5 -0.37 1.55
 3 17 -4 100.12 3.62
 3 17 -3 0.64 1.53
 3 17 -2 210.05 4.49
 3 17 -1 36.15 2.33
 3 17 0 15.19 1.77
 3 18 -4 1.02 1.68
 3 18 -3 0.04 1.41
 3 18 -2 0.54 1.6
 3 18 -1 13.8 1.87
 3 18 0 25.76 2.05
 3 19 -3 0.5 1.57
 3 19 -2 2.45 1.78
 3 19 -1 0.07 1.44
 3 19 0 0.99 1.53
 4 6 -3 9.16 1.05
 4 7 -3 287.06 4.08
 4 8 -5 1.53 1
 4 8 -4 179.35 3.48
 4 8 -3 1.02 0.83
 4 8 -2 35.12 1.6
 4 9 -5 28.18 1.93
 4 9 -4 117.56 2.96
 4 9 -3 1.92 0.93
 4 9 -2 357.43 4.58
 4 9 -1 34.91 1.58
 4 10 -6 38.69 2.3
 4 10 -5 14.84 1.7
 4 10 -4 104.98 2.96
 4 10 -3 14.55 1.49
 4 10 -2 2.55 0.9
 4 10 -1 81.47 2.28
 4 10 0 49.85 1.77
 4 11 -6 -0.16 1.2
 4 11 -5 23.36 1.98
 4 11 -4 0.72 1.1
 4 11 -3 170.59 3.57
 4 11 -1 22.49 1.46
 4 11 0 0.75 0.77
 4 12 -5 0.52 1.18
 4 12 -4 38.17 2.22
 4 12 -3 2.31 1.19
 4 12 0 29.32 1.64
 4 13 -5 22.31 2.16
 4 13 -4 75.85 2.94
 4 13 -3 21.04 1.92
 4 13 -2 193.03 3.92
 4 13 0 0.37 0.89
 4 14 -6 21.66 2.38
 4 14 -4 82.02 3.1
 4 14 -3 18.8 1.92
 4 14 -2 0.39 1.24
 4 14 -1 16.73 1.73
 4 15 -6 46.11 2.87
 4 15 -5 4.9 1.83
 4 15 -4 57.66 2.83
 4 15 -3 72.04 2.94
 4 15 -2 99.95 3.18
 4 16 -5 -0.93 1.74
 4 16 -3 4.32 1.7
 4 16 -2 22.8 2.18
 4 16 -1 33.38 2.27
 4 17 -1 28.4 2.23
 4 18 -3 11.68 2.19
 4 18 -1 4.37 1.58
 5 10 -3 65.31 2.5
 5 11 -4 314.7 5.59
 5 11 -3 11.82 1.51
 5 11 -2 33.95 1.97
 5 12 -4 1.16 1.42
 5 12 -3 9.41 1.59
 5 12 -1 0.71 1.04
 5 13 -5 0.33 1.33
 5 13 -4 13.7 1.81
 5 13 -3 -0.67 1.17
 5 13 -2 31.96 2.15
 5 13 -1 26.36 1.97
 5 14 -5 11.23 2.04
 5 14 -4 12.19 1.97
 5 14 -3 56.03 2.72
 5 14 -2 22.72 2.07
 5 14 -1 -0.67 1.26
 5 15 -4 83.28 3.43
 5 15 -3 19.74 2.13
 5 15 -2 5.83 1.59
 5 15 -1 6.53 1.47
 5 16 -3 1.22 1.5
 5 16 -2 12.59 1.92
 5 16 -1 1.33 1.32
 -8 1 4 149.08 2.96
 -8 2 4 5.34 0.89
 -8 3 4 113.92 2.7
 -8 4 3 6.68 0.9
 -8 4 4 128.88 2.91
 -8 5 3 0.76 0.73
 -8 5 4 101.45 2.68
 -8 5 5 3.6 1.03
 -8 6 3 32.46 1.59
 -8 6 4 19.86 1.46
 -8 7 3 22.61 1.44
 -8 7 4 23.97 1.61
 -8 7 5 1.83 0.92
 -8 8 3 18.9 1.41
 -8 8 4 6.88 1.2
 -8 8 5 3.49 1.01
 -8 9 3 3.49 0.99
 -8 9 4 42.92 2.04
 -7 1 2 85.02 1.85
 -7 2 2 188.07 2.8
 -7 2 3 0.2 0.47
 -7 3 2 6.14 0.79
 -7 3 3 1.34 0.61
 -7 4 2 1.06 0.52
 -7 4 3 10.67 1.03
 -7 5 1 58.32 1.73
 -7 5 2 99.41 2.33
 -7 5 3 7.09 0.94
 -7 6 1 4.66 0.81
 -7 6 3 2.32 0.69
 -7 6 4 140.24 3.19
 -7 7 1 3.69 0.83
 -7 7 2 13.67 1.11
 -7 7 3 6.43 1
 -7 7 4 105.53 2.81
 -7 8 1 17.07 1.27
 -7 8 2 0.58 0.64
 -7 8 3 6.51 1.1
 -7 8 4 9.4 1.26
 -7 8 5 2.08 0.9
 -7 9 0 0.2 0.68
 -7 9 1 40.53 1.79
 -7 9 2 26.67 1.55
 -7 9 3 7.18 1.05
 -7 9 4 13.25 1.38
 -7 9 5 24.87 1.69
 -7 9 6 3.54 1.11
 -7 10 3 3.57 0.92
 -7 10 4 8.25 1.18
 -7 10 5 70.01 2.59
 -7 10 6 47.73 2.31
 -7 11 0 61.81 2.29
 -7 11 1 12.63 1.32
 -7 11 2 20.56 1.55
 -7 11 3 15.9 1.49
 -7 11 4 84.93 2.82
 -7 12 1 12.45 1.45
 -7 12 2 11.28 1.39
 -7 12 4 0.09 0.81
 -6 0 1 0.18 0.31
 -6 1 1 0.98 0.36
 -6 2 2 13.23 0.87
 -6 3 1 3.16 0.53
 -6 3 2 132.89 2.41
 -6 4 0 -0.09 0.37
 -6 4 1 0.21 0.36
 -6 4 2 0.95 0.49
 -6 5 -1 3.14 0.61
 -6 5 0 146.12 2.54
 -6 5 1 2.32 0.58
 -6 5 2 114.44 2.41
 -6 6 -1 57.64 1.75
 -6 6 0 3.56 0.74
 -6 6 1 0.32 0.48
 -6 6 3 1.49 0.62
 -6 7 0 40.48 1.56
 -6 7 1 3.48 0.74
 -6 7 2 147.37 2.92
 -6 7 3 47.8 1.84
 -6 8 0 2.74 0.7
 -6 8 1 1.16 0.58
 -6 8 2 0.84 0.74
 -6 8 3 46.32 1.87
 -6 8 4 1.28 0.74
 -6 9 0 272.56 4.21
 -6 9 1 6.55 0.9
 -6 9 3 0.8 0.65
 -6 10 -2 12.94 1.32
 -6 10 -1 6.72 1.09
 -6 10 0 1.49 0.76
 -6 10 3 4.74 0.91
 -6 10 4 41.31 1.97
 -6 10 5 9.24 1.25
 -6 11 -1 1.58 0.82
 -6 11 0 1.77 0.91
 -6 11 1 1.69 0.9
 -6 11 3 22.55 1.6
 -6 11 4 5.38 1.05
 -6 11 5 32.04 1.89
 -6 11 6 2.21 0.94
 -6 12 -1 28.24 1.73
 -6 12 0 13.46 1.33
 -6 12 1 1.28 0.88
 -6 12 2 2.43 0.84
 -6 12 3 41.47 2
 -6 12 4 1.77 0.97
 -6 12 5 5.43 1.15
 -6 12 6 54.71 2.41
 -6 13 -1 13.46 1.46
 -6 13 0 127.88 3.37
 -6 13 1 6.27 1.17
 -6 13 3 1.28 0.84
 -6 13 4 70.65 2.63
 -6 13 5 36.2 2.1
 -6 14 0 0.25 0.86
 -6 14 1 18.33 1.65
 -6 14 4 6.96 1.32
 -6 14 5 9.24 1.47
 -6 15 2 6.51 1.16
 -6 15 3 0.2 0.87
 -5 -1 0 277.35 1.94
 -5 -1 1 98.2 1.46
 -5 0 0 0.44 0.25
 -5 0 1 16.12 0.7
 -5 1 0 274.77 2.46
 -5 1 1 98.63 1.66
 -5 2 -1 0.1 0.27
 -5 2 1 0.06 0.28
 -5 3 0 24.54 0.92
 -5 5 2 298.41 3.67
 -5 6 -2 -0.23 0.43
 -5 6 -1 -0.07 0.39
 -5 6 0 205.58 2.98
 -5 6 1 0.71 0.52
 -5 7 -3 0.15 0.57
 -5 7 -2 153.61 2.99
 -5 7 -1 0.2 0.45
 -5 7 2 1.89 0.59
 -5 8 -3 68.61 2.19
 -5 8 -2 0.5 0.67
 -5 8 -1 14.75 1.13
 -5 8 1 1.21 0.51
 -5 8 2 41.98 1.6
 -5 8 3 90.94 2.35
 -5 9 -3 23.3 1.51
 -5 9 -2 0.31 0.62
 -5 9 2 22.98 1.25
 -5 9 3 9.84 1.03
 -5 9 4 10.03 1.07
 -5 10 -2 3.07 0.93
 -5 10 0 49.13 1.88
 -5 10 1 -0.2 0.49
 -5 10 3 64.35 2.18
 -5 10 4 3.98 0.94
 -5 11 -3 6.12 1.07
 -5 11 -1 7.86 1.06
 -5 11 1 15.58 1.27
 -5 11 2 32.84 1.66
 -5 11 3 12.27 1.26
 -5 11 5 4.59 1.09
 -5 12 -3 18.55 1.61
 -5 12 -2 1.8 1.01
 -5 12 -1 24.86 1.57
 -5 12 1 0.48 0.79
 -5 12 3 7.67 1.13
 -5 12 4 0.47 0.73
 -5 12 6 48.13 2.24
 -5 12 7 1.62 1.06
 -5 13 -3 14.78 1.62
 -5 13 -2 33.48 1.95
 -5 13 -1 42.31 2.07
 -5 13 0 2.7 0.96
 -5 13 2 29.63 1.72
 -5 13 3 -0.53 0.82
 -5 13 4 15.33 1.49
 -5 13 5 1.95 1.01
 -5 13 6 21.97 1.75
 -5 14 -2 4.37 1.09
 -5 14 -1 2.69 1.05
 -5 14 0 5.29 1.22
 -5 14 1 -0.44 0.69
 -5 14 2 22.15 1.6
 -5 14 3 50.81 2.24
 -5 14 4 8.28 1.3
 -5 14 5 12.82 1.4
 -5 14 6 8.64 1.33
 -5 15 -1 13.26 1.5
 -5 15 0 14.4 1.6
 -5 15 1 4.83 1.13
 -5 15 2 4.25 0.98
 -5 15 5 3.72 1.1
 -5 16 0 55.65 2.54
 -5 16 1 1.61 1.06
 -5 16 2 13.94 1.57
 -5 16 3 -0.37 0.84
 -5 16 4 0.1 0.82
 -5 17 2 64.54 2.68
 -4 -2 0 24.95 0.49
 -4 -1 -1 35.03 0.59
 -4 -1 0 902.92 3.28
 -4 0 -1 0.15 0.18
 -4 1 -2 190.93 2.02
 -4 1 -1 35.05 0.85
 -4 1 0 876.73 4.04
 -4 2 -2 6.41 0.53
 -4 2 0 25.39 0.8
 -4 3 -1 34.13 1.01
 -4 3 0 882.49 4.72
 -4 3 1 29.01 0.98
 -4 4 -1 6.37 0.6
 -4 4 1 25.58 0.98
 -4 5 -3 12.08 0.91
 -4 5 1 11.13 0.76
 -4 6 -3 34.37 1.44
 -4 6 -2 17.46 1.01
 -4 7 -3 89.2 2.31
 -4 7 -2 39.11 1.45
 -4 7 -1 17.01 0.97
 -4 7 2 47.29 1.53
 -4 8 -3 40.98 1.74
 -4 8 -1 3.6 0.66
 -4 8 1 58.64 1.7
 -4 9 -3 -0.18 0.55
 -4 9 -2 11.52 1.06
 -4 9 1 34.8 1.44
 -4 9 2 358.89 4.31
 -4 9 3 3.26 0.72
 -4 10 -3 4.33 0.93
 -4 10 -2 3.21 0.78
 -4 10 -1 33.04 1.55
 -4 10 0 46.48 1.71
 -4 10 2 2.62 0.68
 -4 10 3 15.98 1.11
 -4 10 4 103.98 2.66
 -4 11 -4 0.21 0.74
 -4 11 -3 62.75 2.39
 -4 11 -2 25.1 1.55
 -4 11 -1 4.15 0.78
 -4 11 0 -0.23 0.54
 -4 11 3 163.1 3.22
 -4 11 4 0.93 0.61
 -4 12 -4 55.4 2.39
 -4 12 -3 27.08 1.71
 -4 12 -2 1.73 0.92
 -4 12 -1 0.83 0.67
 -4 12 0 25.94 1.48
 -4 12 2 43.34 1.81
 -4 12 3 2.03 0.69
 -4 12 6 6.29 1.13
 -4 12 7 36.72 1.95
 -4 13 -4 49.15 2.34
 -4 13 -3 1.33 1.04
 -4 13 -2 22.65 1.67
 -4 13 -1 19.82 1.55
 -4 13 0 1.21 0.72
 -4 13 1 51.59 2.02
 -4 13 2 195.07 3.73
 -4 13 3 20.79 1.45
 -4 13 4 73.18 2.44
 -4 13 5 19.62 1.55
 -4 13 6 4.23 0.98
 -4 13 7 1.53 0.83
 -4 14 -3 0.76 0.88
 -4 14 -2 3.53 1.16
 -4 14 -1 15.82 1.47
 -4 14 0 4.02 0.95
 -4 14 2 -0.11 0.63
 -4 14 5 16.35 1.51
 -4 14 6 18.79 1.49
 -4 15 -1 1.44 0.87
 -4 15 0 79.81 2.75
 -4 15 1 4.83 1.07
 -4 15 4 56.26 2.29
 -4 15 5 4.6 0.97
 -4 15 6 42.6 2.08
 -4 16 -2 1.35 0.99
 -4 16 -1 -0.71 0.95
 -4 16 0 4.37 1.18
 -4 16 3 2.02 0.84
 -4 16 4 1.47 0.85
 -4 16 5 0.19 0.91
 -4 17 -1 4.89 1.3
 -4 17 2 33.66 1.96
 -4 17 4 4.6 1.04
 -4 18 0 0.05 0.94
 -4 18 1 2.89 0.99
 -4 18 2 1.28 0.99
 -4 18 3 9.26 1.37
 -3 -3 0 29.04 0.4
 -3 -2 0 3.18 0.2
 -3 -1 -1 0.04 0.11
 -3 -1 0 232.53 1.48
 -3 0 -1 0.26 0.16
 -3 0 0 -0.09 0.15
 -3 1 -2 200.33 2.02
 -3 1 -1 0.31 0.22
 -3 1 0 229.24 1.86
 -3 2 -2 2.69 0.41
 -3 2 -1 6.43 0.45
 -3 2 0 2.84 0.31
 -3 3 -3 5.89 0.59
 -3 3 -2 12.6 0.68
 -3 3 0 27.41 0.81
 -3 4 -1 0.18 0.27
 -3 4 0 280.85 2.62
 -3 5 -1 10.45 0.68
 -3 5 0 272.64 2.76
 -3 5 1 268.35 2.81
 -3 6 -3 1.31 0.51
 -3 6 0 49.17 1.3
 -3 6 1 123.69 2.03
 -3 7 -4 20.98 1.25
 -3 7 -3 0.84 0.55
 -3 7 1 1.19 0.38
 -3 8 -3 36.4 1.58
 -3 8 -2 463.22 4.77
 -3 8 -1 -0.4 0.33
 -3 9 -4 -0.25 0.75
 -3 9 -2 41.92 1.57
 -3 9 -1 11.23 0.86
 -3 9 1 170.37 2.73
 -3 9 2 0.03 0.39
 -3 9 3 4.18 0.64
 -3 10 -3 0.14 0.58
 -3 10 -2 22.27 1.32
 -3 10 -1 1.35 0.52
 -3 10 1 118.09 2.43
 -3 10 2 2.62 0.6
 -3 11 -2 35.26 1.67
 -3 11 -1 79.88 2.24
 -3 11 0 194.77 3.26
 -3 11 1 3.64 0.63
 -3 11 3 6.24 0.77
 -3 11 4 2.31 0.74
 -3 12 -4 43.72 2.17
 -3 12 -3 16.23 1.47
 -3 12 -1 0.69 0.57
 -3 12 1 2.03 0.62
 -3 12 2 -0.32 0.43
 -3 12 4 44.74 1.8
 -3 12 6 3.86 0.89
 -3 12 8 30.12 1.8
 -3 13 -4 22.78 1.76
 -3 13 -3 -0.12 0.73
 -3 13 -2 0.78 0.71
 -3 13 -1 2.14 0.87
 -3 13 0 0.3 0.55
 -3 13 1 82.64 2.33
 -3 13 2 155.62 3.1
 -3 13 3 -0.88 0.56
 -3 13 4 36.81 1.73
 -3 13 5 1.33 0.71
 -3 13 7 77.9 2.54
 -3 14 -4 39.09 2.16
 -3 14 -3 0.86 1.02
 -3 14 -2 1.48 0.86
 -3 14 -1 0.03 0.64
 -3 14 0 102.99 2.79
 -3 14 2 1.29 0.76
 -3 14 3 3.31 0.76
 -3 14 4 0.8 0.78
 -3 14 5 23.21 1.53
 -3 14 6 40.91 1.93
 -3 14 7 0.46 0.87
 -3 15 -4 16.06 1.74
 -3 15 -3 14.26 1.78
 -3 15 -2 4.85 1.19
 -3 15 -1 58.42 2.3
 -3 15 0 45.25 2.07
 -3 15 1 4.34 0.88
 -3 15 2 41.72 1.88
 -3 15 3 1.77 0.81
 -3 15 4 2.39 0.82
 -3 15 5 53.45 2.12
 -3 15 6 43.95 2.01
 -3 16 -3 1.48 1.15
 -3 16 -1 5.52 1.09
 -3 16 0 -0.78 0.67
 -3 16 1 28.02 1.76
 -3 16 3 17.86 1.41
 -3 16 4 2.68 0.84
 -3 16 5 1.8 0.83
 -3 16 6 0.79 0.84
 -3 17 -2 8.84 1.46
 -3 17 -1 -0.81 0.87
 -3 17 0 13.03 1.42
 -3 17 1 32.01 1.84
 -3 17 3 0.56 0.74
 -3 17 4 97.75 2.86
 -3 17 5 1.06 0.78
 -3 18 -1 0.15 1.06
 -3 18 0 24.48 1.88
 -3 18 1 14.85 1.53
 -3 18 2 0.09 0.79
 -3 18 3 0.53 0.91
 -3 18 4 0.15 0.71
 -3 19 0 -1.3 0.8
 -3 19 2 2.77 0.96
 -3 19 3 -0.93 0.71
 -2 -1 -1 230.47 1.17
 -2 0 -1 0.09 0.13
 -2 1 -1 232.37 1.7
 -2 1 0 307.04 1.83
 -2 2 -1 276.29 2.07
 -2 2 0 401.75 2.35
 -2 3 -3 1.87 0.39
 -2 3 -2 127.39 1.79
 -2 3 -1 367.88 2.62
 -2 3 0 724.19 3.46
 -2 4 -3 0.03 0.34
 -2 4 -2 438.61 3.48
 -2 4 0 84.28 1.33
 -2 5 -1 44.07 1.12
 -2 5 0 0.69 0.26
 -2 6 -1 55.4 1.31
 -2 6 0 573.64 3.85
 -2 7 -4 1.89 0.6
 -2 7 -3 0.46 0.43
 -2 7 -1 126.37 2.11
 -2 8 -4 0.42 0.54
 -2 8 -3 -0.05 0.47
 -2 8 2 27.18 1.08
 -2 9 -4 221.93 3.93
 -2 9 -3 7.94 0.93
 -2 9 -2 130.82 2.58
 -2 10 -4 148.67 3.32
 -2 10 -2 56.46 1.84
 -2 10 -1 0.32 0.44
 -2 10 3 9.02 0.85
 -2 11 -4 6.26 0.99
 -2 11 -3 0.1 0.57
 -2 11 -2 101.09 2.5
 -2 11 -1 46.46 1.66
 -2 11 0 7.3 0.76
 -2 11 1 13.44 0.86
 -2 11 2 4.09 0.63
 -2 11 3 1.1 0.46
 -2 11 4 29.49 1.36
 -2 12 -4 23.66 1.6
 -2 12 -3 0.25 0.61
 -2 12 -2 74.83 2.27
 -2 12 -1 61.41 1.98
 -2 12 0 187.99 3.2
 -2 12 1 0.08 0.39
 -2 12 2 13.66 1.01
 -2 12 3 -0.58 0.4
 -2 12 4 104.32 2.42
 -2 12 6 10.9 1.09
 -2 13 -3 2.61 0.86
 -2 13 -2 38 1.77
 -2 13 0 59.35 1.95
 -2 13 3 54 1.8
 -2 13 4 89.03 2.32
 -2 13 5 10.04 1.06
 -2 13 6 74.51 2.25
 -2 14 -4 14.78 1.61
 -2 14 -3 17.5 1.61
 -2 14 -2 0.41 0.82
 -2 14 -1 28.48 1.58
 -2 14 0 10.45 0.99
 -2 14 1 3.41 0.71
 -2 14 2 135.4 2.83
 -2 14 3 0.11 0.48
 -2 14 4 27.82 1.47
 -2 14 5 21.64 1.37
 -2 15 -4 3.68 1.09
 -2 15 -3 -0.19 0.98
 -2 15 -1 4.11 0.97
 -2 15 0 56.94 2.13
 -2 15 1 0.76 0.67
 -2 15 2 15.27 1.21
 -2 15 3 -0.13 0.6
 -2 15 4 -0.1 0.63
 -2 16 -3 0.31 1.09
 -2 16 -2 59.89 2.48
 -2 16 -1 20.09 1.57
 -2 16 0 87.48 2.69
 -2 16 1 -0.91 0.71
 -2 16 2 1.95 0.72
 -2 16 3 1.65 0.74
 -2 16 4 39.62 1.78
 -2 16 5 22.82 1.45
 -2 17 -3 1.48 1.02
 -2 17 -2 -0.42 0.78
 -2 17 0 6.92 1.06
 -2 17 1 66.78 2.41
 -2 17 2 2.12 0.78
 -2 17 3 26.99 1.55
 -2 17 4 1.43 0.83
 -2 18 -3 3.94 1.27
 -2 18 -2 30.83 2.12
 -2 18 -1 59.34 2.53
 -2 18 1 1.47 0.81
 -2 18 2 4 0.97
 -2 18 3 0.47 0.82
 -2 18 4 1.27 0.9
 -2 19 -2 18.69 1.9
 -2 19 -1 1.36 1.07
 -2 19 1 7.79 1.19
 -2 19 2 16.91 1.57
 -2 19 3 -0.82 0.65
 -2 19 4 -0.13 0.73
 -2 20 0 5.65 1.24
 -2 20 1 0.45 0.92
 -2 20 2 40.41 2.13
 -2 20 3 -0.44 0.87
 -1 0 -1 2230.08 3.91
 -1 1 -1 190.49 1.36
 -1 1 0 516.87 1.85
 -1 2 -2 465.54 3.02
 -1 2 -1 75.31 0.99
 -1 2 0 1892.08 4.15
 -1 3 -2 142.53 1.79
 -1 3 -1 0.16 0.21
 -1 3 0 1956.77 4.86
 -1 4 -2 461.56 3.38
 -1 4 -1 784.11 3.81
 -1 4 0 1828.71 5.2
 -1 5 -3 387.93 3.79
 -1 5 -2 86.23 1.61
 -1 5 -1 75.4 1.33
 -1 5 0 0.46 0.24
 -1 5 1 67.16 1.17
 -1 6 -3 10.23 0.83
 -1 6 -1 326.72 2.9
 -1 6 0 20.3 0.73
 -1 7 -2 56.95 1.48
 -1 8 -4 11.51 0.94
 -1 8 -3 2 0.53
 -1 8 1 104.24 1.74
 -1 8 2 199.59 2.43
 -1 9 -4 9.95 0.95
 -1 9 -3 229.63 3.57
 -1 9 0 1.28 0.35
 -1 9 1 14.62 0.75
 -1 9 2 176.41 2.42
 -1 10 -3 15.78 1.14
 -1 10 -2 255.68 3.57
 -1 10 1 12.01 0.77
 -1 10 2 0.98 0.4
 -1 11 -4 0.05 0.57
 -1 11 -3 0.09 0.55
 -1 11 -2 4.54 0.73
 -1 11 -1 56.92 1.68
 -1 11 5 50.87 1.61
 -1 12 -4 14.75 1.3
 -1 12 -3 1.34 0.73
 -1 12 -2 29.33 1.42
 -1 12 0 162.11 2.81
 -1 12 1 54.34 1.59
 -1 12 3 2.75 0.57
 -1 12 5 0.05 0.32
 -1 13 -4 7.52 1.12
 -1 13 -2 0.36 0.55
 -1 13 -1 0.57 0.52
 -1 13 0 1.27 0.53
 -1 13 1 3.54 0.66
 -1 13 2 76.45 1.91
 -1 13 3 30.6 1.29
 -1 14 -4 36.3 2.08
 -1 14 -3 17.21 1.43
 -1 14 -2 322.24 4.82
 -1 14 0 97.52 2.45
 -1 14 1 11.61 1.03
 -1 14 2 60.14 1.82
 -1 15 -4 0.83 0.86
 -1 15 -3 1.33 0.84
 -1 15 -2 2.75 0.9
 -1 15 -1 58.02 2.14
 -1 15 1 0.1 0.64
 -1 15 2 15.06 1.1
 -1 15 3 3.24 0.68
 -1 16 -4 75.38 2.89
 -1 16 -3 0.64 0.84
 -1 16 -2 11.4 1.24
 -1 16 -1 2.33 0.92
 -1 16 0 -0.05 0.58
 -1 16 1 26.44 1.5
 -1 17 -4 4.2 1.18
 -1 17 -3 21.34 1.77
 -1 17 -2 -0.03 0.92
 -1 17 -1 3.4 1
 -1 17 0 -0.7 0.79
 -1 17 1 4.11 0.9
 -1 17 2 40.86 1.81
 -1 17 3 3.22 0.83
 -1 18 -3 4.43 1.32
 -1 18 -2 133.01 3.67
 -1 18 -1 43.63 2.18
 -1 18 1 4.76 0.93
 -1 19 -2 2.61 1.05
 -1 19 -1 36.32 2.12
 -1 19 0 6.51 1.21
 -1 19 1 0.4 0.75
 -1 19 2 5.14 0.98
 -1 20 -1 0.55 0.92
 -1 20 0 16.76 1.52
 -1 20 1 6.64 1.12
 -1 20 2 43.04 2
 0 1 -1 1210.39 3.16
 0 2 -1 45.89 0.74
 0 2 0 220.19 1.07
 0 3 -2 553.25 3.37
 0 3 -1 1455.09 4.33
 0 3 0 0.01 0.11
 0 4 -2 403.37 3.11
 0 4 -1 7.42 0.4
 0 4 0 9944.92 10.36
 0 5 -3 3.27 0.45
 0 5 -2 310.68 2.87
 0 5 1 180.78 1.6
 0 6 -3 322.8 3.51
 0 6 0 293.39 2.27
 0 6 1 98.91 1.3
 0 7 0 0.15 0.22
 0 7 1 564.77 3.28
 0 8 -2 26.87 1.06
 0 8 2 26.21 0.83
 0 9 -1 11.19 0.74
 0 9 0 0.18 0.28
 0 9 1 10.69 0.63
 0 9 2 65.01 1.33
 0 9 3 6.38 0.53
 0 10 2 131.12 1.97
 0 10 3 112.62 1.91
 0 11 -3 11.75 1.06
 0 11 -2 4.57 0.74
 0 11 1 158.07 2.35
 0 12 -4 121.58 3.08
 0 12 -2 263.55 3.87
 0 12 -1 14.6 0.94
 0 13 -4 110.87 3.08
 0 13 -3 25.16 1.55
 0 13 -2 23.18 1.28
 0 13 -1 0.43 0.59
 0 13 0 0.09 0.44
 0 13 1 0.3 0.36
 0 13 2 23.55 1.08
 0 14 -4 5.41 1.02
 0 14 -3 14.44 1.24
 0 14 -2 1.01 0.6
 0 14 -1 14.96 1.06
 0 14 0 82.79 2.14
 0 14 2 1.63 0.5
 0 15 -3 -0.34 0.72
 0 15 -1 44.88 1.82
 0 15 0 0.11 0.63
 0 15 2 1 0.51
 0 16 -2 212.52 4.24
 0 16 -1 10.96 1.2
 0 16 0 47.2 1.83
 0 16 1 13.33 1.11
 0 17 -2 14.99 1.37
 0 17 -1 0.97 0.84
 0 17 0 0.46 0.65
 0 17 1 0.14 0.67
 0 18 -3 3.55 1.1
 0 18 -2 39.96 2.16
 0 18 -1 2.82 0.95
 0 18 0 136.65 3.21
 0 18 1 3.6 0.84
 0 19 -3 1.98 1.03
 0 19 -2 -0.65 0.93
 0 19 0 0.13 0.7
 0 20 -2 54.9 2.54
 0 20 -1 1.56 0.99
 0 20 0 14.96 1.48
 1 3 0 1903.02 3.3
 1 4 -1 386 2.42
 1 4 0 1799.26 3.88
 1 4 1 750.95 2.05
 1 5 -2 368.26 3.03
 1 5 -1 64.25 1.11
 1 5 0 0.35 0.2
 1 5 1 73.65 0.81
 1 6 -1 17.76 0.65
 1 6 0 20.16 0.59
 1 6 2 8.9 0.37
 1 7 0 1028.23 4.27
 1 7 3 27.76 0.72
 1 8 -2 202.75 2.71
 1 8 3 1.03 0.24
 1 9 -1 14.27 0.73
 1 9 0 1.32 0.37
 1 9 2 7.89 0.46
 1 10 -3 64.07 1.89
 1 10 -1 12.38 0.75
 1 10 1 230.45 2.41
 1 10 2 250.52 2.36
 1 11 0 425.88 3.75
 1 11 1 54.96 1.3
 1 12 -3 3.24 0.69
 1 12 -2 7.84 0.91
 1 13 -3 31.79 1.6
 1 13 -1 3.91 0.72
 1 14 -3 22.7 1.47
 1 14 -2 57.03 2.02
 1 14 -1 12.41 1
 1 14 0 87.88 2.05
 1 15 -3 2.6 0.9
 1 15 -1 0.21 0.55
 1 16 -3 28.61 1.78
 1 16 -2 23.11 1.49
 1 16 -1 24.47 1.45
 1 16 0 0.51 0.5
 1 17 -2 34.89 1.87
 1 17 -1 3.76 0.97
 1 17 0 0.41 0.51
 1 18 -2 17.81 1.52
 1 18 -1 3.43 0.97
 1 19 -2 4.08 1.1
 1 19 -1 0.2 0.83
 2 7 0 69.25 1.04
 2 7 1 129.35 1.05
 2 8 -1 1.29 0.3
 2 8 1 95.37 1.09
 2 9 -1 44.52 1.17
 2 9 0 89.12 1.45
 2 10 0 219.95 2.4
 2 10 1 0.22 0.18
 2 11 -1 13.13 0.83
 2 11 0 8.07 0.61
 2 12 -2 13.52 1.01
 2 12 0 195.43 2.55
 2 14 -1 3.4 0.62
 -2 12 -6 126.81 3.22
 -2 18 -3 2.03 1.8
 -2 18 2 7.19 1.39
 -2 19 -2 17.68 2.24
 -2 19 -1 -1.04 1.52
 -2 19 0 48.01 2.59
 -2 19 1 10.43 1.72
 -2 20 1 -1.25 1.53
 -1 5 -6 40.95 1.46
 -1 7 -6 43.87 1.68
 -1 8 -6 50.85 1.88
 -1 9 -6 11.64 1.39
 -1 10 -6 20.33 1.75
 -1 11 -6 30.47 2
 -1 13 -6 -0.31 1.44
 -1 14 -6 80.13 3.02
 -1 14 -5 10.57 1.73
 -1 14 2 60.14 1.8
 -1 15 -5 -0.72 1.52
 -1 15 -4 0.32 1.47
 -1 15 2 14.27 1.33
 -1 16 -4 79.66 3.01
 -1 16 -3 -0.27 1.27
 -1 16 1 25.63 1.69
 -1 17 -3 25.08 2.27
 -1 17 -1 2.52 1.4
 -1 17 0 0.4 1.22
 -1 17 2 38.96 1.84
 -1 18 -3 5.69 1.9
 -1 18 0 13.42 1.76
 -1 18 1 5.59 1.5
 -1 19 -2 2.49 1.69
 -1 19 0 9.91 1.82
 -1 19 1 -0.46 1.41
 -1 20 -1 -0.6 1.77
 -1 20 0 19.31 2.33
 0 0 -4 263.63 1.47
 0 1 -5 5.82 0.51
 0 2 -5 5.99 0.6
 0 3 -5 15.37 0.78
 0 4 -5 4.84 0.65
 0 4 2 390.42 1.55
 0 5 2 311.75 1.69
 0 6 -6 62.8 1.74
 0 6 2 587.06 2.62
 0 6 3 326.39 1.57
 0 7 -6 45.47 1.68
 0 7 -5 17.54 1.17
 0 7 2 94.95 1.28
 0 8 -6 35.29 1.69
 0 8 -5 11.53 1.16
 0 9 -6 113.98 2.65
 0 9 -5 3.79 0.97
 0 9 2 68.02 1.38
 0 10 -5 23.89 1.56
 0 10 1 14.97 0.89
 0 11 -6 34.37 2.08
 0 11 -4 0.78 0.88
 0 12 -6 6.73 1.6
 0 12 -5 21.01 1.8
 0 12 -4 121.98 2.81
 0 12 0 8 0.95
 0 13 -5 4.95 1.44
 0 13 -4 115.58 2.92
 0 13 -3 25.94 1.67
 0 13 -2 25.25 1.54
 0 13 -1 0.33 0.78
 0 13 0 -0.45 0.71
 0 13 1 -0.64 0.73
 0 14 -6 3.77 1.68
 0 14 -5 22.66 2.13
 0 14 -3 16.29 1.6
 0 14 -2 0.89 1.01
 0 14 -1 15.36 1.4
 0 14 0 88.84 2.29
 0 14 1 16.29 1.34
 0 15 -6 19.88 2.38
 0 15 -5 11.17 1.93
 0 15 -4 1.04 1.51
 0 15 -3 0.87 1.3
 0 15 -2 0.35 1.11
 0 15 -1 47.21 2.05
 0 15 0 0.75 0.98
 0 15 1 47.16 1.92
 0 16 -5 19.06 2.35
 0 16 -3 82.32 2.89
 0 16 -2 212.78 4.04
 0 16 -1 14.37 1.71
 0 16 0 55.05 2.25
 0 16 1 12.45 1.45
 0 17 -5 2.34 1.82
 0 17 -4 21.59 2.39
 0 17 -3 29.15 2.32
 0 17 -2 16.76 1.92
 0 17 -1 0.31 1.44
 0 17 1 -0.38 1.25
 0 18 -3 4.62 1.87
 0 18 -2 45.18 2.68
 0 18 -1 3.27 1.61
 0 19 -3 0.14 1.85
 0 19 -2 1.14 1.68
 0 19 0 0.45 1.54
 0 19 1 13.24 1.89
 0 20 -2 57.54 3.18
 0 20 -1 2.99 1.87
 0 20 1 2.76 1.68
 0 21 0 -0.48 1.74
 1 -1 -3 594.43 1.89
 1 -1 -2 39.87 0.57
 1 0 -4 0.22 0.26
 1 0 -3 202.92 1.41
 1 0 -1 225 1.34
 1 1 -5 80.43 1.28
 1 1 -4 141.05 1.45
 1 1 -3 591.96 2.63
 1 1 -2 41.08 0.72
 1 1 0 505.39 2.11
 1 2 -6 13.63 0.76
 1 2 -5 2.21 0.5
 1 2 -4 200.08 1.92
 1 2 -3 36.6 0.81
 1 2 -2 4291.5 7.17
 1 2 -1 -0.13 0.24
 1 2 0 1876.95 4.27
 1 2 1 73.84 0.91
 1 3 -5 11.72 0.77
 1 3 -4 7.22 0.63
 1 3 -2 329.04 2.27
 1 3 -1 35.31 0.76
 1 3 0 1881.11 4.64
 1 3 1 0.13 0.27
 1 4 -6 188.9 2.56
 1 4 -5 0.77 0.56
 1 4 -4 198.44 2.25
 1 4 -3 166.93 1.93
 1 4 -2 430.64 2.77
 1 4 -1 370.16 2.42
 1 4 0 1824.09 5.01
 1 4 1 764 3.16
 1 4 2 468.06 2.38
 1 5 -5 64.34 1.55
 1 5 -4 121.03 1.99
 1 5 -3 278.16 2.61
 1 5 -2 365.05 2.75
 1 5 -1 65.83 1.25
 1 5 1 75.83 1.23
 1 5 2 86.41 1.22
 1 6 -3 74.79 1.6
 1 6 -2 472.5 3.35
 1 6 -1 18.27 0.78
 1 6 0 21.06 0.79
 1 6 1 328.76 2.49
 1 6 2 10.17 0.58
 1 7 -6 86.1 2.12
 1 7 -3 51.49 1.39
 1 8 -7 21.28 1.68
 1 8 -6 320.03 4.19
 1 8 -5 2.05 0.88
 1 8 1 212.33 2.39
 1 8 2 322.22 2.75
 1 9 -6 7.07 1.3
 1 9 -4 4.7 0.92
 1 9 -1 15.25 0.96
 1 9 0 1.72 0.59
 1 9 1 17.68 0.96
 1 10 -7 0.82 1.29
 1 10 -6 7.49 1.39
 1 10 -5 1.83 0.98
 1 10 -4 112.84 2.5
 1 10 -3 63.69 1.87
 1 10 0 75.8 1.74
 1 10 1 232.59 2.91
 1 10 2 259.01 2.9
 1 11 -6 93.85 2.8
 1 11 -3 0.12 0.83
 1 11 -2 184.26 3.11
 1 12 -7 15.67 1.95
 1 12 -5 -0.4 1.09
 1 12 -4 30.76 1.8
 1 12 -2 7.52 1.07
 1 12 -1 56.91 1.86
 1 13 -6 7.69 1.71
 1 13 -5 1.25 1.27
 1 13 -4 11.98 1.54
 1 13 -3 30.9 1.81
 1 13 -2 82.79 2.35
 1 13 -1 4.42 1.04
 1 13 0 2.39 0.96
 1 13 1 0.01 0.83
 1 14 -6 0.69 1.62
 1 14 -5 0.59 1.41
 1 14 -3 23.4 1.84
 1 14 -2 60.95 2.27
 1 14 0 100.86 2.54
 1 14 1 127.27 2.71
 1 15 -5 69.49 2.98
 1 15 -4 13.99 1.89
 1 15 -3 2.19 1.38
 1 15 -2 15.81 1.72
 1 15 -1 0.29 1.04
 1 15 0 110.21 2.79
 1 16 -4 2.35 1.58
 1 16 -2 25.13 2.09
 1 16 -1 25.89 1.99
 1 16 0 0.28 1.22
 1 17 -5 3.73 1.89
 1 17 -4 22.42 2.41
 1 17 -3 4.11 1.75
 1 17 -2 41.79 2.53
 1 17 0 0 1.38
 1 17 1 4.6 1.44
 1 18 -4 52.96 3.06
 1 18 -1 6.18 1.67
 1 18 0 16.79 1.99
 1 18 1 49.2 2.46
 1 19 -3 5.31 1.93
 1 19 -1 0.81 1.64
 1 20 -2 48.18 3.11
 1 20 -1 7.92 1.99
 2 0 -5 0.13 0.41
 2 0 -4 6.91 0.55
 2 0 -2 13.3 0.66
 2 0 -1 0.43 0.34
 2 1 -6 55.22 1.12
 2 1 -5 13.2 0.74
 2 1 -4 18.62 0.76
 2 1 -3 11.72 0.63
 2 1 -2 305.69 2.4
 2 1 -1 67.25 1.22
 2 1 0 306.24 2.41
 2 2 -6 12.79 0.84
 2 2 -5 44.62 1.17
 2 2 -4 96.74 1.62
 2 2 -3 15.57 0.74
 2 2 -2 577.65 3.38
 2 2 -1 200.54 1.99
 2 2 0 396.03 2.79
 2 3 -6 112.41 2.1
 2 3 -5 50.56 1.32
 2 3 -4 298.97 2.81
 2 3 -3 1.72 0.46
 2 3 -2 1010.76 4.62
 2 3 -1 309.89 2.6
 2 3 0 705.42 3.77
 2 3 1 368.68 2.78
 2 4 -6 43.16 1.39
 2 4 -5 78.55 1.69
 2 4 -4 7.39 0.78
 2 4 0 87.08 1.53
 2 4 1 100.38 1.64
 2 5 -5 -0.1 0.64
 2 5 -4 105.87 2
 2 5 -3 60.51 1.42
 2 5 -1 7.56 0.71
 2 6 -3 12.71 0.91
 2 6 2 185.83 2.27
 2 7 -7 -0.57 0.99
 2 7 -6 13.08 1.3
 2 7 -5 68.34 1.93
 2 7 -3 10.54 0.95
 2 7 1 128.18 2.07
 2 7 2 150.7 2.16
 2 8 -6 1.4 1.03
 2 8 -5 113.91 2.49
 2 8 -4 78.57 2.02
 2 8 -2 26.13 1.2
 2 8 0 77.16 1.72
 2 8 1 98.79 2.05
 2 8 2 0.6 0.59
 2 9 -7 0.03 1.15
 2 9 -6 79.87 2.42
 2 9 -4 210.07 3.46
 2 9 0 84.57 1.89
 2 9 1 0.58 0.65
 2 10 -6 18.2 1.74
 2 10 -5 0.16 1.01
 2 10 -3 10.11 1.16
 2 10 -2 630.9 5.39
 2 10 1 0.59 0.69
 2 10 2 59.17 1.62
 2 11 -7 1.1 1.43
 2 11 -5 50.38 2.18
 2 11 -3 1.59 0.94
 2 12 -6 10.83 1.76
 2 12 -3 -0.15 0.88
 2 12 -2 14.09 1.44
 2 12 -1 -0.51 0.87
 2 12 0 195.61 3.43
 2 12 1 64.32 1.97
 2 13 -7 -1.08 1.57
 2 13 -6 75.36 2.95
 2 13 -3 55.21 2.25
 2 13 -2 67.21 2.32
 2 13 -1 77.64 2.37
 2 13 1 7.46 1.17
 2 14 -7 22.25 2.73
 2 14 -6 -0.06 1.64
 2 14 -5 20.14 2.09
 2 14 -4 27.6 2.16
 2 14 -3 0.21 1.22
 2 14 -2 143 3.29
 2 15 -5 24.14 2.35
 2 15 -4 -0.76 1.48
 2 15 -2 14.58 1.67
 2 15 -1 0.68 1.24
 2 15 1 5.41 1.34
 2 16 -6 4.33 2.08
 2 16 -5 26.73 2.52
 2 16 -4 46.91 2.74
 2 16 -3 0.25 1.52
 2 16 -2 1.27 1.44
 2 16 -1 0.61 1.42
 2 16 1 19.65 1.89
 2 17 -5 3.71 2.02
 2 17 -4 2.41 1.77
 2 17 -2 3 1.72
 2 17 -1 66.91 2.86
 2 17 0 9.47 1.75
 2 18 -4 -0.17 1.79
 2 18 -3 2.19 1.78
 2 18 -2 6.48 1.84
 2 18 -1 0.12 1.54
 2 19 -3 -0.91 1.89
 2 19 -2 16.57 2.37
 2 19 0 47.2 2.78
 2 20 -2 39.1 3.12
 2 20 -1 2.07 1.93
 3 0 -5 327.12 2.95
 3 0 -4 0.42 0.51
 3 0 -3 269.96 2.69
 3 1 -6 128.05 2.16
 3 1 -4 1299.41 5.95
 3 1 -3 45.87 1.25
 3 1 -2 907.02 4.97
 3 1 -1 297.21 2.94
 3 2 -6 42.79 1.37
 3 2 -5 0.15 0.61
 3 2 -4 0.18 0.55
 3 2 -3 15.72 0.9
 3 2 -2 760.33 4.66
 3 3 -6 0.82 0.76
 3 3 -4 623.51 4.54
 3 3 -3 44.01 1.33
 3 3 -2 166.7 2.4
 3 4 -4 104.65 2.04
 3 4 -3 220.98 2.87
 3 4 0 280.65 3.08
 3 4 1 0 0.52
 3 5 -7 196.38 3.39
 3 5 -6 125.62 2.47
 3 5 -3 32.62 1.31
 3 5 -1 257.32 3.03
 3 5 0 273.43 3.08
 3 5 1 11.17 0.96
 3 6 -7 0.13 1.02
 3 6 -6 56.24 1.94
 3 6 -5 12.14 1.24
 3 6 -1 123.05 2.26
 3 6 0 48.73 1.5
 3 6 1 1.76 0.7
 3 7 -7 5.61 1.26
 3 7 -5 38.12 1.69
 3 7 -1 0.69 0.69
 3 7 0 260.52 3.34
 3 7 1 71.19 1.8
 3 8 -7 -0.16 1.17
 3 8 -6 16.19 1.55
 3 8 -4 110.62 2.5
 3 8 2 450.6 4.25
 3 9 -7 157.68 3.4
 3 9 -6 8.76 1.44
 3 10 -7 0.38 1.36
 3 10 -6 66.32 2.52
 3 10 -4 10.65 1.34
 3 10 -3 14.72 1.38
 3 10 -1 122.52 2.62
 3 10 0 163.39 3.2
 3 11 -7 6.44 1.67
 3 11 -6 134.64 3.41
 3 11 0 196.01 3.58
 3 11 1 80.25 2.23
 3 12 -5 15.34 1.87
 3 12 -3 64.82 2.4
 3 12 -1 1.5 1
 3 12 1 0.85 1.01
 3 13 -7 91.21 3.33
 3 13 -6 35.66 2.49
 3 13 -5 1.97 1.58
 3 13 -3 -0.78 1.16
 3 13 -2 160.09 3.46
 3 13 -1 88.58 2.67
 3 13 0 0.49 1.05
 3 14 -6 43.64 2.76
 3 14 -4 0.56 1.5
 3 14 -2 1.15 1.37
 3 14 -1 54.89 2.41
 3 14 1 0.08 1.17
 3 15 -6 46.5 2.94
 3 15 -4 3.78 1.62
 3 15 -3 2.43 1.62
 3 15 -2 42.67 2.46
 3 15 -1 6.04 1.54
 3 15 0 44.12 2.33
 3 16 -5 2.14 1.9
 3 16 -4 3.61 1.76
 3 16 -3 18.95 2.31
 3 16 -2 11.41 1.95
 3 16 0 -1.4 1.47
 3 17 -4 100.18 3.74
 3 17 -3 -0.68 1.59
 3 17 -2 214.02 4.67
 3 17 -1 35.01 2.55
 3 18 -4 -0.95 1.94
 3 18 0 24.36 2.42
 3 19 -3 0.04 2.06
 3 19 -2 4.49 2.01
 3 19 -1 2.37 1.89
 3 19 0 1.1 1.73
 4 1 -5 44.94 1.54
 4 1 -3 172.92 2.74
 4 2 -2 6.3 0.89
 4 3 -7 10.55 1.31
 4 3 -1 28.48 1.37
 4 4 -6 0.46 0.92
 4 5 -7 0.44 1.1
 4 5 -6 45.85 1.91
 4 5 -5 43.89 1.79
 4 5 -4 15.08 1.3
 4 6 -7 172.03 3.31
 4 6 -6 31.17 1.76
 4 6 -4 76.96 2.23
 4 7 -6 164.42 3.71
 4 7 -5 55.59 2.13
 4 7 -4 124.79 2.8
 4 7 -3 275.9 4.06
 4 7 -2 47.78 1.8
 4 7 0 233.85 3.68
 4 7 1 17.8 1.37
 4 8 -6 1.95 1.26
 4 8 -5 0.96 1.14
 4 8 -3 0.24 0.94
 4 8 -2 36.71 1.77
 4 8 0 33.66 1.7
 4 9 -7 1.69 1.45
 4 9 -6 1.42 1.36
 4 9 -5 28.71 1.92
 4 9 -3 3.4 1.1
 4 9 -2 363.28 4.85
 4 9 -1 37.25 1.84
 4 9 1 25.59 1.64
 4 10 -7 39.39 2.43
 4 10 -6 38.09 2.36
 4 10 -5 14.67 1.8
 4 10 -4 101.47 2.89
 4 10 -1 82.05 2.49
 4 10 1 32.88 1.82
 4 11 -7 3.05 1.7
 4 11 -6 1.23 1.59
 4 11 -5 24.06 2.08
 4 11 -4 0.54 1.3
 4 11 -3 167.58 3.59
 4 11 -2 14.24 1.68
 4 11 -1 20.53 1.74
 4 12 -7 41.01 2.7
 4 12 -5 1.09 1.54
 4 12 -4 37.01 2.3
 4 12 -3 2.1 1.25
 4 12 -2 41.4 2.2
 4 13 -7 2.19 1.86
 4 13 -5 18.94 2.3
 4 13 -4 75.56 3
 4 13 -3 20.17 2.06
 4 13 -2 207.48 4.2
 4 13 -1 49.34 2.44
 4 13 0 0.09 1.36
 4 14 -6 20.34 2.53
 4 14 -4 81.71 3.24
 4 14 -3 20.14 2.19
 4 14 -2 0.69 1.43
 4 14 0 5.12 1.56
 4 15 -6 49.37 3.14
 4 15 -5 2.98 1.89
 4 15 -4 55.12 3.05
 4 15 -3 75.83 3.21
 4 15 -2 101.23 3.48
 4 16 -5 0.98 2.04
 4 16 -4 2.46 1.93
 4 16 -2 22.89 2.45
 4 16 -1 36.83 2.66
 4 16 0 6.33 1.8
 4 17 -4 2.68 1.97
 4 17 -2 36.56 2.86
 4 17 -1 27.55 2.61
 4 17 0 6.39 1.87
 4 18 -3 11.92 2.46
 4 18 -2 0.53 1.95
 4 18 -1 4.58 1.94
 5 2 -4 14.85 1.35
 5 3 -5 1.22 1.03
 5 3 -4 71.18 2.24
 5 4 -7 1 1.23
 5 4 -5 2.1 1.12
 5 4 -3 278.45 4.19
 5 4 -2 23.38 1.56
 5 5 -6 170.89 3.46
 5 5 -5 0.77 1.09
 5 5 -4 69.85 2.33
 5 5 -3 26.56 1.66
 5 5 -1 120.11 2.79
 5 6 -7 17.42 1.88
 5 6 -6 16.49 1.77
 5 6 -4 1.81 1.08
 5 6 -3 48.54 2.05
 5 6 -2 15.33 1.54
 5 6 -1 1.29 1.03
 5 7 -7 1.83 1.44
 5 7 -6 190.56 3.86
 5 7 -5 1.14 1.18
 5 7 -4 335.62 5.07
 5 7 -3 4.9 1.22
 5 7 -2 3.16 1.19
 5 7 0 33.67 1.88
 5 8 -4 6.04 1.39
 5 8 -3 91.74 2.8
 5 8 -1 0.99 1.09
 5 8 0 94.35 2.77
 5 9 -7 48.13 2.62
 5 9 -6 102.72 3.28
 5 9 -5 0 1.33
 5 9 -4 12.13 1.71
 5 9 -2 23.98 1.88
 5 9 0 46.87 2.27
 5 10 -7 25.55 2.46
 5 10 -3 64.73 2.68
 5 10 -2 18.22 1.93
 5 10 -1 -0.76 1.21
 5 11 -7 -1.32 1.66
 5 11 -6 162.78 4.18
 5 11 -5 5.52 1.68
 5 11 -4 316.46 5.6
 5 11 -2 33.69 2.28
 5 11 -1 16.73 1.95
 5 11 0 68.94 2.75
 5 12 -7 0.42 1.85
 5 12 -6 47.52 2.92
 5 12 -5 27.56 2.53
 5 12 -4 0.38 1.67
 5 12 -2 36.59 2.46
 5 12 -1 0.31 1.39
 5 13 -5 -0.31 1.82
 5 13 -4 15.13 2.15
 5 14 -5 14.11 2.34
 5 14 -3 49.85 2.97
 5 15 -5 5.12 2.16
 5 15 -4 84.1 3.64
 5 16 0 59.07 3.1
 5 17 -3 8.07 2.4
 5 17 -2 67.61 3.55
 6 4 -5 1.49 1.31
 6 4 -4 25.66 1.89
 6 5 -7 4.79 1.54
 6 5 -6 12.83 1.81
 6 5 -5 4.11 1.48
 6 5 -4 43.35 2.27
 6 5 -3 0.56 1.22
 6 6 -6 0.48 1.49
 6 6 -4 53.79 2.53
 6 6 -3 0.02 1.26
 6 6 -2 68.42 2.64
 6 7 -7 28.47 2.41
 6 7 -4 17.49 2.01
 6 7 -2 153.38 3.71
 6 8 -7 1.17 1.71
 6 8 -6 1.82 1.73
 6 8 -3 49.2 2.53
 6 8 -2 2.07 1.46
 6 9 -6 53.52 2.93
 6 9 -5 27.28 2.48
 6 9 -3 -0.05 1.45
 6 9 -2 224.02 4.93
 6 9 -1 8.01 1.8
 6 10 -7 -0.17 1.74
 6 10 -6 2.42 1.81
 6 10 -4 42.5 2.72
 6 10 -3 5.95 1.8
 6 11 -7 19.65 2.46
 6 11 -5 33.55 2.73
 6 11 -3 24.14 2.49
 6 11 -2 52.17 2.92
 6 11 -1 0.95 1.63
 6 12 -6 55.91 3.27
 6 12 -5 7.06 2.12
 6 12 -2 2.44 1.92
 6 12 -1 1.34 1.7
 6 13 -4 77.34 3.59
 6 13 -3 1.56 1.96
 6 13 -2 84.26 3.54
 6 13 0 138.18 3.9
 6 14 -4 9.68 2.38
 6 14 -2 23.89 2.72
 6 15 -1 -0.94 1.98
 7 8 -6 59.34 3.2
 7 8 -5 2.81 1.77
 7 9 -5 26.32 2.7
 7 9 -4 14.49 2.34
 7 9 -3 8.17 2.12
 7 10 -6 49.4 3.29
 7 10 -5 74.29 3.58
 7 10 -4 10.47 2.19
 7 11 -5 1.1 2.01
 7 12 -4 -0.48 1.98
 7 12 -3 2.63 2.12

_iucr_refine_fcf_details
;
data_fk_03479_int_db_v128
_computing_structure_refinement   'olex2.refine 1.5-alpha (Bourhis et al., 2015)'
_shelx_refln_list_code            4
loop_
  _space_group_symop_id
  _space_group_symop_operation_xyz
  1  x,y,z
  2  -x+1/2,y+1/2,-z+1/2
  3  -x,-y,-z
  4  x-1/2,-y-1/2,z-1/2

_space_group_crystal_system       monoclinic
_space_group_IT_number            14
_space_group_name_H-M_alt         'P 1 21/n 1'
_space_group_name_Hall            '-P 2ybc (x-z,y,z)'
_symmetry_space_group_name_H-M    'P 1 21/n 1'
_symmetry_space_group_name_Hall   '-P 2ybc (x-z,y,z)'
_symmetry_Int_Tables_number       14
_cell_length_a                    5.086(4)
_cell_length_b                    11.773(11)
_cell_length_c                    5.478(6)
_cell_angle_alpha                 90
_cell_angle_beta                  111.96(7)
_cell_angle_gamma                 90
_cell_volume                      304.2(5)
loop_
  _refln_index_h
  _refln_index_k
  _refln_index_l
  _refln_F_squared_calc
  _refln_F_squared_meas
  _refln_F_squared_sigma
  _refln_F_squared_weight
  _refln_observed_status
-9 0 3 3.344 3.451 1.103 13.152 o
-9 1 3 49.791 45.742 1.136 1.953 o
-9 1 4 5.619 7.045 0.639 20.077 o
-9 2 3 0.032 -0.762 0.701 40.612 o
-9 2 4 4.418 5.458 1.035 13.201 o
-8 0 0 134.445 136.834 1.699 0.382 o
-8 0 2 4.878 3.497 0.528 29.001 o
-8 0 4 162.432 169.130 1.730 0.273 o
-8 0 6 163.789 166.682 2.053 0.268 o
-8 1 -1 0.248 -0.495 0.469 85.766 o
-8 1 0 0.937 1.584 0.300 105.721 o
-8 1 1 34.575 32.779 0.606 3.559 o
-8 1 2 13.877 13.983 0.504 10.973 o
-8 1 3 1.723 2.860 0.361 63.394 o
-8 1 4 104.125 102.060 1.099 0.621 o
-8 1 5 9.760 11.500 0.603 13.770 o
-8 1 6 0.677 0.955 0.442 76.783 o
-8 1 7 71.531 71.358 1.514 1.056 o
-8 2 -1 6.775 6.854 0.994 12.107 o
-8 2 0 1.794 1.848 0.295 81.502 o
-8 2 1 28.616 28.397 0.583 4.516 o
-8 2 2 7.766 7.804 0.394 21.446 o
-8 2 3 37.045 35.765 0.668 3.170 o
-8 2 4 3.630 3.385 0.315 47.333 o
-8 2 5 65.132 68.058 1.059 1.268 o
-8 2 6 4.981 6.031 0.651 21.544 o
-8 2 7 1.756 2.101 0.426 57.904 o
-8 3 0 4.791 4.480 0.428 32.197 o
-8 3 1 33.805 35.647 0.558 3.530 o
-8 3 2 17.831 16.207 0.525 8.523 o
-8 3 3 7.964 10.434 0.538 16.856 o
-8 3 4 77.003 79.418 0.846 1.007 o
-8 3 5 6.555 5.946 0.495 23.239 o
-8 3 6 0.053 0.532 0.322 164.482 o
-8 3 7 81.868 80.584 1.375 0.887 o
-8 4 0 82.047 84.001 1.237 0.880 o
-8 4 1 11.587 12.041 0.504 13.125 o
-8 4 2 0.006 0.309 0.313 187.100 o
-8 4 3 5.209 5.300 0.349 32.380 o
-8 4 4 86.601 85.635 0.879 0.850 o
-8 4 5 1.554 1.289 0.281 96.977 o
-8 4 6 91.258 89.781 0.851 0.784 o
-8 4 7 0.021 0.082 0.504 77.904 o
-8 5 0 25.970 27.160 0.726 4.779 o
-8 5 1 16.541 17.186 0.618 8.435 o
-8 5 2 0.599 0.698 0.299 139.769 o
-8 5 3 0.854 1.107 0.272 129.594 o
-8 5 4 68.743 69.003 0.961 1.207 o
-8 5 5 2.279 2.480 0.274 70.707 o
-8 5 6 6.002 5.977 0.393 27.349 o
-8 6 0 7.422 10.393 1.497 6.471 o
-8 6 1 13.120 13.912 0.552 11.116 o
-8 6 2 38.916 38.274 0.783 2.866 o
-8 6 3 23.005 22.977 0.612 5.878 o
-8 6 4 15.264 14.944 0.471 10.149 o
-8 6 5 49.777 51.790 0.838 1.954 o
-8 6 6 21.562 21.035 0.565 6.528 o
-8 7 1 23.795 23.029 0.622 5.692 o
-8 7 2 1.189 0.346 0.333 106.274 o
-8 7 3 13.553 15.338 0.485 10.887 o
-8 7 4 15.032 15.662 0.539 9.751 o
-8 7 5 1.378 0.997 0.232 123.670 o
-8 7 6 2.109 2.434 0.407 55.296 o
-8 8 1 28.460 28.893 0.873 4.112 o
-8 8 2 19.234 20.689 0.559 7.209 o
-8 8 3 13.236 14.051 0.446 11.689 o
-8 8 4 5.094 4.956 0.385 32.070 o
-8 8 5 3.276 2.743 0.340 50.597 o
-8 9 2 1.967 2.658 0.397 56.950 o
-8 9 3 2.018 1.868 0.292 77.509 o
-8 9 4 32.004 29.136 0.882 3.712 o
-8 9 5 1.115 1.035 0.456 66.396 o
-8 10 3 10.201 11.680 0.970 9.647 o
-7 0 -1 0.758 0.566 0.302 133.127 o
-7 0 1 13.951 14.497 0.626 10.043 o
-7 0 3 9.212 9.197 0.571 15.698 o
-7 0 5 20.120 20.981 1.350 4.547 o
-7 0 7 72.657 72.908 1.807 0.981 o
-7 1 -2 13.164 13.604 0.407 12.124 o
-7 1 -1 5.277 5.832 0.305 32.655 o
-7 1 0 15.284 14.964 0.370 10.592 o
-7 1 1 19.599 19.635 0.409 7.657 o
-7 1 2 57.421 59.166 0.575 1.638 o
-7 1 3 1.733 1.561 0.296 85.554 o
-7 1 4 3.847 3.884 0.451 35.902 o
-7 1 5 43.591 44.813 0.634 2.462 o
-7 1 6 8.553 9.032 0.448 18.380 o
-7 1 7 1.341 1.689 0.345 81.419 o
-7 1 8 83.915 88.103 1.084 0.851 o
-7 2 -2 8.547 7.955 0.350 20.674 o
-7 2 -1 2.194 2.469 0.318 65.953 o
-7 2 0 20.994 19.832 0.403 7.210 o
-7 2 1 0.495 0.692 0.236 193.966 o
-7 2 2 125.897 130.500 0.902 0.441 o
-7 2 3 0.357 0.306 0.154 382.410 o
-7 2 4 240.714 260.024 2.863 0.128 o
-7 2 5 5.886 6.132 0.354 28.590 o
-7 2 6 10.547 11.141 0.541 13.960 o
-7 2 7 2.302 2.487 0.377 56.911 o
-7 2 8 89.067 92.653 1.255 0.765 o
-7 3 -2 7.578 7.098 0.445 21.424 o
-7 3 -1 0.073 0.204 0.226 329.057 o
-7 3 0 2.047 2.547 0.258 76.307 o
-7 3 1 0.873 1.277 0.244 137.100 o
-7 3 2 3.466 3.943 0.258 50.332 o
-7 3 3 0.982 0.937 0.142 194.091 o
-7 3 4 18.058 18.744 0.382 8.421 o
-7 3 5 37.253 36.807 0.725 3.075 o
-7 3 6 0.001 0.230 0.372 138.476 o
-7 3 7 0.154 -0.160 0.323 177.650 o
-7 3 8 72.141 71.728 1.103 1.107 o
-7 4 -2 9.031 9.513 0.466 17.191 o
-7 4 -1 0.241 0.143 0.310 176.220 o
-7 4 0 10.055 10.308 0.453 15.768 o
-7 4 1 13.483 12.691 0.442 12.000 o
-7 4 2 0.333 0.684 0.182 280.786 o
-7 4 3 7.496 8.191 0.330 22.707 o
-7 4 4 7.809 9.018 0.321 21.470 o
-7 4 5 12.122 12.508 0.487 12.687 o
-7 4 6 28.872 29.320 0.740 4.224 o
-7 4 7 58.483 56.033 1.066 1.550 o
-7 4 8 8.791 9.183 0.586 15.920 o
-7 5 -2 41.895 43.322 0.848 2.496 o
-7 5 -1 11.802 10.921 0.577 12.718 o
-7 5 0 18.597 17.632 0.465 8.185 o
-7 5 1 39.010 40.858 0.560 2.895 o
-7 5 2 67.759 68.857 0.885 1.237 o
-7 5 3 4.384 4.578 0.219 43.323 o
-7 5 4 20.936 20.029 0.474 7.040 o
-7 5 5 30.110 30.894 0.609 4.134 o
-7 5 6 4.055 3.536 0.478 34.197 o
-7 5 7 8.697 10.506 0.534 16.068 o
-7 5 8 39.557 39.155 1.872 1.992 o
-7 6 -2 3.319 2.456 0.386 47.413 o
-7 6 -1 14.598 13.620 0.630 9.916 o
-7 6 0 3.580 3.123 0.421 40.961 o
-7 6 1 3.165 4.266 0.296 48.840 o
-7 6 2 26.526 25.067 0.483 5.224 o
-7 6 3 1.872 1.543 0.189 105.315 o
-7 6 4 90.268 94.419 0.919 0.768 o
-7 6 5 35.169 34.038 0.645 3.416 o
-7 6 6 1.259 1.193 0.305 100.043 o
-7 6 7 14.427 14.957 0.707 9.228 o
-7 7 -2 54.819 51.270 1.756 1.474 o
-7 7 -1 1.074 0.478 0.353 100.396 o
-7 7 0 38.861 40.886 0.757 2.800 o
-7 7 1 2.540 2.626 0.299 62.911 o
-7 7 2 9.291 9.526 0.424 17.431 o
-7 7 3 5.022 5.045 0.257 37.020 o
-7 7 4 68.704 70.939 0.758 1.216 o
-7 7 5 10.712 11.372 0.520 13.937 o
-7 7 6 9.914 9.849 0.439 16.322 o
-7 7 7 0.071 -0.143 0.262 276.255 o
-7 8 -1 0.160 0.558 0.320 157.281 o
-7 8 0 15.359 16.141 0.560 9.386 o
-7 8 1 11.969 11.924 0.430 13.480 o
-7 8 2 0.292 0.630 0.185 292.072 o
-7 8 3 4.338 4.920 0.288 39.586 o
-7 8 4 6.766 7.129 0.405 23.832 o
-7 8 5 1.220 1.389 0.250 115.631 o
-7 8 6 42.780 42.639 0.831 2.476 o
-7 8 7 30.884 29.337 0.757 3.969 o
-7 9 -1 8.334 9.075 0.492 17.945 o
-7 9 0 0.082 0.044 0.298 212.129 o
-7 9 1 28.883 28.726 0.670 4.351 o
-7 9 2 18.339 19.334 0.386 8.198 o
-7 9 3 5.696 5.818 0.323 30.602 o
-7 9 4 9.111 8.912 0.443 17.792 o
-7 9 5 16.590 17.664 0.420 9.112 o
-7 9 6 2.921 3.313 0.332 51.959 o
-7 10 -1 20.185 19.826 1.259 4.874 o
-7 10 0 1.526 2.296 0.382 66.293 o
-7 10 1 4.251 4.999 0.381 35.463 o
-7 10 2 4.665 4.481 0.349 36.253 o
-7 10 3 2.503 1.755 0.241 77.687 o
-7 10 4 5.416 6.178 0.467 26.327 o
-7 10 5 50.377 49.650 0.669 2.023 o
-7 10 6 32.063 33.130 0.641 3.761 o
-7 11 0 47.119 44.143 2.620 1.320 o
-7 11 1 9.044 8.798 0.395 18.622 o
-7 11 2 14.792 13.916 0.427 10.896 o
-7 11 3 11.094 11.382 0.421 14.540 o
-7 11 4 58.385 60.138 0.811 1.556 o
-7 11 5 0.159 0.306 0.261 234.583 o
-7 11 6 16.428 16.572 1.259 5.669 o
-7 12 1 8.983 8.622 0.544 16.640 o
-7 12 2 8.059 7.390 0.389 21.374 o
-7 12 3 1.968 2.375 0.336 67.070 o
-7 12 4 0.078 -0.021 0.219 383.810 o
-7 12 5 1.432 0.565 0.393 79.033 o
-7 13 2 0.001 -0.309 0.280 256.055 o
-7 13 3 2.685 2.604 0.421 48.242 o
-6 0 -4 58.612 59.553 1.229 1.461 o
-6 0 -2 5.719 6.044 0.375 28.591 o
-6 0 0 1.512 1.932 0.258 95.007 o
-6 0 2 0.358 1.304 0.139 260.476 o
-6 0 4 32.740 29.829 0.788 3.713 o
-6 0 6 104.535 103.003 1.813 0.579 o
-6 0 8 193.818 200.382 2.297 0.196 o
-6 1 -4 31.266 33.955 0.566 3.867 o
-6 1 -3 20.290 20.931 0.422 7.215 o
-6 1 -2 32.622 34.893 0.499 3.725 o
-6 1 -1 0.067 -0.006 0.153 739.407 o
-6 1 0 1.103 1.412 0.196 140.571 o
-6 1 1 0.566 0.855 0.148 255.622 o
-6 1 2 1.125 0.807 0.101 204.504 o
-6 1 3 10.911 8.552 0.372 16.669 o
-6 1 4 4.879 4.869 0.274 37.530 o
-6 1 5 5.853 7.035 0.351 27.476 o
-6 1 6 13.055 13.782 0.664 10.404 o
-6 1 7 3.237 4.932 0.569 29.772 o
-6 1 8 0.007 0.079 0.406 119.818 o
-6 1 9 16.189 18.424 1.057 6.384 o
-6 2 -4 1.936 1.287 0.250 94.040 o
-6 2 -3 14.339 15.314 0.442 10.686 o
-6 2 -2 1.255 1.053 0.212 135.779 o
-6 2 -1 82.598 86.753 0.742 0.897 o
-6 2 0 0.543 0.593 0.166 266.315 o
-6 2 1 1.082 1.538 0.190 140.111 o
-6 2 2 9.552 9.249 0.219 19.496 o
-6 2 3 0.313 -0.015 0.142 530.340 o
-6 2 4 7.795 8.377 0.450 19.913 o
-6 2 5 2.394 4.201 0.453 42.144 o
-6 2 6 0.438 0.708 0.422 89.990 o
-6 2 7 1.505 2.530 0.446 55.459 o
-6 2 8 2.062 2.705 0.498 44.576 o
-6 2 9 2.650 1.147 0.798 24.206 o
-6 3 -4 73.688 75.052 0.806 1.091 o
-6 3 -3 32.225 32.753 0.531 3.857 o
-6 3 -2 73.520 77.296 0.783 1.079 o
-6 3 -1 4.671 5.243 0.317 35.894 o
-6 3 0 34.105 33.651 0.511 3.630 o
-6 3 1 2.007 2.310 0.155 95.354 o
-6 3 2 90.774 88.719 0.670 0.802 o
-6 3 3 35.032 32.543 0.424 3.646 o
-6 3 4 44.717 41.646 0.806 2.412 o
-6 3 5 43.178 44.101 0.736 2.461 o
-6 3 6 60.473 63.703 0.999 1.423 o
-6 3 7 10.759 12.299 0.808 10.751 o
-6 3 8 20.674 22.050 0.858 5.820 o
-6 3 9 10.312 9.216 0.989 9.920 o
-6 4 -4 40.692 44.660 1.058 2.404 o
-6 4 -3 0.042 -0.218 0.230 361.891 o
-6 4 -2 7.268 7.348 0.362 23.449 o
-6 4 -1 7.683 7.496 0.390 21.952 o
-6 4 0 0.279 0.464 0.141 410.900 o
-6 4 1 0.329 0.382 0.119 461.201 o
-6 4 2 0.054 0.249 0.135 707.987 o
-6 4 3 15.500 14.909 0.346 10.584 o
-6 4 4 19.063 16.920 0.541 7.901 o
-6 4 5 2.369 1.838 0.286 72.674 o
-6 4 6 49.645 48.792 0.749 2.046 o
-6 4 7 0.422 0.359 0.293 166.979 o
-6 4 8 122.426 124.841 1.346 0.457 o
-6 4 9 11.071 11.407 1.382 6.444 o
-6 5 -4 0.018 -0.484 0.451 97.867 o
-6 5 -3 10.106 10.508 0.456 15.573 o
-6 5 -2 0.806 0.862 0.289 130.092 o
-6 5 -1 2.140 2.117 0.246 80.536 o
-6 5 0 99.064 102.467 0.933 0.662 o
-6 5 1 2.105 1.975 0.193 91.409 o
-6 5 2 75.236 78.028 0.593 1.062 o
-6 5 3 1.090 0.675 0.160 186.814 o
-6 5 4 28.765 30.396 0.502 4.446 o
-6 5 5 2.945 2.814 0.316 55.554 o
-6 5 6 7.774 7.476 0.364 22.276 o
-6 5 7 2.617 3.023 0.285 61.035 o
-6 5 8 28.766 30.128 0.958 3.887 o
-6 6 -3 7.894 8.785 0.438 19.645 o
-6 6 -2 6.960 6.875 0.467 22.266 o
-6 6 -1 36.497 39.024 0.606 3.124 o
-6 6 0 1.748 2.045 0.203 98.562 o
-6 6 1 0.559 0.414 0.141 315.920 o
-6 6 2 46.371 48.334 0.550 2.259 o
-6 6 3 0.772 0.657 0.139 244.702 o
-6 6 4 37.057 37.023 0.511 3.212 o
-6 6 5 4.816 6.084 0.579 24.071 o
-6 6 6 0.639 0.414 0.212 215.521 o
-6 6 7 0.419 0.447 0.259 193.549 o
-6 6 8 7.645 7.023 0.568 18.855 o
-6 7 -3 29.823 31.218 0.787 3.945 o
-6 7 -2 24.503 23.816 0.803 5.120 o
-6 7 -1 4.959 4.928 0.382 32.730 o
-6 7 0 29.072 28.278 0.462 4.590 o
-6 7 1 2.141 2.487 0.184 85.635 o
-6 7 2 101.042 102.034 0.719 0.657 o
-6 7 3 34.888 33.445 0.458 3.596 o
-6 7 4 14.043 13.042 0.420 11.649 o
-6 7 5 52.261 54.907 0.755 1.833 o
-6 7 6 34.668 34.071 0.748 3.376 o
-6 7 7 17.122 17.898 0.576 8.275 o
-6 7 8 26.285 28.453 1.177 3.870 o
-6 8 -3 0.121 0.122 0.316 182.364 o
-6 8 -2 8.749 8.660 0.680 14.809 o
-6 8 -1 18.951 20.053 0.643 7.120 o
-6 8 0 2.501 1.967 0.211 79.967 o
-6 8 1 0.859 0.907 0.159 199.988 o
-6 8 2 1.603 0.811 0.155 142.919 o
-6 8 3 33.263 31.901 0.494 3.819 o
-6 8 4 0.531 0.766 0.180 237.755 o
-6 8 5 5.013 4.378 0.304 36.864 o
-6 8 6 0.124 0.340 0.185 394.212 o
-6 8 7 0.873 0.789 0.248 149.638 o
-6 8 8 20.765 19.882 0.839 6.077 o
-6 9 -3 3.618 2.477 0.762 22.903 o
-6 9 -2 26.510 27.455 0.711 4.704 o
-6 9 -1 7.479 7.756 0.427 21.372 o
-6 9 0 177.895 188.466 1.053 0.235 o
-6 9 1 4.726 5.363 0.239 38.328 o
-6 9 2 140.743 148.657 0.919 0.359 o
-6 9 3 0.226 0.367 0.184 351.661 o
-6 9 4 84.496 84.958 0.829 0.880 o
-6 9 5 17.761 18.213 0.410 8.555 o
-6 9 6 35.502 34.538 0.592 3.402 o
-6 9 7 6.277 6.007 0.373 27.137 o
-6 10 -2 10.534 9.945 0.698 12.691 o
-6 10 -1 4.939 4.659 0.367 33.919 o
-6 10 0 1.156 1.431 0.276 108.651 o
-6 10 1 6.208 6.206 0.335 28.065 o
-6 10 2 43.694 44.432 0.600 2.479 o
-6 10 3 3.462 3.717 0.266 50.735 o
-6 10 4 28.046 28.986 0.395 4.752 o
-6 10 5 5.871 6.114 0.346 28.908 o
-6 10 6 1.507 1.491 0.260 100.989 o
-6 10 7 0.001 -0.050 0.229 380.713 o
-6 11 -2 1.589 0.750 0.393 74.851 o
-6 11 -1 0.798 1.104 0.319 112.101 o
-6 11 0 1.094 0.903 0.207 152.101 o
-6 11 1 1.193 1.007 0.199 146.052 o
-6 11 2 36.608 35.694 0.621 3.239 o
-6 11 3 16.730 15.998 0.523 9.006 o
-6 11 4 3.264 3.193 0.224 58.276 o
-6 11 5 23.198 22.254 0.433 6.257 o
-6 11 6 1.603 1.093 0.239 110.332 o
-6 11 7 12.861 12.472 0.878 9.198 o
-6 12 -1 21.535 20.622 0.877 5.736 o
-6 12 0 9.710 9.959 0.450 16.363 o
-6 12 1 1.623 1.110 0.248 106.587 o
-6 12 2 2.784 1.944 0.260 68.914 o
-6 12 3 26.298 26.640 0.512 5.091 o
-6 12 4 2.074 1.465 0.291 80.464 o
-6 12 5 3.641 3.781 0.289 47.560 o
-6 12 6 35.450 37.471 0.621 3.261 o
-6 13 -1 10.765 9.996 0.524 14.442 o
-6 13 0 93.467 89.771 1.075 0.751 o
-6 13 1 5.803 5.031 0.316 31.842 o
-6 13 2 56.875 55.494 0.774 1.672 o
-6 13 3 1.301 1.158 0.240 120.685 o
-6 13 4 48.436 49.872 0.786 2.061 o
-6 13 5 25.556 25.989 0.611 5.124 o
-6 13 6 16.088 15.457 1.059 6.721 o
-6 14 0 0.000 -0.153 0.228 384.225 o
-6 14 1 13.376 13.374 0.521 11.335 o
-6 14 2 14.843 15.644 0.540 9.835 o
-6 14 3 5.957 5.913 0.481 24.928 o
-6 14 4 5.362 5.469 0.382 30.379 o
-6 14 5 5.901 5.653 0.526 23.986 o
-6 15 1 0.048 0.056 0.256 287.066 o
-6 15 2 5.728 4.495 0.335 32.458 o
-6 15 3 0.773 0.528 0.258 159.710 o
-6 15 4 26.283 26.373 1.051 4.209 o
-5 0 -3 129.804 136.770 1.213 0.409 o
-5 0 -1 1.635 1.013 0.184 126.828 o
-5 0 1 11.417 10.723 0.296 15.559 o
-5 0 3 338.854 300.501 2.806 0.078 o
-5 0 5 9.941 8.718 0.386 17.592 o
-5 0 7 1.593 1.421 0.343 79.643 o
-5 0 9 1.336 2.340 0.518 48.387 o
-5 1 -4 146.523 155.249 1.598 0.324 o
-5 1 -3 16.041 15.376 0.355 10.138 o
-5 1 -2 18.914 19.158 0.331 8.152 o
-5 1 -1 59.877 61.236 0.503 1.551 o
-5 1 0 203.818 191.080 0.760 0.199 o
-5 1 1 69.633 66.663 0.435 1.269 o
-5 1 2 326.267 306.531 1.437 0.083 o
-5 1 3 8.283 9.397 0.217 21.547 o
-5 1 4 14.887 15.998 0.232 11.006 o
-5 1 5 1.543 1.184 0.127 143.299 o
-5 1 6 37.018 35.909 0.524 3.255 o
-5 1 7 22.901 22.502 0.487 6.201 o
-5 1 8 21.656 21.696 0.517 6.533 o
-5 1 9 8.220 7.796 0.560 17.765 o
-5 2 -4 3.224 3.252 0.253 56.056 o
-5 2 -3 1.939 1.583 0.201 100.177 o
-5 2 -2 6.232 4.925 0.202 33.532 o
-5 2 -1 0.002 -0.116 0.093 2295.200 o
-5 2 0 298.247 287.282 0.947 0.097 o
-5 2 1 0.115 0.090 0.057 1633.640 o
-5 2 2 6.736 5.974 0.156 30.538 o
-5 2 3 4.727 5.777 0.161 39.608 o
-5 2 4 10.562 10.289 0.205 17.427 o
-5 2 5 0.313 0.477 0.126 426.789 o
-5 2 6 6.342 6.874 0.336 26.756 o
-5 2 7 2.176 2.710 0.362 58.830 o
-5 2 8 20.261 20.788 0.833 6.107 o
-5 2 9 0.293 0.192 0.296 182.499 o
-5 3 -4 67.343 67.983 0.725 1.274 o
-5 3 -3 3.632 3.192 0.211 55.290 o
-5 3 -2 10.924 10.468 0.314 16.096 o
-5 3 -1 17.776 17.366 0.305 9.011 o
-5 3 0 20.612 17.599 0.189 8.065 o
-5 3 1 45.796 43.424 0.394 2.454 o
-5 3 2 81.229 72.400 0.436 1.024 o
-5 3 3 0.462 0.188 0.080 530.270 o
-5 3 4 49.874 47.333 0.419 2.152 o
-5 3 5 0.673 0.733 0.269 152.242 o
-5 3 6 15.609 15.419 0.406 10.149 o
-5 3 7 6.354 8.347 0.499 21.303 o
-5 3 8 1.188 0.981 0.346 92.693 o
-5 3 9 0.285 0.430 0.313 158.471 o
-5 4 -4 6.862 7.520 0.383 23.699 o
-5 4 -3 98.898 98.802 0.939 0.677 o
-5 4 -2 0.672 0.814 0.149 239.222 o
-5 4 -1 4.887 4.303 0.140 43.602 o
-5 4 0 23.169 23.625 0.254 6.345 o
-5 4 1 3.837 4.147 0.136 52.483 o
-5 4 2 13.665 15.104 0.243 12.040 o
-5 4 3 207.146 187.849 0.634 0.198 o
-5 4 4 2.556 2.827 0.225 69.691 o
-5 4 5 1.004 0.989 0.168 175.571 o
-5 4 6 30.939 30.040 0.543 4.150 o
-5 4 7 0.791 0.754 0.295 130.383 o
-5 4 8 20.920 21.234 0.933 5.630 o
-5 4 9 0.426 0.587 0.457 80.330 o
-5 5 -4 94.732 98.570 0.876 0.713 o
-5 5 -3 19.709 20.663 0.427 7.418 o
-5 5 -2 27.134 27.772 0.411 4.976 o
-5 5 -1 68.249 68.135 0.681 1.259 o
-5 5 0 183.902 179.085 1.184 0.233 o
-5 5 1 80.676 82.312 0.481 0.962 o
-5 5 2 207.740 197.874 1.257 0.189 o
-5 5 3 15.726 18.697 0.240 9.801 o
-5 5 4 44.852 45.492 0.588 2.394 o
-5 5 5 0.216 0.152 0.095 785.352 o
-5 5 6 109.422 111.705 1.578 0.540 o
-5 5 7 40.920 42.972 0.613 2.677 o
-5 5 8 32.050 34.520 0.737 3.604 o
-5 5 9 27.089 28.124 1.192 3.784 o
-5 6 -4 10.342 10.575 0.369 16.192 o
-5 6 -3 12.418 12.223 0.361 13.487 o
-5 6 -2 0.150 -0.182 0.161 586.219 o
-5 6 -1 0.031 -0.148 0.132 1044.370 o
-5 6 0 145.041 141.358 0.735 0.359 o
-5 6 1 0.516 0.460 0.074 420.193 o
-5 6 2 10.397 9.808 0.187 18.078 o
-5 6 3 28.718 32.950 0.389 4.378 o
-5 6 4 1.303 1.229 0.234 121.196 o
-5 6 5 2.772 3.170 0.183 67.962 o
-5 6 6 10.108 10.559 0.328 16.862 o
-5 6 7 12.557 12.876 0.428 12.671 o
-5 6 8 5.698 5.170 0.406 28.939 o
-5 6 9 1.683 1.419 0.557 44.592 o
-5 7 -4 5.870 6.100 0.336 29.205 o
-5 7 -3 0.372 0.548 0.172 303.471 o
-5 7 -2 102.186 104.193 0.989 0.632 o
-5 7 -1 0.040 0.232 0.134 752.854 o
-5 7 0 21.136 22.596 0.348 6.879 o
-5 7 1 22.444 23.364 0.264 6.547 o
-5 7 2 1.160 1.840 0.147 140.975 o
-5 7 3 2.636 3.036 0.173 71.998 o
-5 7 4 221.943 225.208 1.367 0.161 o
-5 7 5 0.324 0.530 0.193 284.239 o
-5 7 6 122.253 128.029 1.014 0.459 o
-5 7 7 1.388 1.303 0.280 101.967 o
-5 7 8 41.012 39.990 0.955 2.575 o
-5 8 -4 8.913 8.979 0.413 18.434 o
-5 8 -3 46.292 48.169 0.636 2.241 o
-5 8 -2 0.115 0.003 0.222 359.723 o
-5 8 -1 10.677 10.839 0.309 16.206 o
-5 8 0 57.718 62.219 0.609 1.582 o
-5 8 1 0.665 0.672 0.096 302.951 o
-5 8 2 27.191 28.426 0.405 4.920 o
-5 8 3 69.864 63.521 0.568 1.284 o
-5 8 4 3.185 3.792 0.241 54.670 o
-5 8 5 2.911 2.419 0.168 73.003 o
-5 8 6 54.557 55.764 0.734 1.748 o
-5 8 7 1.223 0.900 0.321 100.475 o
-5 8 8 35.805 37.679 0.806 3.092 o
-5 9 -4 9.331 8.965 0.578 15.597 o
-5 9 -3 16.752 16.347 0.473 9.128 o
-5 9 -2 0.371 0.327 0.212 266.934 o
-5 9 -1 53.188 53.780 0.689 1.836 o
-5 9 0 36.696 32.160 0.507 3.456 o
-5 9 1 48.408 50.225 0.476 2.141 o
-5 9 2 18.617 16.035 0.346 8.832 o
-5 9 3 6.019 6.782 0.219 30.515 o
-5 9 4 6.279 6.508 0.360 26.802 o
-5 9 5 0.060 -0.079 0.135 930.609 o
-5 9 6 66.802 66.651 0.891 1.276 o
-5 9 7 32.145 33.267 0.622 3.762 o
-5 9 8 3.917 3.173 0.436 38.090 o
-5 10 -4 17.309 19.772 1.436 4.691 o
-5 10 -3 21.229 20.787 0.626 6.486 o
-5 10 -2 2.228 2.633 0.282 69.235 o
-5 10 -1 0.737 0.473 0.208 202.797 o
-5 10 0 39.427 35.618 0.650 3.005 o
-5 10 1 0.011 -0.169 0.101 1868.520 o
-5 10 2 11.203 12.628 0.326 14.610 o
-5 10 3 43.360 44.486 0.440 2.549 o
-5 10 4 2.814 2.858 0.194 68.719 o
-5 10 5 6.330 6.862 0.303 27.581 o
-5 10 6 14.399 13.455 0.349 11.660 o
-5 10 7 15.057 16.158 0.617 9.226 o
-5 10 8 0.000 0.146 0.464 91.203 o
-5 11 -3 5.407 4.700 0.371 31.923 o
-5 11 -2 122.752 126.106 1.171 0.457 o
-5 11 -1 6.200 6.824 0.389 25.865 o
-5 11 0 46.060 46.384 0.683 2.278 o
-5 11 1 10.237 11.230 0.272 16.776 o
-5 11 2 20.589 21.745 0.335 7.178 o
-5 11 3 8.686 8.299 0.256 21.392 o
-5 11 4 203.568 214.084 1.175 0.185 o
-5 11 5 2.852 2.850 0.224 65.370 o
-5 11 6 107.791 110.697 1.070 0.573 o
-5 11 7 0.477 0.295 0.251 203.776 o
-5 12 -3 13.053 11.929 0.532 11.909 o
-5 12 -2 1.222 1.234 0.296 103.471 o
-5 12 -1 16.295 17.084 0.632 8.481 o
-5 12 0 65.471 68.339 0.919 1.281 o
-5 12 1 0.325 0.275 0.152 408.109 o
-5 12 2 24.043 24.590 0.396 5.865 o
-5 12 3 6.032 5.474 0.266 31.651 o
-5 12 4 0.853 0.940 0.194 176.642 o
-5 12 5 18.299 18.237 0.446 8.241 o
-5 12 6 31.491 31.911 0.529 3.987 o
-5 12 7 1.409 1.136 0.266 108.225 o
-5 13 -3 9.571 10.784 0.853 11.298 o
-5 13 -2 22.967 22.479 0.560 6.045 o
-5 13 -1 28.071 28.930 0.614 4.516 o
-5 13 0 3.133 2.452 0.324 54.703 o
-5 13 1 18.979 18.562 0.417 8.025 o
-5 13 2 20.878 20.669 0.390 7.148 o
-5 13 3 0.014 -0.143 0.189 547.155 o
-5 13 4 8.913 9.742 0.361 18.591 o
-5 13 5 0.761 0.619 0.223 180.819 o
-5 13 6 13.617 14.214 0.404 11.638 o
-5 13 7 8.811 9.251 1.807 4.787 o
-5 14 -2 3.923 2.808 0.347 45.017 o
-5 14 -1 1.497 1.403 0.333 84.146 o
-5 14 0 3.897 3.424 0.303 46.097 o
-5 14 1 0.212 -0.080 0.180 452.947 o
-5 14 2 15.322 15.034 0.384 10.492 o
-5 14 3 35.320 36.201 0.682 3.282 o
-5 14 4 5.941 6.896 0.313 28.426 o
-5 14 5 7.692 8.702 0.396 20.759 o
-5 14 6 7.249 7.408 0.410 22.444 o
-5 15 -1 9.274 9.085 0.425 17.713 o
-5 15 0 10.257 9.566 0.425 16.264 o
-5 15 1 3.865 3.732 0.327 43.715 o
-5 15 2 3.709 3.231 0.241 52.376 o
-5 15 3 11.532 11.729 0.396 14.197 o
-5 15 4 57.156 57.429 0.715 1.647 o
-5 15 5 3.077 2.319 0.271 61.236 o
-5 16 -1 14.577 14.376 0.893 8.162 o
-5 16 0 37.395 38.651 0.705 3.010 o
-5 16 1 1.026 1.010 0.246 135.270 o
-5 16 2 8.993 8.671 0.367 19.165 o
-5 16 3 0.638 0.188 0.222 220.592 o
-5 16 4 0.286 0.089 0.294 191.114 o
-5 16 5 25.728 22.787 1.246 4.082 o
-5 17 1 3.473 2.433 0.522 36.104 o
-5 17 2 46.462 44.268 0.911 2.217 o
-5 17 3 4.212 4.806 0.670 23.294 o
-4 0 -2 222.487 214.947 1.239 0.165 o
-4 0 0 2.677 3.093 0.098 76.308 o
-4 0 2 10.931 6.152 0.163 20.190 o
-4 0 4 495.493 455.075 1.533 0.038 o
-4 0 6 0.674 0.981 0.159 218.660 o
-4 0 8 7.440 7.377 0.414 22.052 o
-4 1 -3 43.481 36.542 0.391 2.803 o
-4 1 -2 140.818 130.752 0.911 0.386 o
-4 1 -1 25.599 23.916 0.274 5.747 o
-4 1 0 623.238 597.567 3.205 0.024 o
-4 1 1 5.134 6.550 0.096 36.748 o
-4 1 2 12.303 11.342 0.203 14.877 o
-4 1 3 127.352 119.586 1.175 0.452 o
-4 1 4 104.319 100.041 0.446 0.647 o
-4 1 5 34.286 31.164 0.288 3.866 o
-4 1 6 234.188 228.877 1.506 0.149 o
-4 1 7 0.916 0.867 0.136 209.491 o
-4 1 8 0.047 -0.042 0.163 682.256 o
-4 1 9 5.824 6.182 0.379 27.963 o
-4 2 -3 51.118 46.166 0.506 2.104 o
-4 2 -2 4.614 5.134 0.150 42.450 o
-4 2 -1 31.624 30.542 0.258 4.234 o
-4 2 0 19.762 17.838 0.172 8.355 o
-4 2 1 400.695 398.428 1.935 0.054 o
-4 2 2 4.417 4.199 0.100 48.395 o
-4 2 3 1.017 1.292 0.087 194.200 o
-4 2 4 6.297 6.218 0.140 31.909 o
-4 2 5 0.148 0.063 0.059 1481.640 o
-4 2 6 2.643 2.645 0.194 73.080 o
-4 2 7 215.238 226.785 1.221 0.167 o
-4 2 8 0.756 0.775 0.180 205.176 o
-4 2 9 8.423 8.376 0.483 18.436 o
-4 3 -3 64.663 61.483 0.506 1.426 o
-4 3 -2 163.632 159.033 0.831 0.290 o
-4 3 -1 26.299 23.359 0.175 5.733 o
-4 3 0 636.797 619.946 2.385 0.022 o
-4 3 1 19.828 20.248 0.125 7.937 o
-4 3 2 118.648 114.813 0.617 0.514 o
-4 3 3 228.949 210.446 1.663 0.160 o
-4 3 4 233.521 226.361 0.953 0.152 o
-4 3 5 44.199 41.865 0.307 2.610 o
-4 3 6 305.879 294.136 1.589 0.092 o
-4 3 7 6.782 7.016 0.235 27.477 o
-4 3 8 25.076 25.352 0.508 5.425 o
-4 3 9 3.924 4.011 0.457 34.935 o
-4 4 -3 13.311 14.689 0.274 12.315 o
-4 4 -2 132.360 122.309 0.948 0.431 o
-4 4 -1 2.636 3.829 0.086 71.245 o
-4 4 0 10.614 10.462 0.094 17.756 o
-4 4 1 16.454 17.126 0.144 10.010 o
-4 4 2 23.046 16.372 0.291 7.318 o
-4 4 3 0.558 0.053 0.064 540.763 o
-4 4 4 318.816 305.473 1.448 0.085 o
-4 4 5 2.384 1.693 0.109 99.020 o
-4 4 6 0.006 0.028 0.116 1365.640 o
-4 4 7 7.451 7.086 0.270 25.044 o
-4 4 8 4.851 4.380 0.252 39.806 o
-4 4 9 1.070 0.767 0.287 120.957 o
-4 5 -3 9.463 8.191 0.242 20.282 o
-4 5 -2 11.408 8.755 0.249 17.029 o
-4 5 -1 28.909 28.159 0.189 4.820 o
-4 5 0 132.377 132.608 0.342 0.418 o
-4 5 1 9.370 7.749 0.113 21.856 o
-4 5 2 127.248 129.066 0.685 0.442 o
-4 5 3 10.271 8.807 0.247 18.518 o
-4 5 4 7.941 8.575 0.234 22.824 o
-4 5 5 27.174 27.249 0.472 4.946 o
-4 5 6 32.417 31.704 0.409 3.982 o
-4 5 7 0.101 0.228 0.190 416.111 o
-4 5 8 53.498 53.115 0.796 1.811 o
-4 5 9 2.845 2.756 0.642 30.117 o
-4 6 -3 25.170 23.350 0.351 5.816 o
-4 6 -2 11.827 12.007 0.182 15.110 o
-4 6 -1 29.162 29.816 0.222 4.640 o
-4 6 0 59.012 56.085 0.258 1.673 o
-4 6 1 188.354 188.145 0.614 0.222 o
-4 6 2 6.365 5.589 0.158 32.571 o
-4 6 3 5.548 5.716 0.138 36.113 o
-4 6 4 51.862 52.357 0.334 1.977 o
-4 6 5 3.644 3.591 0.186 54.657 o
-4 6 6 19.477 19.695 0.351 7.818 o
-4 6 7 110.347 117.810 0.795 0.546 o
-4 6 8 4.129 3.258 0.255 47.964 o
-4 6 9 0.676 0.347 0.286 154.471 o
-4 7 -3 63.479 61.185 0.505 1.459 o
-4 7 -2 29.812 27.561 0.304 4.664 o
-4 7 -1 11.970 11.026 0.193 15.423 o
-4 7 0 171.713 163.111 0.798 0.269 o
-4 7 1 24.265 21.983 0.201 6.326 o
-4 7 2 37.454 32.161 0.269 3.497 o
-4 7 3 200.265 188.550 1.206 0.203 o
-4 7 4 86.966 82.893 0.473 0.882 o
-4 7 5 37.312 37.100 0.732 3.054 o
-4 7 6 109.510 110.465 0.761 0.572 o
-4 7 7 9.852 9.559 0.318 17.909 o
-4 7 8 13.935 13.382 0.436 11.521 o
-4 8 -3 25.222 27.522 0.345 5.399 o
-4 8 -2 25.071 22.263 0.271 6.042 o
-4 8 -1 2.279 2.589 0.132 87.456 o
-4 8 0 22.499 22.004 0.227 6.750 o
-4 8 1 39.780 41.058 0.314 2.925 o
-4 8 2 28.020 24.789 0.239 5.224 o
-4 8 3 0.011 0.267 0.086 1295.840 o
-4 8 4 123.936 121.487 0.761 0.470 o
-4 8 5 1.661 1.210 0.164 126.547 o
-4 8 6 0.803 1.010 0.176 189.460 o
-4 8 7 21.850 21.215 0.440 6.706 o
-4 8 8 0.340 0.162 0.232 257.964 o
-4 9 -3 0.182 -0.035 0.128 751.606 o
-4 9 -2 6.949 7.485 0.211 26.758 o
-4 9 -1 16.034 17.880 0.286 9.734 o
-4 9 0 7.377 6.895 0.158 27.099 o
-4 9 1 22.659 22.979 0.312 6.483 o
-4 9 2 230.695 241.509 0.781 0.148 o
-4 9 3 1.437 1.782 0.121 133.723 o
-4 9 4 75.824 76.660 0.599 1.063 o
-4 9 5 17.232 19.373 0.334 8.748 o
-4 9 6 1.074 1.097 0.191 154.320 o
-4 9 7 0.906 0.300 0.179 217.373 o
-4 9 8 115.568 122.026 1.014 0.503 o
-4 10 -3 4.217 3.222 0.223 49.201 o
-4 10 -2 2.115 1.660 0.143 103.649 o
-4 10 -1 21.957 22.991 0.309 6.664 o
-4 10 0 34.679 32.508 0.406 3.694 o
-4 10 1 55.546 55.796 0.437 1.769 o
-4 10 2 2.020 1.599 0.103 114.065 o
-4 10 3 9.999 10.292 0.242 17.908 o
-4 10 4 68.885 70.799 0.540 1.235 o
-4 10 5 8.812 9.484 0.275 19.944 o
-4 10 6 23.919 26.137 0.556 5.491 o
-4 10 7 27.793 26.831 0.498 4.851 o
-4 10 8 2.661 1.777 0.252 73.251 o
-4 11 -3 43.373 43.524 0.580 2.530 o
-4 11 -2 15.036 16.246 0.320 10.567 o
-4 11 -1 3.612 3.886 0.182 53.777 o
-4 11 0 0.096 -0.017 0.099 1323.180 o
-4 11 1 15.033 14.257 0.294 11.239 o
-4 11 2 9.655 9.846 0.209 18.961 o
-4 11 3 117.480 114.000 0.734 0.519 o
-4 11 4 0.261 0.335 0.129 490.052 o
-4 11 5 16.831 17.570 0.363 9.216 o
-4 11 6 0.089 0.163 0.168 530.479 o
-4 11 7 2.888 2.299 0.258 65.108 o
-4 11 8 1.274 1.027 0.281 110.003 o
-4 12 -3 18.984 19.852 0.467 7.673 o
-4 12 -2 0.867 0.727 0.180 195.195 o
-4 12 -1 0.671 0.749 0.124 267.388 o
-4 12 0 19.977 18.897 0.310 7.868 o
-4 12 1 36.522 37.259 0.424 3.290 o
-4 12 2 29.079 28.024 0.399 4.665 o
-4 12 3 0.912 1.154 0.164 178.700 o
-4 12 4 23.824 24.554 0.416 5.888 o
-4 12 5 0.118 0.107 0.155 595.148 o
-4 12 6 4.922 4.244 0.275 38.864 o
-4 12 7 26.433 25.909 0.498 5.147 o
-4 13 -3 1.732 1.822 0.221 98.652 o
-4 13 -2 15.079 15.635 0.389 10.440 o
-4 13 -1 13.275 13.582 0.298 12.639 o
-4 13 0 0.108 0.256 0.143 595.259 o
-4 13 1 34.984 33.647 0.423 3.597 o
-4 13 2 130.498 135.913 0.974 0.412 o
-4 13 3 14.236 14.180 0.361 11.479 o
-4 13 4 49.281 51.639 0.618 2.040 o
-4 13 5 13.514 14.343 0.321 12.085 o
-4 13 6 2.727 2.164 0.220 72.860 o
-4 13 7 1.179 0.934 0.237 132.696 o
-4 14 -3 0.697 0.269 0.233 197.436 o
-4 14 -2 2.946 2.860 0.209 65.429 o
-4 14 -1 10.988 11.309 0.304 15.647 o
-4 14 0 4.097 2.941 0.240 50.329 o
-4 14 1 11.338 10.727 0.320 15.459 o
-4 14 2 0.216 0.188 0.141 537.799 o
-4 14 3 12.491 12.883 0.342 13.279 o
-4 14 4 53.163 55.841 0.701 1.800 o
-4 14 5 11.398 10.983 0.369 14.881 o
-4 14 6 14.797 14.322 0.401 10.905 o
-4 14 7 1.317 0.939 0.565 47.466 o
-4 15 -3 22.363 23.180 0.510 6.202 o
-4 15 -2 80.156 83.228 0.752 0.947 o
-4 15 -1 0.893 0.946 0.179 182.071 o
-4 15 0 53.077 52.978 0.593 1.876 o
-4 15 1 4.644 3.638 0.237 43.886 o
-4 15 2 66.318 66.493 0.609 1.323 o
-4 15 3 49.371 50.703 0.534 2.076 o
-4 15 4 36.400 37.421 0.626 3.182 o
-4 15 5 4.295 3.052 0.274 46.364 o
-4 15 6 30.997 31.122 0.522 4.098 o
-4 16 -2 0.249 0.353 0.203 306.572 o
-4 16 -1 0.008 -0.002 0.219 412.819 o
-4 16 0 4.763 3.751 0.243 42.486 o
-4 16 1 23.651 24.181 0.519 5.798 o
-4 16 2 15.205 14.931 0.372 10.636 o
-4 16 3 2.050 1.901 0.224 88.443 o
-4 16 4 2.234 1.203 0.239 89.761 o
-4 16 5 0.118 0.220 0.229 306.227 o
-4 17 -1 4.420 3.669 0.331 40.403 o
-4 17 0 3.183 3.526 0.288 52.397 o
-4 17 1 18.457 19.260 0.461 7.961 o
-4 17 2 23.307 23.466 0.502 5.977 o
-4 17 3 8.836 9.547 0.379 18.609 o
-4 17 4 3.808 2.810 0.292 49.845 o
-4 18 0 0.139 0.168 0.264 243.337 o
-4 18 1 2.543 2.194 0.246 72.407 o
-4 18 2 0.995 0.862 0.229 149.192 o
-4 18 3 7.363 6.788 0.348 24.132 o
-3 0 -1 1.358 0.249 0.084 217.663 o
-3 0 1 258.692 289.372 1.829 0.113 o
-3 0 3 202.303 185.005 1.226 0.203 o
-3 0 5 240.627 222.216 1.384 0.147 o
-3 0 7 6.046 7.587 0.296 27.516 o
-3 0 9 2.892 2.768 0.357 52.191 o
-3 1 -2 152.656 133.855 1.274 0.341 o
-3 1 -1 0.273 0.144 0.039 957.610 o
-3 1 0 154.919 157.786 1.084 0.308 o
-3 1 1 190.945 207.869 1.087 0.204 o
-3 1 2 587.241 617.046 3.138 0.025 o
-3 1 3 32.349 30.910 0.184 4.148 o
-3 1 4 925.652 885.076 3.031 0.011 o
-3 1 5 2.197 1.316 0.099 113.183 o
-3 1 6 85.961 86.571 0.535 0.870 o
-3 1 7 113.189 115.611 0.774 0.537 o
-3 1 8 54.357 54.428 0.557 1.813 o
-3 1 9 2.789 2.574 0.228 67.810 o
-3 2 -2 1.476 2.018 0.077 132.910 o
-3 2 -1 3.188 4.024 0.078 62.204 o
-3 2 0 2.116 2.152 0.079 103.111 o
-3 2 1 50.575 50.963 0.412 2.045 o
-3 2 2 477.302 524.767 2.563 0.036 o
-3 2 3 12.029 11.288 0.140 15.432 o
-3 2 4 0.174 0.228 0.053 1052.590 o
-3 2 5 0.121 0.101 0.062 1495.230 o
-3 2 6 28.972 28.353 0.327 4.714 o
-3 2 7 0.490 0.483 0.142 325.315 o
-3 2 8 123.110 125.670 0.982 0.461 o
-3 2 9 0.388 0.297 0.197 289.871 o
-3 3 -2 13.017 8.741 0.121 15.799 o
-3 3 -1 17.293 16.471 0.132 9.770 o
-3 3 0 22.616 19.316 0.162 7.158 o
-3 3 1 50.438 58.347 0.246 1.927 o
-3 3 2 102.914 112.735 0.592 0.610 o
-3 3 3 32.494 29.366 0.237 4.207 o
-3 3 4 445.561 419.148 1.270 0.046 o
-3 3 5 4.065 4.775 0.139 47.832 o
-3 3 6 0.274 0.428 0.091 560.039 o
-3 3 7 44.800 44.889 0.542 2.427 o
-3 3 8 2.084 1.957 0.209 89.487 o
-3 3 9 3.107 3.024 0.307 53.791 o
-3 4 -2 238.715 236.283 0.732 0.144 o
-3 4 -1 0.964 0.193 0.044 321.395 o
-3 4 0 181.232 190.144 0.575 0.231 o
-3 4 1 138.075 141.116 0.600 0.382 o
-3 4 2 36.295 39.623 0.378 3.229 o
-3 4 3 162.366 151.050 0.517 0.303 o
-3 4 4 71.988 70.977 0.335 1.189 o
-3 4 5 156.684 148.635 0.978 0.316 o
-3 4 6 9.089 9.216 0.245 20.020 o
-3 4 7 2.399 2.573 0.182 79.551 o
-3 4 8 6.831 5.968 0.474 23.199 o
-3 4 9 5.324 5.563 0.338 31.883 o
-3 5 -2 131.609 125.871 0.429 0.434 o
-3 5 -1 8.493 7.014 0.089 24.643 o
-3 5 0 191.127 190.421 0.665 0.216 o
-3 5 1 172.872 179.574 0.510 0.254 o
-3 5 2 232.299 229.046 0.946 0.152 o
-3 5 3 20.082 21.637 0.230 7.509 o
-3 5 4 478.309 459.144 1.495 0.040 o
-3 5 5 6.113 5.179 0.197 33.620 o
-3 5 6 89.086 88.602 0.636 0.821 o
-3 5 7 129.382 134.057 0.869 0.421 o
-3 5 8 49.893 51.035 0.902 1.943 o
-3 5 9 3.768 3.823 0.305 45.434 o
-3 6 -2 4.699 4.061 0.117 46.367 o
-3 6 -1 0.383 1.008 0.051 378.077 o
-3 6 0 32.722 33.357 0.182 3.957 o
-3 6 1 85.372 86.537 0.273 0.885 o
-3 6 2 105.064 118.049 0.412 0.583 o
-3 6 3 10.014 8.850 0.180 19.384 o
-3 6 4 2.326 1.801 0.138 95.699 o
-3 6 5 9.725 7.779 0.217 20.425 o
-3 6 6 38.520 38.105 0.447 3.083 o
-3 6 7 0.517 0.470 0.182 264.105 o
-3 6 8 70.629 70.286 1.603 1.061 o
-3 6 9 1.275 1.699 0.360 79.353 o
-3 7 -2 10.389 12.756 0.184 16.252 o
-3 7 -1 51.839 49.180 0.242 2.053 o
-3 7 0 178.856 175.238 0.454 0.247 o
-3 7 1 0.844 0.817 0.043 272.910 o
-3 7 2 16.982 16.412 0.173 9.878 o
-3 7 3 11.403 13.039 0.223 14.835 o
-3 7 4 56.308 51.484 0.465 1.812 o
-3 7 5 23.767 25.899 0.354 5.840 o
-3 7 6 65.276 60.815 0.981 1.352 o
-3 7 7 3.334 3.041 0.227 58.099 o
-3 7 8 27.715 27.063 0.623 4.687 o
-3 7 9 5.149 4.683 0.406 31.485 o
-3 8 -2 306.984 305.117 2.086 0.089 o
-3 8 -1 0.108 -0.017 0.055 2219.210 o
-3 8 0 143.603 148.319 0.429 0.355 o
-3 8 1 18.443 17.032 0.128 9.109 o
-3 8 2 12.542 12.984 0.182 13.967 o
-3 8 3 87.473 82.395 0.590 0.874 o
-3 8 4 74.748 73.092 0.527 1.113 o
-3 8 5 53.390 48.976 0.475 1.962 o
-3 8 6 10.437 10.114 0.306 16.927 o
-3 8 7 0.000 -0.020 0.192 540.788 o
-3 8 8 19.403 18.751 0.462 7.729 o
-3 9 -2 31.232 29.304 0.317 4.334 o
-3 9 -1 8.622 7.759 0.152 23.093 o
-3 9 0 43.728 40.966 0.241 2.679 o
-3 9 1 114.521 118.281 0.645 0.525 o
-3 9 2 0.004 0.147 0.065 2342.840 o
-3 9 3 2.188 2.715 0.128 88.534 o
-3 9 4 40.876 36.697 0.359 2.991 o
-3 9 5 5.442 4.924 0.227 36.299 o
-3 9 6 5.588 5.089 0.268 34.059 o
-3 9 7 99.197 106.103 1.112 0.641 o
-3 9 8 1.539 1.281 0.256 104.492 o
-3 10 -2 15.466 14.102 0.216 11.273 o
-3 10 -1 1.122 1.153 0.107 183.472 o
-3 10 0 105.573 108.879 0.457 0.608 o
-3 10 1 85.966 82.900 0.386 0.896 o
-3 10 2 1.326 1.643 0.115 145.658 o
-3 10 3 12.121 10.827 0.209 15.291 o
-3 10 4 6.195 5.434 0.252 31.512 o
-3 10 5 14.960 13.066 0.323 11.543 o
-3 10 6 42.772 40.746 0.764 2.562 o
-3 10 7 0.047 0.312 0.184 444.247 o
-3 10 8 22.192 21.493 0.445 6.572 o
-3 11 -2 23.970 23.710 0.297 6.101 o
-3 11 -1 55.268 54.334 0.474 1.797 o
-3 11 0 135.563 133.206 0.622 0.404 o
-3 11 1 2.356 2.348 0.118 89.845 o
-3 11 2 60.591 62.685 0.410 1.523 o
-3 11 3 4.382 4.790 0.156 44.922 o
-3 11 4 2.239 1.631 0.141 100.529 o
-3 11 5 42.797 44.822 0.565 2.531 o
-3 11 6 89.741 91.672 0.918 0.786 o
-3 11 7 3.843 3.131 0.240 51.736 o
-3 11 8 49.374 52.314 0.886 1.944 o
-3 12 -2 139.009 143.872 0.756 0.373 o
-3 12 -1 0.580 0.396 0.098 373.282 o
-3 12 0 42.361 40.140 0.322 2.777 o
-3 12 1 0.986 0.988 0.100 211.281 o
-3 12 2 0.441 0.215 0.100 488.600 o
-3 12 3 43.056 42.283 0.480 2.619 o
-3 12 4 32.249 30.327 0.384 4.100 o
-3 12 5 9.374 9.914 0.329 18.205 o
-3 12 6 4.570 3.296 0.220 46.347 o
-3 12 7 1.256 1.280 0.245 118.345 o
-3 12 8 20.577 20.500 1.225 4.877 o
-3 13 -2 0.176 0.216 0.123 642.077 o
-3 13 -1 1.869 1.643 0.131 114.796 o
-3 13 0 0.619 0.289 0.119 348.632 o
-3 13 1 53.773 55.606 0.690 1.786 o
-3 13 2 102.050 110.205 0.735 0.621 o
-3 13 3 0.014 -0.111 0.122 1281.390 o
-3 13 4 26.122 26.347 0.376 5.309 o
-3 13 5 1.610 1.296 0.179 122.746 o
-3 13 6 22.876 23.601 0.513 6.035 o
-3 13 7 56.022 57.151 1.083 1.596 o
-3 14 -2 1.664 1.200 0.148 130.800 o
-3 14 -1 0.052 0.029 0.128 997.841 o
-3 14 0 71.375 70.791 0.569 1.187 o
-3 14 1 36.256 36.145 0.433 3.357 o
-3 14 2 1.072 0.833 0.139 191.442 o
-3 14 3 3.232 2.720 0.184 64.593 o
-3 14 4 1.484 1.028 0.174 137.350 o
-3 14 5 17.356 15.931 0.400 9.225 o
-3 14 6 29.800 29.273 0.530 4.355 o
-3 14 7 0.499 0.186 0.238 222.210 o
-3 15 -2 4.044 3.164 0.205 51.899 o
-3 15 -1 43.180 41.425 0.495 2.633 o
-3 15 0 28.822 29.410 0.499 4.509 o
-3 15 1 4.231 3.747 0.207 47.809 o
-3 15 2 27.676 28.643 0.406 4.825 o
-3 15 3 1.742 1.828 0.206 101.312 o
-3 15 4 1.845 1.545 0.197 104.503 o
-3 15 5 36.341 36.155 0.531 3.297 o
-3 15 6 30.992 30.812 0.596 4.047 o
-3 16 -2 16.282 17.093 0.397 9.455 o
-3 16 -1 4.250 3.345 0.261 46.398 o
-3 16 0 0.122 -0.402 0.195 447.178 o
-3 16 1 20.515 19.901 0.386 7.378 o
-3 16 2 7.617 7.628 0.286 23.772 o
-3 16 3 12.192 12.273 0.413 13.290 o
-3 16 4 2.457 2.279 0.218 76.868 o
-3 16 5 1.895 1.477 0.224 98.267 o
-3 16 6 0.238 0.412 0.247 232.374 o
-3 17 -2 6.837 6.635 0.490 22.168 o
-3 17 -1 0.076 -0.228 0.238 327.820 o
-3 17 0 9.532 9.178 0.318 18.619 o
-3 17 1 21.828 22.993 0.454 6.459 o
-3 17 2 133.905 145.029 1.113 0.383 o
-3 17 3 0.167 -0.042 0.173 509.608 o
-3 17 4 63.784 68.216 0.691 1.349 o
-3 17 5 0.008 0.004 0.193 531.655 o
-3 18 -2 7.685 6.702 0.602 18.328 o
-3 18 -1 0.152 -0.050 0.248 286.914 o
-3 18 0 16.939 17.391 0.459 8.884 o
-3 18 1 8.761 9.391 0.346 19.250 o
-3 18 2 0.032 0.081 0.197 467.800 o
-3 18 3 0.294 0.149 0.199 332.293 o
-3 18 4 0.966 0.204 0.227 178.337 o
-3 19 -1 19.369 17.880 1.191 5.347 o
-3 19 0 0.013 -0.083 0.214 429.121 o
-3 19 1 0.626 0.789 0.242 171.962 o
-3 19 2 2.974 2.232 0.259 64.303 o
-3 19 3 0.004 -0.132 0.214 434.300 o
-2 0 0 433.699 482.639 3.986 0.042 o
-2 0 2 12.210 8.115 0.402 15.205 o
-2 0 4 3.569 4.470 0.164 52.331 o
-2 0 6 77.957 67.326 0.829 1.083 o
-2 0 8 4.953 5.218 0.428 30.392 o
-2 1 -1 146.379 155.581 0.679 0.336 o
-2 1 0 191.335 210.160 1.028 0.202 o
-2 1 1 32.033 46.900 0.277 3.318 o
-2 1 2 200.327 207.587 0.782 0.194 o
-2 1 3 11.837 7.652 0.112 17.941 o
-2 1 4 13.745 12.345 0.140 13.336 o
-2 1 5 15.116 9.008 0.168 13.507 o
-2 1 6 41.103 37.091 0.439 2.932 o
-2 1 7 0.246 0.044 0.142 570.096 o
-2 1 8 157.028 163.009 1.019 0.298 o
-2 1 9 1.143 1.057 0.193 150.416 o
-2 2 -1 184.391 189.709 0.491 0.227 o
-2 2 0 252.827 268.546 0.711 0.124 o
-2 2 1 122.933 134.570 0.371 0.451 o
-2 2 2 372.615 395.312 1.142 0.060 o
-2 2 3 11.477 10.720 0.128 16.401 o
-2 2 4 70.563 65.172 0.267 1.274 o
-2 2 5 32.876 28.998 0.267 4.169 o
-2 2 6 8.499 8.047 0.211 22.492 o
-2 2 7 69.180 64.926 0.704 1.270 o
-2 2 8 6.574 7.513 0.337 25.332 o
-2 2 9 21.181 21.617 0.427 6.857 o
-2 3 -1 233.364 254.968 0.583 0.142 o
-2 3 0 457.569 484.064 0.956 0.041 o
-2 3 1 181.644 205.787 0.664 0.219 o
-2 3 2 640.438 681.322 2.089 0.021 o
-2 3 3 0.445 0.920 0.053 369.609 o
-2 3 4 203.932 207.119 0.678 0.190 o
-2 3 5 44.600 33.883 0.319 2.837 o
-2 3 6 84.025 78.071 0.982 0.914 o
-2 3 7 0.172 0.098 0.152 564.271 o
-2 3 8 179.596 191.256 1.114 0.230 o
-2 3 9 0.000 0.265 0.205 405.221 o
-2 4 -1 72.352 71.253 0.279 1.182 o
-2 4 0 56.621 59.343 0.146 1.703 o
-2 4 1 2.110 2.453 0.060 99.874 o
-2 4 2 2.776 2.306 0.066 83.997 o
-2 4 3 0.861 1.329 0.074 215.639 o
-2 4 4 5.641 4.604 0.104 38.992 o
-2 4 5 51.205 52.458 0.407 1.990 o
-2 4 6 34.692 28.225 0.405 3.924 o
-2 4 7 10.460 11.701 0.335 15.754 o
-2 4 8 2.428 2.229 0.219 77.672 o
-2 4 9 0.006 0.329 0.245 288.394 o
-2 5 -1 33.038 31.024 0.142 4.068 o
-2 5 0 0.046 0.219 0.024 2153.580 o
-2 5 1 4.822 4.946 0.081 43.174 o
-2 5 2 13.089 11.805 0.130 14.166 o
-2 5 3 45.080 40.388 0.255 2.611 o
-2 5 4 74.030 71.778 0.419 1.142 o
-2 5 5 0.384 0.015 0.075 724.590 o
-2 5 6 3.014 3.094 0.213 62.623 o
-2 5 7 0.106 0.285 0.151 545.928 o
-2 5 8 41.819 40.552 0.619 2.694 o
-2 5 9 7.675 7.895 0.457 20.351 o
-2 6 -1 43.980 39.621 0.211 2.710 o
-2 6 0 376.036 401.075 0.881 0.059 o
-2 6 1 49.916 55.181 0.247 2.008 o
-2 6 2 734.742 772.796 1.170 0.016 o
-2 6 3 8.758 8.953 0.125 21.811 o
-2 6 4 170.386 167.315 0.863 0.268 o
-2 6 5 10.033 9.793 0.187 18.598 o
-2 6 6 22.785 23.620 0.391 6.262 o
-2 6 7 59.011 59.663 0.595 1.583 o
-2 6 8 30.113 31.781 0.629 4.060 o
-2 6 9 8.479 8.934 0.519 17.440 o
-2 7 -1 76.805 87.447 0.312 0.985 o
-2 7 0 51.739 47.755 0.185 2.093 o
-2 7 1 58.875 57.603 0.243 1.655 o
-2 7 2 160.439 164.661 0.589 0.292 o
-2 7 3 7.462 7.133 0.133 26.794 o
-2 7 4 128.718 134.932 0.631 0.425 o
-2 7 5 51.648 46.726 0.399 2.091 o
-2 7 6 9.877 8.991 0.306 18.390 o
-2 7 7 0.008 0.029 0.180 595.289 o
-2 7 8 53.527 53.932 0.892 1.771 o
-2 7 9 0.033 -0.744 0.732 37.293 o
-2 8 -1 65.547 65.382 0.240 1.380 o
-2 8 0 48.265 52.154 0.216 2.146 o
-2 8 1 0.997 0.768 0.051 245.697 o
-2 8 2 22.277 18.448 0.180 7.376 o
-2 8 3 0.306 0.294 0.095 578.773 o
-2 8 4 59.269 56.260 0.544 1.632 o
-2 8 5 75.118 77.143 0.505 1.076 o
-2 8 6 0.363 0.254 0.148 403.183 o
-2 8 7 16.705 18.646 0.469 8.691 o
-2 8 8 0.169 0.040 0.217 346.864 o
-2 9 -1 0.310 0.288 0.052 707.796 o
-2 9 0 55.497 59.790 0.235 1.727 o
-2 9 1 33.139 31.438 0.225 4.006 o
-2 9 2 96.912 97.349 0.423 0.715 o
-2 9 3 55.017 53.096 0.434 1.833 o
-2 9 4 143.048 147.282 0.614 0.357 o
-2 9 5 3.565 3.382 0.193 56.151 o
-2 9 6 53.232 52.041 0.615 1.882 o
-2 9 7 0.183 -0.007 0.172 500.464 o
-2 9 8 1.091 0.765 0.239 141.667 o
-2 10 -1 0.056 0.130 0.048 2211.740 o
-2 10 0 143.607 148.740 0.473 0.354 o
-2 10 1 16.891 16.526 0.181 9.881 o
-2 10 2 417.326 430.631 1.205 0.049 o
-2 10 3 5.911 6.277 0.189 32.422 o
-2 10 4 113.775 111.042 0.694 0.548 o
-2 10 5 0.100 0.076 0.122 884.525 o
-2 10 6 12.215 11.983 0.370 13.691 o
-2 10 7 38.290 37.673 0.645 3.016 o
-2 10 8 28.506 29.699 0.661 4.348 o
-2 11 -1 31.029 31.107 0.267 4.270 o
-2 11 0 4.929 5.753 0.108 39.682 o
-2 11 1 10.725 9.091 0.147 18.342 o
-2 11 2 3.416 2.567 0.109 67.864 o
-2 11 3 1.173 0.867 0.103 194.950 o
-2 11 4 18.670 20.449 0.285 8.102 o
-2 11 5 34.050 33.950 0.450 3.659 o
-2 11 6 26.502 25.662 0.465 5.199 o
-2 11 7 0.377 0.418 0.182 302.991 o
-2 11 8 1.059 0.703 0.224 153.055 o
-2 12 -1 43.233 42.469 0.459 2.610 o
-2 12 0 126.082 129.338 0.596 0.447 o
-2 12 1 0.028 0.075 0.068 2409.790 o
-2 12 2 11.206 9.009 0.191 17.506 o
-2 12 3 0.020 -0.123 0.097 1920.140 o
-2 12 4 77.496 74.935 0.629 1.049 o
-2 12 5 53.514 52.955 0.574 1.864 o
-2 12 6 6.488 7.042 0.311 26.724 o
-2 12 7 10.833 10.955 0.368 15.475 o
-2 12 8 0.023 -0.286 0.449 98.655 o
-2 13 -1 4.734 4.383 0.168 43.526 o
-2 13 0 41.414 42.306 0.361 2.757 o
-2 13 1 52.056 49.541 0.525 1.993 o
-2 13 2 44.183 44.909 0.412 2.498 o
-2 13 3 36.613 37.730 0.439 3.255 o
-2 13 4 56.616 58.426 0.546 1.678 o
-2 13 5 5.959 5.994 0.284 30.530 o
-2 13 6 47.126 50.276 0.623 2.159 o
-2 13 7 0.005 -0.270 0.198 507.386 o
-2 14 -1 19.921 19.783 0.258 7.826 o
-2 14 0 6.451 7.014 0.240 28.346 o
-2 14 1 2.738 2.328 0.141 79.436 o
-2 14 2 88.657 93.154 0.914 0.789 o
-2 14 3 0.802 0.452 0.138 258.008 o
-2 14 4 18.048 18.198 0.307 8.722 o
-2 14 5 13.945 14.352 0.334 11.732 o
-2 14 6 0.002 0.121 0.187 522.391 o
-2 14 7 13.806 13.889 0.434 11.456 o
-2 15 -1 3.103 2.927 0.184 64.905 o
-2 15 0 35.845 38.682 0.477 3.262 o
-2 15 1 0.894 0.466 0.137 241.523 o
-2 15 2 9.520 10.675 0.271 18.057 o
-2 15 3 0.044 -0.176 0.133 991.799 o
-2 15 4 0.023 0.163 0.140 783.761 o
-2 15 5 17.446 17.431 0.495 8.546 o
-2 15 6 84.488 88.677 0.893 0.856 o
-2 16 -1 12.921 13.569 0.359 12.585 o
-2 16 0 57.925 59.004 0.677 1.610 o
-2 16 1 0.464 -0.196 0.131 461.285 o
-2 16 2 2.089 1.561 0.174 100.995 o
-2 16 3 0.857 0.584 0.161 219.268 o
-2 16 4 28.861 28.985 0.455 4.577 o
-2 16 5 15.424 16.899 0.394 9.917 o
-2 16 6 4.496 3.602 0.291 42.265 o
-2 17 -1 7.141 5.366 0.342 26.502 o
-2 17 0 5.545 5.748 0.246 33.540 o
-2 17 1 44.333 45.405 0.518 2.446 o
-2 17 2 1.667 1.593 0.191 111.447 o
-2 17 3 19.077 19.637 0.399 7.852 o
-2 17 4 1.534 1.608 0.199 114.266 o
-2 17 5 2.940 3.189 0.255 59.320 o
-2 18 -1 42.664 40.995 0.688 2.598 o
-2 18 0 7.222 6.083 0.313 26.016 o
-2 18 1 0.176 0.326 0.187 370.627 o
-2 18 2 3.256 3.992 0.256 52.065 o
-2 18 3 0.547 0.890 0.194 212.636 o
-2 18 4 0.165 0.215 0.187 399.008 o
-2 18 5 33.361 33.283 1.582 2.628 o
-2 19 -1 0.113 0.143 0.226 327.201 o
-2 19 0 30.547 32.436 0.564 4.035 o
-2 19 1 7.842 6.203 0.308 24.483 o
-2 19 2 10.638 11.168 0.363 15.608 o
-2 19 3 0.369 0.005 0.184 365.846 o
-2 19 4 0.453 0.058 0.382 115.853 o
-2 20 0 6.428 4.447 0.383 28.622 o
-2 20 1 0.259 0.141 0.219 301.384 o
-2 20 2 27.773 27.341 0.567 4.731 o
-2 20 3 0.779 -0.299 0.592 50.748 o
-1 0 1 119.877 153.484 1.604 0.405 o
-1 0 3 139.533 137.502 0.459 0.384 o
-1 0 5 0.017 1.235 0.181 291.677 o
-1 0 7 12.175 11.171 0.410 13.771 o
-1 0 9 3.342 3.160 0.384 45.008 o
-1 1 0 344.980 349.641 0.822 0.071 o
-1 1 1 5.837 7.016 0.080 32.833 o
-1 1 2 32.332 27.261 0.148 4.398 o
-1 1 3 396.516 405.986 1.183 0.054 o
-1 1 4 91.396 94.867 0.336 0.777 o
-1 1 5 50.771 53.710 0.515 1.963 o
-1 1 6 26.030 19.500 0.321 6.083 o
-1 1 7 3.168 3.149 0.238 58.400 o
-1 1 8 33.403 33.292 0.489 3.734 o
-1 1 9 1.173 1.325 0.273 111.167 o
-1 2 0 1353.030 1290.490 1.979 0.005 o
-1 2 1 1.472 0.034 0.027 232.671 o
-1 2 2 2886.680 2925.720 4.525 0.001 o
-1 2 3 25.708 24.563 0.176 5.730 o
-1 2 4 140.769 135.826 0.447 0.383 o
-1 2 5 1.313 1.323 0.148 147.383 o
-1 2 6 9.278 8.919 0.199 20.371 o
-1 2 7 0.628 0.438 0.154 278.670 o
-1 2 8 0.003 -0.052 0.173 662.330 o
-1 2 9 3.692 3.588 0.282 48.334 o
-1 3 0 1236.340 1293.970 2.466 0.006 o
-1 3 1 30.442 23.738 0.143 4.947 o
-1 3 2 207.158 221.982 0.561 0.179 o
-1 3 3 160.216 162.098 0.618 0.295 o
-1 3 4 4.577 5.299 0.108 43.127 o
-1 3 5 6.135 7.444 0.185 29.642 o
-1 3 6 2.115 3.435 0.165 78.461 o
-1 3 7 5.388 5.765 0.254 33.910 o
-1 3 8 0.091 0.366 0.186 399.859 o
-1 3 9 0.000 -0.170 0.195 525.819 o
-1 4 0 1177.330 1245.680 1.609 0.006 o
-1 4 1 237.506 256.504 1.373 0.137 o
-1 4 2 277.940 288.820 1.041 0.105 o
-1 4 3 119.268 117.704 0.414 0.506 o
-1 4 4 144.486 137.000 0.447 0.369 o
-1 4 5 1.488 0.267 0.075 202.781 o
-1 4 6 129.768 131.990 0.841 0.424 o
-1 4 7 14.680 14.263 0.341 11.266 o
-1 4 8 35.741 37.130 0.652 3.230 o
-1 4 9 2.331 1.970 0.275 73.854 o
-1 5 0 0.000 0.292 0.028 2233.970 o
-1 5 1 44.199 44.110 0.178 2.564 o
-1 5 2 248.381 253.979 0.879 0.131 o
-1 5 3 189.039 193.077 0.650 0.217 o
-1 5 4 79.211 82.579 0.342 0.985 o
-1 5 5 42.191 43.459 0.380 2.666 o
-1 5 6 42.565 36.619 0.396 2.861 o
-1 5 7 0.897 0.956 0.174 183.657 o
-1 5 8 64.675 65.120 0.763 1.354 o
-1 5 9 3.199 1.893 0.457 43.891 o
-1 6 0 11.671 13.773 0.084 14.678 o
-1 6 1 14.336 12.109 0.098 13.040 o
-1 6 2 332.507 327.828 1.138 0.078 o
-1 6 3 47.520 49.785 0.304 2.223 o
-1 6 4 0.096 0.251 0.081 1050.390 o
-1 6 5 1.585 1.765 0.153 119.814 o
-1 6 6 0.048 0.136 0.114 1033.250 o
-1 6 7 1.497 1.889 0.182 114.382 o
-1 6 8 5.581 4.642 0.276 34.782 o
-1 7 0 641.499 699.708 1.499 0.021 o
-1 7 1 0.457 0.832 0.068 369.726 o
-1 7 2 281.187 282.797 0.784 0.105 o
-1 7 3 34.441 34.061 0.262 3.705 o
-1 7 4 23.912 22.007 0.329 6.273 o
-1 7 5 5.088 4.527 0.175 40.712 o
-1 7 6 53.324 56.990 0.584 1.799 o
-1 7 7 8.644 9.029 0.302 20.278 o
-1 7 8 30.485 32.879 0.549 4.030 o
-1 8 0 673.464 701.470 1.804 0.019 o
-1 8 1 60.472 71.911 0.389 1.413 o
-1 8 2 129.285 137.124 0.718 0.418 o
-1 8 3 7.211 7.064 0.167 27.222 o
-1 8 4 130.607 127.659 1.060 0.425 o
-1 8 5 1.217 0.837 0.116 186.655 o
-1 8 6 203.387 216.006 0.983 0.185 o
-1 8 7 14.358 14.048 0.353 11.480 o
-1 8 8 59.074 60.297 0.956 1.507 o
-1 9 0 2.327 1.006 0.046 119.373 o
-1 9 1 11.855 10.767 0.127 15.944 o
-1 9 2 113.294 119.139 0.449 0.533 o
-1 9 3 78.303 80.376 0.546 1.004 o
-1 9 4 2.528 3.124 0.135 76.303 o
-1 9 5 17.205 16.627 0.316 9.396 o
-1 9 6 4.180 3.627 0.231 47.452 o
-1 9 7 0.400 0.369 0.182 303.048 o
-1 9 8 29.064 28.563 0.682 4.323 o
-1 10 0 58.539 51.446 0.347 1.753 o
-1 10 1 8.878 8.000 0.155 22.297 o
-1 10 2 1.140 0.894 0.090 201.842 o
-1 10 3 42.864 42.587 0.281 2.675 o
-1 10 4 75.239 76.387 0.581 1.075 o
-1 10 5 1.055 0.784 0.130 200.691 o
-1 10 6 5.145 5.646 0.316 33.152 o
-1 10 7 0.410 0.446 0.183 289.586 o
-1 10 8 17.981 17.456 0.555 8.127 o
-1 11 0 281.377 295.875 0.977 0.102 o
-1 11 1 0.291 0.346 0.075 629.329 o
-1 11 2 128.134 129.975 0.771 0.435 o
-1 11 3 0.423 0.220 0.068 576.591 o
-1 11 4 41.632 38.520 0.429 2.848 o
-1 11 5 31.944 33.230 0.514 3.875 o
-1 11 6 61.573 62.872 0.684 1.462 o
-1 11 7 8.066 8.272 0.393 20.534 o
-1 12 0 103.687 112.606 0.490 0.608 o
-1 12 1 38.102 39.653 0.376 3.083 o
-1 12 2 4.748 5.546 0.138 40.696 o
-1 12 3 2.489 1.843 0.110 93.757 o
-1 12 4 23.516 22.485 0.369 6.255 o
-1 12 5 0.328 0.163 0.121 531.188 o
-1 12 6 97.320 101.230 0.806 0.685 o
-1 12 7 8.823 9.600 0.416 18.094 o
-1 13 0 1.651 0.988 0.088 151.804 o
-1 13 1 3.596 3.061 0.116 61.708 o
-1 13 2 56.355 55.733 0.662 1.707 o
-1 13 3 21.469 21.613 0.317 6.973 o
-1 13 4 6.711 7.134 0.227 27.652 o
-1 13 5 0.584 0.723 0.180 232.610 o
-1 13 6 4.359 3.907 0.270 43.248 o
-1 13 7 0.046 -0.369 0.253 301.322 o
-1 14 0 67.068 64.955 0.710 1.312 o
-1 14 1 9.215 7.874 0.198 21.413 o
-1 14 2 39.548 40.151 0.358 2.962 o
-1 14 3 14.364 15.176 0.285 11.406 o
-1 14 4 98.495 102.292 0.725 0.675 o
-1 14 5 0.042 0.215 0.166 558.437 o
-1 14 6 1.267 0.775 0.189 153.075 o
-1 15 0 65.968 72.551 0.547 1.274 o
-1 15 1 0.044 0.111 0.113 1097.760 o
-1 15 2 10.295 10.860 0.224 17.275 o
-1 15 3 2.417 1.836 0.158 90.331 o
-1 15 4 9.685 10.421 0.313 17.615 o
-1 15 5 46.895 46.593 0.679 2.235 o
-1 15 6 15.912 16.187 0.382 9.901 o
-1 16 0 0.002 -0.014 0.119 1407.350 o
-1 16 1 16.699 16.944 0.302 9.597 o
-1 16 2 18.348 16.531 0.318 8.914 o
-1 16 3 20.034 19.829 0.339 7.637 o
-1 16 4 2.566 2.174 0.198 78.211 o
-1 16 5 0.902 0.900 0.213 163.465 o
-1 16 6 11.229 12.372 0.890 9.785 o
-1 17 0 0.186 0.280 0.151 485.673 o
-1 17 1 3.362 2.860 0.189 61.658 o
-1 17 2 25.247 26.396 0.420 5.415 o
-1 17 3 2.221 2.319 0.192 84.664 o
-1 17 4 15.056 15.527 0.399 10.437 o
-1 17 5 3.125 2.326 0.245 63.169 o
-1 18 0 9.299 10.879 0.353 17.408 o
-1 18 1 3.667 3.267 0.214 54.370 o
-1 18 2 12.315 13.099 0.329 13.408 o
-1 18 3 3.590 2.834 0.255 54.396 o
-1 18 4 35.829 37.040 0.540 3.298 o
-1 18 5 0.451 1.041 0.599 48.394 o
-1 19 0 5.816 4.794 0.290 33.036 o
-1 19 1 0.171 0.146 0.167 480.320 o
-1 19 2 4.986 4.070 0.333 36.455 o
-1 19 3 2.957 2.563 0.242 64.185 o
-1 19 4 0.068 0.232 0.311 186.741 o
-1 20 0 11.018 11.635 0.369 14.939 o
-1 20 1 5.175 4.257 0.277 37.441 o
-1 20 2 29.327 31.121 0.589 4.237 o
-1 20 3 29.221 27.059 0.851 4.163 o
0 0 2 1762.760 1857.860 5.573 0.003 o
0 0 4 186.140 180.110 0.941 0.230 o
0 0 6 401.333 425.035 2.049 0.052 o
0 0 8 24.242 23.743 0.682 5.420 o
0 1 1 801.002 825.028 1.980 0.014 o
0 1 2 502.321 514.630 1.482 0.035 o
0 1 3 60.181 58.168 0.317 1.604 o
0 1 4 115.830 105.923 0.489 0.554 o
0 1 5 4.094 4.278 0.143 49.422 o
0 1 6 5.988 6.622 0.263 29.920 o
0 1 7 42.896 44.939 0.484 2.549 o
0 1 8 5.654 5.590 0.298 31.903 o
0 2 0 160.763 154.219 1.050 0.299 o
0 2 1 11.488 31.189 0.107 9.076 o
0 2 2 171.048 180.520 0.551 0.256 o
0 2 3 593.992 617.991 2.062 0.025 o
0 2 4 70.066 65.616 0.394 1.273 o
0 2 5 6.348 4.302 0.138 35.680 o
0 2 6 11.206 10.486 0.245 16.269 o
0 2 7 12.602 11.963 0.336 13.600 o
0 2 8 7.304 8.420 0.362 22.301 o
0 3 1 931.899 977.898 1.747 0.010 o
0 3 2 365.256 377.125 1.010 0.063 o
0 3 3 72.326 67.299 0.291 1.219 o
0 3 4 14.062 11.590 0.156 13.344 o
0 3 5 10.787 10.547 0.213 16.934 o
0 3 6 12.008 10.503 0.264 15.272 o
0 3 7 53.597 55.150 0.726 1.791 o
0 3 8 24.037 25.478 0.509 5.608 o
0 4 0 6748.420 6690.750 27.308 0.000 o
0 4 1 3.297 4.908 0.055 56.355 o
0 4 2 245.310 266.921 0.723 0.129 o
0 4 3 99.693 91.311 0.352 0.719 o
0 4 4 25.194 24.187 0.220 5.849 o
0 4 5 2.715 2.817 0.144 74.981 o
0 4 6 209.883 223.818 1.095 0.174 o
0 4 7 5.106 4.452 0.280 37.222 o
0 4 8 5.003 4.974 0.351 33.714 o
0 5 1 109.409 125.949 0.333 0.536 o
0 5 2 215.335 213.438 0.681 0.175 o
0 5 3 1.852 2.103 0.079 113.523 o
0 5 4 209.786 204.506 0.578 0.185 o
0 5 5 2.972 2.475 0.166 71.713 o
0 5 6 58.506 60.001 0.613 1.590 o
0 5 7 16.890 17.613 0.418 9.004 o
0 5 8 2.494 2.484 0.269 68.111 o
0 6 0 186.135 200.022 0.907 0.216 o
0 6 1 66.969 67.481 0.227 1.326 o
0 6 2 372.181 404.990 0.861 0.059 o
0 6 3 209.167 220.457 0.536 0.177 o
0 6 4 244.860 237.446 0.949 0.139 o
0 6 5 14.716 12.107 0.215 12.454 o
0 6 6 42.411 41.612 0.497 2.673 o
0 6 7 9.215 9.905 0.331 18.400 o
0 6 8 32.449 33.142 0.558 3.791 o
0 7 1 358.130 389.954 1.264 0.063 o
0 7 2 62.035 65.477 0.295 1.459 o
0 7 3 35.691 32.752 0.252 3.647 o
0 7 4 0.314 0.157 0.064 765.689 o
0 7 5 11.254 11.662 0.218 15.719 o
0 7 6 31.738 30.713 0.464 4.081 o
0 7 7 42.031 42.837 0.601 2.619 o
0 7 8 14.833 14.200 0.393 10.959 o
0 8 0 435.665 477.663 2.017 0.043 o
0 8 1 6.249 5.927 0.112 33.016 o
0 8 2 18.497 18.496 0.149 8.752 o
0 8 3 145.873 141.807 0.514 0.358 o
0 8 4 18.405 17.177 0.235 8.936 o
0 8 5 8.417 8.099 0.206 22.659 o
0 8 6 23.022 24.167 0.385 6.152 o
0 8 7 8.273 9.170 0.327 20.454 o
0 8 8 8.018 8.992 0.436 19.346 o
0 9 1 5.894 7.465 0.102 31.556 o
0 9 2 47.426 45.360 0.287 2.338 o
0 9 3 5.129 4.882 0.101 41.153 o
0 9 4 181.183 190.773 0.740 0.230 o
0 9 5 1.851 2.081 0.140 105.882 o
0 9 6 75.621 77.521 0.627 1.058 o
0 9 7 3.162 2.766 0.262 58.589 o
0 9 8 14.046 14.944 0.668 9.633 o
0 10 0 2.274 1.791 0.092 102.731 o
0 10 1 11.416 10.909 0.167 16.209 o
0 10 2 83.812 90.383 0.376 0.878 o
0 10 3 69.203 72.438 0.578 1.210 o
0 10 4 113.685 118.714 0.749 0.527 o
0 10 5 16.632 16.532 0.337 9.624 o
0 10 6 13.599 13.870 0.310 12.244 o
0 10 7 2.270 1.772 0.336 67.017 o
0 11 1 105.811 114.154 0.887 0.580 o
0 11 2 3.371 3.157 0.110 64.276 o
0 11 3 8.122 7.979 0.179 23.692 o
0 11 4 0.096 0.147 0.123 812.254 o
0 11 5 9.468 9.885 0.241 18.951 o
0 11 6 22.894 22.970 0.492 6.139 o
0 11 7 19.006 19.436 0.593 7.354 o
0 12 0 6.920 5.142 0.261 29.338 o
0 12 1 12.146 10.830 0.176 15.415 o
0 12 2 173.670 179.881 1.089 0.249 o
0 12 3 112.914 112.490 0.655 0.549 o
0 12 4 83.786 82.342 0.606 0.917 o
0 12 5 14.286 15.201 0.322 11.299 o
0 12 6 4.743 3.558 0.319 39.590 o
0 12 7 3.283 2.586 0.345 50.821 o
0 13 1 0.025 -0.040 0.073 2948.040 o
0 13 2 17.269 17.343 0.249 9.372 o
0 13 3 18.651 18.425 0.277 8.502 o
0 13 4 74.057 77.899 0.720 1.071 o
0 13 5 3.235 2.927 0.289 54.600 o
0 13 6 26.078 26.851 0.565 5.036 o
0 13 7 0.017 -0.204 1.062 17.755 o
0 14 0 58.671 59.215 0.637 1.592 o
0 14 1 11.441 10.322 0.196 16.377 o
0 14 2 1.623 0.932 0.108 151.173 o
0 14 3 10.963 10.765 0.282 16.131 o
0 14 4 4.653 4.232 0.258 41.092 o
0 14 5 15.457 14.867 0.424 10.289 o
0 14 6 2.252 2.027 0.247 79.010 o
0 15 1 30.381 32.020 0.357 4.244 o
0 15 2 0.002 0.175 0.112 1144.250 o
0 15 3 0.180 0.089 0.121 734.668 o
0 15 4 0.226 0.398 0.159 406.344 o
0 15 5 7.528 7.954 0.395 21.708 o
0 15 6 11.863 11.998 0.428 13.546 o
0 16 0 36.414 34.657 0.903 3.081 o
0 16 1 8.137 8.354 0.232 22.681 o
0 16 2 134.382 145.291 0.928 0.383 o
0 16 3 55.909 56.163 0.628 1.721 o
0 16 4 51.751 48.668 0.655 1.991 o
0 16 5 11.378 12.451 0.492 13.224 o
0 17 1 0.373 0.272 0.146 399.381 o
0 17 2 10.454 10.034 0.288 17.116 o
0 17 3 17.390 18.451 0.387 8.722 o
0 17 4 12.703 13.451 0.408 12.491 o
0 17 5 2.935 2.362 0.298 59.835 o
0 18 0 86.873 90.607 1.006 0.813 o
0 18 1 3.139 2.463 0.197 66.574 o
0 18 2 28.529 28.767 0.472 4.623 o
0 18 3 3.291 2.484 0.232 61.378 o
0 18 4 7.308 6.268 0.398 23.753 o
0 19 1 7.263 8.067 0.350 22.943 o
0 19 2 0.062 0.123 0.180 510.796 o
0 19 3 0.988 0.770 0.244 145.346 o
0 20 0 7.790 8.788 0.469 19.266 o
0 20 1 0.870 1.047 0.225 153.818 o
0 20 2 36.294 37.530 0.595 3.206 o
0 20 3 12.437 11.543 1.021 8.458 o
1 0 1 1558.510 1523.510 8.168 0.004 o
1 0 3 5.173 4.332 0.157 41.282 o
1 0 5 16.697 17.050 0.415 9.217 o
1 0 7 122.796 128.121 1.425 0.446 o
1 1 1 108.450 126.770 0.515 0.537 o
1 1 2 163.835 169.536 0.460 0.280 o
1 1 3 298.082 282.886 1.399 0.097 o
1 1 4 7.457 6.808 0.196 26.511 o
1 1 5 33.857 32.324 0.348 3.821 o
1 1 6 52.499 51.627 0.605 1.919 o
1 1 7 13.499 13.542 0.439 11.727 o
1 1 8 3.978 3.446 0.319 44.459 o
1 2 1 37.975 49.661 0.131 2.785 o
1 2 2 266.499 311.345 1.029 0.105 o
1 2 3 1.206 0.943 0.076 195.982 o
1 2 4 1213.750 1163.210 1.506 0.006 o
1 2 5 0.192 0.164 0.113 712.136 o
1 2 6 171.088 171.267 1.238 0.260 o
1 2 7 2.520 2.647 0.252 68.513 o
1 2 8 21.778 22.581 0.511 6.407 o
1 3 1 0.055 0.084 0.020 3448.190 o
1 3 2 88.558 97.886 0.271 0.791 o
1 3 3 99.968 95.968 0.339 0.698 o
1 3 4 1.979 2.008 0.133 103.821 o
1 3 5 22.337 21.519 0.290 6.785 o
1 3 6 51.998 50.328 0.534 1.978 o
1 3 7 6.933 7.780 0.350 23.944 o
1 3 8 19.782 21.834 0.455 7.157 o
1 4 1 468.265 524.797 1.067 0.037 o
1 4 2 305.847 316.375 0.751 0.088 o
1 4 3 14.106 11.998 0.105 13.259 o
1 4 4 26.573 24.111 0.217 5.575 o
1 4 5 24.532 24.061 0.276 5.957 o
1 4 6 35.111 34.556 0.518 3.486 o
1 4 7 87.510 90.606 0.819 0.818 o
1 4 8 28.186 29.708 0.559 4.512 o
1 5 1 47.934 51.291 0.150 2.186 o
1 5 2 58.755 59.079 0.212 1.639 o
1 5 3 270.757 264.209 0.559 0.115 o
1 5 4 7.477 6.948 0.127 27.071 o
1 5 5 31.534 30.862 0.332 4.186 o
1 5 6 31.086 29.344 0.400 4.296 o
1 5 7 13.373 13.772 0.467 11.563 o
1 5 8 0.056 0.082 0.211 401.038 o
1 6 1 213.017 222.060 0.418 0.173 o
1 6 2 8.785 6.364 0.081 24.764 o
1 6 3 9.485 7.337 0.101 22.096 o
1 6 4 320.670 317.108 1.110 0.083 o
1 6 5 1.935 2.021 0.147 103.026 o
1 6 6 22.672 22.177 0.369 6.498 o
1 6 7 18.155 18.884 0.427 8.234 o
1 6 8 0.007 -0.244 0.244 334.682 o
1 7 1 12.277 12.354 0.112 14.719 o
1 7 2 36.075 38.056 0.194 3.373 o
1 7 3 19.278 18.982 0.177 8.315 o
1 7 4 2.256 1.936 0.108 99.305 o
1 7 5 4.661 4.096 0.199 43.869 o
1 7 6 30.074 30.407 0.443 4.325 o
1 7 7 0.644 0.348 0.245 188.463 o
1 7 8 34.763 37.152 1.054 2.974 o
1 8 1 123.327 143.614 0.496 0.431 o
1 8 2 209.291 215.055 0.617 0.180 o
1 8 3 1.420 1.107 0.070 168.440 o
1 8 4 9.490 8.283 0.158 20.869 o
1 8 5 23.891 24.417 0.373 5.948 o
1 8 6 36.899 35.641 0.543 3.265 o
1 8 7 36.479 36.154 0.558 3.270 o
1 9 1 12.710 11.875 0.122 14.508 o
1 9 2 6.380 5.588 0.101 33.302 o
1 9 3 153.894 155.808 0.663 0.317 o
1 9 4 7.705 7.041 0.160 25.993 o
1 9 5 18.114 18.182 0.323 8.661 o
1 9 6 7.047 7.718 0.317 24.392 o
1 9 7 7.351 7.719 0.427 21.628 o
1 10 1 149.459 156.760 0.512 0.327 o
1 10 2 167.742 170.903 0.726 0.270 o
1 10 3 11.706 10.362 0.164 16.206 o
1 10 4 5.582 5.260 0.210 35.399 o
1 10 5 5.430 5.100 0.263 34.852 o
1 10 6 14.673 14.876 0.350 11.046 o
1 10 7 33.654 35.646 0.627 3.494 o
1 11 1 39.700 38.431 0.295 3.033 o
1 11 2 2.839 3.044 0.103 73.563 o
1 11 3 0.214 0.374 0.110 578.741 o
1 11 4 0.457 0.425 0.130 365.807 o
1 11 5 0.240 0.350 0.167 391.651 o
1 11 6 18.962 19.465 0.390 7.944 o
1 11 7 0.460 0.062 0.335 142.863 o
1 12 1 15.787 18.733 0.198 9.851 o
1 12 2 17.116 18.434 0.367 8.898 o
1 12 3 0.792 0.709 0.116 254.385 o
1 12 4 10.074 10.386 0.272 17.501 o
1 12 5 21.960 22.676 0.381 6.596 o
1 12 6 1.560 0.981 0.229 117.045 o
1 13 1 0.433 0.460 0.093 435.072 o
1 13 2 0.248 0.158 0.092 743.403 o
1 13 3 63.682 62.674 0.575 1.428 o
1 13 4 6.330 5.381 0.250 31.174 o
1 13 5 7.324 7.925 0.352 22.937 o
1 13 6 0.225 0.189 0.281 206.534 o
1 14 1 86.506 86.417 0.680 0.858 o
1 14 2 211.396 219.053 1.318 0.174 o
1 14 3 11.023 10.609 0.283 16.143 o
1 14 4 24.972 24.459 0.428 5.644 o
1 14 5 6.798 7.384 0.430 22.935 o
1 14 6 53.033 53.533 0.966 1.771 o
1 15 1 40.771 39.739 0.406 2.874 o
1 15 2 1.687 1.460 0.147 123.489 o
1 15 3 0.695 0.572 0.174 232.449 o
1 15 4 0.566 0.658 0.196 224.959 o
1 15 5 0.164 0.117 0.223 322.617 o
1 16 1 2.330 2.114 0.164 88.270 o
1 16 2 9.683 8.977 0.244 19.287 o
1 16 3 0.045 0.111 0.181 523.817 o
1 16 4 52.638 54.262 1.008 1.759 o
1 16 5 11.507 11.418 0.484 13.602 o
1 17 1 3.157 2.519 0.189 66.594 o
1 17 2 0.204 0.392 0.162 411.794 o
1 17 3 15.798 15.853 0.415 9.908 o
1 17 4 3.402 3.106 0.320 49.768 o
1 18 1 29.150 31.638 0.528 4.288 o
1 18 2 88.076 90.152 0.904 0.810 o
1 18 3 3.263 3.401 0.278 52.996 o
1 18 4 17.722 19.734 2.307 2.645 o
1 19 1 26.698 27.654 0.547 4.897 o
1 19 2 1.949 1.497 0.244 92.250 o
1 19 3 0.948 0.026 0.453 77.093 o
1 20 1 0.829 0.578 0.234 168.874 o
2 0 2 795.435 857.664 3.626 0.014 o
2 0 4 180.144 179.622 1.280 0.237 o
2 0 6 31.494 29.980 1.160 3.366 o
2 1 2 2.959 2.228 0.113 78.247 o
2 1 3 1.775 1.542 0.100 126.483 o
2 1 4 70.057 67.852 0.468 1.246 o
2 1 5 0.003 -0.147 0.124 1286.060 o
2 1 6 0.152 -0.003 0.163 569.348 o
2 1 7 29.592 32.254 0.646 4.075 o
2 2 2 62.642 58.168 0.570 1.510 o
2 2 3 80.376 75.284 0.396 1.017 o
2 2 4 45.151 43.133 0.344 2.509 o
2 2 5 47.403 46.319 0.501 2.271 o
2 2 6 14.730 14.591 0.389 10.923 o
2 2 7 6.370 4.864 0.307 30.408 o
2 3 2 86.554 87.697 0.463 0.860 o
2 3 3 2.407 1.511 0.079 104.159 o
2 3 4 3.677 3.688 0.130 56.586 o
2 3 5 5.003 4.164 0.245 39.812 o
2 3 6 1.677 1.479 0.193 112.703 o
2 3 7 54.900 57.721 0.750 1.703 o
2 4 2 283.513 303.726 0.993 0.099 o
2 4 3 0.000 0.121 0.057 2987.570 o
2 4 4 73.579 69.159 0.433 1.172 o
2 4 5 8.808 8.962 0.253 20.626 o
2 4 6 3.833 3.162 0.230 52.288 o
2 4 7 0.265 0.468 0.204 286.587 o
2 5 2 81.554 78.858 0.248 0.981 o
2 5 3 5.648 4.867 0.098 38.350 o
2 5 4 151.019 153.990 0.731 0.325 o
2 5 5 5.721 4.452 0.297 33.871 o
2 5 6 0.434 0.534 0.183 274.113 o
2 5 7 8.287 8.596 0.364 20.367 o
2 6 2 127.789 126.442 0.340 0.448 o
2 6 3 56.987 56.027 0.395 1.724 o
2 6 4 175.379 175.223 0.927 0.251 o
2 6 5 20.518 20.329 0.409 7.265 o
2 6 6 63.262 63.660 0.608 1.422 o
2 6 7 2.912 2.395 0.268 63.133 o
2 7 2 101.640 103.839 0.350 0.655 o
2 7 3 0.168 0.120 0.064 1188.770 o
2 7 4 1.471 1.421 0.119 142.503 o
2 7 5 4.475 3.472 0.201 47.270 o
2 7 6 0.972 1.238 0.215 145.809 o
2 7 7 54.611 57.831 0.809 1.697 o
2 8 2 0.342 0.452 0.056 568.228 o
2 8 3 0.271 0.084 0.072 881.030 o
2 8 4 0.106 -0.064 0.117 1014.020 o
2 8 5 25.241 25.859 0.438 5.444 o
2 8 6 25.886 27.729 0.573 4.984 o
2 8 7 1.562 1.572 0.287 91.477 o
2 9 2 90.632 87.620 0.589 0.813 o
2 9 3 5.543 4.780 0.136 38.478 o
2 9 4 146.684 156.303 0.801 0.333 o
2 9 5 16.937 17.312 0.344 9.281 o
2 9 6 2.070 1.797 0.221 89.723 o
2 9 7 0.413 0.450 0.465 79.519 o
2 10 2 41.242 38.654 0.417 2.875 o
2 10 3 32.073 33.187 0.322 3.987 o
2 10 4 108.231 104.492 0.718 0.600 o
2 10 5 3.289 2.520 0.210 63.034 o
2 10 6 34.365 35.006 0.680 3.417 o
2 11 2 67.211 67.551 0.466 1.306 o
2 11 3 0.675 0.153 0.104 375.628 o
2 11 4 5.118 4.845 0.227 38.080 o
2 11 5 1.053 0.774 0.177 175.792 o
2 11 6 0.123 0.311 0.221 310.024 o
2 12 2 52.351 52.360 0.463 1.939 o
2 12 3 0.255 0.149 0.107 668.850 o
2 12 4 16.209 16.671 0.345 9.764 o
2 12 5 29.282 30.760 0.533 4.323 o
2 12 6 84.082 85.812 0.798 0.882 o
2 13 2 27.149 26.869 0.335 5.121 o
2 13 3 2.752 1.964 0.159 81.096 o
2 13 4 71.361 71.248 0.644 1.177 o
2 13 5 22.172 21.716 0.457 6.527 o
2 13 6 1.927 1.011 0.403 65.960 o
2 14 2 0.801 0.507 0.132 258.922 o
2 14 3 13.038 12.672 0.294 13.190 o
2 14 4 11.011 10.156 0.309 16.209 o
2 14 5 0.100 0.073 0.207 396.282 o
2 15 2 29.221 30.263 0.473 4.421 o
2 15 3 0.024 -0.088 0.158 759.373 o
2 15 4 2.815 3.044 0.273 59.824 o
2 15 5 1.114 1.018 0.290 112.988 o
2 16 2 40.215 41.117 0.751 2.710 o
2 16 3 0.452 0.330 0.185 289.703 o
2 16 4 6.743 5.658 0.354 26.865 o
2 17 2 0.085 -0.230 0.187 506.318 o
2 17 3 1.244 0.703 0.242 133.304 o
2 17 4 12.577 13.988 0.638 10.788 o
2 18 2 21.948 22.572 0.535 6.317 o
2 18 3 2.401 2.060 0.254 74.963 o
2 19 2 13.019 12.767 0.507 11.839 o
3 0 3 48.843 38.701 0.443 2.405 o
3 0 5 16.704 15.383 0.526 9.130 o
3 0 7 15.903 15.352 0.686 8.690 o
3 1 3 17.686 17.328 0.280 9.119 o
3 1 4 25.467 23.448 0.376 5.714 o
3 1 5 8.974 10.515 0.315 18.494 o
3 1 6 7.670 7.191 0.372 22.602 o
3 1 7 3.531 3.666 0.280 49.452 o
3 2 3 0.591 0.657 0.097 324.766 o
3 2 4 20.187 18.924 0.292 7.825 o
3 2 5 3.614 3.191 0.214 55.301 o
3 2 6 30.763 31.896 0.533 4.070 o
3 2 7 0.231 0.034 0.189 404.087 o
3 3 3 3.163 3.361 0.120 65.223 o
3 3 4 0.514 0.376 0.106 393.318 o
3 3 5 1.154 1.261 0.182 147.540 o
3 3 6 1.748 1.943 0.234 93.644 o
3 3 7 2.531 2.014 0.317 64.629 o
3 4 3 39.244 32.584 0.300 3.306 o
3 4 4 70.715 71.152 0.619 1.191 o
3 4 5 9.405 9.226 0.291 19.053 o
3 4 6 27.950 29.506 0.493 4.632 o
3 4 7 14.324 15.457 0.915 7.940 o
3 5 3 20.075 18.962 0.290 7.861 o
3 5 4 17.085 16.702 0.293 9.497 o
3 5 5 14.642 15.380 0.345 10.941 o
3 5 6 26.206 25.807 0.537 5.142 o
3 6 3 0.394 1.022 0.097 330.070 o
3 6 4 0.376 0.708 0.135 336.523 o
3 6 5 17.661 18.324 0.511 8.245 o
3 6 6 0.341 0.932 0.230 203.510 o
3 7 3 0.574 0.321 0.095 395.590 o
3 7 4 13.272 14.242 0.246 12.619 o
3 7 5 0.337 0.239 0.158 395.450 o
3 7 6 15.772 16.803 0.516 9.268 o
3 8 3 26.454 24.670 0.301 5.477 o
3 8 4 95.205 97.658 0.716 0.720 o
3 8 5 0.764 0.586 0.173 222.060 o
3 8 6 34.036 34.029 0.668 3.501 o
3 9 3 6.777 6.536 0.171 29.252 o
3 9 4 0.000 0.001 0.118 1445.240 o
3 9 5 9.049 9.802 0.347 18.523 o
3 9 6 24.942 25.882 0.593 5.267 o
3 10 3 0.518 0.599 0.123 325.499 o
3 10 4 28.162 29.156 0.396 4.720 o
3 10 5 20.574 20.639 0.489 7.020 o
3 10 6 21.045 20.768 0.594 6.615 o
3 11 3 6.701 7.092 0.215 27.942 o
3 11 4 27.659 27.558 0.446 4.873 o
3 11 5 3.009 1.872 0.291 62.672 o
3 12 3 10.796 10.403 0.321 16.213 o
3 12 4 30.808 30.488 0.486 4.190 o
3 12 5 3.685 3.448 0.278 49.192 o
3 13 3 0.118 0.217 0.159 527.437 o
3 13 4 16.936 16.598 0.378 9.336 o
3 13 5 1.502 1.462 0.345 80.592 o
3 14 3 0.002 -0.055 0.162 757.179 o
3 14 4 27.446 27.108 0.582 4.777 o
3 15 3 9.373 9.898 0.338 18.112 o
3 15 4 11.968 11.926 0.566 12.351 o
3 16 3 1.342 0.961 0.232 126.178 o
3 17 3 2.526 1.783 0.325 65.128 o
4 0 4 0.015 0.036 0.201 473.109 o
4 0 6 0.202 0.454 0.279 195.813 o
4 1 4 7.726 7.378 0.308 23.454 o
4 1 5 1.078 0.510 0.187 179.998 o
4 1 6 29.669 30.846 0.519 4.281 o
4 2 4 9.253 10.111 0.306 18.478 o
4 2 5 1.069 0.528 0.203 170.745 o
4 2 6 13.637 13.751 0.367 11.975 o
4 3 4 40.153 39.424 0.453 2.911 o
4 3 5 4.755 4.189 0.274 39.944 o
4 3 6 53.624 53.316 0.825 1.796 o
4 4 4 2.659 2.940 0.196 70.214 o
4 4 5 0.777 0.649 0.194 199.451 o
4 4 6 0.395 0.335 0.232 233.761 o
4 5 4 13.282 13.808 0.310 12.494 o
4 5 5 1.807 1.841 0.223 95.710 o
4 5 6 1.805 2.007 0.267 84.909 o
4 6 4 39.483 41.290 0.540 2.857 o
4 6 5 1.338 1.163 0.219 126.131 o
4 6 6 69.060 75.014 2.362 0.907 o
4 7 4 21.089 19.854 0.347 7.289 o
4 7 5 5.629 4.510 0.279 34.735 o
4 8 4 24.890 26.830 0.393 5.474 o
4 8 5 0.943 0.994 0.237 144.525 o
4 9 4 48.882 51.247 0.613 2.066 o
4 9 5 11.230 13.103 0.457 13.378 o
4 10 4 23.501 24.363 0.439 5.943 o
4 10 5 2.257 2.164 0.281 72.599 o
4 11 4 0.003 -0.216 0.189 558.957 o
4 11 5 3.623 3.919 0.997 15.001 o
4 12 4 37.016 37.946 0.702 3.065 o
4 13 4 34.674 34.898 0.555 3.486 o
5 0 5 0.310 0.502 0.306 159.920 o
5 1 5 5.634 6.008 0.289 31.496 o
5 2 5 0.000 0.137 0.195 480.273 o
5 3 5 7.083 6.632 0.282 26.303 o
5 4 5 0.503 0.348 0.210 242.911 o
5 5 5 5.453 5.260 0.384 30.330 o
5 6 5 0.003 -0.158 0.324 190.731 o
;
_iucr_refine_instructions_details
;
TITL 
CELL 0.71073 5.0864 11.7732 5.478 90 111.958 90
ZERR 4 0.0044 0.0109 0.0056 0 0.068 0
LATT 1
SYMM 0.5-X,0.5+Y,0.5-Z
SFAC C H N O
UNIT 8 20 4 8

L.S. 4
PLAN  20
CONF
FMAP 2
MORE -1
BOND $H
ACTA
WGHT 0.045706 0.083901
FVAR 1.212142
REM <olex2.extras>
REM <HklSrc "%.\\fk_03479_int_db_v128.hkl">
REM </olex2.extras>

O     4     0.19755  0.59370 -0.23649  11.00000  0.00873  0.01390  0.00717 =
 -0.00124  0.00311 -0.00206
O1    4     0.65506  0.64235 -0.10650  11.00000  0.00797  0.01585  0.01090 =
 0.00137  0.00589 -0.00017
N     3     0.20450  0.58860  0.25950  11.00000  0.00847  0.01190  0.00704 =
 -0.00060  0.00398 -0.00186
Ha    2     0.02923  0.61583  0.14435  11.00000 -1.20000
Hb    2     0.20964  0.51321  0.23025  11.00000 -1.20000
Hc    2     0.21696  0.59813  0.43524  11.00000 -1.20000
C4    1     0.43030  0.62505 -0.06569  11.00000  0.00793  0.00749  0.00723 =
 0.00057  0.00395  0.00064
C5    1     0.44171  0.64573  0.21413  11.00000  0.00763  0.01041  0.00736 =
 -0.00112  0.00380 -0.00138
H5a   2     0.42709  0.72522  0.23406  11.00000 -1.20000
H5b   2     0.62143  0.61878  0.35037  11.00000 -1.20000
HKLF 4

END
Q1 1 0.444444 0.625 0.1 11 0.05 0.47
Q2 1 0.333333 0.6 -0.15 11 0.05 0.46
Q3 1 0.555556 0.625 -0.1 11 0.05 0.4
Q4 1 0.333333 0.625 0.25 11 0.05 0.24
Q5 1 0.166667 0.6 -0.35 11 0.05 0.22

  REM The information below was added by Olex2.
  REM
  REM R1 = 0.0312 for 1614 Fo > 4sig(Fo) and 0.0354 for all 1796 data
  REM 61 parameters refined using 0 restraints
  REM Highest difference peak 0.4708, deepest hole -0.3163
  REM Mean Shift 0.0001, Max Shift -0.0006.

  REM +++ Tabular Listing of Refinement Information +++
  REM R1_all = 0.0354
  REM R1_gt = 0.0312
  REM wR_ref = 0.0899
  REM GOOF = 1.0711
  REM Shift_max = -0.0006
  REM Shift_mean = 0.0001
  REM Reflections_all = 1796
  REM Reflections_gt = 1614
  REM Parameters = 61
  REM Hole = -0.3163
  REM Peak = 0.4708
  REM Flack = n/a

  
;
_olex2_exptl_crystal_mounting_method  'Cryo loop'
_olex2_submission_special_instructions  'No special instructions were received'
