data_fk03416_intdb_v128
_audit_creation_date               2024-03-13
_audit_creation_method
;
Olex2 1.5-alpha
(compiled 2023.11.24 svn.r209d9fb2 for OlexSys, GUI svn.r6869)
;
_audit_contact_author_address      ?
_audit_contact_author_email        ?
_audit_contact_author_name         ''
_audit_contact_author_phone        ?
_publ_contact_author_id_orcid      ?
_publ_section_references
;
Bourhis, L.J., Dolomanov, O.V., Gildea, R.J., Howard, J.A.K., Puschmann, H.
 (2015). Acta Cryst. A71, 59-75.

Dolomanov, O.V., Bourhis, L.J., Gildea, R.J, Howard, J.A.K. & Puschmann, H.
 (2009), J. Appl. Cryst. 42, 339-341.
;
_chemical_name_systematic          '2-Amino-3-(1H-imidazol-4-yl)propanoic acid'
_chemical_formula_moiety           'C6 H9 N3 O2'
_chemical_formula_sum              'C6 H9 N3 O2'
_chemical_formula_weight           155.157
_chemical_absolute_configuration   unk
loop_
  _atom_type_symbol
  _atom_type_scat_dispersion_real
  _atom_type_scat_dispersion_imag
  _atom_type_scat_Cromer_Mann_a1
  _atom_type_scat_Cromer_Mann_a2
  _atom_type_scat_Cromer_Mann_a3
  _atom_type_scat_Cromer_Mann_a4
  _atom_type_scat_Cromer_Mann_b1
  _atom_type_scat_Cromer_Mann_b2
  _atom_type_scat_Cromer_Mann_b3
  _atom_type_scat_Cromer_Mann_b4
  _atom_type_scat_Cromer_Mann_c
  _atom_type_scat_source
  _atom_type_scat_dispersion_source
 C 0.00313 0.00162 2.31000 1.02000 1.58860 0.86500 20.84390 10.20750 0.56870
 51.65120 0.21560 'International Tables Volume C Table 6.1.1.4 (pp. 500-502)'
 'Brennan, Cowan, Rev. Sci. Instrum., 1992, 63, 850'
 H 0.00000 0.00000 0.49300 0.32291 0.14019 0.04081 10.51090 26.12570 3.14236
 57.79970 0.00304 'International Tables Volume C Table 6.1.1.4 (pp. 500-502)'
 'Brennan, Cowan, Rev. Sci. Instrum., 1992, 63, 850'
 N 0.00612 0.00332 12.21260 3.13220 2.01250 1.16630 0.00570 9.89330 28.99750
 0.58260 -11.52900 'International Tables Volume C Table 6.1.1.4 (pp. 500-502)'
 'Brennan, Cowan, Rev. Sci. Instrum., 1992, 63, 850'
 O 0.01085 0.00610 3.04850 2.28680 1.54630 0.86700 13.27710 5.70110 0.32390
 32.90890 0.25080 'International Tables Volume C Table 6.1.1.4 (pp. 500-502)'
 'Brennan, Cowan, Rev. Sci. Instrum., 1992, 63, 850'

_space_group_crystal_system        'monoclinic'
_space_group_IT_number             4
_space_group_name_H-M_alt          'P 1 21 1'
_space_group_name_Hall             ' P 2yb'
loop_
  _space_group_symop_id
  _space_group_symop_operation_xyz
 1 x,y,z
 2 -x,y+1/2,-z

_symmetry_Int_Tables_number        4
_cell_length_a                     5.1533(6)
_cell_length_b                     7.2436(9)
_cell_length_c                     9.4682(11)
_cell_angle_alpha                  90
_cell_angle_beta                   97.235(9)
_cell_angle_gamma                  90
_cell_volume                       350.62(7)
_cell_formula_units_Z              2
_cell_measurement_temperature      100
_exptl_absorpt_coefficient_mu      0.113
_exptl_absorpt_correction_T_max    1
_exptl_absorpt_correction_T_min    1
_exptl_absorpt_correction_type     multi-scan
_exptl_crystal_colour              'clear colourless'
_exptl_crystal_colour_lustre       clear
_exptl_crystal_colour_modifier     .
_exptl_crystal_colour_primary      colourless
_exptl_crystal_density_diffrn      1.470
_exptl_crystal_description         block
_exptl_crystal_F_000               164.127
_exptl_crystal_size_max            0.14
_exptl_crystal_size_mid            0.11
_exptl_crystal_size_min            0.09
_diffrn_reflns_av_R_equivalents    0.0281
_diffrn_reflns_av_unetI/netI       0.0299
_diffrn_reflns_Laue_measured_fraction_full  1.0000
_diffrn_reflns_Laue_measured_fraction_max  1.0000
_diffrn_reflns_limit_h_max         6
_diffrn_reflns_limit_h_min         -8
_diffrn_reflns_limit_k_max         12
_diffrn_reflns_limit_k_min         -12
_diffrn_reflns_limit_l_max         16
_diffrn_reflns_limit_l_min         -16
_diffrn_reflns_number              26031
_diffrn_reflns_point_group_measured_fraction_full  1.0000
_diffrn_reflns_point_group_measured_fraction_max  0.9942
_diffrn_reflns_theta_full          25.2417
_diffrn_reflns_theta_max           37.14
_diffrn_reflns_theta_min           2.17
_diffrn_ambient_temperature        100
_diffrn_detector                   Pilatus200K
_diffrn_detector_area_resol_mean   5.81
_diffrn_detector_type              'DECTRIS PILATUS 200K'
_diffrn_measured_fraction_theta_full  1.0000
_diffrn_measured_fraction_theta_max  1.0000
_diffrn_measurement_device         'Eulerian 4-circle diffractometer'
_diffrn_measurement_device_type    'STOE STADIVARI'
_diffrn_measurement_method         'rotation method, \w scans'
_diffrn_radiation_collimation      '0.6 mm diameter'
_diffrn_radiation_monochromator    'Graded multilayer mirror'
_diffrn_radiation_probe            x-ray
_diffrn_radiation_type             'Mo K\a'
_diffrn_radiation_wavelength       0.71073
_diffrn_source                     'Genix Mo'
_reflns_Friedel_coverage           0.988
_reflns_limit_h_max                8
_reflns_limit_h_min                -8
_reflns_limit_k_max                12
_reflns_limit_k_min                -12
_reflns_limit_l_max                16
_reflns_limit_l_min                -16
_reflns_number_gt                  3227
_reflns_number_total               3581
_reflns_threshold_expression       I>=2u(I)
_computing_molecular_graphics      'Olex2 1.5-alpha (Dolomanov et al., 2009)'
_computing_publication_material    'Olex2 1.5-alpha (Dolomanov et al., 2009)'
_computing_structure_refinement   
 'olex2.refine 1.5-alpha (Bourhis et al., 2015)'
_computing_structure_solution     
 'olex2.solve 1.5-alpha (Bourhis et al., 2015)'
_refine_diff_density_max           0.4300
_refine_diff_density_min           -0.2542
_refine_diff_density_rms           0.0697
_refine_ls_abs_structure_details  
 'Hooft, R.W.W., Straver, L.H., Spek, A.L. (2010). J. Appl. Cryst., 43, 665-668.'
_refine_ls_abs_structure_Flack     0.2(3)
_refine_ls_d_res_high              0.5885
_refine_ls_d_res_low               9.3928
_refine_ls_goodness_of_fit_ref     1.0971
_refine_ls_hydrogen_treatment      refall
_refine_ls_matrix_type             full
_refine_ls_number_constraints      0
_refine_ls_number_parameters       136
_refine_ls_number_reflns           3581
_refine_ls_number_restraints       1
_refine_ls_R_factor_all            0.0481
_refine_ls_R_factor_gt             0.0408
_refine_ls_restrained_S_all        1.0971
_refine_ls_shift/su_max            0.0010
_refine_ls_shift/su_mean           0.0003
_refine_ls_structure_factor_coef   Fsqd
_refine_ls_weighting_details      
 'w=1/[\s^2^(Fo^2^)+(0.0549P)^2^+0.0289P] where P=(Fo^2^+2Fc^2^)/3'
_refine_ls_weighting_scheme        calc
_refine_ls_wR_factor_gt            0.0959
_refine_ls_wR_factor_ref           0.0997
_olex2_refinement_description
;
;
_atom_sites_solution_primary       iterative
loop_
  _atom_site_label
  _atom_site_type_symbol
  _atom_site_fract_x
  _atom_site_fract_y
  _atom_site_fract_z
  _atom_site_U_iso_or_equiv
  _atom_site_adp_type
  _atom_site_occupancy
  _atom_site_refinement_flags_posn
 O1 O 0.68536(13) 0.48787(11) -0.01482(7) 0.01428(14) Uani 1.000000 .
 O2 O 0.25925(14) 0.48262(12) -0.09900(7) 0.01478(14) Uani 1.000000 .
 N2 N 0.12499(15) 0.67111(11) 0.12664(8) 0.01042(14) Uani 1.000000 .
 H2a H 0.003(4) 0.613(3) 0.070(2) 0.030(5) Uiso 1.000000 .
 H2b H 0.062(3) 0.681(3) 0.2087(16) 0.016(4) Uiso 1.000000 .
 H2c H 0.151(3) 0.772(3) 0.096(2) 0.019(4) Uiso 1.000000 .
 N N 0.27889(16) 0.48108(13) 0.61230(8) 0.01223(13) Uani 1.000000 .
 H H 0.309(3) 0.479(3) 0.7044(17) 0.019(4) Uiso 1.000000 .
 N1 N 0.07786(16) 0.55225(12) 0.39859(8) 0.01232(14) Uani 1.000000 .
 C C 0.44695(17) 0.51061(12) -0.00418(9) 0.01007(15) Uani 1.000000 .
 C3 C 0.30132(18) 0.45037(12) 0.38347(9) 0.01035(15) Uani 1.000000 .
 C1 C 0.38046(16) 0.57169(13) 0.14266(9) 0.00924(14) Uani 1.000000 .
 H1 H 0.519(3) 0.661(3) 0.1831(17) 0.020(4) Uiso 1.000000 .
 C4 C 0.36919(19) 0.40177(13) 0.23916(9) 0.01207(15) Uani 1.000000 .
 H4a H 0.542(3) 0.349(3) 0.2414(18) 0.020(4) Uiso 1.000000 .
 H4b H 0.246(4) 0.321(3) 0.201(2) 0.032(5) Uiso 1.000000 .
 C5 C 0.42663(18) 0.40573(14) 0.51552(9) 0.01166(15) Uani 1.000000 .
 H5 H 0.582(3) 0.344(3) 0.5414(17) 0.019(4) Uiso 1.000000 .
 C6 C 0.07374(19) 0.56709(14) 0.53775(10) 0.01311(16) Uani 1.000000 .
 H6 H -0.052(3) 0.633(2) 0.5807(16) 0.017(4) Uiso 1.000000 .

loop_
  _atom_site_aniso_label
  _atom_site_aniso_U_11
  _atom_site_aniso_U_22
  _atom_site_aniso_U_33
  _atom_site_aniso_U_12
  _atom_site_aniso_U_13
  _atom_site_aniso_U_23
 O1 0.0111(3) 0.0172(3) 0.0151(3) -0.0006(3) 0.0038(2) -0.0049(3)
 O2 0.0129(3) 0.0226(3) 0.0087(2) -0.0011(3) 0.0011(2) -0.0028(3)
 N2 0.0113(3) 0.0107(3) 0.0095(3) 0.0016(3) 0.0021(2) 0.0005(2)
 N 0.0154(3) 0.0139(3) 0.0077(3) -0.0006(3) 0.0026(2) -0.0004(3)
 N1 0.0139(3) 0.0144(4) 0.0090(3) 0.0025(3) 0.0032(2) 0.0008(3)
 C 0.0122(3) 0.0100(4) 0.0084(3) -0.0005(3) 0.0029(2) -0.0003(3)
 C3 0.0133(3) 0.0100(4) 0.0079(3) 0.0007(3) 0.0021(3) 0.0011(2)
 C1 0.0091(3) 0.0105(3) 0.0083(3) 0.0007(3) 0.0016(2) -0.0009(3)
 C4 0.0175(4) 0.0104(4) 0.0089(3) 0.0027(3) 0.0041(3) 0.0004(3)
 C5 0.0139(4) 0.0121(4) 0.0091(3) 0.0018(3) 0.0022(3) 0.0003(3)
 C6 0.0147(4) 0.0151(4) 0.0100(3) 0.0009(3) 0.0037(3) 0.0000(3)

loop_
  _geom_bond_atom_site_label_1
  _geom_bond_atom_site_label_2
  _geom_bond_distance
  _geom_bond_site_symmetry_2
  _geom_bond_publ_flag
 O1 C 1.2561(12) . ?
 O2 C 1.2506(11) . ?
 N2 H2a 0.881(19) . ?
 N2 H2b 0.883(15) . ?
 N2 H2c 0.80(2) . ?
 N2 C1 1.4915(12) . ?
 N H 0.866(16) . ?
 N C5 1.3758(12) . ?
 N C6 1.3477(13) . ?
 N1 C3 1.3902(13) . ?
 N1 C6 1.3248(12) . ?
 C C1 1.5382(13) . ?
 C3 C4 1.4945(13) . ?
 C3 C5 1.3717(12) . ?
 C1 H1 1.003(17) . ?
 C1 C4 1.5383(13) . ?
 C4 H4a 0.964(18) . ?
 C4 H4b 0.90(2) . ?
 C5 H5 0.923(18) . ?
 C6 H6 0.938(17) . ?

loop_
  _geom_angle_atom_site_label_1
  _geom_angle_atom_site_label_2
  _geom_angle_atom_site_label_3
  _geom_angle
  _geom_angle_site_symmetry_1
  _geom_angle_site_symmetry_3
  _geom_angle_publ_flag
 H2b N2 H2a 105.1(16) . . ?
 H2c N2 H2a 110.4(18) . . ?
 H2c N2 H2b 110.4(18) . . ?
 C1 N2 H2a 112.7(13) . . ?
 C1 N2 H2b 111.5(11) . . ?
 C1 N2 H2c 106.7(12) . . ?
 C5 N H 128.1(12) . . ?
 C6 N H 124.5(12) . . ?
 C6 N C5 107.34(7) . . ?
 C6 N1 C3 105.23(8) . . ?
 O2 C O1 126.66(9) . . ?
 C1 C O1 116.21(8) . . ?
 C1 C O2 117.08(8) . . ?
 C4 C3 N1 120.76(8) . . ?
 C5 C3 N1 109.41(8) . . ?
 C5 C3 C4 129.81(8) . . ?
 C C1 N2 109.95(7) . . ?
 H1 C1 N2 107.6(10) . . ?
 H1 C1 C 107.6(10) . . ?
 C4 C1 N2 110.36(7) . . ?
 C4 C1 C 109.64(7) . . ?
 C4 C1 H1 111.6(10) . . ?
 C1 C4 C3 112.66(8) . . ?
 H4a C4 C3 113.2(10) . . ?
 H4a C4 C1 103.0(11) . . ?
 H4b C4 C3 106.7(13) . . ?
 H4b C4 C1 110.9(14) . . ?
 H4b C4 H4a 110.5(18) . . ?
 C3 C5 N 106.09(8) . . ?
 H5 C5 N 123.4(10) . . ?
 H5 C5 C3 130.5(10) . . ?
 N1 C6 N 111.94(9) . . ?
 H6 C6 N 123.2(9) . . ?
 H6 C6 N1 124.9(10) . . ?

loop_
  _geom_torsion_atom_site_label_1
  _geom_torsion_atom_site_label_2
  _geom_torsion_atom_site_label_3
  _geom_torsion_atom_site_label_4
  _geom_torsion
  _geom_torsion_site_symmetry_1
  _geom_torsion_site_symmetry_2
  _geom_torsion_site_symmetry_3
  _geom_torsion_site_symmetry_4
  _geom_torsion_publ_flag
 O1 C C1 N2 154.97(9) . . . . ?
 O1 C C1 C4 -83.53(9) . . . . ?
 O2 C C1 N2 -27.40(10) . . . . ?
 O2 C C1 C4 94.10(9) . . . . ?
 N2 C1 C4 C3 -57.88(8) . . . . ?
 N C5 C3 N1 -0.07(9) . . . . ?
 N C5 C3 C4 -178.47(7) . . . . ?
 N C6 N1 C3 -0.21(10) . . . . ?
 N1 C3 C4 C1 53.93(9) . . . . ?
 C C1 C4 C3 -179.14(7) . . . . ?

loop_
  _diffrn_refln_index_h
  _diffrn_refln_index_k
  _diffrn_refln_index_l
  _diffrn_refln_intensity_net
  _diffrn_refln_intensity_u
  _diffrn_refln_scale_group_code
 -8 -5 2 12.48 7.29 0
 -8 -4 -1 8.48 7.35 0
 -8 -4 1 28.16 9.29 0
 -8 -4 2 7.14 6.53 0
 -8 -4 3 42.68 9.11 0
 -8 -4 4 10.43 7.27 0
 -8 -4 5 38.82 8.74 0
 -8 -3 -1 37.68 8.78 0
 -8 -3 0 18.49 7.2 0
 -8 -3 1 17.5 7.08 0
 -8 -3 2 22.15 7.76 0
 -8 -3 3 34.1 8.14 0
 -8 -3 4 30.78 8.84 0
 -8 -3 6 31.14 8.15 0
 -8 -2 -2 52.47 9.18 0
 -8 -2 -1 6.56 6.67 0
 -8 -2 1 7.06 6.09 0
 -8 -2 2 39.67 8.79 0
 -8 -2 4 54.38 9.64 0
 -8 -2 5 42.25 8.47 0
 -8 -2 6 38.59 8.43 0
 -8 -2 7 5.65 6.32 0
 -8 -1 -2 21.84 7.24 0
 -8 -1 -1 13.45 6.59 0
 -8 -1 1 3.3 5.5 0
 -8 -1 2 43.1 8.13 0
 -8 -1 3 4.45 5.74 0
 -8 -1 4 6.53 6.38 0
 -8 -1 5 34.79 8.82 0
 -8 -1 8 2.58 6.08 0
 -8 0 -2 125.29 11.61 0
 -8 0 -1 53.31 9.22 0
 -8 0 0 9.84 6.51 0
 -8 0 1 18.03 6.6 0
 -8 0 3 118.66 11.66 0
 -8 0 4 69.19 9.31 0
 -8 0 6 57.04 9.69 0
 -8 0 8 0.81 5.76 0
 -8 1 -1 10.44 5.69 0
 -8 1 1 -1.16 5.13 0
 -8 1 2 38.7 7.89 0
 -8 1 3 10.85 6.34 0
 -8 1 4 10.74 6.65 0
 -8 1 6 20.91 7.07 0
 -8 1 8 6.31 6.18 0
 -8 2 2 29.05 6.28 0
 -8 2 3 76.83 9.29 0
 -8 2 4 40.53 7.93 0
 -8 2 7 16.6 6.41 0
 -8 3 4 15.87 5.75 0
 -8 3 5 8.72 5.98 0
 -8 3 6 21.22 6.82 0
 -8 3 7 76.55 10.63 0
 -7 -7 0 -4.96 5.75 0
 -7 -7 1 7.72 7.58 0
 -7 -7 3 6.94 7.17 0
 -7 -7 4 3.26 7.33 0
 -7 -6 -1 48.34 9.6 0
 -7 -6 0 107.47 11.7 0
 -7 -6 1 28.43 8.7 0
 -7 -6 2 9.97 6.48 0
 -7 -6 4 18.9 6.86 0
 -7 -6 5 19.45 7.08 0
 -7 -6 6 1.93 6.16 0
 -7 -6 7 20.12 8.05 0
 -7 -5 -1 4.36 7.4 0
 -7 -5 0 0.24 6.39 0
 -7 -5 1 54.89 9.07 0
 -7 -5 2 22.24 7.48 0
 -7 -5 3 14.04 6.54 0
 -7 -5 4 5.31 5.84 0
 -7 -5 5 43.22 8.72 0
 -7 -5 6 14.75 6.79 0
 -7 -5 7 21.47 7.09 0
 -7 -4 -2 29.09 7.96 0
 -7 -4 -1 42.17 8.57 0
 -7 -4 0 142.55 12.88 0
 -7 -4 1 49.81 9.44 0
 -7 -4 2 23.98 7.35 0
 -7 -4 3 56.98 8.79 0
 -7 -4 4 43.87 8.32 0
 -7 -4 5 35.26 7.76 0
 -7 -4 6 1.34 5.34 0
 -7 -4 7 -0.65 6.73 0
 -7 -4 8 65.64 10.41 0
 -7 -4 9 20.04 7.1 0
 -7 -3 -1 29.41 7.62 0
 -7 -3 0 2.59 5.22 0
 -7 -3 1 3.15 6.23 0
 -7 -3 2 -0.4 5.73 0
 -7 -3 3 34.08 7.39 0
 -7 -3 4 28.57 6.82 0
 -7 -3 5 63.03 9.06 0
 -7 -3 6 7.21 5.6 0
 -7 -3 7 36.4 8.16 0
 -7 -3 8 65.57 10.3 0
 -7 -3 9 -1.19 5.48 0
 -7 -3 10 11.85 7.24 0
 -7 -2 -3 35.58 7.8 0
 -7 -2 -2 12.01 5.88 0
 -7 -2 0 24.66 7.27 0
 -7 -2 1 34.01 7.13 0
 -7 -2 3 142.86 11.66 0
 -7 -2 5 32.29 7.26 0
 -7 -2 6 5.64 5.07 0
 -7 -2 7 22.53 6.58 0
 -7 -2 8 12.89 5.97 0
 -7 -2 9 14.75 6.72 0
 -7 -1 -3 8.4 6 0
 -7 -1 -2 0.86 4.76 0
 -7 -1 -1 84.97 10.4 0
 -7 -1 0 63.07 8.53 0
 -7 -1 2 1.95 4.77 0
 -7 -1 3 32.38 6.86 0
 -7 -1 4 20.92 6.24 0
 -7 -1 5 11.07 5.5 0
 -7 -1 6 24.3 6.9 0
 -7 -1 7 58.47 8.68 0
 -7 -1 9 13.15 6.38 0
 -7 -1 10 1.7 6.9 0
 -7 -1 11 19.11 7.85 0
 -7 0 -3 0.84 4.47 0
 -7 0 -1 22.12 6.25 0
 -7 0 1 0.66 4.23 0
 -7 0 2 2.97 4.43 0
 -7 0 3 50.61 7.62 0
 -7 0 4 -0.01 4.25 0
 -7 0 5 8.38 5.31 0
 -7 0 6 82.4 10.01 0
 -7 0 7 5.54 5.86 0
 -7 0 8 26.72 7.38 0
 -7 0 9 12.73 6.77 0
 -7 0 10 22.91 7.47 0
 -7 0 11 51.86 9.51 0
 -7 1 -3 4.63 4.28 0
 -7 1 -2 4.24 4.84 0
 -7 1 -1 80.96 8.56 0
 -7 1 1 7.77 4.78 0
 -7 1 2 5.02 4.31 0
 -7 1 3 23.17 6.12 0
 -7 1 4 27.78 6.41 0
 -7 1 5 11.64 6.05 0
 -7 1 6 35.07 7.07 0
 -7 1 7 56.64 8.88 0
 -7 1 8 2.18 5.37 0
 -7 1 9 14.27 6.35 0
 -7 1 10 3.16 6.84 0
 -7 1 11 20.33 8.38 0
 -7 2 1 28.97 6.08 0
 -7 2 2 96.28 8.58 0
 -7 2 3 125.15 9.83 0
 -7 2 5 31.11 6.4 0
 -7 2 6 5.32 5.32 0
 -7 2 7 28.31 7.56 0
 -7 2 8 11.45 5.94 0
 -7 2 9 9.02 6.46 0
 -7 3 2 2.25 3.21 0
 -7 3 4 33.62 6.44 0
 -7 3 5 53.16 7.53 0
 -7 3 6 12.8 5.92 0
 -7 3 8 73.64 9.62 0
 -7 3 9 0.71 5.37 0
 -7 3 10 5.8 6.42 0
 -7 4 5 28.69 5.74 0
 -7 4 6 8.08 4.63 0
 -7 4 7 4.38 4.91 0
 -7 4 9 29.83 7.95 0
 -7 5 8 40.41 7.82 0
 -6 -8 1 1.23 5.97 0
 -6 -8 2 32.55 8.01 0
 -6 -8 3 19.39 6.83 0
 -6 -8 4 17.49 6.81 0
 -6 -8 5 11.33 7.01 0
 -6 -8 6 -0.94 5.08 0
 -6 -7 0 28.25 7.58 0
 -6 -7 1 34.43 8.59 0
 -6 -7 2 20.49 6.88 0
 -6 -7 3 22.18 7.44 0
 -6 -7 4 0.09 5.72 0
 -6 -7 5 13.07 5.88 0
 -6 -7 6 16.68 6.76 0
 -6 -6 1 99.86 10.1 0
 -6 -6 2 22.22 6.39 0
 -6 -6 3 4.33 5.35 0
 -6 -6 4 25.65 7.43 0
 -6 -6 5 15.8 6.89 0
 -6 -6 7 11.99 6.35 0
 -6 -6 8 0.1 5.46 0
 -6 -6 9 71.33 10.35 0
 -6 -6 10 58.76 9.27 0
 -6 -5 -2 9.02 6.14 0
 -6 -5 -1 30.41 7.45 0
 -6 -5 0 139.74 11.22 0
 -6 -5 1 14.74 5.64 0
 -6 -5 2 3.9 5.03 0
 -6 -5 3 -0.62 4.58 0
 -6 -5 4 100.87 10.13 0
 -6 -5 5 19.16 6.61 0
 -6 -5 7 53.33 8.37 0
 -6 -5 8 112.06 10.5 0
 -6 -5 9 54.61 8.74 0
 -6 -5 11 13.42 7.45 0
 -6 -4 -2 40.22 7.63 0
 -6 -4 -1 1.9 4.78 0
 -6 -4 0 21.51 6.74 0
 -6 -4 2 12.38 5.37 0
 -6 -4 3 19.05 5.48 0
 -6 -4 4 33.76 6.48 0
 -6 -4 5 192.74 12.53 0
 -6 -4 6 19.23 6.08 0
 -6 -4 7 41 7.45 0
 -6 -4 8 23.94 6.76 0
 -6 -4 9 17.31 6.31 0
 -6 -4 10 26.51 8.06 0
 -6 -4 11 3.29 6.24 0
 -6 -3 -3 36.68 7.8 0
 -6 -3 -2 18.52 6.11 0
 -6 -3 -1 65.81 8.64 0
 -6 -3 1 2.38 5.17 0
 -6 -3 4 91.12 8.74 0
 -6 -3 5 28.26 6.64 0
 -6 -3 6 43.94 7.47 0
 -6 -3 7 60.42 8.74 0
 -6 -3 8 26.87 7 0
 -6 -3 10 -0.94 4.86 0
 -6 -3 11 24.52 7.24 0
 -6 -2 -3 13.13 5.36 0
 -6 -2 -2 49 7.36 0
 -6 -2 -1 12.61 4.9 0
 -6 -2 0 57.33 7.88 0
 -6 -2 2 -0.13 3.75 0
 -6 -2 3 37.89 6.37 0
 -6 -2 4 17.09 5.46 0
 -6 -2 5 79.15 8.75 0
 -6 -2 6 18.69 5.76 0
 -6 -2 7 13.1 5.64 0
 -6 -2 9 14.52 6.25 0
 -6 -2 10 10.09 5.88 0
 -6 -2 11 0.54 5.48 0
 -6 -2 12 18.35 7.48 0
 -6 -1 -3 -1.05 4.35 0
 -6 -1 -2 8.2 4.72 0
 -6 -1 -1 52.83 7.14 0
 -6 -1 0 6.34 4.3 0
 -6 -1 1 4.39 4.31 0
 -6 -1 3 69.18 7.33 0
 -6 -1 4 47.51 7.03 0
 -6 -1 6 46.04 7.43 0
 -6 -1 9 17.3 6.68 0
 -6 -1 10 5.77 5.41 0
 -6 -1 11 57.57 10.01 0
 -6 -1 12 8.07 6.71 0
 -6 0 -2 38.8 6.21 0
 -6 0 -1 8.22 4.7 0
 -6 0 3 16.39 4.71 0
 -6 0 5 22.68 5.63 0
 -6 0 6 15.05 5.73 0
 -6 0 7 1.8 4.57 0
 -6 0 8 4.17 4.83 0
 -6 0 9 1 5.93 0
 -6 0 11 16.93 6.46 0
 -6 0 12 23.85 8.02 0
 -6 0 13 -3.33 6.5 0
 -6 1 -3 3.2 4.3 0
 -6 1 -2 7.96 4.63 0
 -6 1 -1 56.77 6.96 0
 -6 1 0 8.19 3.79 0
 -6 1 1 3.68 3.81 0
 -6 1 4 39.11 6.12 0
 -6 1 5 12.27 4.75 0
 -6 1 7 22.78 5.77 0
 -6 1 8 37.9 7.67 0
 -6 1 9 17.44 6.03 0
 -6 1 10 8.17 6.37 0
 -6 1 11 61.09 10 0
 -6 1 12 8.25 6.51 0
 -6 2 2 1.74 3.67 0
 -6 2 3 38.84 5.93 0
 -6 2 4 14.7 4.88 0
 -6 2 5 88.23 8.34 0
 -6 2 6 23.01 6.15 0
 -6 2 7 19.52 5.91 0
 -6 2 8 17.73 6.48 0
 -6 2 9 9.72 5.52 0
 -6 2 10 4.9 6.17 0
 -6 2 12 11.31 6.59 0
 -6 3 2 7.02 3.44 0
 -6 3 3 71.39 6.75 0
 -6 3 5 24.86 5.75 0
 -6 3 6 40.39 6.58 0
 -6 3 7 77.89 9.37 0
 -6 3 8 28.86 6.65 0
 -6 3 9 55.79 8.74 0
 -6 3 10 1.52 5.3 0
 -6 4 4 29.37 5.36 0
 -6 4 5 200.29 10.71 0
 -6 4 7 45.84 7.58 0
 -6 4 8 23.87 6.36 0
 -6 4 9 27.51 7.46 0
 -6 4 11 -0.29 5.77 0
 -6 5 6 4.18 3.99 0
 -6 5 7 38.15 6.66 0
 -6 5 8 105.19 9.84 0
 -6 5 9 42.77 7.38 0
 -6 5 10 4.58 6.27 0
 -6 5 11 10.16 6.34 0
 -6 6 8 -2.67 3.32 0
 -6 6 9 62.17 9.08 0
 -6 6 10 57.48 8.51 0
 -5 -9 3 10.33 5.57 0
 -5 -9 4 7.46 5.61 0
 -5 -9 5 0.31 4.6 0
 -5 -9 6 9.22 5.94 0
 -5 -8 2 10.17 5.81 0
 -5 -8 3 42.97 7.26 0
 -5 -8 4 36.17 7.36 0
 -5 -8 5 1.6 4.41 0
 -5 -8 7 26.52 6.38 0
 -5 -8 8 27.85 6.23 0
 -5 -8 9 17 6.33 0
 -5 -7 0 30.61 7.02 0
 -5 -7 1 84.84 10.13 0
 -5 -7 2 65.25 8.91 0
 -5 -7 3 26.7 6.44 0
 -5 -7 5 9.95 5.7 0
 -5 -7 6 37.95 7.59 0
 -5 -7 7 27.08 6.18 0
 -5 -7 8 1.72 4.61 0
 -5 -7 9 30.04 6.64 0
 -5 -6 -1 32.64 6.98 0
 -5 -6 0 107.86 10.21 0
 -5 -6 3 44.84 7.15 0
 -5 -6 4 11.82 5.66 0
 -5 -6 5 18.81 5.87 0
 -5 -6 6 47.45 7.03 0
 -5 -6 7 26.6 6.87 0
 -5 -6 8 180.91 12.21 0
 -5 -6 9 41.18 7.83 0
 -5 -6 10 8.17 5.06 0
 -5 -6 11 6.34 5.05 0
 -5 -5 -2 38.21 6.66 0
 -5 -5 -1 47.59 7.17 0
 -5 -5 1 128.32 10.18 0
 -5 -5 2 20.99 5.34 0
 -5 -5 3 15.29 5.02 0
 -5 -5 4 11.72 4.75 0
 -5 -5 5 54.32 7.87 0
 -5 -5 6 69.6 8.24 0
 -5 -5 7 7.49 5.36 0
 -5 -5 8 21.51 5.97 0
 -5 -5 9 62.8 8.15 0
 -5 -5 10 31.23 7.33 0
 -5 -5 11 5.14 5.62 0
 -5 -5 12 10.99 6 0
 -5 -4 -2 12.12 5.16 0
 -5 -4 -1 11.4 4.92 0
 -5 -4 0 126.89 9.08 0
 -5 -4 1 144.69 9.26 0
 -5 -4 2 31.33 5.74 0
 -5 -4 3 109.45 8.32 0
 -5 -4 5 14.31 4.79 0
 -5 -4 6 31.71 6.41 0
 -5 -4 7 16.04 5.3 0
 -5 -4 8 88.17 8.88 0
 -5 -4 9 31.13 6.72 0
 -5 -4 10 18.82 5.97 0
 -5 -4 11 18.34 6.29 0
 -5 -4 12 59.42 8.68 0
 -5 -4 13 45.91 8.06 0
 -5 -3 -3 93.72 8.52 0
 -5 -3 2 16.23 4.26 0
 -5 -3 3 3.29 3.22 0
 -5 -3 4 48.21 6.63 0
 -5 -3 5 61.1 7.23 0
 -5 -3 6 5.86 4.2 0
 -5 -3 7 32.56 6.44 0
 -5 -3 8 63.54 8.12 0
 -5 -3 10 19.29 6.71 0
 -5 -3 11 -6.05 5.75 0
 -5 -3 12 5.23 5.58 0
 -5 -2 4 25.73 4.75 0
 -5 -2 6 73.31 7.75 0
 -5 -2 7 7.7 5.11 0
 -5 -2 8 4.13 4.32 0
 -5 -2 11 76.57 9.18 0
 -5 -2 12 3.3 6.08 0
 -5 -2 14 21.79 8.03 0
 -5 -1 5 18.12 4.82 0
 -5 -1 6 17.05 4.37 0
 -5 -1 8 27.45 5.9 0
 -5 -1 9 16.97 5.53 0
 -5 -1 10 82.71 9.07 0
 -5 -1 11 111.47 10.48 0
 -5 -1 12 5.95 6.42 0
 -5 -1 13 30.8 8.43 0
 -5 -1 14 102.7 12.75 0
 -5 0 -1 153.69 8.8 0
 -5 0 0 197.29 9.53 0
 -5 0 6 124.48 8.66 0
 -5 0 7 -1.5 3.31 0
 -5 0 8 -1.34 3.77 0
 -5 0 9 79.33 9.74 0
 -5 0 12 47.68 8.42 0
 -5 0 14 16.13 7.82 0
 -5 1 -2 420.56 12.87 0
 -5 1 -1 22.22 4.3 0
 -5 1 2 73.39 6.27 0
 -5 1 6 23.46 5 0
 -5 1 7 51.49 7 0
 -5 1 8 28.9 5.9 0
 -5 1 9 14.69 5.18 0
 -5 1 10 94.21 9.34 0
 -5 1 11 122.8 11.65 0
 -5 1 12 7.89 6.18 0
 -5 1 13 13.42 6.7 0
 -5 2 -3 74.03 5.64 0
 -5 2 -2 21.37 3.73 0
 -5 2 1 37.6 5.12 0
 -5 2 2 139.5 8.05 0
 -5 2 6 61.74 6.45 0
 -5 2 7 4.76 4.43 0
 -5 2 8 5.11 4.15 0
 -5 2 9 13 5.26 0
 -5 2 10 35.5 7.18 0
 -5 2 12 2.76 5.8 0
 -5 2 13 164.09 13.69 0
 -5 3 -1 97.1 5.9 0
 -5 3 0 233.17 8.7 0
 -5 3 1 20.55 4.03 0
 -5 3 2 17.21 3.52 0
 -5 3 6 0.43 3.16 0
 -5 3 9 12.6 5.48 0
 -5 3 10 14.11 5.8 0
 -5 3 11 0.85 5.41 0
 -5 3 12 8.29 6.44 0
 -5 3 13 36.82 9.4 0
 -5 4 1 134.01 6.64 0
 -5 4 2 30.47 4.3 0
 -5 4 5 14.18 4.36 0
 -5 4 6 30.7 5.5 0
 -5 4 7 16.83 4.91 0
 -5 4 8 89.14 8.56 0
 -5 4 9 24.76 6.95 0
 -5 4 10 10.49 6.24 0
 -5 4 11 22.96 6.92 0
 -5 5 3 14.73 3.34 0
 -5 5 5 49.62 5.75 0
 -5 5 6 63.73 7.52 0
 -5 5 8 12.97 5.77 0
 -5 5 9 49.28 7.65 0
 -5 5 10 26.55 7.07 0
 -5 5 11 2.1 6.26 0
 -5 5 12 9.98 7.4 0
 -5 6 7 29.1 5.91 0
 -5 6 9 36.57 6.99 0
 -5 6 10 2.28 5 0
 -4 -9 3 35.73 6.71 0
 -4 -9 4 3.72 4.62 0
 -4 -8 1 1.93 5.1 0
 -4 -8 3 42.92 6.64 0
 -4 -8 5 16.58 5.51 0
 -4 -8 7 167.86 10.17 0
 -4 -7 0 73.41 8.12 0
 -4 -7 2 75.7 8.07 0
 -4 -7 3 12.07 4.85 0
 -4 -7 4 2.82 4.6 0
 -4 -7 5 39.69 6.09 0
 -4 -7 6 5.5 4.25 0
 -4 -7 9 90.32 8.61 0
 -4 -7 10 31.19 5.9 0
 -4 -6 -1 3.09 4.51 0
 -4 -6 1 7.45 4.27 0
 -4 -6 2 18.88 4.59 0
 -4 -6 3 10.88 4.24 0
 -4 -6 6 34.73 6.09 0
 -4 -6 7 30.26 5.71 0
 -4 -6 8 23.07 5.6 0
 -4 -6 9 12.49 5.31 0
 -4 -6 10 20.19 5.22 0
 -4 -6 12 80.52 8.7 0
 -4 -5 -1 85.53 7.47 0
 -4 -5 5 120.08 8.06 0
 -4 -5 6 57.24 6.4 0
 -4 -5 7 134.4 8.8 0
 -4 -5 8 14.52 4.89 0
 -4 -5 9 144.51 10.04 0
 -4 -5 10 12.94 5.5 0
 -4 -5 11 11.31 5.84 0
 -4 -5 12 10.54 5.27 0
 -4 -5 13 -0.99 4.84 0
 -4 -4 7 62.94 7.13 0
 -4 -4 9 30.07 6.6 0
 -4 -4 11 27.17 6.56 0
 -4 -4 12 12.29 6.08 0
 -4 -4 14 -1.27 5.68 0
 -4 -3 0 22.03 4.54 0
 -4 -3 1 292.99 10.88 0
 -4 -3 2 132.49 7.62 0
 -4 -3 8 42.89 6.33 0
 -4 -3 9 240.89 12.58 0
 -4 -3 10 21.43 5.66 0
 -4 -3 11 2.84 4.57 0
 -4 -3 12 28.87 7.25 0
 -4 -3 13 35.88 7.62 0
 -4 -2 -3 16.68 4.57 0
 -4 -2 -2 52.72 5.88 0
 -4 -2 -1 26.04 4.37 0
 -4 -2 1 59.54 5.23 0
 -4 -2 2 10.14 3.26 0
 -4 -2 3 48.49 5.08 0
 -4 -2 4 329.84 11.71 0
 -4 -2 5 4.92 3.2 0
 -4 -2 8 147.28 9.8 0
 -4 -2 10 121.86 9.88 0
 -4 -2 13 20.02 6.78 0
 -4 -2 14 2.23 5.72 0
 -4 -1 -2 296.87 10.5 0
 -4 -1 -1 1222.72 20.27 0
 -4 -1 0 17.62 3.7 0
 -4 -1 2 86.76 6.12 0
 -4 -1 3 28.08 4.59 0
 -4 -1 5 94.04 7.11 0
 -4 -1 8 11.07 4.59 0
 -4 -1 9 65.25 7.19 0
 -4 -1 10 19.65 5.42 0
 -4 -1 11 8.18 5.1 0
 -4 -1 12 161.86 11.94 0
 -4 -1 14 99.68 10.66 0
 -4 -1 15 -2.53 5.58 0
 -4 0 -2 92.6 6.26 0
 -4 0 -1 12.77 3.56 0
 -4 0 0 37.53 4.17 0
 -4 0 1 7.1 2.92 0
 -4 0 2 1.51 2.35 0
 -4 0 8 12.13 3.87 0
 -4 0 9 -1.38 3.67 0
 -4 0 10 191.49 11.78 0
 -4 0 11 328.87 15.67 0
 -4 0 12 -1.19 4.89 0
 -4 0 13 52.09 8.79 0
 -4 0 14 15.53 7.84 0
 -4 0 15 -2.24 6.66 0
 -4 1 -3 226.39 8.52 0
 -4 1 -2 287.37 9.27 0
 -4 1 -1 1208 18.17 0
 -4 1 0 19.66 3.23 0
 -4 1 2 99.85 5.96 0
 -4 1 3 29.44 4.12 0
 -4 1 4 455.47 12.85 0
 -4 1 5 96.7 6.98 0
 -4 1 15 5.32 6.96 0
 -4 2 -3 12.91 2.74 0
 -4 2 -2 52.64 4.14 0
 -4 2 -1 19.87 3.14 0
 -4 2 0 101.56 5.35 0
 -4 2 2 5.91 2.58 0
 -4 2 4 319.98 10.73 0
 -4 2 5 8.04 3.41 0
 -4 3 -3 216.93 6.88 0
 -4 3 -2 69.74 4.12 0
 -4 3 -1 364.5 8.85 0
 -4 3 1 284.06 8.54 0
 -4 3 2 127.69 6.36 0
 -4 3 3 10.25 3.05 0
 -4 3 4 228.12 9.46 0
 -4 3 5 140.68 7.8 0
 -4 4 -2 8.91 1.77 0
 -4 4 -1 27 2.66 0
 -4 4 0 178.24 6.11 0
 -4 4 1 3.15 1.94 0
 -4 4 2 14.55 2.95 0
 -4 4 3 4.93 2.62 0
 -4 4 4 85.19 6.28 0
 -4 4 5 24.1 4.25 0
 -4 5 1 104.25 4.81 0
 -4 5 2 18.28 2.96 0
 -3 -8 2 41.36 6.15 0
 -3 -8 4 14.64 4.51 0
 -3 -8 5 6.09 3.54 0
 -3 -8 6 4.83 3.47 0
 -3 -7 7 2.72 3.2 0
 -3 -7 8 103.77 7.45 0
 -3 -7 9 62.85 6.4 0
 -3 -6 1 5.31 3.58 0
 -3 -6 2 68.67 6.07 0
 -3 -6 3 244.34 10.23 0
 -3 -6 4 4.51 3.02 0
 -3 -6 8 134.84 8.47 0
 -3 -6 9 9.92 4.32 0
 -3 -6 10 7.14 4.38 0
 -3 -6 11 139.39 9.13 0
 -3 -5 -1 14.07 3.98 0
 -3 -5 1 427.37 12.76 0
 -3 -5 2 16.57 3.75 0
 -3 -5 3 160.91 7.87 0
 -3 -5 4 83.91 6.49 0
 -3 -5 5 141.48 7.86 0
 -3 -5 9 183.02 10.06 0
 -3 -5 10 17.44 4.59 0
 -3 -5 11 18.94 5.18 0
 -3 -4 -2 101.55 7.22 0
 -3 -4 -1 19.79 3.89 0
 -3 -4 1 25.86 4.11 0
 -3 -4 2 65.84 5.46 0
 -3 -4 4 62.53 5.47 0
 -3 -4 5 182.15 8.5 0
 -3 -4 6 95.82 6.45 0
 -3 -4 9 44.28 6.56 0
 -3 -4 10 42.83 6.2 0
 -3 -4 11 48.26 6.88 0
 -3 -4 12 101.38 9.09 0
 -3 -4 13 16.46 5.65 0
 -3 -4 14 13.52 5.66 0
 -3 -3 -3 92.26 6.39 0
 -3 -3 1 5.68 2.51 0
 -3 -3 2 13.79 3.41 0
 -3 -3 3 48.66 4.64 0
 -3 -3 4 744.46 15.48 0
 -3 -3 5 483.99 13.04 0
 -3 -3 9 4.16 3.63 0
 -3 -3 11 11.77 5.17 0
 -3 -3 13 138.64 11.28 0
 -3 -3 14 91.19 9.93 0
 -3 -3 15 46.83 8.48 0
 -3 -2 3 211.9 8.01 0
 -3 -2 5 174.54 7.92 0
 -3 -2 6 14.24 3.68 0
 -3 -2 7 167.33 8.78 0
 -3 -2 9 99.55 7.65 0
 -3 -2 10 -1.93 3.63 0
 -3 -2 11 24.18 6.19 0
 -3 -2 13 48.97 7.8 0
 -3 -2 15 15.96 6.33 0
 -3 -1 0 402.54 9.81 0
 -3 -1 6 202.1 8.78 0
 -3 -1 7 203.02 9.36 0
 -3 -1 15 98.88 12.02 0
 -3 0 -1 570.68 11.38 0
 -3 0 0 509.48 10.57 0
 -3 0 1 467.02 10.15 0
 -3 0 2 222.46 7.6 0
 -3 1 -1 5.83 2 0
 -3 1 0 401.89 8.74 0
 -3 1 1 114.98 5.11 0
 -3 1 2 239.88 7.54 0
 -3 2 -2 7.05 1.86 0
 -3 2 -1 86.36 3.92 0
 -3 2 0 677.39 10.66 0
 -3 2 1 269.24 7.4 0
 -3 3 -2 184.49 5.04 0
 -3 3 -1 20.28 2.1 0
 -3 3 0 178.67 5.4 0
 -3 4 -2 108.08 3.1 0
 -3 4 -1 23.45 1.87 0
 -3 5 -1 21.02 1.27 0
 -3 5 1 424.08 8.27 0
 -3 5 2 18.9 2.7 0
 -3 6 2 74.33 4.12 0
 -2 -8 4 14.83 3.29 0
 -2 -8 5 -0.77 2.31 0
 -2 -7 2 18.06 3.63 0
 -2 -7 3 96.52 6.25 0
 -2 -7 4 174.99 7.7 0
 -2 -7 5 23.19 3.77 0
 -2 -7 7 16.59 3.3 0
 -2 -7 8 62.03 5.31 0
 -2 -6 0 378.7 11.54 0
 -2 -6 1 202.02 8.48 0
 -2 -6 2 4.11 2.79 0
 -2 -6 4 21.48 3.43 0
 -2 -6 5 11.31 3.27 0
 -2 -6 7 17.55 3.44 0
 -2 -6 8 108.82 6.66 0
 -2 -5 -1 500.89 12.9 0
 -2 -5 1 350.05 9.94 0
 -2 -5 2 124.02 6.27 0
 -2 -5 3 307.56 9.19 0
 -2 -5 4 9.62 2.9 0
 -2 -5 6 147.08 6.93 0
 -2 -5 7 28.6 3.95 0
 -2 -5 8 162.05 7.95 0
 -2 -5 11 222.12 10.41 0
 -2 -5 12 6.34 4.09 0
 -2 -4 -1 24.87 3.64 0
 -2 -4 0 731.64 13.77 0
 -2 -4 1 53.34 4.06 0
 -2 -4 2 165.7 6.54 0
 -2 -4 3 13.44 2.87 0
 -2 -4 4 59.38 4.32 0
 -2 -4 5 163.54 6.91 0
 -2 -4 6 192.1 7.87 0
 -2 -4 7 49.76 5.33 0
 -2 -4 8 120.62 7.4 0
 -2 -4 12 2.21 3.9 0
 -2 -4 13 149.85 10.23 0
 -2 -3 -2 64 4.73 0
 -2 -3 -1 572.29 11.81 0
 -2 -3 1 1000.42 14.36 0
 -2 -3 4 216.72 7.43 0
 -2 -3 5 64.73 4.56 0
 -2 -3 7 69.55 5.68 0
 -2 -3 8 29.27 4.44 0
 -2 -3 11 31.83 6.1 0
 -2 -3 12 27.27 5.84 0
 -2 -3 13 33.98 6.79 0
 -2 -3 14 49.41 7.58 0
 -2 -3 15 8.85 5.12 0
 -2 -2 -2 218.42 7.36 0
 -2 -2 -1 130.86 5.42 0
 -2 -2 0 783.42 12.26 0
 -2 -2 2 319.23 7.82 0
 -2 -2 4 314.88 8.47 0
 -2 -1 -2 487.87 10.03 0
 -2 -1 -1 275.34 7.03 0
 -2 -1 0 601 10.05 0
 -2 -1 1 282.11 6.85 0
 -2 -1 2 30.19 3.07 0
 -2 -1 3 214.85 6.82 0
 -2 0 -2 33.09 3.4 0
 -2 0 1 363.83 7.59 0
 -2 0 2 -0.45 1.9 0
 -2 1 -2 481.3 7.86 0
 -2 1 -1 264.29 5.58 0
 -2 1 0 586.32 8.19 0
 -2 1 1 285.44 6.25 0
 -2 2 -2 220.58 4.72 0
 -2 2 -1 129.26 3.54 0
 -2 2 0 802.77 9.11 0
 -2 3 -1 545.22 5.88 0
 -2 3 0 329.77 5.59 0
 -2 4 -1 21.43 0.99 0
 -2 4 0 744.05 7.9 0
 -2 5 0 150.96 3.5 0
 -2 6 0 387.29 5.12 0
 -1 -7 4 149.2 5.48 0
 -1 -6 2 77.86 4.51 0
 -1 -6 4 70.13 4 0
 -1 -6 5 59.55 3.81 0
 -1 -6 6 50.73 3.69 0
 -1 -6 7 101.21 4.95 0
 -1 -6 8 9.53 2.4 0
 -1 -5 1 88.83 4.73 0
 -1 -5 2 250.17 6.81 0
 -1 -5 3 4.76 1.77 0
 -1 -5 4 395.52 8.37 0
 -1 -5 5 19.16 2.59 0
 -1 -5 6 64.15 4.1 0
 -1 -5 7 109.17 5.54 0
 -1 -5 8 90.16 5.46 0
 -1 -5 9 124.66 6.51 0
 -1 -5 10 8.16 3.15 0
 -1 -4 0 161.8 5.63 0
 -1 -4 1 1324.38 14.57 0
 -1 -4 2 385.7 7.88 0
 -1 -4 3 426.17 8.08 0
 -1 -4 4 59.41 3.58 0
 -1 -4 5 21.16 2.7 0
 -1 -4 6 40.18 3.83 0
 -1 -4 7 87.54 5.27 0
 -1 -4 8 6.73 3.01 0
 -1 -4 10 17.52 4.16 0
 -1 -4 12 4.38 4.11 0
 -1 -3 -1 419.83 8.64 0
 -1 -3 0 276.55 6.77 0
 -1 -3 2 339.55 6.85 0
 -1 -3 3 23.19 2.54 0
 -1 -3 4 605.49 9.88 0
 -1 -3 5 36.36 3.07 0
 -1 -3 6 677.7 12.14 0
 -1 -2 -1 1118.54 12.42 0
 -1 -2 1 1919.72 14.12 0
 -1 -2 2 962.57 10.4 0
 -1 -2 3 494.69 8.09 0
 -1 -1 -1 1222.42 11.4 0
 -1 -1 0 5309.49 21.13 0
 -1 -1 1 437.09 6.38 0
 -1 -1 2 21.73 2.16 0
 -1 0 -1 1553.46 10.65 0
 -1 0 1 34.82 2.13 0
 -1 1 -1 1194.82 7.28 0
 -1 1 0 5183.71 15.68 0
 0 -6 5 35.08 1.59 0
 0 -5 3 43.98 2.01 0
 0 -5 4 60.31 2.35 0
 0 -5 5 4.09 1.11 0
 0 -5 6 114.67 3.84 0
 0 -5 7 126.84 4.52 0
 0 -5 9 27.51 3.42 0
 0 -4 3 769.73 7.29 0
 0 -4 4 51.07 2.29 0
 0 -4 5 261.92 5.6 0
 0 -4 6 8.59 1.79 0
 0 -4 7 98.64 4.63 0
 0 -3 4 92.97 3.23 0
 0 -2 2 2003.29 9.7 0
 1 -4 5 163.46 2.97 0
 -5 1 -11 22.55 6.71 0
 -5 1 -10 162.18 11.07 0
 -5 1 -9 24.1 5.67 0
 -5 1 -8 19.11 5.15 0
 -5 1 -7 15.61 4.67 0
 -5 1 -6 4.35 3.52 0
 -5 1 -4 15.98 3.03 0
 -5 2 -11 -2.02 4.37 0
 -5 2 -10 44.52 7.29 0
 -5 2 -9 20.58 6.03 0
 -5 2 -8 31.6 6.06 0
 -5 2 -6 11.42 3.86 0
 -5 2 -4 20.33 3.07 0
 -5 2 -2 23.39 2.3 0
 -5 3 -11 42.02 7.59 0
 -5 3 -10 80.91 9.71 0
 -5 3 -8 63.07 7.29 0
 -5 3 -7 40.63 5.85 0
 -5 3 -6 89.65 6.58 0
 -5 3 -4 0.23 1.87 0
 -5 3 -3 76.04 4.52 0
 -5 4 -9 -0.85 4.04 0
 -5 4 -8 43.73 6.62 0
 -5 4 -7 87.82 7.43 0
 -5 4 -6 2.73 3.02 0
 -5 4 -5 22.11 3.98 0
 -5 4 -3 1.87 1.72 0
 -5 5 -9 42.46 7.05 0
 -5 5 -8 16.42 4.93 0
 -5 5 -7 19.34 4.77 0
 -5 5 -6 17.41 4.19 0
 -5 5 -5 50.07 5.16 0
 -5 5 -4 6.76 2.84 0
 -5 6 -9 22.65 6.63 0
 -5 6 -8 21.12 5.33 0
 -5 6 -7 49.51 6.43 0
 -5 6 -6 2.36 3.33 0
 -5 6 -5 12.54 3.56 0
 -5 7 -8 37.57 6.79 0
 -5 7 -7 1.61 3.76 0
 -4 0 -12 7.81 5.38 0
 -4 0 -11 18.85 6.32 0
 -4 0 -10 67.16 8.37 0
 -4 0 -9 12.11 4.99 0
 -4 0 -8 94.6 7.79 0
 -4 0 -7 22.26 4.75 0
 -4 0 -5 0.22 2.4 0
 -4 0 -4 10.34 2.65 0
 -4 0 -3 70.85 4.25 0
 -4 1 -12 24.69 6.74 0
 -4 1 -11 16.36 5.97 0
 -4 1 -10 15.66 5.37 0
 -4 1 -8 12.8 4.42 0
 -4 1 -7 24.97 4.69 0
 -4 1 -5 49.33 4.74 0
 -4 1 -4 350.28 9.76 0
 -4 1 -3 227.09 7.08 0
 -4 1 -1 1215.44 11.58 0
 -4 2 -13 18.27 7.02 0
 -4 2 -12 8.52 6.25 0
 -4 2 -11 11.82 5.8 0
 -4 2 -9 30.86 5.98 0
 -4 2 -7 3.3 3.42 0
 -4 2 -4 193.57 7.4 0
 -4 2 -3 15.2 2.53 0
 -4 2 0 98.95 2.71 0
 -4 3 -12 34.67 7.75 0
 -4 3 -11 27.08 6.5 0
 -4 3 -10 14.6 5.42 0
 -4 3 -8 40.43 6.29 0
 -4 3 -7 16.26 4.2 0
 -4 3 -4 294.07 9.19 0
 -4 3 -3 219.47 7.25 0
 -4 3 -2 69.42 3.9 0
 -4 3 0 25.92 1.92 0
 -4 3 1 275.21 4.15 0
 -4 4 -12 11.84 6.09 0
 -4 4 -11 0.15 4.66 0
 -4 4 -10 17.2 5.29 0
 -4 4 -9 100.43 9.06 0
 -4 4 -8 13.32 4.85 0
 -4 4 -7 26.49 5.08 0
 -4 4 -6 54.14 5.87 0
 -4 4 -3 8.73 2.75 0
 -4 4 -2 7.44 2.16 0
 -4 4 1 2.7 1.22 0
 -4 5 -11 97.92 10.48 0
 -4 5 -10 12.81 6.47 0
 -4 5 -9 20.82 6.09 0
 -4 5 -8 38.36 6.2 0
 -4 5 -7 15.48 4.39 0
 -4 5 -6 6.17 3.54 0
 -4 5 -5 17.38 4.36 0
 -4 5 -3 260.93 9.08 0
 -4 5 -2 68.43 4.97 0
 -4 6 -10 18.95 6.95 0
 -4 6 -9 20.25 5.93 0
 -4 6 -8 29.29 5.78 0
 -4 6 -7 43.04 6.8 0
 -4 6 -6 4.17 3.82 0
 -4 6 -5 3.08 3.31 0
 -4 6 -4 24.42 4.78 0
 -4 7 -9 -1.64 4.14 0
 -4 7 -8 13.21 5.32 0
 -4 7 -7 29.69 6.18 0
 -4 7 -6 7.42 4.13 0
 -4 7 -5 59.79 7.01 0
 -4 7 -4 35.81 5.77 0
 -4 7 -3 86.67 6.86 0
 -4 7 -2 35.04 5.01 0
 -4 8 -8 36.65 7.47 0
 -4 8 -7 8.59 4.68 0
 -4 8 -4 61.8 7.68 0
 -4 8 -3 1.83 3.61 0
 -4 9 -7 2.2 4.79 0
 -4 9 -4 13.7 5.56 0
 -4 10 -4 30.78 6.58 0
 -4 10 -3 44.87 7.38 0
 -3 -1 -11 73.76 8.11 0
 -3 -1 -10 36.33 6.56 0
 -3 -1 -9 20.64 5.18 0
 -3 -1 -8 29.32 5.35 0
 -3 -1 -6 132.33 7.46 0
 -3 -1 -5 4.66 2.71 0
 -3 -1 -4 249.78 8.19 0
 -3 0 -14 10.21 6.12 0
 -3 0 -13 40.98 7.94 0
 -3 0 -12 -0.34 4.41 0
 -3 0 -11 0.86 4.27 0
 -3 0 -10 45.19 7.21 0
 -3 0 -9 2.79 3.66 0
 -3 0 -8 1.59 3.06 0
 -3 0 -6 7.4 3.19 0
 -3 0 -5 438.46 11.33 0
 -3 0 -4 1.15 2.1 0
 -3 0 -2 61.48 3.36 0
 -3 1 -14 25.1 8.37 0
 -3 1 -13 4.01 5.44 0
 -3 1 -12 21.41 6.44 0
 -3 1 -11 57.64 8.49 0
 -3 1 -10 35.88 6.64 0
 -3 1 -9 18.72 5.23 0
 -3 1 -8 28.24 5.2 0
 -3 1 -6 148.28 7.61 0
 -3 1 -5 7.3 2.71 0
 -3 1 -4 265.31 7.89 0
 -3 1 -3 138.26 5.3 0
 -3 1 -2 74.09 3.45 0
 -3 1 0 409.01 4.84 0
 -3 2 -14 70.3 10.52 0
 -3 2 -13 -5.64 4.7 0
 -3 2 -12 25.2 6.8 0
 -3 2 -11 5.07 4.99 0
 -3 2 -10 3.57 3.99 0
 -3 2 -9 38.74 6.01 0
 -3 2 -6 30.9 4.43 0
 -3 2 -5 105.04 6.19 0
 -3 2 -4 68.18 4.47 0
 -3 2 -3 116.64 5.03 0
 -3 2 -2 9.16 1.96 0
 -3 2 0 677.72 7.21 0
 -3 2 1 267.21 3.56 0
 -3 3 -13 6.74 5.58 0
 -3 3 -12 16.35 6.06 0
 -3 3 -11 4.4 4.59 0
 -3 3 -10 12.01 4.57 0
 -3 3 -9 12.37 4.47 0
 -3 3 -8 31.51 5.29 0
 -3 3 -7 67.93 6.17 0
 -3 3 -5 15.28 3.41 0
 -3 3 -3 90.01 5.05 0
 -3 3 -2 178.04 5.99 0
 -3 3 -1 17.48 2.32 0
 -3 4 -13 40.92 8.8 0
 -3 4 -12 5.88 5.52 0
 -3 4 -11 33.05 7 0
 -3 4 -10 99.26 9.46 0
 -3 4 -9 4.89 3.92 0
 -3 4 -8 119.77 8.51 0
 -3 4 -7 40.34 5.48 0
 -3 4 -4 15.74 3.37 0
 -3 4 -3 175.73 7.24 0
 -3 5 -12 6.15 5.33 0
 -3 5 -11 6.04 5.48 0
 -3 5 -9 10.99 4.92 0
 -3 5 -8 37.85 6.42 0
 -3 5 -6 74.46 6.58 0
 -3 5 -3 66.57 5.78 0
 -3 6 -12 15.09 6.44 0
 -3 6 -11 21.87 7.59 0
 -3 6 -9 8.88 4.86 0
 -3 6 -8 85.14 8.63 0
 -3 6 -7 5.27 4.17 0
 -3 6 -6 71.23 6.95 0
 -3 6 -5 0.08 3.4 0
 -3 6 -4 28.34 4.72 0
 -3 7 -10 26.15 7.21 0
 -3 7 -9 4.28 5.07 0
 -3 7 -7 19.65 5.56 0
 -3 7 -6 5.65 4.73 0
 -3 7 -5 70.24 7.04 0
 -3 8 -9 1.7 5.07 0
 -3 8 -8 73.42 9.32 0
 -3 8 -7 -1.12 3.9 0
 -3 8 -6 18.63 5.51 0
 -3 8 -5 18.7 5.51 0
 -3 9 -8 18.2 6.53 0
 -3 9 -7 27.88 7.09 0
 -3 9 -6 0.63 4.55 0
 -3 9 -5 28.94 6.23 0
 -3 10 -6 18.07 6.39 0
 -2 -2 -9 111.12 7.95 0
 -2 -2 -8 33.23 4.86 0
 -2 -1 -13 2.41 5.46 0
 -2 -1 -12 13.07 5.29 0
 -2 -1 -11 31.16 6.17 0
 -2 -1 -10 21.73 5.1 0
 -2 -1 -9 7.14 4.26 0
 -2 -1 -6 22.2 3.72 0
 -2 -1 -5 23.84 3.43 0
 -2 0 -14 208.75 14.71 0
 -2 0 -13 8.37 5.67 0
 -2 0 -12 12.22 5.48 0
 -2 0 -11 82.83 8.27 0
 -2 0 -10 20.42 5.03 0
 -2 0 -7 112.5 6.87 0
 -2 0 -6 153.53 7.05 0
 -2 0 -5 43.25 3.89 0
 -2 0 -4 381.98 8.84 0
 -2 0 -3 732.38 10.96 0
 -2 0 -2 34.79 2.59 0
 -2 0 -1 275.51 4.95 0
 -2 1 -15 11.03 8.01 0
 -2 1 -13 2.91 5.33 0
 -2 1 -12 18.07 6.31 0
 -2 1 -10 21.01 5.3 0
 -2 1 -9 8.91 3.95 0
 -2 1 -6 19.01 3.33 0
 -2 1 -5 23.41 3.39 0
 -2 1 -2 492.75 7.76 0
 -2 1 0 585.41 5.09 0
 -2 2 -14 55.59 9.61 0
 -2 2 -12 18.47 6.39 0
 -2 2 -11 14.71 5.11 0
 -2 2 -10 18.03 4.94 0
 -2 2 -9 115.6 7.91 0
 -2 2 -8 27.74 4.5 0
 -2 2 -5 63.99 4.83 0
 -2 2 -3 88.82 4.44 0
 -2 2 -2 217.24 5.83 0
 -2 3 -13 48.3 8.89 0
 -2 3 -11 35.21 6.34 0
 -2 3 -9 14.95 4.31 0
 -2 3 -8 54.38 6.15 0
 -2 3 -6 17.68 3.87 0
 -2 3 -5 34.73 4.07 0
 -2 3 -4 315.78 9.07 0
 -2 3 -3 411.89 9.5 0
 -2 4 -13 4.26 5.76 0
 -2 4 -12 27.44 6.73 0
 -2 4 -11 27.7 6.66 0
 -2 4 -9 43.27 6.1 0
 -2 4 -8 7.24 3.53 0
 -2 4 -7 166.75 8.87 0
 -2 4 -5 10.1 3.57 0
 -2 4 -4 195.84 7.9 0
 -2 5 -13 10.51 7.07 0
 -2 5 -12 15.53 6.26 0
 -2 5 -11 3.4 4.51 0
 -2 5 -10 46.83 7.01 0
 -2 5 -9 40.1 6.8 0
 -2 5 -7 100.14 7.95 0
 -2 5 -6 15.81 4 0
 -2 6 -12 16.62 6.48 0
 -2 6 -10 96.95 9.87 0
 -2 6 -9 17.86 5.27 0
 -2 6 -8 16.26 5.06 0
 -2 6 -7 75.15 7.66 0
 -2 7 -12 47.59 8.45 0
 -2 7 -11 6.2 5.44 0
 -2 7 -10 47.67 8.12 0
 -2 7 -9 23.73 5.89 0
 -2 7 -8 19.08 6.14 0
 -2 7 -7 2.08 3.79 0
 -2 8 -11 8.17 6.76 0
 -2 8 -8 19.95 6.19 0
 -2 8 -7 16.39 5.69 0
 -2 8 -6 43.59 7.2 0
 -2 9 -9 18.46 7.53 0
 -2 9 -8 8.96 5.88 0
 -2 9 -7 3.05 5.05 0
 -2 10 -8 25.21 7.96 0
 -2 10 -7 40.45 8.34 0
 -1 -2 -11 17.93 5.34 0
 -1 -2 -10 37.4 6.19 0
 -1 -2 -9 103.88 8.03 0
 -1 -2 -7 192.89 8.78 0
 -1 -2 -6 459.74 11.89 0
 -1 -2 -5 82.82 4.85 0
 -1 -1 -14 105.11 11.22 0
 -1 -1 -12 8.82 4.98 0
 -1 -1 -11 40.09 6.8 0
 -1 -1 -10 60.09 6.5 0
 -1 -1 -9 66.53 6.82 0
 -1 -1 -6 163.52 7.04 0
 -1 -1 -5 79.92 5.11 0
 -1 -1 -4 961.06 13.46 0
 -1 -1 -3 57.45 3.43 0
 -1 -1 -2 263.23 5.65 0
 -1 0 -14 39.59 7.69 0
 -1 0 -13 -3.71 5.2 0
 -1 0 -12 13.9 5.13 0
 -1 0 -11 5.36 4.19 0
 -1 0 -10 139.9 9.16 0
 -1 0 -7 0.66 2.3 0
 -1 0 -6 449.02 10.85 0
 -1 0 -5 3.6 1.94 0
 -1 0 -4 344.87 7.73 0
 -1 0 -2 104.02 3.31 0
 -1 0 -1 1555.39 9.18 0
 -1 1 -15 15.35 6.77 0
 -1 1 -14 112.65 10.61 0
 -1 1 -13 183.07 12.4 0
 -1 1 -12 8.9 5.11 0
 -1 1 -10 53.67 5.84 0
 -1 1 -9 64.73 5.82 0
 -1 1 -5 81.1 4.84 0
 -1 1 -4 949.54 12.89 0
 -1 1 -2 268.27 5.52 0
 -1 2 -15 2.04 6.05 0
 -1 2 -13 6 5.7 0
 -1 2 -12 -0.16 3.61 0
 -1 2 -11 24.41 5.38 0
 -1 2 -10 31.08 5.58 0
 -1 2 -7 180.4 7.91 0
 -1 2 -6 456.51 11.49 0
 -1 2 -4 32.24 3.22 0
 -1 2 -3 571.36 9.94 0
 -1 3 -15 -1.95 5.03 0
 -1 3 -14 44.61 8.82 0
 -1 3 -13 118.11 10.17 0
 -1 3 -12 -1.16 4.37 0
 -1 3 -11 22.98 5.3 0
 -1 3 -10 60.1 6.84 0
 -1 3 -9 98.25 7.57 0
 -1 4 -14 25.57 7.22 0
 -1 4 -13 8.19 5.74 0
 -1 4 -12 3.54 4.75 0
 -1 4 -11 35.83 6.48 0
 -1 4 -10 49.68 7.16 0
 -1 4 -9 56.43 6.91 0
 -1 4 -8 47.26 5.87 0
 -1 5 -14 5.28 6.17 0
 -1 5 -13 21.7 6.81 0
 -1 5 -12 16.03 5.71 0
 -1 5 -10 179.73 11.37 0
 -1 5 -9 32.5 5.9 0
 -1 5 -8 3.83 4 0
 -1 5 -7 14.55 4.13 0
 -1 6 -13 8.04 6.03 0
 -1 6 -11 95.21 9.45 0
 -1 6 -10 46.97 7.2 0
 -1 6 -9 28.95 6.03 0
 -1 6 -8 12.42 5.21 0
 -1 6 -7 231.07 11.63 0
 -1 7 -12 -3.32 5.24 0
 -1 7 -11 3.94 5.49 0
 -1 7 -9 89.83 9.12 0
 -1 7 -8 18.61 5.7 0
 -1 7 -7 6.65 4.96 0
 -1 8 -11 4.7 6.05 0
 -1 8 -10 28.46 7.24 0
 -1 8 -8 2.53 4.92 0
 -1 9 -9 46.82 8.75 0
 -1 9 -8 16.5 7.37 0
 -1 10 -8 22.23 8.05 0
 0 -2 -11 37.99 6.59 0
 0 -2 -10 214.63 11.05 0
 0 -2 -8 342.55 11.49 0
 0 -2 -7 269.6 9.59 0
 0 -2 -6 9.93 3 0
 0 -2 -5 484.21 10.27 0
 0 -1 -14 43.99 8.3 0
 0 -1 -13 92.25 9.03 0
 0 -1 -12 126.55 9.6 0
 0 -1 -10 31.9 5.75 0
 0 -1 -8 132.38 7.4 0
 0 -1 -7 205.34 8.03 0
 0 -1 -6 139.22 6.14 0
 0 -1 -5 536.11 10.43 0
 0 -1 -4 240.42 6.46 0
 0 -1 -3 1074.07 11.32 0
 0 -1 -2 473.13 6.36 0
 0 0 -15 61.03 10.05 0
 0 0 -12 1.24 4.47 0
 0 0 -10 174.28 9.55 0
 0 0 -4 249.4 6.13 0
 0 0 -3 28.87 2.51 0
 0 0 -2 2924.61 13.76 0
 0 1 -15 19.72 7.27 0
 0 1 -14 46.75 8.75 0
 0 1 -13 89.78 9.55 0
 0 1 -12 122.5 9.71 0
 0 1 -11 139.55 9.54 0
 0 1 -10 27.42 4.8 0
 0 1 -8 128.97 7 0
 0 1 -7 204.94 7.79 0
 0 1 -6 123.56 5.73 0
 0 1 -5 535.66 10.29 0
 0 1 -3 1067.96 11.33 0
 0 2 -13 188.46 12 0
 0 2 -12 43.73 6.72 0
 0 2 -11 45.29 6.32 0
 0 2 -10 199.07 10.18 0
 0 2 -7 264.88 9.12 0
 0 2 -6 14.35 2.91 0
 0 2 -5 483.86 10.48 0
 0 3 -15 45.27 8.8 0
 0 3 -14 44.26 7.99 0
 0 3 -13 18.76 6.72 0
 0 3 -12 54.36 7.48 0
 0 3 -11 68.27 7.2 0
 0 3 -10 50.33 6.34 0
 0 3 -9 35.96 5.49 0
 0 4 -15 42.19 8.88 0
 0 4 -14 15.68 6.41 0
 0 4 -13 34.82 7.84 0
 0 4 -12 0.63 5.06 0
 0 4 -11 118.37 9.79 0
 0 4 -10 227.37 11.46 0
 0 4 -9 4.18 3.83 0
 0 4 -8 131.36 8.52 0
 0 5 -13 55.07 8.46 0
 0 5 -12 14.91 5.62 0
 0 5 -11 2.69 4.29 0
 0 5 -10 34.39 6.18 0
 0 5 -9 27.06 5.92 0
 0 5 -8 69.88 7.06 0
 0 5 -7 116.66 7.69 0
 0 6 -12 5.48 5.18 0
 0 6 -11 59.27 8.11 0
 0 6 -10 143.27 10.76 0
 0 6 -9 48.79 7.27 0
 0 7 -13 11.41 6.65 0
 0 7 -12 4.83 5.61 0
 0 7 -11 9.29 6.37 0
 0 7 -10 55 8.29 0
 0 7 -9 -0.06 4.64 0
 0 7 -8 101.21 9.69 0
 0 8 -12 39.98 9.07 0
 0 8 -11 60.64 9.46 0
 0 8 -10 30.88 7.51 0
 0 8 -9 41.37 7.84 0
 0 8 -8 1.77 5.06 0
 0 9 -10 4.62 5.68 0
 0 10 -9 19.64 7.76 0
 0 10 -8 34.71 8.28 0
 1 -2 -11 12.99 4.18 0
 1 -2 -10 8.07 3.45 0
 1 -2 -8 101.9 6.48 0
 1 -2 -7 46.3 4.27 0
 1 -2 -6 209.66 7.2 0
 1 -1 -14 16.96 6.26 0
 1 -1 -13 2.41 4.34 0
 1 -1 -12 33.57 5.87 0
 1 -1 -11 92.22 7.54 0
 1 -1 -8 54.38 5.34 0
 1 -1 -7 351.57 9.77 0
 1 -1 -6 671.7 11.92 0
 1 -1 -5 19.39 2.62 0
 1 -1 -4 2291.38 17.04 0
 1 -1 -3 1123.62 10.03 0
 1 0 -16 1.54 5.31 0
 1 0 -15 12.36 5.97 0
 1 0 -13 79.37 8.72 0
 1 0 -12 177.86 10.54 0
 1 0 -11 4.83 4.06 0
 1 0 -8 8.01 2.86 0
 1 0 -7 1.06 2.03 0
 1 0 -6 54.16 4.09 0
 1 0 -4 1451.28 12.93 0
 1 0 -3 301 5.07 0
 1 0 -2 15.88 1.19 0
 1 1 -16 2.96 5.43 0
 1 1 -15 58.06 9.06 0
 1 1 -14 15.38 5.77 0
 1 1 -13 4.02 4.7 0
 1 1 -12 33.37 6.31 0
 1 1 -11 106.25 8.02 0
 1 1 -10 63.72 5.97 0
 1 1 -8 52.08 4.68 0
 1 1 -6 690.57 12.17 0
 1 1 -4 2271.56 17.67 0
 1 2 -15 16.33 6.05 0
 1 2 -14 126.14 11.2 0
 1 2 -13 6.85 4.53 0
 1 2 -12 37.84 6.53 0
 1 2 -11 16.7 4.76 0
 1 2 -10 17.94 4.25 0
 1 2 -8 105.27 6.34 0
 1 2 -6 222.46 7.61 0
 1 3 -15 93.69 11.12 0
 1 3 -14 92.88 9.61 0
 1 3 -13 7.67 4.86 0
 1 3 -11 20.95 4.96 0
 1 3 -10 90.96 7.25 0
 1 3 -6 700.98 14.2 0
 1 4 -15 18 6.55 0
 1 4 -14 106.04 10.12 0
 1 4 -13 55.88 8.1 0
 1 4 -12 1.99 4.28 0
 1 4 -11 26.43 5.76 0
 1 4 -10 20.76 4.78 0
 1 4 -9 93.01 7.27 0
 1 5 -14 46.05 8.46 0
 1 5 -13 14.52 6.51 0
 1 5 -12 26.45 6.59 0
 1 5 -11 17.78 5.94 0
 1 5 -10 6.85 4.3 0
 1 5 -9 123.74 9.02 0
 1 6 -14 26.34 7.04 0
 1 6 -13 28.03 7.4 0
 1 6 -12 20.77 6.04 0
 1 6 -11 49.36 8.18 0
 1 6 -10 23.77 5.88 0
 1 6 -8 10.02 4.66 0
 1 7 -13 7.48 6.79 0
 1 7 -12 21.44 6.56 0
 1 7 -11 74.4 9.82 0
 1 7 -10 5.12 5.6 0
 1 7 -9 46.1 7.53 0
 1 8 -11 33.04 7.72 0
 1 8 -10 12.57 6.42 0
 1 8 -9 16.71 6.5 0
 1 9 -10 10.77 7.26 0
 1 9 -9 -1.62 4.83 0
 1 10 -9 47.13 9.18 0
 2 -1 -14 44.49 6.73 0
 2 -1 -13 94.43 8.84 0
 2 -1 -11 14.28 4.01 0
 2 -1 -9 114.42 6.59 0
 2 -1 -8 142.15 6.48 0
 2 -1 -6 83.1 4.24 0
 2 -1 -4 92.2 3.27 0
 2 0 -16 12.99 6.04 0
 2 0 -14 22.26 6.63 0
 2 0 -13 3.62 4.38 0
 2 0 -12 10.83 4.26 0
 2 0 -9 62.12 5.49 0
 2 0 -8 26.79 3.64 0
 2 0 -7 43.11 3.93 0
 2 0 -6 60.01 3.54 0
 2 0 -4 634.5 7.71 0
 2 0 -3 1.59 0.81 0
 2 1 -15 19.32 6.35 0
 2 1 -14 45.89 7.74 0
 2 1 -13 80.92 8.5 0
 2 1 -12 53.02 6.59 0
 2 1 -8 142.9 6.57 0
 2 1 -7 360.44 9.35 0
 2 1 -6 79.14 4.41 0
 2 1 -5 45.16 3.29 0
 2 1 -4 94.44 3.63 0
 2 2 -15 48.5 8.59 0
 2 2 -14 7.13 4.75 0
 2 2 -13 32.24 6.36 0
 2 2 -12 6.53 4.34 0
 2 2 -11 9.56 3.86 0
 2 2 -7 153.15 6.64 0
 2 2 -6 225.73 7.47 0
 2 3 -15 6.95 5.45 0
 2 3 -14 51.24 8 0
 2 3 -13 38 6.66 0
 2 3 -12 21.9 5.24 0
 2 3 -11 20.05 4.83 0
 2 3 -10 21.78 4.57 0
 2 3 -8 27.25 4.34 0
 2 3 -7 71.57 5.51 0
 2 4 -15 1.25 4.72 0
 2 4 -14 56.68 7.98 0
 2 4 -13 151.92 11.03 0
 2 4 -12 3.63 3.89 0
 2 4 -11 33.33 6.09 0
 2 4 -10 42.18 5.86 0
 2 4 -9 85.19 7.21 0
 2 5 -14 24.57 6.63 0
 2 5 -12 11.53 5.31 0
 2 5 -11 209.26 11.86 0
 2 5 -10 22.47 5.49 0
 2 5 -9 38.15 6.18 0
 2 5 -8 178.74 9.86 0
 2 6 -12 7.18 5.33 0
 2 6 -10 30.36 6.62 0
 2 6 -9 82.87 8.11 0
 2 7 -13 12.44 6.22 0
 2 7 -12 29.05 7.1 0
 2 7 -11 109.91 10.81 0
 2 7 -10 5.42 5.32 0
 2 7 -9 15.04 5.54 0
 2 8 -11 59.17 9.26 0
 2 8 -10 61.08 8.94 0
 2 8 -9 5.66 5.12 0
 2 9 -10 1.92 6.28 0
 2 10 -9 6.44 6.12 0
 3 -1 -12 124.31 8.13 0
 3 -1 -9 17.3 3.23 0
 3 -1 -8 47.41 3.82 0
 3 -1 -7 210.88 6.37 0
 3 -1 -6 190.36 5.21 0
 3 0 -15 28.77 6.16 0
 3 0 -14 17 5.39 0
 3 0 -13 70.21 7.21 0
 3 0 -11 0.68 2.65 0
 3 0 -9 102.06 6.02 0
 3 0 -8 132.28 5.97 0
 3 0 -7 644.72 10.93 0
 3 0 -6 7.8 1.72 0
 3 0 -5 1.2 1.04 0
 3 0 -4 5.94 0.94 0
 3 1 -14 23.14 5.44 0
 3 1 -13 22.84 5.15 0
 3 1 -11 1.94 3.09 0
 3 1 -7 224.22 6.99 0
 3 1 -6 200.81 5.93 0
 3 1 -5 56.48 2.98 0
 3 1 -4 853.25 9.35 0
 3 2 -15 20.76 6.3 0
 3 2 -14 17.12 4.93 0
 3 2 -12 62.1 7.19 0
 3 2 -9 91.73 5.96 0
 3 2 -8 103.24 5.78 0
 3 2 -7 154.76 6.35 0
 3 3 -15 48.62 8.13 0
 3 3 -13 134.28 9.86 0
 3 3 -12 100.9 8.38 0
 3 3 -11 17.32 4.39 0
 3 3 -10 6.63 3.5 0
 3 4 -14 11.15 5.14 0
 3 4 -13 20.22 5.47 0
 3 4 -12 83.72 8.17 0
 3 4 -11 43.94 6.51 0
 3 5 -14 52.81 8.59 0
 3 5 -13 74 9.14 0
 3 5 -12 3.15 4.17 0
 3 5 -11 19.84 5.23 0
 3 5 -10 21.99 5.04 0
 3 5 -8 2.51 3.96 0
 3 6 -13 10.7 6.11 0
 3 6 -12 5.3 4.8 0
 3 6 -11 136.81 10.26 0
 3 6 -10 6.58 4.81 0
 3 6 -9 9.08 4.4 0
 3 7 -12 4.19 5.22 0
 3 7 -11 33.06 7.39 0
 3 7 -10 22.79 6.77 0
 3 7 -9 63.78 8.25 0
 3 8 -11 13.94 5.96 0
 3 8 -10 20.4 6.17 0
 3 8 -9 3.56 4.97 0
 3 9 -9 9.02 6.39 0
 4 0 -12 -0.15 2.89 0
 4 0 -10 183.35 7.42 0
 4 0 -9 0.06 1.93 0
 4 0 -6 41.62 2.13 0
 4 1 -12 147.57 8.24 0
 4 1 -10 18.18 3.6 0
 4 1 -9 66.18 4.61 0
 4 1 -8 9.73 2.27 0
 4 1 -7 408.73 8.11 0
 4 1 -6 394.19 6.99 0
 4 1 -5 95.05 3.07 0
 4 1 -4 440.65 5.29 0
 4 1 -3 28.01 1.37 0
 4 2 -13 20.85 5.2 0
 4 2 -12 63 6.24 0
 4 2 -11 87.28 6.35 0
 4 2 -9 52.51 4.62 0
 4 2 -8 152.91 6.41 0
 4 2 -7 154.62 5.87 0
 4 2 -6 11.66 2.15 0
 4 2 -5 5.73 1.84 0
 4 3 -13 37.21 5.72 0
 4 3 -12 23.34 4.68 0
 4 3 -11 4.04 3.41 0
 4 3 -10 17.42 4.09 0
 4 3 -8 41.82 4.53 0
 4 4 -13 21.58 5.27 0
 4 4 -12 23.5 5.05 0
 4 4 -11 17.03 4.51 0
 4 4 -10 56.95 5.79 0
 4 4 -9 14.25 4.1 0
 4 4 -7 56.55 5.38 0
 4 5 -13 3.95 4.22 0
 4 5 -12 6.99 4.08 0
 4 5 -11 13.11 4.71 0
 4 5 -10 10.26 3.93 0
 4 5 -9 113.25 8.13 0
 4 5 -8 17.83 4.56 0
 4 6 -12 63 7.77 0
 4 6 -10 26.27 5.82 0
 4 6 -9 7.77 4.06 0
 4 6 -8 28.62 5.45 0
 4 7 -11 2.73 4.46 0
 4 7 -10 24.03 5.97 0
 4 7 -9 78.16 8.66 0
 4 8 -10 25.91 6.7 0
 4 8 -9 18.76 5.83 0
 4 9 -9 -2.58 5.03 0
 5 3 -7 30.51 3.47 0
 5 3 -6 5.28 2.11 0
 5 4 -7 9.81 2.74 0
 5 5 -9 52.84 6.02 0
 5 5 -8 10.22 3.81 0
 5 5 -7 4.2 2.79 0
 5 6 -9 38.96 6.01 0
 5 6 -8 166.03 9.43 0
 5 7 -9 37.29 6.5 0
 5 7 -8 3.86 3.77 0
 5 8 -9 24.11 5.7 0
 -7 -7 -1 2.52 4.34 0
 -7 -7 0 1.92 4.23 0
 -7 -7 1 7.75 4.78 0
 -7 -7 3 1.09 4.21 0
 -7 -7 4 3.56 4.73 0
 -7 -6 -3 2.72 3.88 0
 -7 -6 -2 2.14 3.63 0
 -7 -6 -1 34.82 5.82 0
 -7 -6 0 97.66 8.35 0
 -7 -6 1 36.4 6.09 0
 -7 -6 2 1.17 3.56 0
 -6 -8 -3 16.38 6.44 0
 -6 -8 -2 4.14 4.74 0
 -6 -8 -1 18.56 6.05 0
 -6 -8 0 6.91 6.03 0
 -6 -8 1 -4.39 5.5 0
 -6 -8 2 36.87 7.91 0
 -6 -8 3 19.93 6.68 0
 -6 -8 4 12.06 6.72 0
 -6 -7 -5 37.69 7.35 0
 -6 -7 -3 13.44 5.7 0
 -6 -7 -2 7.56 4.63 0
 -6 -7 -1 49.16 7.83 0
 -6 -7 0 25.27 6.08 0
 -6 -7 1 26.55 6.75 0
 -6 -7 2 25.09 7.12 0
 -6 -7 3 23.18 6.84 0
 -6 -6 -7 -1 4.96 0
 -6 -6 -6 13.16 4.97 0
 -6 -6 -5 10.73 5.21 0
 -6 -6 -4 8.51 4.71 0
 -6 -6 -3 11 4.74 0
 -6 -6 -2 115.72 9.41 0
 -6 -6 -1 0.53 3.85 0
 -6 -6 0 15.76 4.98 0
 -6 -6 1 102.85 9.29 0
 -6 -6 3 5.94 4.77 0
 -6 -5 -8 31.41 6.36 0
 -6 -5 -6 11.56 4.84 0
 -6 -5 -5 16.98 5.02 0
 -6 -5 -4 97.98 7.89 0
 -6 -5 -3 70.42 6.92 0
 -6 -5 -1 28.16 4.98 0
 -6 -5 0 139.32 9.2 0
 -6 -5 1 22.18 5.5 0
 -6 -5 2 6.54 4.28 0
 -6 -5 3 -5.18 4.06 0
 -6 -4 -9 4.23 4.45 0
 -6 -4 -8 22.78 5.75 0
 -6 -4 -7 2.57 3.39 0
 -6 -4 -5 13.11 3.99 0
 -6 -4 -4 22.79 4.53 0
 -6 -4 -3 63.87 6.02 0
 -6 -4 -1 3.6 2.81 0
 -6 -4 0 19.87 4.58 0
 -6 -4 1 31.86 4.85 0
 -6 -4 2 7.79 3.26 0
 -6 -4 3 23.33 4.85 0
 -6 -3 -9 9.76 4.44 0
 -6 -3 -8 13.38 4.42 0
 -6 -3 -7 23.4 4.61 0
 -6 -3 -6 -0.65 3.34 0
 -6 -3 -5 42.94 5.17 0
 -6 -3 -4 42.18 5.02 0
 -6 -3 -3 44.85 4.65 0
 -6 -2 -9 4.22 3.39 0
 -5 -10 0 53.07 9.98 0
 -5 -10 2 26.74 8 0
 -5 -10 3 27.41 8.03 0
 -5 -9 -4 4.7 5.68 0
 -5 -9 -3 38.1 7.64 0
 -5 -9 -2 0.47 5.07 0
 -5 -9 -1 77.05 9.75 0
 -5 -9 0 9.83 6.75 0
 -5 -9 1 8.16 6.59 0
 -5 -9 2 33.28 7.91 0
 -5 -8 -6 7.56 5.38 0
 -5 -8 -5 17.82 6.69 0
 -5 -8 -4 7.45 5.05 0
 -5 -8 -3 8.27 5.82 0
 -5 -8 -2 14.71 5.77 0
 -5 -8 -1 36.04 7.58 0
 -5 -8 0 21.3 6.03 0
 -5 -8 1 35.72 7.34 0
 -5 -8 2 2.41 6.16 0
 -5 -7 -8 39.39 7.73 0
 -5 -7 -7 0.78 4.39 0
 -5 -7 -6 78.65 9.34 0
 -5 -7 -5 23.2 5.93 0
 -5 -7 -4 13.27 5.14 0
 -5 -7 -3 47.86 7.71 0
 -5 -7 -2 36.48 7.04 0
 -5 -6 -9 20.32 6.5 0
 -5 -6 -8 23.24 5.99 0
 -5 -6 -7 54.36 7.69 0
 -5 -6 -6 7.17 4.62 0
 -5 -6 -4 23.13 5.41 0
 -5 -6 -3 52.92 6.79 0
 -5 -6 -2 12.37 4.5 0
 -5 -6 0 114.07 9.48 0
 -5 -6 1 43.72 6.83 0
 -5 -5 -10 1.58 4.46 0
 -5 -5 -9 30.8 6.61 0
 -5 -5 -7 18.91 5.5 0
 -5 -5 -6 19.78 5.19 0
 -5 -5 -5 40.12 5.83 0
 -5 -5 -3 79.09 7.44 0
 -5 -5 -2 31.46 5.24 0
 -5 -5 -1 33.11 5.54 0
 -5 -5 0 61.43 7 0
 -5 -5 1 120 8.4 0
 -5 -4 -10 11.62 5.26 0
 -5 -4 -8 48.47 6.82 0
 -5 -4 -6 4.04 3.55 0
 -5 -4 -5 31.13 5.03 0
 -5 -4 -4 104.06 7.73 0
 -5 -4 -3 2.37 2.88 0
 -5 -4 -2 8.99 3.47 0
 -5 -3 -11 30.72 6.62 0
 -5 -3 -10 105.08 9.55 0
 -5 -3 -9 122.13 9.53 0
 -5 -3 -8 63.53 6.77 0
 -5 -3 -7 34.65 5.6 0
 -5 -3 -6 80.29 6.57 0
 -5 -3 -5 1.87 2.85 0
 -5 -3 -4 3.51 3.25 0
 -5 -3 -1 99.45 6.13 0
 -5 -3 0 238.41 9.13 0
 -5 -3 1 22.29 3.68 0
 -5 -2 -11 2.52 5 0
 -5 -2 -9 29.25 5.49 0
 -5 -2 -8 35.36 5.36 0
 -5 -2 -7 15.89 4.09 0
 -5 -2 -6 11.35 3.51 0
 -5 -2 -3 73.07 5.26 0
 -5 -2 -2 19.24 3.28 0
 -5 -2 -1 77.97 4.95 0
 -5 -2 0 97.39 5.46 0
 -5 -2 1 33.83 3.72 0
 -5 -2 2 152.65 7.01 0
 -5 -1 -9 22.87 5.22 0
 -5 -1 -8 19.24 4.37 0
 -5 -1 -7 16.07 3.97 0
 -5 -1 -6 9.17 2.91 0
 -5 -1 -3 27.41 3.21 0
 -5 -1 -1 24.23 2.77 0
 -5 -1 0 183.06 5.89 0
 -5 -1 1 11.14 2.12 0
 -5 0 -9 75.11 6.91 0
 -5 0 -8 85.08 6.55 0
 -5 0 -7 17.97 3.91 0
 -5 0 -3 2.43 1.38 0
 -5 0 -2 1.57 1.1 0
 -5 0 -1 146.34 4.53 0
 -5 0 0 199.29 4.88 0
 -5 0 1 75.58 2.95 0
 -4 -10 -3 47.62 8.01 0
 -4 -10 -2 5.74 5.59 0
 -4 -10 -1 6.77 6.28 0
 -4 -10 0 9.86 7.32 0
 -4 -10 1 11.8 6.72 0
 -4 -10 2 43.72 8.64 0
 -4 -9 -7 2.89 5.74 0
 -4 -9 -6 46.3 8.02 0
 -4 -9 -5 87.28 9.71 0
 -4 -9 -4 6.89 4.93 0
 -4 -9 -3 34.94 7.78 0
 -4 -9 -2 9.09 5.61 0
 -4 -9 -1 44.16 8.23 0
 -4 -9 0 126.26 11.42 0
 -4 -8 -8 38.63 7.28 0
 -4 -8 -7 23.03 7.03 0
 -4 -8 -6 68.8 8.26 0
 -4 -8 -5 42.32 7.19 0
 -4 -8 -3 3.53 4.72 0
 -4 -8 -2 11.57 4.96 0
 -4 -8 -1 30.35 6.46 0
 -4 -8 0 132.24 10.66 0
 -4 -8 1 9.63 5.82 0
 -4 -7 -9 1.11 4.83 0
 -4 -7 -8 19.61 5.69 0
 -4 -7 -7 32.82 6.61 0
 -4 -7 -6 4.72 4.78 0
 -4 -7 -5 67.85 8.65 0
 -4 -7 -4 45.44 7.23 0
 -4 -7 -2 36.47 6.32 0
 -4 -7 -1 2.61 3.99 0
 -4 -7 0 70.36 8.6 0
 -4 -6 -10 11.35 5.68 0
 -4 -6 -9 17.51 5.53 0
 -4 -6 -8 28.5 6.24 0
 -4 -6 -7 50.27 7.52 0
 -4 -6 -6 8.36 5 0
 -4 -6 -5 2.85 3.87 0
 -4 -6 -4 24.84 5.18 0
 -4 -6 -3 4.8 4.2 0
 -4 -6 -2 13.08 4.32 0
 -4 -6 -1 -0.76 3.25 0
 -4 -6 0 164.23 10.3 0
 -4 -5 -11 104.95 9.55 0
 -4 -5 -10 7.61 5.88 0
 -4 -5 -9 21.14 5.6 0
 -4 -5 -8 43.39 7.38 0
 -4 -5 -5 21.11 4.64 0
 -4 -5 -4 134.82 8.71 0
 -4 -5 -3 261.33 10.99 0
 -4 -4 -12 9.33 5.44 0
 -4 -4 -11 4.29 5.6 0
 -4 -4 -10 24.28 5.98 0
 -4 -4 -9 108.32 8.54 0
 -4 -4 -8 18.37 4.89 0
 -4 -4 -7 22.91 5.19 0
 -4 -4 -6 60.53 6.51 0
 -4 -4 -5 9.28 3.46 0
 -4 -4 -1 22.46 4.58 0
 -4 -4 0 171.35 8.66 0
 -4 -3 -11 29.83 6.17 0
 -4 -3 -10 20.21 5.39 0
 -4 -3 -9 12.74 4.5 0
 -4 -3 -8 43.8 6.04 0
 -4 -3 -7 20.92 4.72 0
 -4 -3 -6 144.45 8.1 0
 -4 -3 -2 77.68 5.56 0
 -4 -3 -1 368.08 10.77 0
 -4 -3 0 28.24 3.94 0
 -4 -2 -12 6.97 4.59 0
 -4 -2 -11 7.43 4.52 0
 -4 -2 -10 31.72 6.07 0
 -4 -2 -9 30.2 5.79 0
 -4 -2 -8 51.34 5.9 0
 -4 -2 -7 3.37 3.09 0
 -4 -2 -5 42.81 5.04 0
 -4 -2 -2 54.03 4.07 0
 -4 -2 0 102.81 5.34 0
 -4 -1 -10 20.03 5.37 0
 -4 -1 -9 96.41 7.5 0
 -4 -1 -8 13.51 4.06 0
 -4 -1 -5 42.19 4.02 0
 -4 -1 -4 348.78 9.25 0
 -4 -1 -3 215.55 6.99 0
 -4 -1 -2 295.65 7.59 0
 -4 -1 -1 1189.3 14.25 0
 -4 0 -9 9.29 3.66 0
 -4 0 -8 95.47 6.72 0
 -4 0 -6 149.99 7.06 0
 -4 0 -4 12.14 2.37 0
 -4 0 -3 67.35 3.65 0
 -4 0 -2 93.16 3.82 0
 -4 0 0 36.24 2.25 0
 -4 0 1 8.01 1.43 0
 -4 1 -6 189.19 7.36 0
 -4 1 -5 48.03 3.98 0
 -4 1 -4 352.18 8.24 0
 -4 1 -3 227.91 6.05 0
 -4 1 -1 1240.97 10.11 0
 -4 1 0 18.31 1.16 0
 -4 1 1 32.13 1.02 0
 -4 1 2 92.57 1.67 0
 -3 -11 -3 80.67 10.48 0
 -3 -11 -1 0.57 5.22 0
 -3 -11 0 32.79 8.45 0
 -3 -11 1 10.84 6.99 0
 -3 -11 2 -1.14 5.49 0
 -3 -10 -6 17.05 6.12 0
 -3 -10 -4 6.21 5.28 0
 -3 -10 -3 3.97 5.51 0
 -3 -10 -2 10.44 5.36 0
 -3 -10 1 44.19 8.31 0
 -3 -9 -8 13.96 6.01 0
 -3 -9 -7 32.49 6.78 0
 -3 -9 -6 1.5 4.4 0
 -3 -9 -5 32.36 7.27 0
 -3 -9 -3 3.32 4.7 0
 -3 -9 -2 12.12 5.29 0
 -3 -9 -1 -1.52 4.65 0
 -3 -9 0 42.96 7.81 0
 -3 -8 -10 58.83 8.37 0
 -3 -8 -9 6.08 4.97 0
 -3 -8 -8 61.07 8.72 0
 -3 -8 -7 -0.13 4.42 0
 -3 -8 -6 22.78 5.53 0
 -3 -8 -5 19.43 5.12 0
 -3 -8 -3 -1.64 3.39 0
 -3 -8 -1 19.95 5.74 0
 -3 -8 0 25.82 6.16 0
 -3 -7 -11 9.09 5.44 0
 -3 -7 -10 31.81 7.14 0
 -3 -7 -9 4.12 4.45 0
 -3 -7 -7 21.23 5.71 0
 -3 -7 -6 4.7 3.81 0
 -3 -7 -5 73.25 7.24 0
 -3 -7 -4 39.41 6.06 0
 -3 -7 -3 52.11 6.37 0
 -3 -7 -1 8.61 3.89 0
 -3 -6 -11 8.63 6.18 0
 -3 -6 -10 126.36 9.69 0
 -3 -6 -9 4.98 4.78 0
 -3 -6 -8 104.91 8.84 0
 -3 -6 -7 11.4 4.48 0
 -3 -6 -6 68.89 7.21 0
 -3 -6 -5 3.98 3.44 0
 -3 -6 -4 27.63 4.85 0
 -3 -6 -3 29.65 4.95 0
 -3 -6 -2 41.26 5.43 0
 -3 -5 -12 9.22 5.51 0
 -3 -5 -11 -0.94 4.33 0
 -3 -5 -10 70.6 8.6 0
 -3 -5 -9 4.29 3.91 0
 -3 -5 -8 42.05 6.06 0
 -3 -5 -7 89.69 7.46 0
 -3 -5 -6 76.4 6.61 0
 -3 -5 -5 46.83 5.67 0
 -3 -5 -1 17.96 4.31 0
 -3 -4 -12 14.58 5.96 0
 -3 -4 -11 31.59 6.75 0
 -3 -4 -10 107.83 8.6 0
 -3 -4 -9 2.85 4.03 0
 -3 -4 -8 128.43 8.31 0
 -3 -4 -7 44.98 5.51 0
 -3 -4 -6 13.44 3.71 0
 -3 -4 -4 17.25 3.53 0
 -3 -4 -3 173.88 7.95 0
 -3 -4 -2 98.96 6.19 0
 -3 -4 -1 21.52 3.86 0
 -3 -3 -13 12.44 5.34 0
 -3 -3 -12 17.98 5.71 0
 -3 -3 -11 -0.05 4.13 0
 -3 -3 -10 9.79 4.42 0
 -3 -3 -9 7.06 4.11 0
 -3 -3 -7 69.12 5.83 0
 -3 -3 -3 91.47 5.51 0
 -3 -3 -2 181.94 7.23 0
 -3 -3 -1 22.06 3.41 0
 -3 -2 -13 1.79 5.47 0
 -3 -2 -12 29.9 6.52 0
 -3 -2 -11 10.98 4.64 0
 -3 -2 -10 10 4.4 0
 -3 -2 -9 40.22 5.53 0
 -3 -2 -8 148.36 8.12 0
 -3 -2 -5 107.62 5.98 0
 -3 -2 -3 113.87 5.57 0
 -3 -1 -11 75.16 7.39 0
 -3 -1 -10 29.59 5.74 0
 -3 -1 -9 15.78 4.21 0
 -3 -1 -8 24.8 4.19 0
 -3 -1 -6 144.68 6.83 0
 -3 -1 -5 4.51 2.19 0
 -3 -1 -4 259.86 7.58 0
 -3 -1 -1 5.53 1.7 0
 -3 -1 0 406.23 7.95 0
 -3 0 -10 38.17 6.03 0
 -3 0 -9 0.04 3.12 0
 -3 0 -7 371.89 11.1 0
 -3 0 -6 8.87 2.77 0
 -3 0 -5 450.92 10.12 0
 -3 0 -4 -0.3 1.54 0
 -3 0 -2 62.17 3.1 0
 -3 0 -1 572.05 7.59 0
 -3 0 0 497.85 6.67 0
 -3 1 -7 87.6 5.87 0
 -3 1 -6 147.79 6.46 0
 -3 1 -5 8.58 2.32 0
 -3 1 -4 266.28 6.9 0
 -3 1 -2 77.57 3.01 0
 -3 1 -1 3.9 0.9 0
 -2 -11 -5 0.68 4.91 0
 -2 -11 -4 15.91 6.49 0
 -2 -11 -2 13.92 5.9 0
 -2 -11 -1 21.01 7.45 0
 -2 -11 0 7.63 5.77 0
 -2 -11 1 3.19 5.95 0
 -2 -10 -8 29.6 7.46 0
 -2 -10 -7 37.46 7.21 0
 -2 -10 -6 23.81 6.29 0
 -2 -10 -5 10.84 5.97 0
 -2 -10 -4 10.25 5.22 0
 -2 -10 -3 16.03 5.75 0
 -2 -10 -2 9.78 5.45 0
 -2 -10 -1 9.47 6.13 0
 -2 -10 0 31.31 6.92 0
 -2 -9 -9 15.06 6.1 0
 -2 -9 -8 20.08 5.93 0
 -2 -9 -7 8.06 4.85 0
 -2 -9 -6 16.21 5.53 0
 -2 -9 -5 -3.48 3.89 0
 -2 -9 -4 122.23 9.86 0
 -2 -9 -3 59.84 7.97 0
 -2 -9 -2 28.23 6.22 0
 -2 -9 -1 22.7 5.87 0
 -2 -9 0 57.51 7.89 0
 -2 -8 -11 11.11 5.28 0
 -2 -8 -10 56.22 8.43 0
 -2 -8 -9 21.38 5.76 0
 -2 -8 -8 9.52 4.83 0
 -2 -8 -7 18.7 5.34 0
 -2 -8 -6 47.6 6.76 0
 -2 -8 -5 40.72 6.3 0
 -2 -8 -4 14.87 4.84 0
 -2 -8 -3 19.1 4.83 0
 -2 -8 -2 24.45 5.39 0
 -2 -8 -1 5.05 4.15 0
 -2 -7 -12 48.12 8.24 0
 -2 -7 -11 11.62 5.28 0
 -2 -7 -10 40.99 7.18 0
 -2 -7 -9 17.91 5.46 0
 -2 -7 -8 18.18 5.07 0
 -2 -7 -7 6.31 4.39 0
 -2 -7 -6 3.06 3.24 0
 -2 -7 -5 1.9 3.35 0
 -2 -7 -4 278.03 11.74 0
 -2 -7 -3 16.4 4.34 0
 -2 -7 -2 30.05 5.07 0
 -2 -7 -1 115.28 8.43 0
 -2 -6 -11 2.16 4.78 0
 -2 -6 -10 109.14 8.79 0
 -2 -6 -9 20.67 5.12 0
 -2 -6 -7 78.51 6.89 0
 -2 -5 -12 9.05 4.75 0
 -2 -5 -9 43.91 6.34 0
 -2 -5 -8 17.71 4.57 0
 -2 -5 -7 109.1 7.43 0
 -2 -5 -6 10.11 3.23 0
 -2 -5 -4 20.26 3.85 0
 -2 -4 -14 73.17 9.32 0
 -2 -4 -12 34.2 6.71 0
 -2 -4 -9 53.5 6.34 0
 -2 -4 -7 159.31 8.25 0
 -2 -4 -5 5.48 2.8 0
 -2 -4 -4 202.6 8.13 0
 -2 -3 -14 89.84 9.87 0
 -2 -3 -13 41.2 7.1 0
 -2 -3 -11 26.44 5.52 0
 -2 -3 -10 -1.18 3.22 0
 -2 -3 -8 57.48 5.34 0
 -2 -3 -6 12.07 2.99 0
 -2 -3 -4 291.37 8.88 0
 -2 -3 -1 559.19 11.68 0
 -2 -2 -13 28.02 6.6 0
 -2 -2 -11 14.21 5.05 0
 -2 -2 -10 17.28 4.59 0
 -2 -2 -7 218.57 8.66 0
 -2 -2 -6 130.24 6.25 0
 -2 -2 -5 59.25 4.24 0
 -2 -2 -3 79.8 4.38 0
 -2 -2 -2 217.4 6.49 0
 -2 -1 -11 28.18 5.85 0
 -2 -1 -10 24.55 4.71 0
 -2 -1 -9 9.53 3.62 0
 -2 -1 -7 50.44 4.84 0
 -2 -1 -6 24.13 3.3 0
 -2 -1 -5 21.31 3.09 0
 -2 -1 -3 545.67 9.33 0
 -2 -1 -2 488.94 8.21 0
 -2 -1 -1 280.64 6.02 0
 -2 0 -10 19.3 4.53 0
 -2 0 -7 119.86 6.54 0
 -2 0 -6 151.91 6.4 0
 -2 0 -4 385.56 8.1 0
 -2 0 -2 31.25 2.11 0
 -2 0 -1 279.01 4.66 0
 -2 0 0 236.1 4.03 0
 -2 1 -7 42.64 4.07 0
 -2 1 -6 24.29 3.51 0
 -2 1 -4 119.74 4.56 0
 -2 1 -2 495.8 6.61 0
 -2 1 -1 267.69 3.82 0
 -1 -12 -2 56.54 9.12 0
 -1 -12 -1 0.12 5.3 0
 -1 -12 0 11.42 5.87 0
 -1 -12 1 3.96 5.74 0
 -1 -12 2 25.68 8.15 0
 -1 -11 -6 4.46 4.54 0
 -1 -11 -5 28.06 6.41 0
 -1 -11 -4 18.05 5.79 0
 -1 -11 -3 19.65 5.92 0
 -1 -11 -1 5.82 5.07 0
 -1 -11 0 43.68 8.22 0
 -1 -10 -8 7.36 4.86 0
 -1 -10 -5 33.36 6.89 0
 -1 -10 -4 47.41 7.66 0
 -1 -10 -3 40.03 7.18 0
 -1 -10 -2 53.78 7.95 0
 -1 -10 -1 8.07 5.16 0
 -1 -9 -10 11.9 5.31 0
 -1 -9 -9 45.97 7.6 0
 -1 -9 -8 8.66 5.03 0
 -1 -9 -7 20.56 5.89 0
 -1 -9 -6 8.58 4.8 0
 -1 -9 -5 0.72 3.77 0
 -1 -9 -4 85.26 7.82 0
 -1 -9 -2 8.01 4.47 0
 -1 -9 -1 2.16 4.18 0
 -1 -8 -11 1.6 4.59 0
 -1 -8 -10 24.75 6.64 0
 -1 -8 -8 1.23 3.8 0
 -1 -8 -7 241.16 11.98 0
 -1 -8 -6 0.23 3.56 0
 -1 -8 -3 24.19 5.03 0
 -1 -8 -2 40.8 5.95 0
 -1 -8 -1 60.41 6.76 0
 -1 -7 -12 6.25 5.83 0
 -1 -7 -11 0.65 4.16 0
 -1 -7 -10 48.59 7.07 0
 -1 -7 -9 92.31 8.46 0
 -1 -7 -7 11.5 4.19 0
 -1 -7 -6 60.01 6.68 0
 -1 -7 -5 33.73 5.14 0
 -1 -7 -4 85.55 7.18 0
 -1 -6 -13 4.84 5.07 0
 -1 -6 -12 22.95 5.78 0
 -1 -6 -11 107.98 9.4 0
 -1 -6 -10 41.81 6.31 0
 -1 -6 -9 32.21 5.71 0
 -1 -6 -8 14.23 4.04 0
 -1 -6 -6 10.44 3.47 0
 -1 -6 -3 87.65 6.24 0
 -1 -5 -14 12.92 6.29 0
 -1 -5 -13 12.19 5.62 0
 -1 -5 -12 16.92 5.59 0
 -1 -5 -11 12.38 4.85 0
 -1 -5 -10 183.71 10.53 0
 -1 -5 -9 33 5.33 0
 -1 -5 -8 2.5 3.39 0
 -1 -5 -5 12.49 3.46 0
 -1 -5 -3 1.02 2.09 0
 -1 -5 -2 72.44 5.49 0
 -1 -4 -13 2.09 4.38 0
 -1 -4 -12 3.87 4.47 0
 -1 -4 -10 39.39 6.14 0
 -1 -4 -9 59.38 5.84 0
 -1 -4 -8 53.08 5.22 0
 -1 -4 -6 87.02 5.9 0
 -1 -4 -5 164.39 7.05 0
 -1 -4 -4 46.47 4.26 0
 -1 -4 -2 60.67 4.55 0
 -1 -3 -13 108.78 9.76 0
 -1 -3 -11 23.72 5.3 0
 -1 -3 -10 52.87 6.43 0
 -1 -3 -9 112.78 7.26 0
 -1 -3 -6 442.93 11.02 0
 -1 -3 -3 67.47 4.08 0
 -1 -3 -2 95.02 4.95 0
 -1 -2 -12 2.22 3.68 0
 -1 -2 -11 25.44 5.13 0
 -1 -2 -10 29.55 5.14 0
 -1 -2 -4 34.4 3.4 0
 -1 -2 -3 568.99 9.54 0
 -1 -2 -2 15.05 2.45 0
 -1 -2 -1 1130.34 12.69 0
 -1 -1 -10 53.31 5.61 0
 -1 -1 -5 88.28 4.6 0
 -1 -1 -4 945.81 12.01 0
 -1 -1 -3 53.35 3.04 0
 -1 -1 -2 256.02 5.2 0
 -1 -1 -1 1259.58 10.6 0
 -1 0 -7 2.98 2.37 0
 -1 0 -5 2.84 1.9 0
 -1 0 -4 351.19 7.26 0
 -1 0 -3 0.44 1.34 0
 -1 0 -2 102.11 2.97 0
 -1 0 -1 1558.56 8.53 0
 -1 1 -5 84.17 4.29 0
 -1 1 -4 920.89 11.54 0
 -1 1 -3 54.79 3 0
 0 -12 -3 19.48 6.13 0
 0 -12 -2 2.81 4.63 0
 0 -12 -1 34.99 6.9 0
 0 -12 0 121.07 10.38 0
 0 -12 1 26.91 6.6 0
 0 -12 2 5.32 5.43 0
 0 -11 -7 0.01 3.75 0
 0 -11 -6 29.13 5.89 0
 0 -11 -5 11.73 4.8 0
 0 -11 -4 1.33 4.09 0
 0 -11 -3 48.82 7.33 0
 0 -11 -2 78.5 8.81 0
 0 -11 1 -0.45 4.72 0
 0 -10 -9 19.16 5.41 0
 0 -10 -5 3.91 4.11 0
 0 -10 -4 219.31 11.28 0
 0 -10 -3 12.18 4.84 0
 0 -10 -1 36.55 6.28 0
 0 -10 0 121.74 9.52 0
 0 -9 -10 1.25 5.06 0
 0 -9 -9 12.23 4.85 0
 0 -9 -8 72.59 7.5 0
 0 -9 -6 18.84 5.37 0
 0 -9 -5 82.72 7.13 0
 0 -9 -3 165.36 9.87 0
 0 -9 -1 57.54 6.98 0
 0 -8 -11 50.96 7.58 0
 0 -8 -10 35.61 6.16 0
 0 -8 -9 32.68 5.72 0
 0 -8 -8 7.04 4.13 0
 0 -8 -6 5.39 3.65 0
 0 -8 -5 18.23 4.48 0
 0 -8 -4 194.15 9.72 0
 0 -8 -3 140.18 8.24 0
 0 -7 -13 11.72 5.53 0
 0 -7 -12 1.08 4.31 0
 0 -7 -11 13.46 5.68 0
 0 -7 -10 67.29 6.92 0
 0 -7 -9 3.98 3.68 0
 0 -7 -8 101.5 7.48 0
 0 -7 -7 201.92 9.77 0
 0 -7 -2 20.34 4.2 0
 0 -6 -13 10.47 5 0
 0 -6 -9 64.49 6.28 0
 0 -6 -8 26.1 4.74 0
 0 -6 -7 68.7 5.82 0
 0 -6 -5 31.67 4.52 0
 0 -6 -4 85.53 5.94 0
 0 -6 -3 268.81 9.33 0
 0 -5 -14 114.2 9.8 0
 0 -5 -13 41.68 6.71 0
 0 -5 -12 5.75 4.32 0
 0 -5 -11 -1.6 3.38 0
 0 -5 -10 31.3 5.37 0
 0 -5 -9 29.02 5.04 0
 0 -5 -6 116.72 6.27 0
 0 -5 -5 7.47 2.69 0
 0 -5 -4 60.99 4.62 0
 0 -5 -3 38.29 3.93 0
 0 -4 -13 26.6 5.91 0
 0 -4 -12 -0.18 3.82 0
 0 -4 -11 114.36 8.38 0
 0 -4 -10 258.93 11.49 0
 0 -4 -9 2.12 2.89 0
 0 -4 -7 94.84 5.84 0
 0 -4 -6 6.52 2.38 0
 0 -4 -5 257.08 8.01 0
 0 -4 -4 46.27 3.67 0
 0 -4 -3 783.51 12.73 0
 0 -4 -2 453.2 9.69 0
 0 -3 -13 21.94 5.65 0
 0 -3 -8 68.9 5.36 0
 0 -3 -7 23.05 3.47 0
 0 -3 -6 17.73 3.16 0
 0 -3 -5 114.9 5.16 0
 0 -3 -4 86.16 4.24 0
 0 -3 -3 460.53 8.67 0
 0 -3 -2 804.46 11.17 0
 0 -2 -11 43.28 5.96 0
 0 -2 -7 271.93 8.62 0
 0 -2 -6 12.54 2.45 0
 0 -2 -5 490.67 9.41 0
 0 -2 -4 556.36 9.17 0
 0 -2 -3 864.77 10.43 0
 0 -2 -2 2011.84 14.35 0
 0 -2 -1 195.57 4.76 0
 0 -1 -10 27.36 4.72 0
 0 -1 -8 137.7 6.89 0
 0 -1 -6 140.48 5.72 0
 0 -1 -5 546.9 9.72 0
 0 -1 -4 236.67 5.88 0
 0 -1 -3 1072.62 10.28 0
 0 -1 -2 484.08 6.06 0
 0 -1 -1 470 4.93 0
 0 0 -5 294.89 7.24 0
 0 0 -4 241.99 5.79 0
 0 0 -3 29.43 2.12 0
 0 0 -2 2854.45 13.06 0
 0 0 -1 68.23 1.54 0
 1 -12 -2 27.18 5.58 0
 1 -12 -1 3.54 4.12 0
 1 -12 0 3.61 4.06 0
 1 -12 1 0.17 4.27 0
 1 -12 2 42.17 7.63 0
 1 -11 -7 9.3 4.01 0
 1 -11 -6 31.72 5.46 0
 1 -11 -5 15.52 4.55 0
 1 -11 -4 42.31 6.15 0
 1 -11 -2 11.91 4.5 0
 1 -11 -1 7.59 4.09 0
 1 -11 0 35.45 6.18 0
 1 -11 1 -0.57 3.67 0
 1 -10 -8 48.03 6.96 0
 1 -10 -7 15.02 4.74 0
 1 -10 -6 5.04 3.97 0
 1 -10 -3 34.29 5.65 0
 1 -10 -1 -0.86 3.36 0
 1 -10 0 101.05 8.56 0
 1 -9 -9 1.48 3.52 0
 1 -9 -8 -3.03 3.01 0
 1 -9 -6 40.67 5.71 0
 1 -9 -5 23.41 4.94 0
 1 -9 -3 7.36 3.94 0
 1 -9 -1 3.84 3.5 0
 1 -9 0 21.33 5.02 0
 1 -8 -12 25.13 5.95 0
 1 -8 -11 27.67 6.09 0
 1 -8 -10 7.78 4.14 0
 1 -8 -9 15.52 4.55 0
 1 -8 -8 37.62 5.55 0
 1 -8 -7 45.73 5.68 0
 1 -8 -6 6.46 3.35 0
 1 -8 -5 23.91 4.29 0
 1 -7 -12 24.33 5.69 0
 1 -7 -10 8.88 4.47 0
 1 -7 -8 5.89 3.62 0
 1 -7 -4 152.68 7.38 0
 1 -7 -3 101.53 6.25 0
 1 -7 -1 5.65 2.98 0
 1 -6 -14 26.49 6.21 0
 1 -6 -13 29.32 6.03 0
 1 -6 -10 34.61 5.77 0
 1 -6 -8 12.53 3.9 0
 1 -6 -6 50.4 4.62 0
 1 -6 -5 50.88 4.68 0
 1 -6 -3 229.29 8.02 0
 1 -6 -2 83.05 5.46 0
 1 -5 -13 9.19 4.48 0
 1 -5 -12 25.07 5.57 0
 1 -5 -11 13.65 4.56 0
 1 -5 -10 3.87 3.51 0
 1 -5 -7 113.71 6.32 0
 1 -5 -6 71.71 5.02 0
 1 -5 -5 17.6 3.19 0
 1 -5 -4 398.12 9.41 0
 1 -5 -3 2.71 2 0
 1 -4 -12 0.81 3.64 0
 1 -4 -10 19.7 4.63 0
 1 -4 -8 11.49 3.31 0
 1 -4 -7 87.24 5.19 0
 1 -4 -6 33.7 3.44 0
 1 -4 -5 21.04 3.26 0
 1 -4 -4 60.71 3.82 0
 1 -4 -2 372.58 7.72 0
 1 -3 -11 11.32 4.39 0
 1 -3 -10 78.79 6.24 0
 1 -3 -8 117.56 6.5 0
 1 -3 -6 668.95 11.8 0
 1 -3 -5 39.05 3.04 0
 1 -3 -3 29.86 2.51 0
 1 -3 -2 351.06 6.34 0
 1 -2 -10 8.41 3.36 0
 1 -2 -8 108.65 6.01 0
 1 -2 -6 220.63 6.91 0
 1 -2 -5 164.11 5.3 0
 1 -2 -3 490.42 6.71 0
 1 -2 -2 953.45 7.9 0
 1 -2 -1 1968.92 10.45 0
 1 -1 -8 49.87 4.5 0
 1 -1 -7 355.5 9.24 0
 1 -1 -6 684.19 11.51 0
 1 -1 -5 19.28 2.47 0
 1 -1 -4 2368.41 16.55 0
 1 -1 -3 1149.53 9.68 0
 1 -1 -2 19.16 1.42 0
 2 -10 -3 26.1 4.57 0
 2 -10 -2 10.39 3.61 0
 2 -10 -1 11.64 3.64 0
 2 -10 0 29.99 4.72 0
 2 -10 1 13.55 4.17 0
 2 -9 -7 3.05 3.28 0
 2 -9 -5 7.22 3.03 0
 2 -8 -11 63.06 6.64 0
 2 -8 -10 69.02 6.71 0
 2 -8 -9 5.83 3.32 0
 2 -8 -8 85.75 6.45 0
 2 -8 -4 17.41 3.52 0
 2 -8 -3 131.72 6.45 0
 2 -8 -2 59.52 4.9 0
 2 -8 -1 0.96 2.6 0
 2 -8 0 147.66 7.68 0
 2 -7 -12 34.03 5.9 0
 2 -7 -11 118.72 8.39 0
 2 -7 -10 1.83 3.14 0
 2 -7 -9 14.56 4.42 0
 2 -7 -5 25.4 3.7 0
 2 -7 -4 181.08 6.89 0
 2 -7 -3 101.96 5.4 0
 2 -7 -2 15.24 3.16 0
 2 -7 -1 5.35 2.41 0
 2 -6 -12 -0.29 3.47 0
 2 -6 -11 60.17 6.48 0
 2 -6 -10 32.08 5.03 0
 2 -6 -9 96.91 6.62 0
 2 -6 -7 19.66 3.33 0
 2 -6 -5 8.59 2.27 0
 2 -6 -2 8.01 2.36 0
 2 -6 -1 201.07 6.77 0
 2 -5 -11 200.86 9.62 0
 2 -5 -10 16.25 3.95 0
 2 -5 -8 173.74 7.48 0
 2 -5 -7 32.8 3.8 0
 2 -5 -6 143.73 5.87 0
 2 -5 -5 118.17 5.08 0
 2 -5 -4 12.09 2.12 0
 2 -5 -2 121.15 4.44 0
 2 -5 -1 339.78 7.31 0
 2 -4 -8 118.14 6.38 0
 2 -4 -6 201.73 6.52 0
 2 -4 -5 161.6 5.32 0
 2 -4 -4 61.75 3.19 0
 2 -4 -2 173.69 4.21 0
 2 -4 -1 59.31 2.75 0
 2 -3 -6 171.98 5.86 0
 2 -3 -5 68.47 3.6 0
 2 -3 -3 85.29 2.78 0
 2 -3 -2 120.64 2.74 0
 2 -2 -5 81.22 3.68 0
 2 -2 -4 324.74 5.83 0
 2 -2 -3 113.82 2.87 0
 2 -2 -2 316.57 3.2 0
 3 -7 -6 76.14 4.39 0
 3 -7 -5 22.98 2.86 0
 3 -7 -3 156.46 4.95 0
 3 -7 -2 20.65 2.55 0
 3 -7 0 375.82 8.42 0
 3 -6 -8 123.77 6.04 0
 3 -6 -7 28.72 3.46 0
 3 -6 -6 35.39 3.15 0
 3 -6 -5 56.87 3.34 0
 3 -6 -4 4.54 1.45 0
 3 -6 -3 263.32 5.51 0
 3 -6 -2 68.73 2.89 0
 3 -6 -1 4.2 1.27 0
 3 -6 0 44.06 2.93 0
 3 -5 -8 -0.96 1.94 0
 3 -5 -6 51.47 3.44 0
 3 -5 -4 74.01 2.96 0
 3 -5 -2 19.41 1.34 0
 3 -5 -1 432.14 5.32 0
 3 -5 0 315.96 5.68 0
 3 -4 -6 94.95 4.09 0
 3 -4 -5 186.45 4.75 0
 3 -4 -4 60.72 2.39 0
 3 -4 -3 237.15 3.37 0
 3 -4 0 56.12 1.66 0
 -8 3 1 25.28 4.11 0
 -8 3 3 28.07 4.47 0
 -8 3 4 15.97 4.27 0
 -8 3 5 12.95 4.15 0
 -8 3 6 31.45 5.42 0
 -8 4 -2 10.6 3.86 0
 -8 4 -1 8.71 3.63 0
 -8 4 0 20.48 4.55 0
 -8 4 1 19.59 4.63 0
 -8 4 3 56.47 6.27 0
 -8 4 4 2.97 3.82 0
 -8 5 2 4.78 3.73 0
 -7 1 4 24.02 3.67 0
 -7 1 5 10.02 2.5 0
 -7 1 6 28.88 4.02 0
 -7 1 7 51.89 5.18 0
 -7 1 8 1.7 2.45 0
 -7 2 -3 39.31 4.5 0
 -7 2 -2 13.69 3.36 0
 -7 2 -1 84.04 5.77 0
 -7 2 0 30.42 4.13 0
 -7 2 1 27.29 4 0
 -7 2 3 131.45 6.81 0
 -7 2 4 16.49 3.53 0
 -7 2 5 30.86 4.6 0
 -7 2 6 7.69 3.28 0
 -7 2 7 21.09 4.74 0
 -7 2 8 16.91 4.11 0
 -7 2 9 12.74 4.11 0
 -7 3 -4 12.36 3.69 0
 -7 3 -3 24.55 4.24 0
 -7 3 -2 7.51 3.57 0
 -7 3 0 7.41 3.19 0
 -7 3 1 0.25 2.58 0
 -7 3 2 1.9 3.13 0
 -7 3 3 24.45 4.61 0
 -7 3 5 58.14 5.88 0
 -7 3 6 11.18 4.06 0
 -7 3 7 37.37 5.68 0
 -7 3 8 66.8 7 0
 -7 3 9 0.98 3.19 0
 -7 4 -4 24.75 4.69 0
 -7 4 -2 29.3 5.23 0
 -7 4 -1 33.4 5.24 0
 -7 4 1 62.62 6.3 0
 -7 4 2 23.13 4.81 0
 -7 4 4 55.21 6.64 0
 -7 4 5 30.99 5.31 0
 -7 4 6 4.59 3.51 0
 -7 4 7 4.16 4.39 0
 -7 4 8 73.38 7.64 0
 -7 4 9 26.64 5.67 0
 -7 5 -4 8.55 4.11 0
 -7 5 -3 10.36 4.56 0
 -7 5 -2 0.69 3.58 0
 -7 5 -1 1.18 3.42 0
 -7 5 0 1.78 3.5 0
 -7 5 1 47.35 6.33 0
 -7 5 2 33.61 5.45 0
 -7 5 3 9.01 4.08 0
 -7 5 6 22.63 4.9 0
 -7 5 7 22.45 5.31 0
 -7 5 8 42.6 6.66 0
 -7 6 -3 1.52 3.66 0
 -7 6 -2 3.21 4.45 0
 -7 6 -1 43.55 6.33 0
 -7 6 0 107.9 8.45 0
 -7 6 1 27.32 5.57 0
 -7 6 2 11.22 4.46 0
 -7 6 4 16.54 5.38 0
 -7 6 6 12.4 4.54 0
 -7 6 7 30.22 6.11 0
 -7 7 -1 6.85 4.27 0
 -7 7 0 1.47 4.11 0
 -7 7 1 11.19 4.76 0
 -7 7 3 2.48 4.21 0
 -7 7 4 2.47 4.08 0
 -6 0 -2 32.79 2.83 0
 -6 0 1 108.78 4.54 0
 -6 0 2 32.53 2.98 0
 -6 0 3 17.35 2.44 0
 -6 1 -3 1.31 1.95 0
 -6 1 5 12.48 2.83 0
 -6 2 -4 28.92 3.93 0
 -6 2 -3 9.59 2.8 0
 -6 2 -1 9.26 2.68 0
 -6 2 1 75.94 5.27 0
 -6 2 2 2.47 2.44 0
 -6 2 3 43.03 4.04 0
 -6 2 4 13.23 3.21 0
 -6 2 5 74.47 5.51 0
 -6 2 6 20.9 4.22 0
 -6 3 -3 49.66 4.92 0
 -6 3 -2 21.87 3.96 0
 -6 3 -1 71.27 5.38 0
 -6 3 0 30.71 4.3 0
 -6 3 1 3.78 2.58 0
 -6 3 2 5.57 2.88 0
 -6 3 3 62.81 5.46 0
 -6 3 4 100.86 6.65 0
 -6 3 5 20.38 4.39 0
 -6 3 6 48.83 6 0
 -6 4 -5 11.63 3.97 0
 -6 4 -4 19.43 4.29 0
 -6 4 -2 37.43 5.32 0
 -6 4 0 20.8 4.12 0
 -6 4 1 40.71 5.16 0
 -6 4 2 5.41 3.49 0
 -6 4 3 21.49 4.29 0
 -6 4 4 29.64 4.64 0
 -6 4 6 19.13 4.37 0
 -6 4 7 44.8 6.42 0
 -6 5 -5 18.78 4.65 0
 -6 5 -4 96.06 7.34 0
 -6 5 -3 59.41 5.98 0
 -6 5 -2 14.4 4.07 0
 -6 5 -1 27.76 4.76 0
 -6 5 0 128.08 8.08 0
 -6 5 1 14.77 4.32 0
 -6 5 2 2.5 3.02 0
 -6 5 3 3.06 3.18 0
 -6 5 4 83.89 6.71 0
 -6 5 5 28.2 5.16 0
 -6 5 6 6.93 4.6 0
 -6 5 7 47.38 7.2 0
 -6 5 8 112.36 8.65 0
 -6 6 -5 5.48 4.49 0
 -6 6 -4 13.21 4.51 0
 -6 6 -3 4.85 3.78 0
 -6 6 -1 0.21 3.26 0
 -6 6 0 22.84 5.13 0
 -6 6 1 96.39 7.39 0
 -6 6 2 24.7 5.03 0
 -6 6 3 2.17 3.45 0
 -6 6 5 17.91 4.66 0
 -6 6 6 86.15 8.22 0
 -6 6 7 12.53 5.38 0
 -6 6 8 3.9 4.07 0
 -6 6 9 75.81 7.64 0
 -6 6 10 55.01 7.45 0
 -6 7 -4 11.63 4.65 0
 -6 7 -3 21.89 5.53 0
 -6 7 -2 3.53 3.99 0
 -6 7 -1 51.81 6.82 0
 -6 7 0 21.79 4.86 0
 -6 7 1 26.37 5.5 0
 -6 7 2 19.5 5.25 0
 -6 7 3 21.18 5.28 0
 -6 7 4 -0.55 3.43 0
 -6 7 5 15.36 5.08 0
 -6 7 6 12.87 5.13 0
 -6 7 7 96.82 8.37 0
 -6 7 8 32.38 7.06 0
 -6 8 -3 5.64 4.73 0
 -6 8 -1 21.89 5.21 0
 -6 8 0 4.68 4.04 0
 -6 8 1 4.68 4.07 0
 -6 8 2 40.25 6.42 0
 -6 8 3 17.19 5.46 0
 -6 8 4 14.19 5.08 0
 -6 8 5 9.58 4.56 0
 -6 8 6 3.04 4.19 0
 -5 -2 3 215.58 4.46 0
 -5 0 -3 3.68 1.68 0
 -5 0 -2 1.94 1.39 0
 -5 0 0 193.74 5.45 0
 -5 0 1 73.1 3.61 0
 -5 0 2 301.09 6.97 0
 -5 1 -3 24.83 3.27 0
 -5 1 -1 27.53 2.98 0
 -5 1 0 203.72 6.47 0
 -5 1 1 10.78 2.49 0
 -5 1 2 76.85 4.21 0
 -5 2 -4 20.52 3.42 0
 -5 2 0 104.93 5.3 0
 -5 2 1 32.54 3.64 0
 -5 3 -5 6.76 3.05 0
 -5 3 -4 0.23 2.24 0
 -5 3 -3 86.79 5.65 0
 -5 3 -2 136.31 6.89 0
 -5 3 3 -0.1 2.42 0
 -5 3 4 40.97 4.18 0
 -5 4 -5 22.6 4.11 0
 -5 4 -3 2.27 2.71 0
 -5 4 -1 6.88 2.81 0
 -5 4 0 126.95 6.79 0
 -5 4 1 130.18 6.74 0
 -5 4 2 34.78 4.47 0
 -5 4 4 109.44 6.91 0
 -5 4 5 5.57 2.95 0
 -5 5 -6 20.74 4.96 0
 -5 5 -5 50.45 6.18 0
 -5 5 -4 3.8 2.98 0
 -5 5 -3 86.35 6.82 0
 -5 5 -2 40.32 4.77 0
 -5 5 -1 50.97 5.27 0
 -5 5 0 56.24 5.43 0
 -5 5 2 18.27 3.75 0
 -5 5 3 15.95 3.61 0
 -5 5 4 7.22 3.69 0
 -5 5 5 54.97 5.96 0
 -5 5 6 71.64 6.68 0
 -5 6 -6 6.68 3.82 0
 -5 6 -5 13.67 4.13 0
 -5 6 -4 22.53 4.64 0
 -5 6 -3 52.62 6.53 0
 -5 6 -2 6.62 3.57 0
 -5 6 -1 32.45 4.9 0
 -5 6 0 106.05 7.12 0
 -5 6 1 51.84 5.49 0
 -5 6 2 9.42 3.68 0
 -5 6 5 22.63 4.61 0
 -5 6 6 41.8 5.94 0
 -5 6 7 27.93 5.46 0
 -5 7 -6 97.4 8.52 0
 -5 7 -5 18.42 4.7 0
 -5 7 -4 10.26 4.25 0
 -5 7 -3 56.98 7.07 0
 -5 7 -2 26.76 5.14 0
 -5 7 -1 105.5 7.93 0
 -5 7 0 22.39 4.68 0
 -5 7 1 74.88 7.08 0
 -5 7 3 22.93 4.64 0
 -5 7 4 9.53 3.86 0
 -5 7 6 35.74 6.01 0
 -5 7 8 5.47 4 0
 -5 7 9 30.48 5.97 0
 -5 8 -6 3.63 4.06 0
 -5 8 -5 18.81 5.61 0
 -5 8 -4 10.19 4.34 0
 -5 8 -3 3.31 4.65 0
 -5 8 -2 19.01 4.94 0
 -5 8 -1 32.99 5.88 0
 -5 8 0 21.56 4.96 0
 -5 8 1 39.34 5.98 0
 -5 8 2 9.7 4.09 0
 -5 8 3 57.63 6.25 0
 -5 8 4 37.43 5.94 0
 -5 8 5 0.24 3.59 0
 -5 8 6 76.62 7.4 0
 -5 8 7 30.67 6.33 0
 -5 8 8 19 5.5 0
 -5 8 9 20.69 5.82 0
 -5 9 -4 0.84 4.61 0
 -5 9 -3 40.07 6.54 0
 -5 9 -2 -1.06 3.87 0
 -5 9 0 12.88 5.1 0
 -5 9 1 5.22 4.93 0
 -5 9 2 35.32 5.97 0
 -5 9 3 12.32 4.66 0
 -5 9 4 0.02 3.56 0
 -5 9 5 0.13 3.64 0
 -5 9 6 12.04 4.8 0
 -5 9 7 113.77 9.62 0
 -5 10 0 35.3 6.45 0
 -5 10 2 24.99 5.9 0
 -4 -2 1 57.43 1.61 0
 -4 -2 2 7.17 0.97 0
 -4 0 -3 70.75 3.62 0
 -4 0 -2 89.89 3.76 0
 -4 0 -1 13.62 1.87 0
 -4 0 1 10.97 1.74 0
 -4 0 2 0.04 1.11 0
 -4 1 -4 358.81 8.69 0
 -4 1 -3 232.79 6.62 0
 -4 1 -1 1225.85 13.82 0
 -4 1 1 33.2 2.86 0
 -4 1 2 97.02 4.42 0
 -4 2 -3 18.51 2.93 0
 -4 2 -2 54.86 3.7 0
 -4 2 -1 17.32 2.59 0
 -4 2 0 95.97 4.52 0
 -4 2 1 60.78 3.82 0
 -4 2 2 6.67 2.16 0
 -4 3 -2 69.34 4.49 0
 -4 3 -1 366.61 9.44 0
 -4 3 0 25.98 3.52 0
 -4 3 1 286.34 8.14 0
 -4 3 3 11.02 2.59 0
 -4 4 -6 52.07 5.03 0
 -4 4 -5 8.88 3.01 0
 -4 4 -4 38.32 4.25 0
 -4 4 -3 4.7 2.79 0
 -4 5 -6 8.37 3.32 0
 -4 5 -5 16.51 3.68 0
 -4 5 -4 141.24 7.47 0
 -4 5 -3 261.26 9.58 0
 -4 5 -2 70.97 5.26 0
 -4 5 -1 102.52 6.27 0
 -4 5 1 108.68 6.37 0
 -4 5 2 20.13 3.45 0
 -4 5 3 32 4.41 0
 -4 5 4 32.01 4.49 0
 -4 6 -6 10.42 4.16 0
 -4 6 -5 2.49 2.99 0
 -4 6 -3 5.86 3.12 0
 -4 6 -2 19.74 3.91 0
 -4 6 -1 -0.09 2.52 0
 -4 6 1 11.65 3.22 0
 -4 6 3 16.52 3.71 0
 -4 6 4 29.07 4.8 0
 -4 6 5 22.31 4.03 0
 -4 7 -6 9.68 3.91 0
 -4 7 -4 36.63 5.29 0
 -4 7 -3 91.51 6.84 0
 -4 7 -2 38.14 5.06 0
 -4 7 -1 2.4 3.09 0
 -4 7 1 45.47 5.49 0
 -4 7 2 79.42 6.18 0
 -4 7 3 9.95 3.85 0
 -4 7 4 2.68 2.94 0
 -4 7 5 50.8 6.35 0
 -4 7 6 13.56 4.1 0
 -4 7 7 51.48 6.4 0
 -4 8 -5 30.35 5.48 0
 -4 8 -4 62.06 7.4 0
 -4 8 -3 -0.21 3.57 0
 -4 8 -2 11.97 4.33 0
 -4 8 -1 20.58 4.37 0
 -4 8 1 -0.65 2.85 0
 -4 8 2 39.85 5.5 0
 -4 8 5 19.08 4.58 0
 -4 8 6 30.2 5.65 0
 -4 8 8 42.2 6.91 0
 -4 9 -6 37.06 6.22 0
 -4 9 -5 75.07 7.96 0
 -4 9 -4 8.76 4.3 0
 -4 9 -3 43.78 6.84 0
 -4 9 -2 14.68 4.62 0
 -4 9 -1 37.63 6.16 0
 -4 9 0 106.4 7.97 0
 -4 9 1 6.58 3.91 0
 -4 9 2 161.31 9.65 0
 -4 9 4 1.22 3.76 0
 -4 9 5 28.72 5.41 0
 -4 9 6 4.77 4.16 0
 -4 9 7 25.29 6.35 0
 -4 9 8 69.53 8.43 0
 -4 9 9 1.41 4.22 0
 -4 10 -4 24.19 5.67 0
 -4 10 -3 39.12 6.55 0
 -4 10 -2 6.33 4.86 0
 -4 10 -1 14.4 5.09 0
 -4 10 0 2.67 4 0
 -4 10 1 14.52 4.92 0
 -4 10 3 7.21 4.28 0
 -4 10 4 27.04 5.8 0
 -4 10 5 19.69 5.51 0
 -4 10 6 8.37 4.51 0
 -3 -2 1 257.64 2.56 0
 -3 0 -3 18.83 1.89 0
 -3 0 -2 57.67 2.69 0
 -3 0 0 498.16 6.63 0
 -3 0 1 476.19 6.73 0
 -3 1 -4 256.43 6.73 0
 -3 1 -3 140.73 4.84 0
 -3 1 -2 77.2 3.64 0
 -3 1 -1 6.2 1.53 0
 -3 1 0 398.38 6.94 0
 -3 1 1 111.22 4.02 0
 -3 2 -5 105.84 5.33 0
 -3 2 -4 65.52 4.01 0
 -3 2 -2 10.29 2.03 0
 -3 3 -3 85.95 4.6 0
 -3 3 -1 20.76 2.71 0
 -3 3 0 181.96 5.91 0
 -3 3 1 3.62 1.86 0
 -3 3 2 14.28 2.49 0
 -3 4 -6 13.46 3.09 0
 -3 4 -5 13.82 2.89 0
 -3 4 -2 110.49 5.4 0
 -3 4 -1 19.95 3 0
 -3 4 0 54.67 3.93 0
 -3 4 2 75.43 4.54 0
 -3 5 -6 71.96 5.43 0
 -3 5 -5 44.4 4.71 0
 -3 5 -4 64.91 4.99 0
 -3 6 -6 76.85 6.47 0
 -3 6 -2 33.36 4.01 0
 -3 6 -1 16.29 3.25 0
 -3 6 0 49.28 4.7 0
 -3 6 1 2.25 2.44 0
 -3 6 2 66.57 5.29 0
 -3 6 3 268.79 9.67 0
 -3 6 4 4.6 2.75 0
 -3 7 -6 9.1 3.75 0
 -3 7 -3 51.53 5.02 0
 -3 7 -2 10.14 3.35 0
 -3 7 -1 15.56 3.45 0
 -3 7 0 371.34 11.58 0
 -3 7 1 189.01 8.31 0
 -3 7 2 21.96 4 0
 -3 7 3 152.36 7.98 0
 -3 7 5 29.09 4.62 0
 -3 8 -6 25.36 5.02 0
 -3 8 -5 13.53 3.96 0
 -3 8 -4 31.27 5.22 0
 -3 8 -3 -1.11 2.87 0
 -3 8 -2 30.22 5.1 0
 -3 8 -1 20.65 4.53 0
 -3 8 1 5.93 3.34 0
 -3 8 2 53.75 5.85 0
 -3 8 3 25.19 4.26 0
 -3 8 4 16.67 4.08 0
 -3 8 5 9.65 3.73 0
 -3 8 6 7.26 3.6 0
 -3 8 7 27.14 4.93 0
 -3 9 -5 31.8 5.82 0
 -3 9 -4 70.08 7.64 0
 -3 9 -3 11.81 4.17 0
 -3 9 -2 14.85 4.08 0
 -3 9 -1 3.27 3.19 0
 -3 9 0 30.25 5.51 0
 -3 9 1 7.66 3.6 0
 -3 9 2 13.56 4.47 0
 -3 9 3 67.02 6.83 0
 -3 9 4 91.04 7.4 0
 -3 9 5 5.62 3.52 0
 -3 9 6 81.87 7.42 0
 -3 9 7 12.57 4.74 0
 -3 9 9 10.33 4.67 0
 -3 9 10 25.64 6.18 0
 -3 10 -5 42.92 6.2 0
 -3 10 -4 8.37 4.28 0
 -3 10 -3 5.08 3.9 0
 -3 10 -2 7.12 4.03 0
 -3 10 -1 10.57 4.3 0
 -3 10 0 13.68 4.43 0
 -3 10 1 40.34 5.97 0
 -3 10 3 57.04 6.47 0
 -3 10 4 20.02 5.07 0
 -3 10 5 -0.21 3.41 0
 -3 10 6 -1.3 3.64 0
 -3 10 7 12.93 4.82 0
 -3 10 8 23.05 6.15 0
 -3 11 -3 69.03 7.33 0
 -3 11 0 24.53 5.22 0
 -3 11 1 8.7 4.19 0
 -3 11 2 -0.04 3.59 0
 -3 11 3 10.61 4.75 0
 -3 11 4 18.86 5.23 0
 -3 11 5 7.76 4.62 0
 -2 0 -2 29.02 1.99 0
 -2 0 -1 273.5 4.2 0
 -2 0 0 241 3.8 0
 -2 1 -3 536.44 8.05 0
 -2 1 -2 502 7.35 0
 -2 1 0 584.15 7.2 0
 -2 2 -4 299.54 7.08 0
 -2 2 -1 138.52 4.29 0
 -2 2 0 797.29 9.61 0
 -2 3 -5 27.6 3.04 0
 -2 3 -4 308.07 7.8 0
 -2 3 -2 65.01 3.49 0
 -2 3 -1 556.21 9.17 0
 -2 3 0 343.21 7.21 0
 -2 3 1 987.7 12.15 0
 -2 4 -4 202.53 6.99 0
 -2 4 -3 181.87 6.46 0
 -2 5 -6 10.46 2.9 0
 -2 5 -3 10.62 2.52 0
 -2 5 0 152.76 5.94 0
 -2 5 1 360.9 9.01 0
 -2 6 -6 110.33 6.81 0
 -2 6 -5 102.71 6.07 0
 -2 7 -6 4.98 3.45 0
 -2 7 -5 3.78 2.57 0
 -2 7 -4 277.21 10.14 0
 -2 7 -2 28.02 4.09 0
 -2 7 -1 110.51 6.44 0
 -2 7 0 20.04 3.45 0
 -2 7 1 5.15 2.55 0
 -2 7 2 12.75 3.01 0
 -2 7 3 97.98 5.98 0
 -2 7 4 169.03 7.64 0
 -2 8 -6 35.94 5.32 0
 -2 8 -5 55.93 5.33 0
 -2 8 -4 11.91 3.64 0
 -2 8 -3 19.51 3.85 0
 -2 8 -2 25.14 4.14 0
 -2 8 -1 4.72 2.79 0
 -2 8 0 153.99 7.8 0
 -2 8 1 5.01 2.77 0
 -2 8 2 70.49 5.46 0
 -2 8 3 128.1 7.12 0
 -2 8 4 16.37 4.23 0
 -2 8 5 1.33 2.86 0
 -2 8 6 14.94 3.93 0
 -2 9 -6 17.1 4.47 0
 -2 9 -5 3.57 3.52 0
 -2 9 -4 108.12 7.8 0
 -2 9 -3 62.12 6.47 0
 -2 9 -2 27.26 4.73 0
 -2 9 -1 24.11 4.35 0
 -2 9 0 68.55 5.74 0
 -2 9 2 1.8 3.13 0
 -2 9 3 8.29 3.33 0
 -2 9 4 66.57 6 0
 -2 9 5 6.48 3.5 0
 -2 9 6 4.29 3.54 0
 -2 9 7 5.2 3.52 0
 -2 9 8 10.45 4.56 0
 -2 10 -5 7.46 4.17 0
 -2 10 -4 3.36 3.58 0
 -2 10 -3 15.12 4.24 0
 -2 10 -2 11.09 4.14 0
 -2 10 -1 6.99 3.8 0
 -2 10 0 24.31 4.5 0
 -2 10 1 8.39 3.91 0
 -2 10 2 10.26 3.74 0
 -2 10 3 21.99 4.59 0
 -2 10 4 5.25 3.4 0
 -2 10 5 19.38 4.74 0
 -2 10 6 -1.88 3.79 0
 -2 10 7 38.07 5.77 0
 -2 10 8 17.94 5.3 0
 -2 10 9 10.11 5.21 0
 -2 11 -5 -1.12 3.16 0
 -2 11 -4 22.63 5.38 0
 -2 11 -3 35.86 5.66 0
 -2 11 -2 12.91 4.52 0
 -2 11 0 7.9 3.71 0
 -2 11 1 8 3.68 0
 -2 11 2 19.78 4.61 0
 -2 11 3 0.4 3.28 0
 -2 11 4 23.7 5.14 0
 -2 11 5 8.9 4.06 0
 -2 11 6 -0.1 3.74 0
 -1 0 -1 1552.22 7.68 0
 -1 1 -3 56.92 2.63 0
 -1 1 -2 269.64 4.63 0
 -1 1 -1 1213.34 8.46 0
 -1 1 0 5146.6 16.77 0
 -1 2 -4 32.16 2.7 0
 -1 2 -3 567.4 8.3 0
 -1 2 -2 15.26 1.86 0
 -1 2 -1 1133.79 9.85 0
 -1 2 0 2146.64 13.35 0
 -1 3 -4 389.15 7.92 0
 -1 3 -3 66.27 3.45 0
 -1 3 -2 100.54 3.88 0
 -1 3 -1 413.25 7.07 0
 -1 4 -5 163.42 6.01 0
 -1 4 -3 39.89 3.23 0
 -1 4 -2 67.42 3.53 0
 -1 4 -1 510.57 8.69 0
 -1 4 1 1351.63 13.89 0
 -1 5 -5 15.25 2.84 0
 -1 5 -3 0.8 1.71 0
 -1 5 -2 65.4 3.94 0
 -1 5 -1 75.63 4.24 0
 -1 5 0 38.08 3.1 0
 -1 5 1 88.76 4.31 0
 -1 5 2 260.15 7.16 0
 -1 6 -2 112.49 5.45 0
 -1 6 -1 179.85 6.48 0
 -1 6 0 9.37 2.3 0
 -1 6 1 72.36 4.31 0
 -1 7 -5 34.98 4.05 0
 -1 7 -4 86.77 5.47 0
 -1 8 -5 141.91 7.55 0
 -1 8 -4 150.16 7.48 0
 -1 8 -3 23.24 4.13 0
 -1 8 -2 55.98 4.86 0
 -1 8 -1 55.53 4.94 0
 -1 8 0 74.1 5.44 0
 -1 8 1 97.61 5.85 0
 -1 8 2 50.33 4.74 0
 -1 8 5 17.6 3.89 0
 -1 9 -5 3.04 3.04 0
 -1 9 -3 29.75 4.41 0
 -1 9 -2 10.23 3.38 0
 -1 9 -1 7.27 2.87 0
 -1 9 0 31.64 4.62 0
 -1 9 1 5.01 2.81 0
 -1 9 2 5.91 2.92 0
 -1 9 3 9.01 3.08 0
 -1 9 4 186.15 8.43 0
 -1 9 5 17.93 3.84 0
 -1 9 6 44.32 5.87 0
 -1 9 7 124.02 7.89 0
 -1 10 -4 39.47 5.39 0
 -1 10 -3 27.24 4.87 0
 -1 10 -2 66.82 6.21 0
 -1 10 0 88.17 6.48 0
 -1 10 1 0.72 2.81 0
 -1 10 3 39.02 5.47 0
 -1 10 4 19.23 4.22 0
 -1 10 5 22.45 4.67 0
 -1 10 6 2.87 3.13 0
 -1 10 7 14.21 4 0
 -1 10 8 53.65 6.65 0
 -1 10 9 38.99 6.52 0
 -1 11 -4 11.66 3.9 0
 -1 11 -3 26.45 4.74 0
 -1 11 -2 8.96 3.74 0
 -1 11 -1 4.56 3.58 0
 -1 11 0 36.87 4.96 0
 -1 11 1 8.33 3.61 0
 -1 11 2 8.1 3.62 0
 -1 11 3 77.95 6.58 0
 -1 11 4 44.62 5.8 0
 -1 11 5 14.32 4 0
 -1 11 6 32.55 5 0
 -1 12 -1 0.84 3.07 0
 -1 12 0 14.95 4.07 0
 -1 12 1 3.68 3.04 0
 -1 12 3 6.95 3.36 0
 0 1 -1 481.2 4.05 0
 0 2 -2 2026.08 11.87 0
 0 2 -1 193.36 3.39 0
 0 2 0 9798.23 22.07 0
 0 3 -3 450.24 7.14 0
 0 3 -2 811.74 8.85 0
 0 3 -1 575.29 6.87 0
 0 4 -4 55.02 3.28 0
 0 4 -3 790.55 10.49 0
 0 4 -2 445.01 7.4 0
 0 4 -1 369.52 6.5 0
 0 4 0 567.88 7.68 0
 0 4 1 361.64 6.33 0
 0 5 -4 63.82 3.93 0
 0 5 -3 39.25 3.19 0
 0 5 -1 166.03 5.02 0
 0 5 1 168.73 5.12 0
 0 6 -4 90.93 4.8 0
 0 6 -3 262.19 7.3 0
 0 6 -2 55.57 3.52 0
 0 6 -1 485.73 9.15 0
 0 6 0 44.96 3.23 0
 0 6 1 479.61 8.92 0
 0 6 2 54.05 3.75 0
 0 7 -3 69.1 4.53 0
 0 7 -2 28.92 3.52 0
 0 7 -1 188.75 6.37 0
 0 7 1 190.72 6.41 0
 0 7 2 24.29 2.89 0
 0 7 3 73.44 4.5 0
 0 8 0 9.73 2.79 0
 0 8 5 15.89 3.14 0
 0 9 -4 -1.49 2.13 0
 0 9 -3 154.92 7.18 0
 0 9 -2 7.46 2.7 0
 0 9 -1 58.95 4.49 0
 0 9 1 48.04 4.12 0
 0 9 2 9.3 2.65 0
 0 9 3 150.47 6.78 0
 0 9 4 3.12 2.62 0
 0 9 5 78 5.77 0
 0 9 6 17.83 3.86 0
 0 10 -4 216.22 8.89 0
 0 10 -3 18.57 3.87 0
 0 10 -2 9.69 3.01 0
 0 10 -1 46.76 4.61 0
 0 10 0 140.9 6.91 0
 0 10 1 48.48 4.5 0
 0 10 2 10.86 2.92 0
 0 10 3 17.7 3.43 0
 0 10 4 216.04 8.48 0
 0 10 5 6.41 2.66 0
 0 10 6 12.41 3.46 0
 0 10 7 15.29 3.75 0
 0 10 8 37.56 5.22 0
 0 11 -3 46.46 5.03 0
 0 11 -2 76.01 5.6 0
 0 11 -1 4.53 2.77 0
 0 11 1 1.81 2.87 0
 0 11 2 71.5 5.4 0
 1 3 -1 361.76 4.25 0
 1 3 0 265.42 3.38 0
 1 4 -2 381.79 5.82 0
 1 4 -1 1329.93 9.8 0
 1 4 1 498 6.05 0
 1 5 -3 2.9 1.37 0
 1 5 -2 250.28 5.35 0
 1 5 -1 95.93 3.27 0
 1 5 0 34.51 2.15 0
 1 5 1 68.21 2.73 0
 1 5 2 69.37 2.99 0
 1 6 -3 234.75 6.05 0
 1 6 -1 71.23 3.34 0
 1 6 0 13.06 1.81 0
 1 6 1 171.21 4.69 0
 1 6 2 122.76 4.36 0
 1 7 -3 104.59 4.58 0
 1 7 -2 50.06 3.39 0
 1 7 1 67.25 3.54 0
 1 7 2 4.09 1.55 0
 1 7 4 85.31 4.3 0
 1 8 -3 124.33 5.32 0
 1 8 -2 41.83 3.44 0
 1 8 -1 99.36 4.65 0
 1 8 0 80.96 4.16 0
 1 8 2 55.94 3.65 0
 1 8 3 22.22 2.88 0
 1 9 -1 7.52 2.17 0
 1 9 0 31.84 3.26 0
 1 9 1 9.5 2.43 0
 1 9 2 12.06 2.45 0
 1 9 5 4.86 2.3 0
 1 9 6 18.06 3.24 0
 2 4 1 21.95 0.84 0
 2 5 0 154.81 2.57 0
 2 5 1 507.64 4.84 0
 2 5 2 14.58 1.29 0
 2 6 0 403.86 5.13 0
 2 6 1 61.42 2.17 0
 2 6 2 313.18 4.98 0
 2 6 3 2.22 1.17 0
 2 7 -1 4.5 1.13 0
 2 7 0 16.58 1.58 0
 2 7 2 31.25 2.03 0
 2 7 3 17.57 1.86 0
 2 7 4 286.3 6.31 0
 -7 -3 -7 15.77 4.43 0
 -7 -3 -6 11.22 3.68 0
 -7 -2 -7 -0.65 4.26 0
 -7 -2 -6 10.78 4.12 0
 -7 -2 -5 16.86 3.98 0
 -7 -1 -7 3.63 4.3 0
 -7 -1 -6 14.49 4.64 0
 -7 -1 -5 12.84 4.01 0
 -7 0 -7 -0.5 3.56 0
 -7 0 -6 -5.45 3.75 0
 -7 0 -5 9.07 4.37 0
 -7 0 -4 20.95 4.28 0
 -7 0 -3 -0.92 2.4 0
 -7 1 -7 6.95 4.78 0
 -7 1 -6 7.19 4.41 0
 -7 1 -5 10.72 4.63 0
 -7 1 -4 11.45 3.93 0
 -7 1 -3 4.27 3 0
 -7 1 -2 0.27 1.99 0
 -7 2 -7 -3.15 3.64 0
 -7 2 -6 9.17 4.54 0
 -7 2 -5 17.95 5.14 0
 -7 2 -4 3.06 3.68 0
 -7 2 -3 31.55 4.98 0
 -7 2 -2 13.11 3.62 0
 -7 3 -7 14.1 5.1 0
 -7 3 -6 10.93 4.49 0
 -7 3 -5 26.21 5.8 0
 -7 3 -4 11.21 4.8 0
 -7 3 -3 27.87 5 0
 -7 3 -2 5.38 3.38 0
 -7 3 -1 16.59 3.74 0
 -7 4 -6 -1.83 4.08 0
 -7 4 -5 16.11 5.45 0
 -7 4 -4 28.7 6.01 0
 -7 4 -3 41.94 6.06 0
 -7 4 -2 31.41 5.42 0
 -7 5 -5 6.13 4.78 0
 -7 5 -4 9.33 5.11 0
 -7 5 -3 6.2 4.98 0
 -7 5 -2 -0.3 4.4 0
 -7 6 -3 3.87 4.71 0
 -7 6 -2 -2.07 4.14 0
 -6 -6 -7 -0.83 3.36 0
 -6 -6 -6 13.39 4.05 0
 -6 -5 -8 24.98 5.11 0
 -6 -5 -7 93.19 7.7 0
 -6 -5 -5 23.51 4.23 0
 -6 -4 -9 5.1 4.19 0
 -6 -4 -8 17.54 4.65 0
 -6 -4 -6 35.48 5.46 0
 -6 -4 -5 9.14 3.3 0
 -6 -4 -4 20.79 3.57 0
 -6 -3 -9 2.57 4.58 0
 -6 -3 -7 30.53 5.62 0
 -6 -3 -6 0.16 2.97 0
 -6 -3 -5 34.72 4.7 0
 -6 -2 -9 5.74 4.19 0
 -6 -2 -8 11.78 4.68 0
 -6 -2 -7 39.09 5.56 0
 -6 -2 -6 36.58 5.66 0
 -6 -2 -5 38.46 5 0
 -6 -2 -4 29.42 4.52 0
 -6 -2 -3 16.52 3.17 0
 -6 -1 -10 125.66 10.11 0
 -6 -1 -9 12.52 4.8 0
 -6 -1 -8 123.8 9.26 0
 -6 -1 -7 7.62 4.15 0
 -6 -1 -6 17.92 4.73 0
 -6 -1 -5 2.15 3.02 0
 -6 -1 -4 24.91 4.09 0
 -6 -1 -3 -1.44 2.15 0
 -6 0 -10 8.79 5.08 0
 -6 0 -9 3.35 4.37 0
 -6 0 -8 6.04 4.43 0
 -6 0 -7 17.72 4.96 0
 -6 0 -6 4.5 4.01 0
 -6 0 -5 4.17 3.58 0
 -6 0 -3 64.95 5.24 0
 -6 0 -1 5.61 2.18 0
 -6 1 -10 134.27 9.98 0
 -6 1 -9 15.34 5.41 0
 -6 1 -8 121.83 9.34 0
 -6 1 -7 -1.63 3.74 0
 -6 1 -6 14.55 4.33 0
 -6 1 -5 1.52 3.18 0
 -6 1 -4 24.84 4.5 0
 -6 1 -3 0.89 2.56 0
 -6 1 -2 7.78 3.2 0
 -6 1 0 4.91 2.16 0
 -6 2 -9 2.7 4.55 0
 -6 2 -8 13.13 4.87 0
 -6 2 -7 39.76 6.61 0
 -6 2 -6 38.85 5.95 0
 -6 2 -3 8.06 3.29 0
 -6 2 -2 47.11 5.11 0
 -6 2 1 66.56 4.6 0
 -6 3 -9 6.73 4.96 0
 -6 3 -8 19.51 5.9 0
 -6 3 -7 20.61 5.31 0
 -6 3 -6 -4.04 3.11 0
 -6 3 -5 31.41 5.96 0
 -6 3 -3 45.99 5.87 0
 -6 3 -2 22.46 4.42 0
 -6 3 -1 70.85 6.13 0
 -6 4 -9 4.42 5.05 0
 -6 4 -7 7.25 4.88 0
 -6 4 -6 31.34 6.28 0
 -6 4 -5 17.34 4.86 0
 -6 4 -4 25.33 5 0
 -6 4 -3 65.68 7.05 0
 -6 4 -2 38.87 5.39 0
 -6 4 -1 2.25 3.23 0
 -6 4 0 18.33 4.26 0
 -6 5 -8 17.94 5.52 0
 -6 5 -7 88.68 9.04 0
 -6 5 -6 13.57 4.9 0
 -6 5 -5 18.59 5.78 0
 -6 5 -4 96.76 8.86 0
 -6 5 -3 58.84 6.54 0
 -6 5 -2 15.62 4.48 0
 -6 5 -1 30.74 5.12 0
 -6 6 -7 0.32 4.41 0
 -6 6 -6 9.89 5.22 0
 -6 6 -4 11.37 4.92 0
 -6 6 -3 10.12 4.97 0
 -6 6 -2 120.04 9.26 0
 -6 6 -1 5.93 4.4 0
 -6 7 -5 35.13 6.71 0
 -6 7 -4 8.61 5.15 0
 -6 7 -3 23.17 6.41 0
 -5 -6 -9 14.98 4.88 0
 -5 -5 -10 0 4.08 0
 -5 -5 -9 38.07 6.28 0
 -5 -5 -8 19.35 4.72 0
 -5 -5 -7 24.58 4.69 0
 -5 -5 -6 27.5 5.05 0
 -5 -4 -10 11.38 5.06 0
 -5 -4 -9 2.82 3.97 0
 -5 -4 -8 40.46 5.73 0
 -5 -4 -7 98.11 7.65 0
 -5 -4 -6 2.01 2.95 0
 -5 -4 -5 28.78 4.28 0
 -5 -4 -2 5.34 2.3 0
 -5 -4 -1 11.94 2.2 0
 -5 -3 -11 33.48 6.08 0
 -5 -3 -10 90.17 7.99 0
 -5 -3 -8 67.64 6.41 0
 -5 -3 -7 49.34 5.93 0
 -5 -3 -6 83.65 6.67 0
 -5 -3 -5 5.86 2.87 0
 -5 -3 -4 3.86 2.46 0
 -5 -3 -2 130.88 5.61 0
 -5 -3 -1 102.68 4.57 0
 -5 -3 0 236.79 6.07 0
 -5 -2 -11 -3.21 4.67 0
 -5 -2 -10 58.66 6.78 0
 -5 -2 -9 23.67 5.55 0
 -5 -2 -8 31.49 5.21 0
 -5 -2 -7 20.8 4.39 0
 -5 -2 -6 13.15 3.5 0
 -5 -2 -5 43.06 4.91 0
 -5 -2 -2 17.26 2.72 0
 -5 -2 -1 78.9 4.13 0
 -5 -2 0 101.55 4.13 0
 -5 -2 1 30.71 2.18 0
 -5 -1 -11 26.11 6.3 0
 -5 -1 -10 176.7 10.64 0
 -5 -1 -8 20.44 4.44 0
 -5 -1 -7 11.13 4.02 0
 -5 -1 -6 5.79 3.16 0
 -5 -1 -5 34.55 4.57 0
 -5 -1 -1 22.61 2.97 0
 -5 -1 0 201.5 5.97 0
 -5 -1 1 9.72 1.67 0
 -5 0 -11 -4.34 3.41 0
 -5 0 -10 24.63 5.22 0
 -5 0 -9 84.42 7.37 0
 -5 0 -8 80.47 7.26 0
 -5 0 -7 15.63 4.02 0
 -5 0 -6 5.84 3.16 0
 -5 0 -5 44.45 5.27 0
 -5 0 -2 3.25 2.07 0
 -5 0 -1 152.55 5.98 0
 -5 0 0 184.42 5.95 0
 -5 0 1 73.81 3.67 0
 -5 0 2 297.93 6.21 0
 -5 1 -11 21 5.49 0
 -5 1 -10 181.44 10.7 0
 -5 1 -8 23.74 5.04 0
 -5 1 -7 13.34 4.01 0
 -5 1 -6 7.87 3.49 0
 -5 1 -5 42.14 5.05 0
 -5 1 -4 15.78 3.46 0
 -5 1 -2 423.35 10.84 0
 -5 1 -1 21.64 3.13 0
 -5 1 0 187.87 6.42 0
 -5 1 1 7.26 1.88 0
 -5 1 2 74.16 3.72 0
 -5 2 -11 -2.14 4.12 0
 -5 2 -10 44.58 6.74 0
 -5 2 -9 21.87 5.75 0
 -5 2 -8 28.02 5.61 0
 -5 2 -7 21.08 4.81 0
 -5 2 -6 14.41 4.45 0
 -5 2 -5 31.97 4.79 0
 -5 2 -4 30.42 4.65 0
 -5 2 -1 81.18 5.36 0
 -5 2 0 106.83 5.43 0
 -5 2 2 148.68 5.66 0
 -5 3 -11 31.54 6.4 0
 -5 3 -10 93.31 9.16 0
 -5 3 -9 117.75 9.1 0
 -5 3 -8 70.76 7.49 0
 -5 3 -7 50.79 6.47 0
 -5 3 -6 92.83 7.3 0
 -5 3 -5 7.72 3.53 0
 -5 3 -4 1.57 2.9 0
 -5 3 -3 73.79 5.7 0
 -5 3 0 236.45 8.47 0
 -5 3 1 23.43 3.31 0
 -5 4 -10 5.89 4.44 0
 -5 4 -9 -3.87 3.43 0
 -5 4 -6 1.1 3.49 0
 -5 4 -5 19.86 4.91 0
 -5 4 -4 96.91 7.43 0
 -5 4 -3 8.09 3.62 0
 -5 4 -2 8.07 3.24 0
 -5 4 -1 10.33 3.27 0
 -5 5 -10 1.06 4.46 0
 -5 5 -9 31.33 6.93 0
 -5 5 -8 25.88 6.13 0
 -5 5 -7 21.59 5.66 0
 -5 5 -5 48.71 6.93 0
 -5 5 -4 6.77 3.7 0
 -5 5 -3 80.68 7.45 0
 -5 5 -1 49.04 5.53 0
 -5 6 -9 20.92 5.9 0
 -5 6 -8 21.37 6.38 0
 -5 6 -7 40.86 7.1 0
 -5 6 -6 1.64 4.11 0
 -5 6 -5 8.03 4.69 0
 -5 6 -3 47.91 6.43 0
 -5 6 -1 30.2 5.24 0
 -5 7 -7 3.45 4.67 0
 -5 7 -5 21.96 5.68 0
 -5 7 -4 12.91 4.91 0
 -5 7 -3 60.33 7.91 0
 -5 7 -2 33.06 6.38 0
 -5 8 -6 2.45 4.85 0
 -5 8 -5 26.18 7.22 0
 -5 8 -4 8.96 6.04 0
 -4 -5 -11 97.08 8.85 0
 -4 -5 -10 3.54 3.83 0
 -4 -4 -12 8.98 4.65 0
 -4 -4 -10 23.36 5.21 0
 -4 -4 -9 110.98 8.16 0
 -4 -3 -12 35.43 6.15 0
 -4 -3 -11 24.33 5.22 0
 -4 -3 -10 16.26 5.29 0
 -4 -3 -9 18.18 4.9 0
 -4 -3 -8 42.14 5.72 0
 -4 -3 -7 16.58 3.69 0
 -4 -3 2 131.24 3 0
 -4 -2 -13 21.17 5.92 0
 -4 -2 -12 9.99 4.39 0
 -4 -2 -11 11.43 4.34 0
 -4 -2 -10 29.46 5.12 0
 -4 -2 -9 44.02 5.45 0
 -4 -2 -8 49.97 6.1 0
 -4 -2 -7 2.68 2.79 0
 -4 -2 -6 141.75 7.26 0
 -4 -2 -4 193.35 7.38 0
 -4 -2 -3 18.5 3.01 0
 -4 -2 -2 49.39 3.57 0
 -4 -2 -1 19.34 2.33 0
 -4 -2 0 93.26 3.54 0
 -4 -2 2 9.51 1.07 0
 -4 -1 -13 7.21 4.82 0
 -4 -1 -12 19.92 5.19 0
 -4 -1 -11 12.48 4.62 0
 -4 -1 -10 17.43 4.95 0
 -4 -1 -9 96.53 7.08 0
 -4 -1 -8 16.24 3.85 0
 -4 -1 -6 184.63 7.81 0
 -4 -1 -4 352.18 9.35 0
 -4 -1 -3 212.46 6.83 0
 -4 -1 -2 296.05 7.4 0
 -4 -1 -1 1226.27 13.64 0
 -4 -1 2 92.29 2.65 0
 -4 0 -13 20.48 5.8 0
 -4 0 -12 8.26 4.62 0
 -4 0 -11 23.46 5.44 0
 -4 0 -10 60.94 6.69 0
 -4 0 -9 11.96 4.43 0
 -4 0 -8 99.3 6.98 0
 -4 0 -7 18.06 3.65 0
 -4 0 -6 145.04 7.08 0
 -4 0 -4 9.16 2.51 0
 -4 0 -3 67.69 4.25 0
 -4 0 -2 89.24 4.64 0
 -4 0 0 38.74 2.81 0
 -4 0 2 0.58 0.99 0
 -4 1 -13 9.29 5.56 0
 -4 1 -12 23.36 5.77 0
 -4 1 -11 7.84 4.74 0
 -4 1 -10 21.76 4.93 0
 -4 1 -8 10.74 3.33 0
 -4 1 -4 341.26 9.92 0
 -4 1 -3 230.96 7.87 0
 -4 1 -2 291.65 8.08 0
 -4 1 -1 1239.08 15.38 0
 -4 1 0 17.79 2.38 0
 -4 1 1 35.53 2.6 0
 -4 2 -12 7.2 4.61 0
 -4 2 -11 11.49 4.64 0
 -4 2 -10 31.34 5.63 0
 -4 2 -9 30.39 5.62 0
 -4 2 -8 61.59 6.43 0
 -4 2 -7 5.82 3.35 0
 -4 2 -6 137.7 7.53 0
 -4 2 -3 19.16 3.37 0
 -4 2 -1 18.55 2.8 0
 -4 2 0 101.61 4.97 0
 -4 2 1 56.68 3.58 0
 -4 2 2 8.67 1.93 0
 -4 3 -12 37.76 7.5 0
 -4 3 -11 21.19 5.78 0
 -4 3 -10 17.17 4.81 0
 -4 3 -9 21.48 4.88 0
 -4 3 -8 40.4 5.51 0
 -4 3 -7 23.65 4.63 0
 -4 3 -6 146.12 8.08 0
 -4 3 -5 18.01 3.55 0
 -4 3 -2 72.35 4.99 0
 -4 3 -1 368.96 9.77 0
 -4 3 0 28.84 3.19 0
 -4 3 1 281.65 8.14 0
 -4 3 2 131.07 5.79 0
 -4 4 -12 12.66 5.46 0
 -4 4 -11 1.55 4.69 0
 -4 4 -10 27.81 6.02 0
 -4 4 -9 100.32 8.07 0
 -4 4 -7 31.67 5.22 0
 -4 4 -6 52.32 5.94 0
 -4 4 -5 11.82 3.54 0
 -4 4 -4 44.91 5.13 0
 -4 4 1 6.13 2.6 0
 -4 5 -11 96.05 9.37 0
 -4 5 -10 3.38 4.23 0
 -4 5 -9 25.98 5.51 0
 -4 5 -8 41.48 6.67 0
 -4 5 -7 24.71 5.6 0
 -4 5 -6 9.34 3.68 0
 -4 5 -5 16.5 3.97 0
 -4 6 -10 12.89 5.35 0
 -4 6 -9 18.67 5.58 0
 -4 6 -8 27.25 6.02 0
 -4 6 -5 5.81 3.9 0
 -4 6 -4 22.37 5.15 0
 -4 6 -3 0.05 3.22 0
 -4 6 -1 2.73 3.09 0
 -4 7 -9 1.66 4.59 0
 -4 7 -6 2.41 4.09 0
 -4 7 -5 64.05 6.9 0
 -4 7 -4 29.62 5.73 0
 -4 7 -3 89.29 7.81 0
 -4 7 -2 39.08 6.4 0
 -4 8 -7 12.1 5.42 0
 -4 8 -6 46.74 7.41 0
 -4 8 -5 28.49 5.92 0
 -4 8 -4 65.63 7.64 0
 -4 9 -6 42.26 7.51 0
 -3 -4 -13 34.54 6.58 0
 -3 -4 -12 13.98 4.94 0
 -3 -4 -11 37.55 6.05 0
 -3 -3 -13 11.83 4.93 0
 -3 -3 -12 21.26 5.11 0
 -3 -3 -11 -0.85 3.35 0
 -3 -3 -10 11.53 3.96 0
 -3 -2 -14 62.77 8.01 0
 -3 -2 -13 -1.89 4.26 0
 -3 -2 -12 33.69 5.84 0
 -3 -2 -10 5.66 3.29 0
 -3 -2 -9 42.69 5.32 0
 -3 -2 -8 150.75 7.6 0
 -3 -2 2 62.31 1.62 0
 -3 -1 -14 16.55 5.89 0
 -3 -1 -13 5.65 4.11 0
 -3 -1 -12 14.99 4.89 0
 -3 -1 -9 22.5 4.36 0
 -3 -1 -8 26.56 4.1 0
 -3 -1 -5 6.33 2.24 0
 -3 -1 -4 256.5 7.34 0
 -3 -1 -3 150.32 5.3 0
 -3 -1 -1 5.87 1.42 0
 -3 -1 0 403.6 6.1 0
 -3 -1 1 109.79 2.79 0
 -3 -1 2 239.01 3.11 0
 -3 0 -14 11.55 5.05 0
 -3 0 -13 35 6.27 0
 -3 0 -12 1.36 3.44 0
 -3 0 -11 -1.94 2.93 0
 -3 0 -10 42.31 5.29 0
 -3 0 -9 3.15 2.69 0
 -3 0 -8 0.28 2.28 0
 -3 0 -6 7.65 2.47 0
 -3 0 -4 0.73 1.51 0
 -3 0 -1 576.66 8.56 0
 -3 0 0 502.64 7.34 0
 -3 0 1 457.33 6.22 0
 -3 0 2 228.12 3.87 0
 -3 1 -14 19.84 5.61 0
 -3 1 -13 0.73 3.96 0
 -3 1 -12 18.11 5.29 0
 -3 1 -11 80.51 7.43 0
 -3 1 -10 38.99 5.45 0
 -3 1 -9 21.39 3.97 0
 -3 1 -8 24.58 4.08 0
 -3 1 -4 260.75 7.69 0
 -3 1 -3 134.53 5.53 0
 -3 1 -1 5.44 1.67 0
 -3 1 1 119.77 3.83 0
 -3 1 2 243.98 5 0
 -3 2 -13 -2.61 3.91 0
 -3 2 -12 24.03 5.17 0
 -3 2 -11 12.91 4.28 0
 -3 2 -10 8.67 3.61 0
 -3 2 -8 143.52 7.69 0
 -3 2 -7 205.89 8.52 0
 -3 2 -5 102.18 5.67 0
 -3 2 -4 69.51 4.5 0
 -3 2 -3 125.56 5.51 0
 -3 2 2 58.97 3.16 0
 -3 3 -13 6.33 4.86 0
 -3 3 -12 14.35 4.93 0
 -3 3 -11 3.08 3.79 0
 -3 3 -10 11.26 4.39 0
 -3 3 -9 11.87 3.99 0
 -3 3 -7 63.46 5.48 0
 -3 3 -4 281.61 8.84 0
 -3 3 -3 95.26 5.3 0
 -3 3 -2 178.61 6.44 0
 -3 3 -1 14.77 2.74 0
 -3 4 -13 46.55 7.43 0
 -3 4 -12 11.84 5.03 0
 -3 4 -11 27.92 6.15 0
 -3 4 -10 99.73 7.85 0
 -3 4 -9 3.88 3.61 0
 -3 4 -8 120.46 7.99 0
 -3 4 -7 40.68 5.01 0
 -3 4 -6 12.19 3.64 0
 -3 4 -3 160.79 7.14 0
 -3 4 -2 106.17 5.53 0
 -3 4 -1 19.37 3.36 0
 -3 4 0 58.27 4.35 0
 -3 4 1 27.04 3.5 0
 -3 5 -12 8.57 5.41 0
 -3 5 -11 2.92 4.1 0
 -3 5 -10 68.7 7.66 0
 -3 5 -9 8.79 4.08 0
 -3 5 -8 33.34 5.79 0
 -3 5 -7 90.67 7.29 0
 -3 5 -5 51.09 5.05 0
 -3 5 -1 22.7 3.67 0
 -3 5 0 321.59 10.04 0
 -3 6 -12 15.53 5.64 0
 -3 6 -10 120.24 9.33 0
 -3 6 -9 7.56 4.84 0
 -3 6 -8 88.92 7.53 0
 -3 6 -7 11.74 4.35 0
 -3 6 -6 79.77 6.7 0
 -3 6 -5 3.26 2.96 0
 -3 6 -4 36.24 4.96 0
 -3 6 -2 36.3 4.58 0
 -3 7 -11 9.07 5.51 0
 -3 7 -10 29.87 7.15 0
 -3 7 -9 2.21 4.01 0
 -3 7 -8 73.86 7.94 0
 -3 7 -7 7.95 4.17 0
 -3 7 -6 2.23 4.1 0
 -3 7 -3 54.23 5.6 0
 -3 7 -2 5.87 3.82 0
 -3 8 -10 69.61 8.56 0
 -3 8 -9 9.29 5.33 0
 -3 8 -8 60.08 7.93 0
 -3 8 -7 -0.17 3.77 0
 -3 8 -6 23.32 5.68 0
 -3 8 -5 24.5 5.4 0
 -3 8 -4 27.63 5.5 0
 -3 9 -8 22 6.35 0
 -3 9 -7 30.09 6.62 0
 -2 -4 -14 64.77 8.01 0
 -2 -4 -13 5.36 4.56 0
 -2 -3 -14 95.99 8.82 0
 -2 -3 -13 38.4 6.25 0
 -2 -3 -12 39.34 5.89 0
 -2 -2 -14 60.51 7.49 0
 -2 -2 -13 24.95 5.51 0
 -2 -2 -11 13.09 4.31 0
 -2 -2 -10 14.79 3.7 0
 -2 -1 -15 8.04 4.53 0
 -2 -1 -14 22.07 5.11 0
 -2 -1 -13 2.83 3.66 0
 -2 -1 -10 22.34 4.37 0
 -2 -1 -9 10.18 2.81 0
 -2 -1 1 291.15 3.31 0
 -2 0 -15 36.23 6.18 0
 -2 0 -13 5.97 4.11 0
 -2 0 -12 9 3.73 0
 -2 0 -11 95.41 6.81 0
 -2 0 -10 21.87 4.01 0
 -2 0 -9 93.63 6.01 0
 -2 0 -3 718.38 9.81 0
 -2 0 -2 32.55 2.42 0
 -2 0 -1 285.68 5.07 0
 -2 0 0 246.65 4.16 0
 -2 1 -15 2.48 4.27 0
 -2 1 -14 13.74 4.69 0
 -2 1 -13 0.49 4.21 0
 -2 1 -12 13.43 4.42 0
 -2 1 -11 30.7 5.22 0
 -2 1 -9 8.77 2.98 0
 -2 1 -7 49.47 4.17 0
 -2 1 -2 505.21 8.13 0
 -2 1 0 602.77 7.41 0
 -2 2 -14 70.31 8.48 0
 -2 2 -13 28.63 6.01 0
 -2 2 -12 16.91 4.33 0
 -2 2 -10 11.18 3.56 0
 -2 2 -9 111.65 7.07 0
 -2 2 -7 227.1 8.12 0
 -2 2 -6 143.11 6.19 0
 -2 2 -2 217.01 5.92 0
 -2 2 -1 132.48 4.44 0
 -2 2 0 805.29 9.9 0
 -2 2 1 470.86 7.48 0
 -2 3 -14 96.74 8.67 0
 -2 3 -13 38.34 6.15 0
 -2 3 -10 1.52 3.13 0
 -2 3 -9 13.57 3.67 0
 -2 3 -8 59.23 5.37 0
 -2 3 -6 11.66 2.84 0
 -2 3 -5 34.53 3.72 0
 -2 3 -1 549.42 9.65 0
 -2 3 0 343.04 7.61 0
 -2 3 1 1019.26 12.86 0
 -2 4 -14 70.64 7.39 0
 -2 4 -13 3.98 4.72 0
 -2 4 -12 20.54 5.25 0
 -2 4 -11 23.09 5.26 0
 -2 4 -10 51.59 5.62 0
 -2 4 -5 3.97 2.42 0
 -2 4 -4 188.85 7.03 0
 -2 5 -13 20.47 5.4 0
 -2 5 -12 17.92 5.24 0
 -2 5 -11 2.84 4.25 0
 -2 5 -9 43.97 5.92 0
 -2 5 -8 15.29 4.2 0
 -2 5 -7 91.44 6.57 0
 -2 5 -4 24.66 3.6 0
 -2 5 -1 521.25 11.76 0
 -2 6 -12 16.7 4.9 0
 -2 6 -11 5.84 4.55 0
 -2 6 -10 99.87 8.44 0
 -2 6 -9 17.36 4.33 0
 -2 6 -8 12.89 4.08 0
 -2 6 -7 71.71 6.34 0
 -2 6 -6 110.04 6.97 0
 -2 6 -5 111.32 7.21 0
 -2 7 -12 53.06 7.91 0
 -2 7 -11 1.99 4.14 0
 -2 7 -10 41.13 6.7 0
 -2 7 -9 20.58 4.88 0
 -2 7 -8 20.49 4.76 0
 -2 7 -7 7.14 3.74 0
 -2 7 -6 5.44 3.34 0
 -2 7 -4 283.95 11.14 0
 -2 7 -3 13.67 3.8 0
 -2 8 -11 13 5.1 0
 -2 8 -9 30.49 6.44 0
 -2 8 -8 24.59 5.81 0
 -2 8 -7 14.65 4.45 0
 -2 8 -6 48.63 6.92 0
 -2 8 -5 60.44 6.31 0
 -2 9 -9 6.87 4.44 0
 -1 -4 -14 23.13 5.25 0
 -1 -3 -15 2.92 4.6 0
 -1 -3 -14 41.59 6.2 0
 -1 -3 -13 103.01 7.9 0
 -1 -2 -15 8.1 4.25 0
 -1 -2 -14 42.51 6.29 0
 -1 -2 -13 3.14 3.42 0
 -1 -2 -12 1.43 3.5 0
 -1 -1 -15 11.78 4.9 0
 -1 -1 -14 119.19 8.61 0
 -1 -1 -13 192.8 9.85 0
 -1 -1 -12 7.41 3.23 0
 -1 -1 -11 32.39 4.51 0
 -1 0 -15 12.49 4.35 0
 -1 0 -14 36.9 5.75 0
 -1 0 -13 0.45 3.04 0
 -1 0 -12 13.03 4.25 0
 -1 0 -11 0.8 2.61 0
 -1 0 -10 130.06 6.93 0
 -1 0 -7 -0.65 1.58 0
 -1 0 -6 456.73 9.07 0
 -1 0 -5 3.62 1.45 0
 -1 0 -2 106.21 2.95 0
 -1 0 -1 1562.07 8.89 0
 -1 0 0 470.86 3.84 0
 -1 1 -15 17.56 5.1 0
 -1 1 -13 193.56 9.87 0
 -1 1 -12 10.68 3.94 0
 -1 1 -11 45.82 5.44 0
 -1 1 -10 58.06 5.27 0
 -1 1 -7 62.42 3.97 0
 -1 1 -6 161.79 5.72 0
 -1 1 -5 81.12 4.05 0
 -1 1 -4 965.81 11.11 0
 -1 1 0 5223.07 17.01 0
 -1 1 1 432.62 4.94 0
 -1 2 -14 41.24 6.11 0
 -1 2 -13 3.87 4.22 0
 -1 2 -12 2.11 3.05 0
 -1 2 -10 37.44 4.5 0
 -1 2 -8 445.63 10.88 0
 -1 2 -7 183.95 6.82 0
 -1 2 -6 439.59 9.43 0
 -1 2 -5 82.29 3.99 0
 -1 2 -3 572.75 8.68 0
 -1 2 -2 15.83 2.02 0
 -1 2 -1 1172.17 10.79 0
 -1 2 0 2121.19 13.94 0
 -1 3 -15 -3.7 3.93 0
 -1 3 -14 40.92 6.25 0
 -1 3 -13 114.01 8.22 0
 -1 3 -12 1.52 3.26 0
 -1 3 -11 23.44 4.29 0
 -1 3 -10 67.53 5.99 0
 -1 3 -8 34.46 4.08 0
 -1 3 -6 433.15 9.98 0
 -1 3 -4 388.76 8.32 0
 -1 3 -3 74.73 4.03 0
 -1 3 -2 97.47 4.27 0
 -1 3 0 272.85 6.21 0
 -1 4 -14 26.27 5.49 0
 -1 4 -13 3.03 3.42 0
 -1 4 -11 38.65 5.32 0
 -1 4 -10 37.26 4.89 0
 -1 4 -9 54.42 5.11 0
 -1 4 -6 93.74 5.13 0
 -1 4 -5 160.94 6.32 0
 -1 4 -4 49.65 3.71 0
 -1 4 -3 44.62 3.49 0
 -1 4 -2 61.14 4.01 0
 -1 4 -1 496.54 9.44 0
 -1 5 -14 19.33 4.89 0
 -1 5 -13 20.22 5.03 0
 -1 5 -12 14.07 4.39 0
 -1 5 -11 8.14 3.81 0
 -1 5 -9 29.85 4.62 0
 -1 5 -8 8.71 3.1 0
 -1 5 -5 15.5 3.07 0
 -1 5 -3 1.9 2.08 0
 -1 5 -2 70.56 4.49 0
 -1 6 -13 4.76 4.17 0
 -1 6 -12 28.91 5.85 0
 -1 6 -11 106.7 8.25 0
 -1 6 -10 41.59 5.91 0
 -1 6 -9 34.94 5.1 0
 -1 6 -8 12.59 3.82 0
 -1 6 -7 244.91 9.54 0
 -1 6 -4 71.5 5.55 0
 -1 6 -3 100.17 5.87 0
 -1 7 -12 -0.81 3.33 0
 -1 7 -11 11.99 5.04 0
 -1 7 -9 94.74 7.76 0
 -1 7 -8 17.13 4.32 0
 -1 7 -7 6.96 3.72 0
 -1 7 -6 62.31 6.07 0
 -1 7 -5 32.19 4.78 0
 -1 7 -4 84.78 6.56 0
 -1 8 -11 5.42 4.81 0
 -1 8 -10 37.07 6.07 0
 -1 8 -9 11.6 5.01 0
 -1 8 -8 3.58 3.92 0
 -1 8 -7 272.71 11.84 0
 0 -4 -15 27.82 5.4 0
 0 -2 -15 74.9 7.15 0
 0 -2 -14 32.16 5.09 0
 0 -1 -15 24.91 4.85 0
 0 -1 -14 49.92 6.01 0
 0 -1 -13 97.56 6.83 0
 0 -1 -12 123.72 7.32 0
 0 -1 -11 136.99 6.84 0
 0 0 -15 45.76 5.96 0
 0 0 -14 43.77 5.51 0
 0 0 -13 203.17 9.18 0
 0 0 -12 2.18 2.62 0
 0 0 -11 -0.43 2 0
 0 0 -9 12.65 2.66 0
 0 0 -8 1071.16 14.57 0
 0 1 -15 21.95 4.73 0
 0 1 -14 52.72 5.65 0
 0 1 -13 87.98 6.61 0
 0 1 -12 131.39 7.21 0
 0 1 -9 2.95 2.32 0
 0 1 -8 127.1 5.28 0
 0 1 -7 203.4 6.04 0
 0 1 -6 128.33 4.43 0
 0 1 -5 518.33 7.8 0
 0 1 -3 1025.19 8.25 0
 0 1 -2 484.41 5.1 0
 0 2 -15 86.39 7.11 0
 0 2 -14 31.98 4.97 0
 0 2 -13 190.76 8.77 0
 0 2 -11 49.19 4.92 0
 0 2 -9 6.19 2.35 0
 0 2 -8 339.03 8.51 0
 0 2 -6 12 2.02 0
 0 2 -5 477.65 7.98 0
 0 2 -4 558.96 7.89 0
 0 2 -3 863.87 8.96 0
 0 2 -2 2000.29 12.39 0
 0 2 -1 187.88 3.96 0
 0 3 -14 43.87 5.51 0
 0 3 -13 17.58 3.96 0
 0 3 -12 55.28 5.64 0
 0 3 -11 72.14 5.67 0
 0 3 -9 37.72 4.17 0
 0 3 -8 63.26 4.14 0
 0 3 -7 21.42 3.13 0
 0 3 -6 17.25 2.45 0
 0 3 -4 98.4 3.89 0
 0 3 -3 441.87 7.62 0
 0 3 -2 783.27 9.42 0
 0 3 -1 582.72 8.17 0
 0 4 -13 33.13 5.14 0
 0 4 -12 4.52 3.01 0
 0 4 -11 113.29 6.96 0
 0 4 -8 135.16 6.24 0
 0 4 -7 92.32 5.06 0
 0 4 -6 5.32 2.22 0
 0 4 -5 255.41 7.12 0
 0 4 -4 49.27 3.33 0
 0 4 -3 779.67 11.24 0
 0 5 -13 48.3 5.89 0
 0 5 -12 12.81 4.08 0
 0 5 -11 4.05 2.9 0
 0 5 -10 30.05 4.45 0
 0 5 -7 116.5 6.06 0
 0 5 -6 127.28 6.14 0
 0 5 -5 3.53 2.44 0
 0 5 -4 63.43 4.14 0
 0 5 -3 40.16 3.3 0
 0 6 -13 6.58 3.7 0
 0 6 -12 0.4 3.04 0
 0 6 -11 68.56 6.33 0
 0 6 -10 145.81 7.96 0
 0 6 -9 63.14 5.71 0
 0 6 -6 11.81 2.89 0
 0 6 -5 36.84 4.56 0
 0 6 -4 94.18 5.71 0
 0 7 -12 3.23 3.35 0
 0 7 -11 4.59 3.31 0
 0 7 -10 44.28 5.74 0
 0 7 -9 3.13 3.48 0
 0 7 -8 103.17 6.63 0
 0 7 -7 204.65 8.76 0
 0 8 -11 59.26 6.66 0
 0 8 -10 38.85 5.66 0
 1 -4 -15 16.64 4.2 0
 1 -2 -15 17.84 4.18 0
 1 -2 -14 145.38 8.31 0
 1 -2 -13 6.13 3.15 0
 1 -1 -14 16.95 3.85 0
 1 -1 -13 4.65 2.78 0
 1 -1 -12 38.86 4.14 0
 1 0 -15 11.75 3.5 0
 1 0 -13 72.24 5.53 0
 1 0 -12 167.24 7.32 0
 1 0 -10 75.52 4.65 0
 1 0 -9 94.59 4.67 0
 1 1 -14 10.09 3.31 0
 1 1 -13 5.7 2.81 0
 1 1 -10 65.52 4.25 0
 1 1 -9 22.21 2.71 0
 1 1 -8 48.86 3.05 0
 1 1 -7 358.1 6.79 0
 1 1 -6 698.91 8.44 0
 1 1 -5 20.73 1.53 0
 1 1 -3 1107.65 6.1 0
 1 2 -14 140.7 7.38 0
 1 2 -13 2.48 2.67 0
 1 2 -11 13.12 3 0
 1 2 -10 13.39 2.95 0
 1 2 -9 0.49 1.65 0
 1 2 -8 94 4.2 0
 1 2 -7 43.8 2.94 0
 1 2 -6 222.12 5.11 0
 1 2 -5 167.39 4.04 0
 1 2 -4 152.64 3.36 0
 1 3 -13 6.8 2.89 0
 1 3 -12 5.46 2.74 0
 1 3 -10 96.59 5.05 0
 1 3 -9 98.89 4.91 0
 1 3 -8 113.09 4.8 0
 1 3 -7 548.97 9.14 0
 1 3 -6 667.65 9.33 0
 1 3 -5 35.52 2.45 0
 1 3 -3 26.07 2.08 0
 1 4 -12 2.51 2.45 0
 1 4 -10 16.28 2.84 0
 1 4 -9 97.37 5.02 0
 1 4 -8 8.49 2.14 0
 1 4 -7 91.5 4.36 0
 1 4 -6 36.66 3.12 0
 1 4 -5 21.85 2.41 0
 1 4 -4 58.28 3.28 0
 1 5 -11 12.77 3.22 0
 1 5 -9 133.62 6.13 0
 1 5 -8 91.72 5.08 0
 1 5 -6 67.94 4.2 0
 1 5 -5 19.29 2.93 0
 1 6 -11 49 4.93 0
 1 6 -8 9.53 2.91 0
 1 6 -7 99.86 5.63 0
 2 -2 -14 12.91 3.6 0
 2 -2 -13 37.37 4.58 0
 2 -1 -13 84.09 5.47 0
 2 0 -13 0.67 1.92 0
 2 0 -11 17.2 2.76 0
 2 0 -10 64.14 3.75 0
 2 0 -9 59.82 3.34 0
 2 1 -12 53.73 3.99 0
 2 1 -11 17.67 2.56 0
 2 1 -10 8.92 2.09 0
 2 1 -9 109.19 4.02 0
 2 1 -8 148.11 4.14 0
 2 1 -7 352.79 5.47 0
 2 1 -6 84 2.35 0
 2 1 -5 43.61 1.37 0
 2 2 -11 11.99 2.33 0
 2 2 -10 209.25 5.9 0
 2 2 -9 63.34 3.23 0
 2 2 -8 47.26 2.59 0
 2 2 -7 148.22 3.65 0
 2 2 -6 217.68 3.71 0
 2 3 -10 24.43 2.57 0
 2 3 -9 13.6 1.88 0
 2 3 -7 64.71 2.75 0
 2 3 -6 169.95 3.71 0
 2 4 -9 85.03 3.81 0
 2 4 -8 112.22 4.04 0
 2 5 -9 33.56 2.97 0
 3 -1 -11 -0.51 1.59 0
 3 0 -10 42.81 2.66 0
 3 0 -9 101.88 3.35 0
 3 0 -8 134.87 3.36 0
 3 1 -8 48.85 1.56 0
 -8 -4 5 28.14 6.09 0
 -7 -7 0 4.9 5.88 0
 -7 -7 1 8.68 5.98 0
 -7 -7 2 25.29 7.74 0
 -7 -7 3 3.76 5.83 0
 -7 -7 4 0.37 5.49 0
 -7 -6 0 94.49 9.45 0
 -7 -6 2 1.93 5.09 0
 -7 -6 3 21.37 6.54 0
 -7 -6 4 27.02 7.28 0
 -7 -6 5 26.78 7.12 0
 -7 -5 0 3.47 5.32 0
 -7 -5 2 25.05 6.39 0
 -7 -5 3 5.57 5.48 0
 -7 -5 5 34.32 7.93 0
 -7 -5 6 14.8 6.64 0
 -7 -5 7 14.76 6.89 0
 -7 -5 8 34.85 8.04 0
 -7 -4 1 45.06 6.7 0
 -7 -4 2 28.38 5.74 0
 -7 -4 3 66.08 8.23 0
 -7 -4 4 38.23 7.24 0
 -7 -4 6 6.53 5.39 0
 -7 -4 7 6.35 5.57 0
 -7 -4 8 64.15 9.93 0
 -7 -4 9 29.85 7.8 0
 -7 -3 2 1.26 3.46 0
 -7 -3 3 33.65 5.86 0
 -7 -3 4 34.49 6.5 0
 -7 -3 5 51.53 7.29 0
 -7 -3 6 13.49 5.37 0
 -7 -3 7 39.68 7.51 0
 -7 -3 9 3.41 5.65 0
 -7 -3 10 20.68 6.9 0
 -7 -2 4 16.04 4.5 0
 -7 -2 5 36.87 6.28 0
 -7 -2 6 6.87 4.28 0
 -7 -2 10 40.86 8.41 0
 -7 -1 7 67.85 7.28 0
 -7 -1 8 -3.24 3.56 0
 -7 -1 9 9.15 5.19 0
 -7 -1 10 3.39 4.97 0
 -7 -1 11 15.51 6.21 0
 -7 0 9 10.71 4.87 0
 -7 0 10 19.1 5.87 0
 -7 0 11 51.47 8.11 0
 -6 -8 0 7.3 5.9 0
 -6 -8 1 3.61 5.64 0
 -6 -8 2 31.14 7.8 0
 -6 -8 3 17.49 7.29 0
 -6 -8 4 7.91 6.29 0
 -6 -8 5 6.19 5.67 0
 -6 -8 6 -4.64 5.83 0
 -6 -7 -1 52.53 8 0
 -6 -7 0 26.28 7.09 0
 -6 -7 1 27.81 7.3 0
 -6 -7 3 27.41 7.35 0
 -6 -7 5 16.38 6.56 0
 -6 -7 6 12.14 6.65 0
 -6 -7 7 115.07 12.49 0
 -6 -6 -1 -0.23 4.19 0
 -6 -6 0 22.36 6.26 0
 -6 -6 1 88.59 9.86 0
 -6 -6 2 19.7 5.93 0
 -6 -6 3 -0.55 4.65 0
 -6 -6 5 7.5 6.04 0
 -6 -6 6 74.53 9.57 0
 -6 -6 7 11.11 6.69 0
 -6 -6 8 -0.33 5.37 0
 -6 -6 9 77.43 10.55 0
 -6 -5 -1 31.4 6.25 0
 -6 -5 1 15.75 5.41 0
 -6 -5 4 99.89 9.88 0
 -6 -5 6 4.51 4.96 0
 -6 -5 8 102.14 10.54 0
 -6 -5 10 6.19 6.14 0
 -6 -5 11 4.71 6.43 0
 -6 -4 -1 4.84 3.85 0
 -6 -4 0 21.12 5.21 0
 -6 -4 1 35.47 5.9 0
 -6 -4 2 7.73 4.46 0
 -6 -4 4 24.94 5.44 0
 -6 -4 5 197.24 11.68 0
 -6 -4 6 18.2 6.1 0
 -6 -4 9 21.95 7.61 0
 -6 -4 11 5.68 6.41 0
 -6 -3 -1 68.4 6.28 0
 -6 -3 0 28.04 5.14 0
 -6 -3 1 -0.18 3.13 0
 -6 -3 3 66.82 6.83 0
 -6 -3 4 88.38 8.17 0
 -6 -3 6 44.19 7.13 0
 -6 -3 9 53.61 8.85 0
 -6 -3 11 20.98 8.08 0
 -6 -3 12 114.42 12.06 0
 -6 -2 4 14.04 4.39 0
 -6 -2 5 81.57 7.55 0
 -6 -2 6 17.29 5.01 0
 -6 -2 8 24.74 6.75 0
 -6 -2 9 9.87 5.89 0
 -6 -2 10 6.73 5.64 0
 -6 -2 11 -3.77 6.23 0
 -6 -2 12 11.47 6.3 0
 -6 -1 1 1.3 2.21 0
 -6 -1 2 23.14 3.96 0
 -6 -1 5 7.42 3.92 0
 -6 -1 6 42.27 5.96 0
 -6 -1 7 20.54 5.51 0
 -6 -1 8 26.82 6.48 0
 -6 -1 9 13.93 6.17 0
 -6 -1 10 5.15 5.13 0
 -6 -1 11 40.52 7.44 0
 -6 -1 12 8.57 5.91 0
 -6 0 4 4.92 2.78 0
 -6 0 7 3.16 3.69 0
 -6 0 8 3.04 3.95 0
 -6 0 9 6.91 4.76 0
 -6 0 10 30.57 6.73 0
 -6 0 11 13.71 5.97 0
 -6 0 13 -1.55 6.52 0
 -6 1 7 22.73 4.8 0
 -6 1 8 36.64 6.12 0
 -6 1 9 11.46 4.67 0
 -6 1 10 9.28 4.89 0
 -6 1 11 47 7.57 0
 -6 1 12 4.99 5.89 0
 -6 2 9 11.07 4.19 0
 -6 2 10 4.28 4.21 0
 -6 2 11 -0.15 4.08 0
 -6 2 12 19.51 6.99 0
 -6 3 12 86.84 9.52 0
 -5 -10 1 55.83 9.6 0
 -5 -10 2 22.44 7.92 0
 -5 -9 0 15.82 6.32 0
 -5 -9 1 6.79 5.72 0
 -5 -9 3 16.3 6.79 0
 -5 -9 4 5.47 6.02 0
 -5 -9 5 4.83 6.25 0
 -5 -9 7 90.41 10.65 0
 -5 -8 -1 44.4 8.14 0
 -5 -8 0 18.37 6.07 0
 -5 -8 2 6.18 5.52 0
 -5 -8 4 44.68 8.99 0
 -5 -8 6 65.68 10.04 0
 -5 -8 7 23.87 7.26 0
 -5 -8 8 33.97 8.11 0
 -5 -8 9 25.02 8.06 0
 -5 -7 -1 98.5 9.44 0
 -5 -7 0 22.41 6.49 0
 -5 -7 1 86.41 9.53 0
 -5 -7 2 80.35 9.36 0
 -5 -7 3 37.89 7.13 0
 -5 -7 4 11.75 6.24 0
 -5 -7 5 8.79 5.13 0
 -5 -7 6 46.2 8.15 0
 -5 -7 7 30.52 7.74 0
 -5 -7 8 2.55 5.47 0
 -5 -7 10 33.8 8.39 0
 -5 -6 -2 8.59 4.32 0
 -5 -6 -1 30.16 6.07 0
 -5 -6 0 121.32 9.95 0
 -5 -6 1 50.5 7.71 0
 -5 -6 2 8.77 4.65 0
 -5 -6 4 14.98 5.6 0
 -5 -6 5 25.33 6.89 0
 -5 -6 6 44.73 8 0
 -5 -6 7 28.79 7.77 0
 -5 -6 8 179.48 13.14 0
 -5 -6 9 42.95 8.52 0
 -5 -6 10 5.32 6.25 0
 -5 -6 11 19.69 8.12 0
 -5 -5 -2 38.95 6.05 0
 -5 -5 -1 46.53 6.64 0
 -5 -5 0 61.45 7.36 0
 -5 -5 1 115.69 8.96 0
 -5 -5 2 22.01 5.82 0
 -5 -5 3 18.63 5.75 0
 -5 -5 4 13.28 4.91 0
 -5 -5 5 55.37 7.61 0
 -5 -5 6 73.21 9 0
 -5 -5 7 3.07 4.51 0
 -5 -5 9 64.09 9.82 0
 -5 -5 10 46.86 8.58 0
 -5 -5 11 9.85 6.14 0
 -5 -5 12 3.69 6.3 0
 -5 -4 -2 7.68 4.33 0
 -5 -4 -1 7.84 3.87 0
 -5 -4 1 131.75 8.4 0
 -5 -4 4 108.62 8.42 0
 -5 -4 5 13.68 4.68 0
 -5 -4 6 27.3 5.9 0
 -5 -4 8 76.33 9.54 0
 -5 -4 9 29.69 7.37 0
 -5 -4 10 8.85 5.8 0
 -5 -4 11 27.18 7.34 0
 -5 -4 12 73.94 10.68 0
 -5 -4 13 38.22 8.47 0
 -5 -3 5 60.89 6.95 0
 -5 -3 8 70.56 8.5 0
 -5 -3 9 9.71 5.8 0
 -5 -3 10 20.52 6.36 0
 -5 -3 12 10.22 6.88 0
 -5 -3 13 50.42 9.89 0
 -5 -2 -2 16.25 3.15 0
 -5 -2 -1 78.96 5.89 0
 -5 -2 0 112.77 6.46 0
 -5 -2 1 35.62 4.51 0
 -5 -2 2 150.56 7.83 0
 -5 -2 3 218.57 9.79 0
 -5 -2 6 75.04 7.3 0
 -5 -2 7 4.96 4.24 0
 -5 -2 8 8.65 4.59 0
 -5 -2 9 13.63 5.14 0
 -5 -2 10 41.03 8.02 0
 -5 -2 12 11.88 6.39 0
 -5 -2 13 146.72 13.22 0
 -5 -1 -1 24.12 3.54 0
 -5 -1 0 191.63 7.32 0
 -5 -1 4 37.21 4.81 0
 -5 -1 7 44.61 6.7 0
 -5 -1 8 22.84 5.39 0
 -5 -1 10 80.9 8.62 0
 -5 -1 11 99.88 10.13 0
 -5 -1 12 3.86 5.62 0
 -5 -1 13 19.53 6.9 0
 -5 0 -1 144.76 5.36 0
 -5 0 1 72.58 4.38 0
 -5 0 2 300.52 8.87 0
 -5 0 3 301.05 9.47 0
 -5 0 4 70.34 5.23 0
 -5 0 5 159 8.16 0
 -5 0 8 -0.54 3.57 0
 -5 0 9 74.06 8.64 0
 -5 0 10 98.99 9.95 0
 -5 0 11 113.52 10.33 0
 -5 0 12 47.62 8.48 0
 -5 0 13 68.82 10.52 0
 -5 0 14 11.02 7.08 0
 -5 1 1 7.58 1.61 0
 -5 1 2 75.28 4.24 0
 -5 1 3 45.48 3.89 0
 -5 1 4 30.93 3.94 0
 -5 1 5 17.01 3.67 0
 -5 1 6 21.15 4.09 0
 -5 1 8 24 5.44 0
 -5 1 9 13.59 5.07 0
 -5 1 10 87.05 9.31 0
 -5 1 11 119.03 10.22 0
 -5 1 12 8.31 5.66 0
 -5 1 13 20.7 7.83 0
 -5 1 14 75.35 11.1 0
 -5 2 3 230.87 6.9 0
 -5 2 5 232.58 8.67 0
 -5 2 6 61.75 5.68 0
 -4 -10 0 9.72 5.63 0
 -4 -10 1 11.76 6.07 0
 -4 -10 3 2.88 6.03 0
 -4 -10 4 24.74 7.67 0
 -4 -10 5 13.45 7.07 0
 -4 -10 6 9.18 6.27 0
 -4 -9 -1 52.83 8.88 0
 -4 -9 1 9.44 5.6 0
 -4 -9 2 148.19 12.28 0
 -4 -9 3 36.99 7.3 0
 -4 -9 5 29.61 7.89 0
 -4 -9 6 0.25 5.2 0
 -4 -9 9 2.77 6.81 0
 -4 -8 -1 34.25 7.18 0
 -4 -8 1 1.35 4.92 0
 -4 -8 2 44.84 7.81 0
 -4 -8 3 43.6 8.09 0
 -4 -8 4 31.71 6.66 0
 -4 -8 5 15.39 6.69 0
 -4 -8 6 35.49 7.8 0
 -4 -8 7 159.82 12.34 0
 -4 -8 8 38.8 8.18 0
 -4 -8 10 26.09 7.99 0
 -4 -7 0 64.63 7.41 0
 -4 -7 1 52.05 7.49 0
 -4 -7 2 78.49 8.69 0
 -4 -7 3 10.68 4.81 0
 -4 -7 4 0.4 4.52 0
 -4 -7 5 41.62 7.22 0
 -4 -7 6 7.32 5.62 0
 -4 -7 7 59.02 8.18 0
 -4 -7 8 52.53 9.44 0
 -4 -7 10 27.61 7.49 0
 -4 -7 11 7.34 6.39 0
 -4 -6 -2 12.24 4.48 0
 -4 -6 -1 -0.81 4.24 0
 -4 -6 0 182.14 10.48 0
 -4 -6 1 8.24 4.63 0
 -4 -6 3 15.62 4.77 0
 -4 -6 4 25.99 5.78 0
 -4 -6 5 19.49 5.38 0
 -4 -6 7 25.73 6.42 0
 -4 -6 9 8.49 5.47 0
 -4 -6 10 23.75 7.88 0
 -4 -6 11 -0.01 6.52 0
 -4 -6 12 81.03 11.03 0
 -4 -5 -2 57.86 6.49 0
 -4 -5 3 30.24 5.19 0
 -4 -5 4 43.24 6.48 0
 -4 -5 6 51.84 7.06 0
 -4 -5 7 137.95 9.95 0
 -4 -5 8 16.74 5.61 0
 -4 -5 9 144.24 11.71 0
 -4 -5 10 7.32 5.59 0
 -4 -5 11 15 6.74 0
 -4 -5 12 3.81 6.72 0
 -4 -5 13 7.15 6.56 0
 -4 -4 -1 23.52 4.54 0
 -4 -4 0 173.07 8.92 0
 -4 -4 1 5.97 3.4 0
 -4 -4 6 20.94 4.77 0
 -4 -4 8 218.77 12.17 0
 -4 -4 10 56.98 8.81 0
 -4 -4 13 18.33 7.22 0
 -4 -4 14 1.02 6.22 0
 -4 -3 -2 70.89 5.91 0
 -4 -3 -1 353.11 11.3 0
 -4 -3 0 21.3 4.07 0
 -4 -3 1 280.5 10.28 0
 -4 -3 2 127.77 7.25 0
 -4 -3 4 225.91 9.85 0
 -4 -3 8 40.53 6.29 0
 -4 -3 10 19.65 5.83 0
 -4 -3 11 1.38 5.41 0
 -4 -3 12 23.66 7.03 0
 -4 -3 13 35.82 7.88 0
 -4 -3 14 35.79 9.51 0
 -4 -2 -1 19.44 3.31 0
 -4 -2 0 101.81 5.83 0
 -4 -2 1 62.61 5.13 0
 -4 -2 3 51.94 5.32 0
 -4 -2 5 5.33 3.7 0
 -4 -2 8 151 9.81 0
 -4 -2 9 67.01 7.9 0
 -4 -2 10 139.86 10.73 0
 -4 -2 11 97.24 9.7 0
 -4 -2 12 61.97 8.96 0
 -4 -2 13 19.13 7.02 0
 -4 -2 14 7.63 6.1 0
 -4 -1 -2 287.69 7.85 0
 -4 -1 -1 1252.68 16.49 0
 -4 -1 0 16.35 2.77 0
 -4 -1 4 447.38 12.09 0
 -4 -1 5 97.18 6.74 0
 -4 -1 6 400.01 13.08 0
 -4 -1 8 13.26 4.92 0
 -4 -1 10 21.51 6.11 0
 -4 -1 11 6.08 4.67 0
 -4 -1 12 155.67 12.67 0
 -4 -1 13 59.58 9.87 0
 -4 -1 15 6.85 7.63 0
 -4 0 2 -1.67 1.46 0
 -4 0 3 219.32 7.59 0
 -4 0 4 11.75 2.98 0
 -4 0 5 16.41 3.6 0
 -4 0 6 37.87 5.1 0
 -4 1 0 20.53 1.93 0
 -4 1 3 32.03 3.3 0
 -4 1 4 436.17 10.77 0
 -4 2 0 99.93 2.07 0
 -4 2 1 60.56 2.51 0
 -4 2 3 43.73 3.39 0
 -4 3 1 279.81 3.12 0
 -3 -11 1 15.84 6.28 0
 -3 -11 2 -1.49 5.32 0
 -3 -11 3 7.5 6.79 0
 -3 -11 4 12.93 7.38 0
 -3 -11 5 18.95 6.96 0
 -3 -10 0 16.78 6.52 0
 -3 -10 3 44.24 8.07 0
 -3 -10 4 15.84 6.53 0
 -3 -10 5 -1.4 5.91 0
 -3 -10 6 -2.64 5.14 0
 -3 -10 7 20.06 7.58 0
 -3 -9 -1 -2.06 4.02 0
 -3 -9 0 33.37 6.83 0
 -3 -9 1 7.82 5.27 0
 -3 -9 2 5.65 5.12 0
 -3 -9 3 62.13 8.6 0
 -3 -9 4 93.94 10.19 0
 -3 -9 5 0.16 4.47 0
 -3 -9 7 16.12 6.13 0
 -3 -9 8 27.8 7.92 0
 -3 -9 9 12.41 6.02 0
 -3 -9 10 13.75 6.37 0
 -3 -8 0 41.05 6.9 0
 -3 -8 1 9.32 4.66 0
 -3 -8 2 48.93 7.31 0
 -3 -8 3 18.07 5.25 0
 -3 -8 4 17.87 5.43 0
 -3 -8 6 1.92 5.23 0
 -3 -8 10 25.64 7.82 0
 -3 -8 11 9.78 6.2 0
 -3 -7 -2 6.4 4.33 0
 -3 -7 -1 9.86 3.87 0
 -3 -7 0 353.01 13.95 0
 -3 -7 1 182.44 10.51 0
 -3 -7 2 23.19 5.11 0
 -3 -7 4 36.22 6.14 0
 -3 -7 5 24.63 5.56 0
 -3 -7 6 76.98 7.93 0
 -3 -7 7 2.34 4.47 0
 -3 -7 9 60.09 8.48 0
 -3 -7 10 17.8 6.68 0
 -3 -6 -2 35.37 5.68 0
 -3 -6 4 2.08 3.56 0
 -3 -6 5 58.27 7.08 0
 -3 -6 6 46.24 6.67 0
 -3 -6 7 33.77 6.21 0
 -3 -6 9 7.73 5.82 0
 -3 -6 10 1.7 4.74 0
 -3 -6 11 120.53 11.02 0
 -3 -6 12 0.14 6.48 0
 -3 -6 13 2.6 5.75 0
 -3 -5 -1 16.21 3.79 0
 -3 -5 0 307.8 11.32 0
 -3 -5 2 17.6 4.5 0
 -3 -5 6 49.47 6.43 0
 -3 -5 7 21.78 5.46 0
 -3 -5 8 -0.92 3.77 0
 -3 -5 10 17.48 5.46 0
 -3 -5 11 23.4 6.53 0
 -3 -5 12 -2.77 5.5 0
 -3 -5 14 45.81 9.11 0
 -3 -4 -1 23.07 3.89 0
 -3 -4 0 56.51 4.9 0
 -3 -4 1 23.36 4.16 0
 -3 -4 3 248.86 9.81 0
 -3 -4 4 55.03 5.56 0
 -3 -4 7 17.27 4.54 0
 -3 -4 9 49.95 6.96 0
 -3 -4 11 46.59 8.04 0
 -3 -4 12 88.97 9.75 0
 -3 -4 13 14.81 6.37 0
 -3 -4 14 12.11 7.09 0
 -3 -3 -1 18.84 3.45 0
 -3 -3 1 4.73 2.53 0
 -3 -3 2 13.33 3.07 0
 -3 -3 3 55.8 4.61 0
 -3 -3 6 235.66 10.13 0
 -3 -3 8 26.28 4.88 0
 -3 -3 9 4.04 3.86 0
 -3 -3 10 8.46 5.43 0
 -3 -3 11 15.57 5.8 0
 -3 -3 12 90.99 9.39 0
 -3 -3 13 129.6 12.71 0
 -3 -3 14 99.18 12.21 0
 -3 -3 15 50.29 9.64 0
 -3 -2 4 29.52 4.08 0
 -3 -2 12 60.95 9.1 0
 -3 -2 14 14.97 6.78 0
 -3 -1 -2 73.61 3.94 0
 -3 -1 -1 4.37 1.8 0
 -3 -1 0 409.48 8.57 0
 -3 -1 1 111.53 4.93 0
 -3 -1 2 241.05 7.45 0
 -3 -1 5 61.74 4.99 0
 -3 0 -1 576.9 8.42 0
 -3 0 0 506.57 8.09 0
 -3 0 2 234.65 6.58 0
 -3 0 3 807.03 12.9 0
 -3 1 -1 2.67 0.79 0
 -3 1 0 390.22 5.59 0
 -3 1 1 114.38 3.61 0
 -3 1 2 240.97 6.05 0
 -2 -11 2 17.2 6.41 0
 -2 -11 5 12.22 6.63 0
 -2 -11 6 7.59 5.39 0
 -2 -10 4 8.54 5.1 0
 -2 -10 5 16.92 5.75 0
 -2 -10 6 0.44 4.54 0
 -2 -10 7 34.06 7.8 0
 -2 -10 8 15.85 6.79 0
 -2 -9 0 55.63 7.35 0
 -2 -9 2 5.87 4.53 0
 -2 -9 3 10.99 5.02 0
 -2 -9 4 63.06 8.65 0
 -2 -9 5 4.13 4.62 0
 -2 -9 6 3.03 4.67 0
 -2 -9 8 24.75 6.65 0
 -2 -9 9 29.76 7.01 0
 -2 -9 10 -0.91 4.52 0
 -2 -8 -1 7.46 4.08 0
 -2 -8 0 139.65 9.23 0
 -2 -8 1 5.61 3.94 0
 -2 -8 3 129.16 9.15 0
 -2 -8 4 19.14 5.2 0
 -2 -8 7 9.51 4.85 0
 -2 -8 8 82.71 9.99 0
 -2 -8 9 7.05 6.09 0
 -2 -8 12 -1.72 5.02 0
 -2 -7 -2 25.76 5.05 0
 -2 -7 5 29.87 5.55 0
 -2 -7 6 43.86 6.41 0
 -2 -7 7 16.08 5.25 0
 -2 -7 8 65.59 7.99 0
 -2 -7 9 13.61 5.46 0
 -2 -7 10 -1.74 4.31 0
 -2 -7 11 114.67 11.38 0
 -2 -7 12 28.96 7.46 0
 -2 -7 13 11.14 7 0
 -2 -6 1 188.39 9.04 0
 -2 -6 6 24.59 5.18 0
 -2 -6 7 19.01 5.04 0
 -2 -6 10 36.29 7.15 0
 -2 -6 11 59.27 9.13 0
 -2 -6 12 4.15 5.22 0
 -2 -5 -2 22.3 3.69 0
 -2 -5 -1 494.23 13.09 0
 -2 -5 1 352.32 11.17 0
 -2 -5 2 126.27 7.3 0
 -2 -5 3 321.56 11.17 0
 -2 -5 4 12.63 3.73 0
 -2 -5 9 26.52 5.69 0
 -2 -5 10 18.4 6.05 0
 -2 -5 14 31.55 8.04 0
 -2 -4 4 64.43 5.52 0
 -2 -4 5 167.97 8.41 0
 -2 -4 6 193.35 9.47 0
 -2 -4 9 86.07 8.27 0
 -2 -4 10 31.22 6.79 0
 -2 -4 11 34.65 6.73 0
 -2 -4 12 -0.45 4.25 0
 -2 -4 14 51.27 9.03 0
 -2 -4 15 0.47 5.8 0
 -2 -3 -1 556.71 11.34 0
 -2 -3 2 126.22 5.9 0
 -2 -3 6 175.16 8.33 0
 -2 -3 9 11.66 4.49 0
 -2 -3 10 25.2 5.85 0
 -2 -3 11 30.29 7.03 0
 -2 -3 12 28.41 6.69 0
 -2 -3 14 50.75 9.5 0
 -2 -3 15 5.37 6.58 0
 -2 -2 -2 213 6.48 0
 -2 -2 -1 140.16 5.38 0
 -2 -2 0 785.65 11.79 0
 -2 -2 1 486.92 9.58 0
 -2 -2 3 113.32 5.69 0
 -2 -2 4 308.29 9.04 0
 -2 -1 -2 491.3 8.17 0
 -2 -1 -1 269.48 6.03 0
 -2 -1 0 584.74 8.74 0
 -2 -1 2 30.59 3.18 0
 -2 0 -1 270.95 4.86 0
 -2 0 0 238.36 4.7 0
 -2 0 2 -1.4 1.48 0
 -2 1 0 575.05 4.98 0
 -1 -11 2 7.02 5.17 0
 -1 -11 5 13.92 4.94 0
 -1 -11 6 32.69 6.95 0
 -1 -10 2 51.64 7.7 0
 -1 -10 3 35.06 6.85 0
 -1 -10 5 18.95 5.93 0
 -1 -10 6 4.13 4.38 0
 -1 -10 7 12.92 5.33 0
 -1 -10 8 46.05 7.1 0
 -1 -10 9 33.16 6.83 0
 -1 -9 0 26.19 5.48 0
 -1 -9 2 6.61 4.11 0
 -1 -9 3 5.17 4.05 0
 -1 -9 4 180.78 10.35 0
 -1 -9 5 20.85 5.8 0
 -1 -9 6 41.34 6.63 0
 -1 -9 7 126.87 9.94 0
 -1 -9 8 -2.87 3.8 0
 -1 -9 9 -0.31 4.1 0
 -1 -9 10 14.56 5.9 0
 -1 -8 -1 57.76 6.83 0
 -1 -8 0 71.27 7.06 0
 -1 -8 3 105.36 8.08 0
 -1 -8 5 19.13 5.16 0
 -1 -8 6 9.5 4.51 0
 -1 -8 7 38.59 6.19 0
 -1 -8 8 38.86 7.17 0
 -1 -8 9 15.7 6 0
 -1 -8 10 6.74 4.95 0
 -1 -8 11 26.96 6.2 0
 -1 -8 12 19.01 6.44 0
 -1 -7 1 6.84 3.82 0
 -1 -7 6 37.73 5.51 0
 -1 -7 7 45.29 6.52 0
 -1 -7 8 1.32 3.8 0
 -1 -7 10 3.57 4.91 0
 -1 -7 11 80.69 9.87 0
 -1 -7 13 3.5 5.01 0
 -1 -6 -1 181.04 8.36 0
 -1 -6 1 67.33 5.63 0
 -1 -6 2 82.39 5.94 0
 -1 -6 4 72.72 5.86 0
 -1 -6 5 56.32 5.92 0
 -1 -6 9 26.02 5.59 0
 -1 -6 10 28.14 6.03 0
 -1 -6 11 46.53 7.21 0
 -1 -6 12 19.4 6.37 0
 -1 -5 -1 73.83 5.19 0
 -1 -5 0 33.82 3.97 0
 -1 -5 1 92.07 5.8 0
 -1 -5 2 235.95 8.57 0
 -1 -5 4 399.41 11.43 0
 -1 -5 5 16.42 3.75 0
 -1 -5 6 66.26 6.2 0
 -1 -5 10 6.47 4.34 0
 -1 -5 13 11.04 5.73 0
 -1 -5 14 51.11 9.11 0
 -1 -4 -2 65.97 4.62 0
 -1 -4 -1 503.46 10.88 0
 -1 -4 0 164.75 6.36 0
 -1 -4 1 1334.49 17.28 0
 -1 -4 2 378.24 9.63 0
 -1 -4 4 62.34 4.76 0
 -1 -4 5 15.53 3.32 0
 -1 -4 7 84.5 6.73 0
 -1 -4 9 91.63 7.56 0
 -1 -4 10 17.86 5.21 0
 -1 -4 11 27.96 5.96 0
 -1 -4 12 0.11 4.51 0
 -1 -4 13 45.5 8.02 0
 -1 -4 14 92.3 10.66 0
 -1 -4 15 18.84 6.8 0
 -1 -3 1 365.94 8.23 0
 -1 -3 2 333.44 8.24 0
 -1 -3 3 27.59 3.4 0
 -1 -3 4 612.01 12.21 0
 -1 -3 6 673.41 14.84 0
 -1 -3 7 536.8 14 0
 -1 -3 14 84.13 10.92 0
 -1 -3 15 93.67 11.68 0
 -1 -2 -1 1154.29 12.35 0
 -1 -2 1 1986.93 16.21 0
 -1 -2 2 974.89 11.98 0
 -1 -1 -1 1219.7 10.44 0
 -1 -1 0 5313.37 20.68 0
 -1 -1 1 456.98 6.77 0
 -1 0 0 471.24 4.48 0
 0 -11 4 -1.19 3.9 0
 0 -10 2 10.44 4.07 0
 0 -10 3 13.38 4.42 0
 0 -10 4 200.96 10.67 0
 0 -10 5 2.41 3.42 0
 0 -10 6 14.38 4.86 0
 0 -9 1 56.69 6.33 0
 0 -9 2 14.16 4.7 0
 0 -9 3 167.53 9.15 0
 0 -9 4 4.49 3.64 0
 0 -9 5 80.46 7.1 0
 0 -9 6 20.24 5.07 0
 0 -9 7 46.57 6.41 0
 0 -9 8 66.14 7.33 0
 0 -9 9 6.52 4.86 0
 0 -8 7 1.59 3.53 0
 0 -8 8 6.11 4.18 0
 0 -8 9 28.61 5.96 0
 0 -8 10 33.72 6.46 0
 0 -8 11 55.98 7.58 0
 0 -7 1 197.83 8.34 0
 0 -7 3 67.78 5.83 0
 0 -7 4 6.67 3.13 0
 0 -7 5 18.74 4.06 0
 0 -7 9 -0.74 3.63 0
 0 -7 10 75.04 7.8 0
 0 -7 11 15.66 5 0
 0 -6 -1 472.73 11.67 0
 0 -6 1 498.15 11.73 0
 0 -6 2 57.12 4.82 0
 0 -6 3 275.76 9.28 0
 0 -6 4 89.79 5.76 0
 0 -6 5 39.85 4.78 0
 0 -6 6 3.05 3.21 0
 0 -6 9 66.94 6.5 0
 0 -6 11 77.88 8.18 0
 0 -6 12 1.06 4.66 0
 0 -6 13 11.64 5.54 0
 0 -5 1 156.76 6.17 0
 0 -5 2 13.95 2.99 0
 0 -5 3 39.9 3.62 0
 0 -5 4 58.26 4.71 0
 0 -5 6 109.24 6.53 0
 0 -5 7 112.86 7.01 0
 0 -5 11 1.27 4.16 0
 0 -5 12 9.1 4.94 0
 0 -4 -1 358.34 8.24 0
 0 -4 0 558.24 10.04 0
 0 -4 1 353.72 7.96 0
 0 -4 2 444.31 9.07 0
 0 -4 4 49.62 4.01 0
 0 -4 5 255.09 8.31 0
 0 -4 7 97.08 6.27 0
 0 -4 8 146.22 8.42 0
 0 -4 10 253.72 11.68 0
 0 -4 11 110.55 8.8 0
 0 -4 12 2.4 5 0
 0 -4 13 28.72 7.11 0
 0 -4 14 8.95 6.61 0
 0 -4 15 24.98 6.77 0
 0 -3 1 582.39 8.7 0
 0 -3 2 813.86 10.68 0
 0 -3 15 42.55 8.69 0
 0 -2 -1 192.06 4.55 0
 0 -2 0 9702.48 27.9 0
 0 -2 2 2021.53 14.35 0
 0 -1 1 490.07 4.95 0
 1 -8 2 41.24 4.53 0
 1 -8 3 17.03 3.59 0
 1 -8 4 146.9 7.15 0
 1 -8 5 129.02 6.86 0
 1 -7 1 62.82 4.8 0
 1 -7 2 6.25 2.69 0
 1 -7 3 18.82 3.31 0
 1 -7 4 89.72 5.57 0
 1 -7 5 29.53 4.2 0
 1 -7 6 52.6 4.93 0
 1 -7 7 9.18 3.02 0
 1 -7 9 90.36 6.76 0
 1 -6 1 175.68 6.48 0
 1 -6 2 124.83 5.53 0
 1 -6 3 95.58 5.09 0
 1 -6 4 75.78 4.86 0
 1 -6 5 165.96 6.96 0
 1 -6 6 12.19 2.99 0
 1 -6 7 234.28 9.07 0
 1 -6 8 15.18 3.74 0
 1 -6 10 52.97 6.5 0
 1 -6 11 110.77 8.35 0
 1 -5 0 34.96 3.09 0
 1 -5 1 69.93 3.71 0
 1 -5 3 1.91 1.7 0
 1 -5 4 459.42 9.67 0
 1 -5 5 18.72 2.99 0
 1 -5 6 307.07 9.21 0
 1 -5 10 178.66 9.46 0
 1 -5 11 4.66 3.89 0
 1 -5 12 14.02 4.51 0
 1 -5 13 10.82 5.41 0
 1 -4 1 500.57 7.8 0
 1 -4 2 61.3 3.08 0
 1 -4 3 41.86 2.89 0
 1 -4 4 45.7 3.4 0
 1 -4 5 168.46 6.18 0
 1 -4 6 89.6 5.31 0
 1 -4 7 441.7 11.42 0
 1 -4 8 52.53 5.4 0
 1 -4 11 38.43 6.17 0
 1 -4 12 6.76 4.37 0
 1 -4 13 4.94 4.6 0
 1 -4 14 25.12 6.83 0
 1 -3 0 270.61 4.75 0
 1 -3 1 404.6 5.67 0
 1 -3 2 97.08 3.19 0
 1 -3 3 69.17 2.99 0
 1 -3 4 385.67 7.67 0
 1 -3 15 2.03 4.58 0
 1 -2 2 15.5 1.46 0
 2 -7 3 13.03 2.07 0
 2 -7 4 272.3 6.81 0
 2 -6 3 3.72 1.49 0
 2 -6 4 62.62 3.33 0
 2 -6 5 103.92 4.42 0
 2 -6 6 105.42 4.83 0
 2 -5 2 19.84 1.74 0
 2 -5 3 17.02 1.88 0
 2 -5 4 19.76 2.01 0
 2 -5 5 4.45 1.53 0
 2 -5 6 10.39 2.23 0
 2 -5 7 98.82 5.1 0
 2 -5 8 21.19 3.36 0
 2 -5 9 49.29 4.8 0
 2 -4 2 467.49 4.85 0
 2 -4 3 178.06 3.69 0
 2 -4 4 195.07 4.62 0
 2 -4 5 8.2 1.8 0
 2 -4 7 158.3 6.35 0
 2 -4 8 11.64 2.96 0
 2 -4 9 48.02 5.18 0
 2 -3 3 418.49 4.89 0
 2 -3 4 304.05 5.65 0
 -7 2 7 23.74 5.26 0
 -7 2 8 9.22 4.68 0
 -7 2 9 9.33 5.03 0
 -7 2 10 50.28 8.27 0
 -7 3 7 48.34 6.89 0
 -7 3 8 76.66 9 0
 -7 3 9 -1.08 4.36 0
 -7 3 10 9.9 5.73 0
 -7 4 7 2.81 3.93 0
 -7 4 8 80.9 8.51 0
 -7 4 9 23.88 5.95 0
 -6 1 5 14.28 3.98 0
 -6 1 7 19.35 4.79 0
 -6 1 9 19.41 6.13 0
 -6 1 10 11.05 5.66 0
 -6 1 12 8.09 5.82 0
 -6 2 5 87.78 6.91 0
 -6 2 6 22.88 4.75 0
 -6 2 7 12.34 4.33 0
 -6 2 8 24.24 6.3 0
 -6 2 9 10.58 5.36 0
 -6 2 10 3.22 5.39 0
 -6 2 11 -0.14 4.87 0
 -6 2 12 17.08 7.08 0
 -6 3 5 23.8 4.34 0
 -6 3 6 38.65 5.69 0
 -6 3 8 31.51 6.57 0
 -6 3 10 5.72 4.96 0
 -6 3 11 27.9 7.25 0
 -6 4 4 28.51 4.32 0
 -6 4 5 182.82 9.48 0
 -6 4 6 20.93 4.8 0
 -6 4 7 49.37 6.63 0
 -6 4 8 26.47 5.94 0
 -6 4 9 24.65 6.73 0
 -6 4 10 26.73 6.98 0
 -6 4 11 4.91 5.31 0
 -6 5 5 24.75 4.61 0
 -6 5 7 39.28 6.17 0
 -6 5 8 105.24 9.6 0
 -6 5 9 52 7.88 0
 -6 5 10 8.44 5.64 0
 -6 5 11 17.81 6.45 0
 -6 6 5 18.3 4.68 0
 -6 6 6 90.6 8.54 0
 -6 6 7 7.4 4.65 0
 -6 6 8 2.56 4.77 0
 -6 6 9 63.74 8.55 0
 -6 7 5 15.01 4.6 0
 -6 7 6 17.37 5.65 0
 -6 7 7 115.46 10.11 0
 -6 7 8 26.11 6.38 0
 -5 0 7 2.5 3.15 0
 -5 0 8 -0.43 3.6 0
 -5 0 9 75.81 7.61 0
 -5 0 10 95.78 8.75 0
 -5 0 11 110.23 9.68 0
 -5 1 2 79.28 4.62 0
 -5 1 4 27.42 4.09 0
 -5 1 8 22.61 5.01 0
 -5 1 9 17.38 5.24 0
 -5 1 10 80.81 8.22 0
 -5 1 12 9.44 5.74 0
 -5 1 13 18 6.87 0
 -5 2 1 30.53 2.83 0
 -5 2 2 142.53 5.97 0
 -5 2 4 24.54 3.82 0
 -5 2 6 56.86 5.67 0
 -5 2 7 4.57 3.51 0
 -5 2 8 4.61 3.8 0
 -5 2 9 15.72 5.1 0
 -5 2 10 44.03 6.92 0
 -5 2 11 79.2 8.91 0
 -5 2 13 158.2 12.08 0
 -5 2 14 9.2 6.19 0
 -5 3 1 23.26 2.79 0
 -5 3 2 16.33 2.74 0
 -5 3 3 1.23 1.96 0
 -5 3 6 5.03 3.31 0
 -5 3 8 78.3 7.79 0
 -5 3 9 3.85 4 0
 -5 3 10 11.5 5.1 0
 -5 3 11 0.04 4.8 0
 -5 3 12 5.03 6.08 0
 -5 4 2 28.27 3.68 0
 -5 4 5 14.88 3.89 0
 -5 4 6 31.18 5.65 0
 -5 4 7 19.76 4.75 0
 -5 4 8 89.11 7.88 0
 -5 4 9 18.85 5.18 0
 -5 4 11 24.13 6.78 0
 -5 4 12 60.85 8.93 0
 -5 4 13 57.12 9.63 0
 -5 5 2 16.48 3.27 0
 -5 5 4 7.75 3.58 0
 -5 5 6 76.34 7.11 0
 -5 5 7 2.82 3.96 0
 -5 5 8 18.15 5.27 0
 -5 5 9 52.87 8.01 0
 -5 5 10 32.12 7.18 0
 -5 5 11 1.32 4.76 0
 -5 5 12 3.66 5.1 0
 -5 6 3 44.11 5.44 0
 -5 6 4 15.35 4.14 0
 -5 6 5 17.53 5.26 0
 -5 6 6 47.62 7.1 0
 -5 6 7 30.89 6.19 0
 -5 6 8 162.21 10.86 0
 -5 6 9 40.34 7.63 0
 -5 6 10 4.88 5.08 0
 -5 6 11 9.18 6.33 0
 -5 7 3 23.52 4.55 0
 -5 7 4 14.91 4.46 0
 -5 7 5 7.42 4.24 0
 -5 7 6 33.01 6.09 0
 -5 7 7 33.02 6.65 0
 -5 7 8 3.65 5.45 0
 -5 7 9 31.49 6.94 0
 -5 7 10 27.14 7.12 0
 -5 8 3 53.94 6.49 0
 -5 8 4 40.54 6.25 0
 -5 8 5 2.45 3.99 0
 -5 8 6 76.71 9.24 0
 -5 8 7 22.71 6.87 0
 -5 8 8 22.65 6.25 0
 -5 8 9 18.18 6.84 0
 -5 9 3 13.39 4.28 0
 -5 9 4 4.18 4.06 0
 -5 9 5 -0.85 4.05 0
 -5 9 6 5.1 5.04 0
 -5 9 7 98.92 10.41 0
 -4 0 2 1.73 1.7 0
 -4 0 3 223.11 7.35 0
 -4 0 4 9.46 2.76 0
 -4 0 5 20.86 3.66 0
 -4 0 8 13.49 4.19 0
 -4 0 10 188.68 10.71 0
 -4 0 12 -2.67 3.93 0
 -4 1 0 22.57 1.99 0
 -4 1 2 95.57 4.59 0
 -4 1 4 434.63 10.75 0
 -4 1 5 88.3 5.52 0
 -4 1 6 390.66 11.89 0
 -4 1 8 14.09 4.42 0
 -4 1 9 70.56 6.85 0
 -4 1 10 20.44 5.16 0
 -4 1 11 8.71 4.52 0
 -4 1 12 162.99 11.29 0
 -4 1 14 93.79 11.44 0
 -4 1 15 3.61 5.78 0
 -4 2 -1 21.34 1.64 0
 -4 2 2 7.62 2.05 0
 -4 2 4 326.3 9.73 0
 -4 2 5 6.28 2.99 0
 -4 2 9 55.59 6.31 0
 -4 2 11 93.93 9.06 0
 -4 2 12 60.38 7.89 0
 -4 3 0 25.33 2.37 0
 -4 3 1 277.78 7.35 0
 -4 3 2 139.2 5.92 0
 -4 3 3 10.45 2.85 0
 -4 3 4 226.18 8.53 0
 -4 3 5 139.07 7.34 0
 -4 3 7 131.21 7.94 0
 -4 3 8 43.42 5.89 0
 -4 3 9 227.12 11.36 0
 -4 3 10 23.67 5.25 0
 -4 3 11 3.93 4.44 0
 -4 3 13 42.07 7.77 0
 -4 3 14 27.09 6.82 0
 -4 4 -2 7.23 1.37 0
 -4 4 -1 22.7 2.41 0
 -4 4 0 171.63 5.92 0
 -4 4 2 8.09 2.71 0
 -4 4 3 2.61 2.6 0
 -4 4 4 85.15 6.1 0
 -4 4 6 17.64 4.35 0
 -4 4 7 59.32 6.14 0
 -4 4 8 232.49 11.59 0
 -4 4 9 23.07 5.27 0
 -4 4 10 52.51 7.13 0
 -4 4 11 17.16 5.83 0
 -4 4 12 22.98 7.07 0
 -4 4 13 12.78 6.21 0
 -4 4 14 0.16 6.37 0
 -4 5 -1 100.41 4.91 0
 -4 5 0 11.34 2.6 0
 -4 5 1 103.89 5.88 0
 -4 5 3 28.87 4.16 0
 -4 5 5 111.79 7.42 0
 -4 5 6 66.21 6.34 0
 -4 5 9 129.69 10.08 0
 -4 5 10 9.78 4.89 0
 -4 5 11 15.9 5.49 0
 -4 5 12 2.02 4.57 0
 -4 5 13 4.4 5.46 0
 -4 6 -1 2.26 1.85 0
 -4 6 1 7.42 2.92 0
 -4 6 4 23 4.53 0
 -4 6 6 35.73 6.08 0
 -4 6 7 26.01 5.73 0
 -4 6 8 27.57 6.36 0
 -4 6 9 10.77 5.31 0
 -4 6 10 24.75 6.66 0
 -4 6 11 6.65 5.59 0
 -4 6 12 73.5 10.21 0
 -4 7 1 35.45 4.76 0
 -4 7 2 75.71 6.84 0
 -4 7 3 10.66 3.99 0
 -4 7 4 4.7 4.42 0
 -4 7 5 46.7 6.75 0
 -4 7 6 13.94 4.74 0
 -4 7 8 44.56 7.21 0
 -4 7 9 79.95 8.65 0
 -4 7 10 30.1 6.94 0
 -4 7 11 10.24 6.02 0
 -4 8 0 115.74 7.63 0
 -4 8 1 -1.31 3.13 0
 -4 8 2 52.45 6.09 0
 -4 8 3 28.82 6.16 0
 -4 8 5 9.55 4.7 0
 -4 8 6 26 6.34 0
 -4 8 7 164.69 11.62 0
 -4 8 8 34.85 7.56 0
 -4 8 9 22.91 7.02 0
 -4 8 10 30.21 8.02 0
 -4 9 1 0.89 3.88 0
 -4 9 4 2.79 5.29 0
 -4 9 5 33.62 6.74 0
 -4 9 6 -1.48 4.18 0
 -4 9 7 27.08 7.26 0
 -4 9 8 69.38 9.86 0
 -4 9 9 -1.81 5.96 0
 -4 10 1 11.58 4.47 0
 -4 10 2 30.41 6.17 0
 -4 10 3 5.71 4.9 0
 -4 10 4 20.48 6.42 0
 -4 10 5 17.43 6.19 0
 -4 10 6 7.44 5.22 0
 -3 -1 5 55.64 4.22 0
 -3 -1 6 203.02 8.35 0
 -3 -1 9 22.09 4.33 0
 -3 -1 10 3.91 3.45 0
 -3 0 1 475.09 7.81 0
 -3 0 2 227.65 6.18 0
 -3 0 5 -0.79 1.98 0
 -3 0 6 10.54 2.89 0
 -3 0 11 6.11 4.17 0
 -3 0 12 14.26 5.05 0
 -3 0 13 61.39 8.34 0
 -3 0 14 22.06 6.79 0
 -3 1 -1 4.15 0.78 0
 -3 1 0 391.79 5.88 0
 -3 1 1 114.01 3.84 0
 -3 1 5 62.54 4.47 0
 -3 1 6 192.2 7.83 0
 -3 1 9 23.39 4.29 0
 -3 1 10 5 3.74 0
 -3 1 11 0.82 3.64 0
 -3 1 12 113.68 9.4 0
 -3 1 15 97.88 11.14 0
 -3 2 -2 8.99 0.87 0
 -3 2 -1 87.61 2.72 0
 -3 2 0 678.55 8.61 0
 -3 2 1 270.82 6.21 0
 -3 2 4 35.06 3.5 0
 -3 2 5 170.16 7.24 0
 -3 2 6 11.5 3.07 0
 -3 2 9 96.34 7.45 0
 -3 2 10 -0.45 2.72 0
 -3 2 11 29.36 5.77 0
 -3 2 12 68.33 7.63 0
 -3 2 13 49.78 7.64 0
 -3 2 14 20.05 6.27 0
 -3 2 15 27.1 7.31 0
 -3 3 -4 274.45 4.14 0
 -3 3 -3 89.31 2.75 0
 -3 3 -2 181.48 4.33 0
 -3 3 -1 17.99 1.91 0
 -3 3 3 59.17 4.39 0
 -3 3 4 747.89 14.19 0
 -3 3 5 490.22 12.25 0
 -3 3 8 22 4.15 0
 -3 3 9 8.62 3.89 0
 -3 3 10 9.13 3.87 0
 -3 3 11 15.22 4.78 0
 -3 3 12 96.54 8.83 0
 -3 3 13 138.83 10.82 0
 -3 3 15 48.52 8.05 0
 -3 4 0 56.43 3.79 0
 -3 4 1 21.97 3.01 0
 -3 4 2 75.65 4.99 0
 -3 4 3 251.82 8.58 0
 -3 4 4 58.59 4.97 0
 -3 4 5 187.98 8.41 0
 -3 4 8 60.43 6.58 0
 -3 4 9 52.98 6.27 0
 -3 4 10 51.03 6.93 0
 -3 4 12 83.81 8.4 0
 -3 4 13 19.2 6.56 0
 -3 4 14 8.8 5.63 0
 -3 5 -1 16.35 2.68 0
 -3 5 0 321.03 9.12 0
 -3 5 1 428.65 10.92 0
 -3 5 2 19.87 3.69 0
 -3 5 4 75.48 5.92 0
 -3 5 6 53.41 5.97 0
 -3 5 8 -0.06 3.45 0
 -3 5 9 161.31 10.01 0
 -3 5 10 16.36 5.21 0
 -3 5 13 67.63 9.42 0
 -3 5 14 67.31 9.93 0
 -3 6 1 3.06 2.64 0
 -3 6 5 59.3 6.47 0
 -3 6 6 38.72 5.85 0
 -3 6 7 37.47 5.73 0
 -3 6 8 129.85 9.41 0
 -3 6 9 11.31 4.58 0
 -3 6 10 6.11 5.38 0
 -3 6 12 1.09 5.73 0
 -3 7 2 18.08 4.26 0
 -3 7 4 37.57 5.75 0
 -3 7 5 23.74 5.49 0
 -3 7 6 82.75 7.55 0
 -3 7 7 1.78 4.09 0
 -3 7 8 98.57 8.81 0
 -3 7 9 49.09 7.53 0
 -3 7 10 22.74 6.63 0
 -3 7 11 30.12 6.94 0
 -3 7 12 -1.94 5.94 0
 -3 8 1 5.85 4.39 0
 -3 8 2 46.14 6.61 0
 -3 8 3 19.64 4.78 0
 -3 8 4 14.03 4.65 0
 -3 8 5 2.17 4.33 0
 -3 8 6 1.24 4.08 0
 -3 8 7 33.1 6.91 0
 -3 8 9 2.47 4.88 0
 -3 8 10 14.96 5.9 0
 -3 9 -1 0.11 3.2 0
 -3 9 0 28.31 5.66 0
 -3 9 1 8.84 4.36 0
 -3 9 2 8.7 4.35 0
 -3 9 4 90.59 8.62 0
 -3 9 5 3.73 4.62 0
 -3 9 6 81.84 10.2 0
 -3 9 8 37.13 7.35 0
 -3 9 9 11.46 6.7 0
 -3 9 10 30.83 7.49 0
 -3 10 -2 7.97 4.21 0
 -3 10 0 12.57 5.12 0
 -3 10 1 34.24 6.62 0
 -3 10 4 23.14 6.86 0
 -3 10 5 3.12 5.86 0
 -3 10 7 9.37 5.47 0
 -3 10 8 21.11 6.82 0
 -3 11 -1 6.02 5.02 0
 -3 11 0 30.59 6.9 0
 -3 11 1 7.47 5.16 0
 -3 11 2 -0.56 4.61 0
 -3 11 3 2.66 5.08 0
 -3 11 4 23.1 7.4 0
 -3 11 5 8.42 6.2 0
 -2 -1 3 208.27 6 0
 -2 -1 4 98.1 4.99 0
 -2 -1 7 349.52 10.52 0
 -2 -1 8 146.51 7.6 0
 -2 -1 10 5.48 3.36 0
 -2 0 0 237.62 3.91 0
 -2 0 1 364.29 5.8 0
 -2 0 2 2.74 1.42 0
 -2 0 3 2.5 1.65 0
 -2 0 4 620.67 10.55 0
 -2 0 7 36.69 3.83 0
 -2 0 8 29.6 4.27 0
 -2 0 10 70.24 6.49 0
 -2 0 11 19.09 5.25 0
 -2 0 13 -1.53 4.23 0
 -2 0 14 22.46 6.58 0
 -2 1 0 584.27 6.16 0
 -2 1 8 140.42 7.45 0
 -2 1 10 4.38 3.29 0
 -2 1 12 58.76 7.68 0
 -2 1 13 81.73 8.88 0
 -2 1 14 46.02 7.15 0
 -2 1 15 18.89 6.02 0
 -2 2 -1 141.02 3.48 0
 -2 2 0 791.96 8.88 0
 -2 2 1 466.04 7.6 0
 -2 2 2 328.7 7.15 0
 -2 2 3 109.63 4.66 0
 -2 2 7 143.47 7.04 0
 -2 2 10 208.3 10 0
 -2 2 11 11.65 4.7 0
 -2 2 12 11 4.65 0
 -2 2 13 40.54 6.66 0
 -2 2 14 13.55 6.34 0
 -2 2 15 46.89 7.8 0
 -2 3 1 1000.08 12.85 0
 -2 3 7 68.24 5.32 0
 -2 3 9 15.08 4.28 0
 -2 3 10 29.83 5.43 0
 -2 3 11 29.81 5.52 0
 -2 3 12 23.69 5.87 0
 -2 3 13 37.8 6.77 0
 -2 3 15 5.56 5.42 0
 -2 4 3 14.06 3.11 0
 -2 4 4 63.59 4.77 0
 -2 4 5 180.62 8.03 0
 -2 4 9 80.16 7.21 0
 -2 4 10 33.09 6.02 0
 -2 4 11 31.53 6.29 0
 -2 4 12 7.38 4.71 0
 -2 4 14 51.62 7.71 0
 -2 5 2 113.99 6.42 0
 -2 5 3 299.79 9.97 0
 -2 5 4 14.67 3.72 0
 -2 5 5 113.89 6.9 0
 -2 5 7 24.79 4.26 0
 -2 5 8 187.81 9.86 0
 -2 5 9 33.69 6.07 0
 -2 5 10 24.24 5.79 0
 -2 5 11 220.32 12.54 0
 -2 5 12 8.84 5.76 0
 -2 5 13 49.95 8.38 0
 -2 5 14 25.5 6.7 0
 -2 6 2 4.99 2.87 0
 -2 6 6 27.35 4.91 0
 -2 6 7 19.48 4.53 0
 -2 6 8 121.06 8.83 0
 -2 6 9 89.01 8.54 0
 -2 6 10 44.97 7.38 0
 -2 6 11 55.73 8.34 0
 -2 6 13 98.99 10.35 0
 -2 7 3 101.36 7.87 0
 -2 7 4 173.35 9.77 0
 -2 7 6 47.1 6.29 0
 -2 7 8 63.23 7.73 0
 -2 7 9 17.29 5.48 0
 -2 7 10 1.66 4.33 0
 -2 7 11 122.65 11.07 0
 -2 7 13 11.17 6.37 0
 -2 8 2 65.31 6.89 0
 -2 8 3 119.02 8.79 0
 -2 8 4 13.66 4.61 0
 -2 8 5 -0.56 3.4 0
 -2 8 6 21.9 5.37 0
 -2 8 7 6.75 4.65 0
 -2 8 8 64.91 8.23 0
 -2 8 9 7.65 5.38 0
 -2 8 11 55.64 8.47 0
 -2 8 12 -2.23 4.4 0
 -2 9 3 7.43 4.36 0
 -2 9 5 1.11 4.1 0
 -2 9 6 2.33 4.48 0
 -2 9 7 -1.07 5.82 0
 -2 9 8 14.68 6.08 0
 -2 9 9 34.15 7.28 0
 -2 9 10 -1.35 4.69 0
 -2 10 2 12.23 5.25 0
 -2 10 3 15.99 5.68 0
 -2 10 4 3.05 4.89 0
 -2 10 6 -3.62 4.6 0
 -2 10 7 40.11 7.83 0
 -2 10 8 15.26 6.5 0
 -2 10 9 0.44 4.94 0
 -2 11 4 27.06 7.02 0
 -2 11 5 15.59 6.46 0
 -2 11 6 1.87 5.42 0
 -1 -1 3 1149.72 11.99 0
 -1 -1 4 2301.08 18.83 0
 -1 -1 5 21.56 2.96 0
 -1 -1 6 677.86 12.33 0
 -1 -1 7 361.41 9.79 0
 -1 -1 8 50.15 4.41 0
 -1 -1 9 18.94 4.1 0
 -1 -1 11 94.92 7.74 0
 -1 0 1 34.65 1.76 0
 -1 0 2 13.6 1.79 0
 -1 0 5 140.43 5.23 0
 -1 0 7 1.65 1.96 0
 -1 0 8 5.82 2.8 0
 -1 0 9 90.2 6 0
 -1 0 12 164.82 9.61 0
 -1 0 13 77.55 7.72 0
 -1 1 0 5192.39 15.65 0
 -1 1 1 457.55 5.85 0
 -1 1 2 20.89 2.19 0
 -1 1 3 1141.48 11.92 0
 -1 1 4 2282.73 18.63 0
 -1 1 5 23.51 2.92 0
 -1 1 6 666.47 12.18 0
 -1 1 7 346.02 9.64 0
 -1 1 8 46.42 4.47 0
 -1 1 9 21.37 3.84 0
 -1 1 11 113.86 7.63 0
 -1 1 12 40.64 6.25 0
 -1 1 13 0.47 3.84 0
 -1 1 15 52.66 7.25 0
 -1 2 3 513.07 9.1 0
 -1 2 5 165.4 6.06 0
 -1 2 6 222.02 7.43 0
 -1 2 11 12.88 3.94 0
 -1 2 13 10.26 4.69 0
 -1 2 15 15.01 5.88 0
 -1 3 3 26.07 3.08 0
 -1 3 4 590.69 11.41 0
 -1 3 7 536.77 12.85 0
 -1 3 8 119.26 6.84 0
 -1 3 10 93.52 7.15 0
 -1 3 11 14.66 4.32 0
 -1 3 12 4.36 3.99 0
 -1 3 14 83.59 8.94 0
 -1 4 6 38.09 3.97 0
 -1 4 7 93.44 6.56 0
 -1 4 10 21.86 4.91 0
 -1 4 11 33.1 5.59 0
 -1 4 13 37.97 6.44 0
 -1 4 14 90.06 8.94 0
 -1 4 15 15.1 6.09 0
 -1 5 5 19.92 4.01 0
 -1 5 8 86.34 6.74 0
 -1 5 10 2.83 4.19 0
 -1 5 11 18.84 5.07 0
 -1 5 12 20.05 6.26 0
 -1 5 13 18.18 5.64 0
 -1 5 14 49.57 7.79 0
 -1 6 6 44.77 5.61 0
 -1 6 7 106.9 7.82 0
 -1 6 8 15.29 4.47 0
 -1 6 9 26.52 5.57 0
 -1 6 10 23.65 5.76 0
 -1 6 11 43.99 6.92 0
 -1 6 12 22.52 6.62 0
 -1 6 13 29.19 6.58 0
 -1 6 14 27.77 7.21 0
 -1 7 4 152.87 8.72 0
 -1 7 5 20.08 4.37 0
 -1 7 6 45.73 6.47 0
 -1 7 8 4.26 4.03 0
 -1 7 9 37.6 6.96 0
 -1 7 10 7.73 4.87 0
 -1 7 11 90.15 9.68 0
 -1 7 12 23.33 6.49 0
 -1 8 5 23.76 5.51 0
 -1 8 6 6.65 4.4 0
 -1 8 7 46.86 7.43 0
 -1 8 8 32.67 6.28 0
 -1 8 9 19.41 6.17 0
 -1 8 10 10.11 5.27 0
 -1 8 11 33.68 6.94 0
 -1 9 4 191.98 11.45 0
 -1 9 5 14.86 5.34 0
 -1 9 6 40.88 7.08 0
 -1 9 7 138.09 11.2 0
 -1 9 8 3.85 5.91 0
 -1 9 9 5.06 5.33 0
 -1 9 10 13.26 5.92 0
 -1 10 3 34.52 7.42 0
 -1 10 4 16.69 5.55 0
 -1 10 5 18.91 5.72 0
 -1 10 6 10.31 5.79 0
 -1 10 8 53.64 8.48 0
 -1 10 9 44.54 8.31 0
 -1 11 3 67.83 9.7 0
 -1 11 4 39.1 7.84 0
 -1 11 5 14.33 6.69 0
 -1 11 7 17.27 6.69 0
 -1 12 2 28.53 7.37 0
 -1 12 3 6.04 5.98 0
 0 -1 4 238.51 5.39 0
 0 -1 5 547.85 9.23 0
 0 -1 6 128.25 5.18 0
 0 -1 7 209.07 6.93 0
 0 -1 8 139.87 6.4 0
 0 -1 9 1.15 2.42 0
 0 -1 10 31.09 4.35 0
 0 0 2 2912.36 12.14 0
 0 0 3 31.38 2.19 0
 0 0 4 246.06 5.29 0
 0 0 6 11.76 2.5 0
 0 0 7 104.07 5.05 0
 0 0 8 1100.22 16.31 0
 0 0 9 10.61 2.95 0
 0 0 10 168.17 7.96 0
 0 0 12 5.43 4.01 0
 0 1 2 486.82 6.26 0
 0 1 3 1054.02 10.19 0
 0 1 4 231.96 5.47 0
 0 1 5 524.14 9.11 0
 0 1 6 129.41 5.14 0
 0 1 7 204.74 7.03 0
 0 1 9 2.58 2.54 0
 0 1 10 31.44 4.32 0
 0 1 12 125.59 8.32 0
 0 1 13 88.63 7.79 0
 0 1 14 43.97 6.6 0
 0 2 3 873.42 11.02 0
 0 2 4 551.21 9.42 0
 0 2 5 488.89 9.56 0
 0 2 6 10.43 2.37 0
 0 2 7 260.42 8.13 0
 0 2 8 358.81 10.15 0
 0 2 9 9.54 3.12 0
 0 2 13 191.11 10.09 0
 0 2 14 39.62 6.32 0
 0 2 15 89.78 8.41 0
 0 3 4 93.81 4.76 0
 0 3 5 117.6 5.45 0
 0 3 6 17.93 3.07 0
 0 3 7 16.43 3.46 0
 0 3 8 65.58 5.24 0
 0 3 11 67.19 6.8 0
 0 3 13 24.67 5 0
 0 3 14 40.79 6.57 0
 0 3 15 44.5 6.97 0
 0 4 5 259.09 8.61 0
 0 4 6 6.92 2.83 0
 0 4 11 108.92 7.92 0
 0 4 12 4.78 3.94 0
 0 4 13 32.82 5.73 0
 0 4 14 16.11 5.3 0
 0 4 15 31.42 6.64 0
 0 5 5 6.16 2.99 0
 0 5 6 124.48 7.17 0
 0 5 9 21.89 4.67 0
 0 5 10 31.13 5.62 0
 0 5 11 -0.22 3.52 0
 0 5 12 10.78 4.65 0
 0 5 13 49.74 7.06 0
 0 5 14 103.55 9.27 0
 0 6 7 59.24 6.47 0
 0 6 8 21.98 4.88 0
 0 6 9 61.76 6.7 0
 0 6 10 143.16 9.86 0
 0 6 11 59.96 7.78 0
 0 6 12 6.04 4.92 0
 0 6 13 5.01 4.95 0
 0 7 6 78.1 7.66 0
 0 7 7 216.88 11.35 0
 0 7 8 106.68 8.46 0
 0 7 9 -0.47 3.69 0
 0 7 11 13.2 4.94 0
 0 7 12 -1.03 4.2 0
 0 7 13 9.34 5.46 0
 0 8 5 12.72 4.21 0
 0 8 6 11.35 4.76 0
 0 8 7 4.75 4.36 0
 0 8 8 5.07 4.55 0
 0 8 9 37.77 6.72 0
 0 8 10 31.21 7.26 0
 0 8 11 54.3 8.56 0
 0 8 12 50.63 8.23 0
 0 9 5 72.42 7.84 0
 0 9 7 55.53 8.04 0
 0 9 8 55.58 8.57 0
 0 9 9 4.5 5.39 0
 0 9 10 0.12 4.9 0
 0 10 4 217.04 12.42 0
 0 10 5 7.58 5.34 0
 0 10 6 16.15 6.44 0
 0 10 7 18.44 6.43 0
 0 10 8 28.42 7.21 0
 0 10 9 21.92 7.08 0
 0 11 4 0.13 4.6 0
 0 11 5 15.06 6.31 0
 0 11 6 24.66 6.88 0
 0 12 3 18.96 6.84 0
 1 0 3 -0.82 0.62 0
 1 0 4 355.15 5.25 0
 1 0 6 447.65 7.8 0
 1 0 7 2.29 1.63 0
 1 0 8 528.92 10.37 0
 1 0 10 136.69 6.5 0
 1 0 11 4.31 2.52 0
 1 1 3 58.56 2.54 0
 1 1 5 82 3.44 0
 1 1 7 70.37 4.16 0
 1 1 9 73.99 4.89 0
 1 1 10 53.12 4.46 0
 1 1 12 11.61 3.83 0
 1 1 13 189.42 8.9 0
 1 2 4 36.17 2.97 0
 1 2 5 83.61 4.1 0
 1 2 6 448.07 9.19 0
 1 2 7 193.85 6.64 0
 1 2 8 456.29 10.53 0
 1 2 9 100.4 5.59 0
 1 2 12 -1.38 2.86 0
 1 2 13 6.57 3.55 0
 1 3 5 20.42 2.89 0
 1 3 6 437.98 10.13 0
 1 3 8 34.2 3.88 0
 1 3 9 102.97 6.35 0
 1 3 11 23.46 4.36 0
 1 3 12 -0.1 2.74 0
 1 3 13 97.08 7.47 0
 1 4 5 170.17 7.19 0
 1 4 7 422.66 11.58 0
 1 4 8 44.67 5.38 0
 1 4 10 48.51 5.24 0
 1 4 11 30.91 5.1 0
 1 4 12 3.96 3.52 0
 1 4 13 3.88 3.72 0
 1 5 5 14.43 3.5 0
 1 5 9 28.63 4.64 0
 1 5 10 178.08 9.1 0
 1 5 11 8.67 4.09 0
 1 5 12 11.16 4.49 0
 1 5 13 14.08 4.56 0
 1 6 7 234.35 10.66 0
 1 6 8 15.41 4.4 0
 1 6 9 24.2 5.1 0
 1 6 10 46.79 6.6 0
 1 6 11 103.49 8.51 0
 1 6 12 31.71 6.09 0
 1 6 13 6.7 4.5 0
 1 7 6 69.51 7.27 0
 1 7 8 23.06 5.24 0
 1 7 9 95.06 8.74 0
 1 7 10 51.36 7.36 0
 1 7 11 14.34 5.63 0
 1 7 12 -5.27 3.49 0
 1 8 6 4.68 4.36 0
 1 8 7 257.21 12.97 0
 1 8 9 14.91 5.67 0
 1 8 10 28.84 6.95 0
 1 8 11 2.48 4.24 0
 1 9 5 4.23 4.16 0
 1 9 7 21.02 6.02 0
 1 9 8 11.67 5.23 0
 1 9 10 14.17 5.73 0
 1 10 5 43.15 8.27 0
 1 10 6 12.53 5.74 0
 1 10 8 15.99 6.42 0
 1 11 5 31.45 7.96 0
 1 11 6 9.31 6.55 0
 2 0 4 369.85 3.46 0
 2 0 5 45.79 1.8 0
 2 0 6 136.86 3.55 0
 2 0 7 119.57 3.86 0
 2 0 8 34.75 2.7 0
 2 1 3 529.28 5.77 0
 2 1 4 118.81 3.05 0
 2 1 6 25.77 2.19 0
 2 1 7 50.15 3.03 0
 2 1 8 58.05 3.48 0
 2 1 9 7.16 1.93 0
 2 1 10 20.66 2.9 0
 2 2 4 297.82 6.3 0
 2 2 5 60.4 3.28 0
 2 2 6 144.03 4.92 0
 2 2 7 233.07 6.52 0
 2 2 8 23.98 2.93 0
 2 2 9 111.46 5.29 0
 2 2 10 14.53 2.78 0
 2 2 11 10.62 2.75 0
 2 3 5 33.17 3.37 0
 2 3 6 13.55 2.68 0
 2 3 9 11.46 2.94 0
 2 3 10 1 2.27 0
 2 4 5 4.67 2.56 0
 2 4 6 441.98 10.99 0
 2 4 7 165.49 7.15 0
 2 4 8 9.42 3.14 0
 2 4 11 21.65 4.38 0
 2 5 6 13.32 3.67 0
 2 5 9 46.11 5.59 0
 2 5 10 55.87 5.82 0
 2 5 11 6.85 3.47 0
 2 6 7 81.38 6.89 0
 2 6 8 6.21 3.66 0
 2 6 9 26.29 4.79 0
 2 6 11 7.46 4.43 0
 2 7 6 10.81 4.36 0
 2 7 7 4 3.64 0
 2 7 8 10.97 4.4 0
 2 7 9 21.24 5.56 0
 2 7 11 5.78 4.15 0
 2 8 6 40.91 6.53 0
 2 8 7 12.04 5.45 0
 2 8 8 14.25 5.38 0
 2 8 9 29.36 6.08 0
 2 8 10 46.89 6.75 0
 2 8 11 12.71 4.73 0
 2 9 6 15.77 6.11 0
 2 9 7 7.49 4.78 0
 2 9 8 9.31 5.17 0
 2 9 9 13.79 5.84 0
 2 10 5 7.24 4.85 0
 2 10 6 26.42 6.45 0
 2 10 7 37.52 7.69 0
 2 10 8 21.38 6.21 0
 2 11 5 2.06 5.26 0
 3 1 6 142.54 2.63 0
 3 2 4 68.52 3.02 0
 3 2 5 102.56 3.58 0
 3 2 6 37.42 2.44 0
 3 3 5 9.06 2.1 0
 3 3 6 49.82 3.47 0
 3 3 7 70.03 3.97 0
 3 3 8 29.08 2.98 0
 3 4 5 16.09 2.79 0
 3 4 6 11.09 2.57 0
 3 4 8 115.02 5.79 0
 3 4 9 4.66 2.29 0
 3 5 6 76.32 5.67 0
 3 5 7 87.45 5.98 0
 3 6 7 12.98 3.88 0
 3 6 8 94.89 7.06 0
 3 6 9 12.03 3.83 0
 3 7 6 3.14 4.2 0
 3 7 7 18.12 5.01 0
 3 7 8 69.21 7.05 0
 3 7 9 2.2 3.5 0
 3 8 6 20.51 5.72 0
 3 8 7 -0.47 3.75 0
 3 8 8 72.4 7.77 0
 3 8 9 6.21 4.65 0
 3 9 6 0.43 4.75 0
 3 9 7 36.6 6.6 0
 3 9 8 17.25 5.08 0
 3 10 6 8.15 5.16 0
 4 2 4 200.18 4.06 0
 4 3 5 21.38 2.28 0
 4 4 5 8.61 2.41 0
 4 4 6 48.63 3.77 0
 4 5 6 2.23 2.32 0
 4 6 6 9.63 3.58 0
 4 7 6 7.75 3.79 0
 4 7 7 26.05 4.85 0
 4 9 6 40.89 6.45 0
 -5 -2 -3 76.36 4.36 0
 -4 -4 7 57.38 5.12 0
 -4 -3 -5 23.46 3.7 0
 -4 -3 7 118.5 5.9 0
 -4 -3 8 37.52 3.84 0
 -4 -2 -6 133.16 7.08 0
 -4 -2 -5 38.21 4.17 0
 -4 -2 -4 192.29 7.06 0
 -4 -2 -3 17.89 2.92 0
 -4 -2 5 5.78 1.62 0
 -4 -2 6 14.52 2.49 0
 -4 -2 7 155.86 6.18 0
 -4 -2 8 149.31 6.53 0
 -4 -2 9 61.34 4.69 0
 -4 -1 -5 44.92 3.77 0
 -4 -1 -3 215.77 6.45 0
 -4 -1 -2 284 6.61 0
 -4 -1 3 30.24 1.69 0
 -4 -1 4 443.78 6.46 0
 -4 -1 5 89.57 3.45 0
 -4 0 -7 22.07 3.54 0
 -4 0 -6 151.1 6.79 0
 -4 0 -5 -0.63 1.93 0
 -4 0 -4 11.63 2.28 0
 -4 0 -1 12.21 1.49 0
 -3 -4 7 15.66 3.41 0
 -3 -3 -6 59.25 5.36 0
 -3 -3 6 227.12 7.95 0
 -3 -3 8 27.14 3.98 0
 -3 -2 -7 210.51 8.85 0
 -3 -2 -6 38.41 4.69 0
 -3 -2 -5 108.46 5.68 0
 -3 -2 5 165.99 5.63 0
 -3 -2 6 17.33 2.88 0
 -3 -2 7 164.49 6.67 0
 -3 -2 9 99.19 6.27 0
 -3 -1 -7 91.2 6.11 0
 -3 -1 -4 261.93 7.46 0
 -3 -1 5 59.5 3.1 0
 -3 -1 7 216.1 7.08 0
 -3 -1 8 50.08 4.43 0
 -3 0 -6 7.88 2.52 0
 -3 0 -5 440.8 10.25 0
 -3 0 -4 1.29 1.75 0
 -3 0 -2 64.31 3.03 0
 -3 0 -1 579.15 6.96 0
 -3 0 0 503.29 4.9 0
 -3 0 3 792.85 6.22 0
 -3 0 4 6.02 1.07 0
 -3 1 -5 6.81 2.23 0
 -2 -4 7 44.95 4.55 0
 -2 -3 -7 214.96 8.75 0
 -2 -3 6 168.59 6.94 0
 -2 -3 8 22.99 3.96 0
 -2 -2 -7 213.54 8.49 0
 -2 -2 -6 139.21 6.45 0
 -2 -2 -5 62.76 4.52 0
 -2 -2 5 83.4 4.42 0
 -2 -2 6 231.85 7.61 0
 -2 -2 7 144.58 6.58 0
 -2 -2 8 50.79 4.5 0
 -2 -1 -8 52.92 4.93 0
 -2 -1 -7 45.91 4.56 0
 -2 -1 -5 20.2 2.84 0
 -2 -1 5 43.34 2.97 0
 -2 -1 6 87.39 4.4 0
 -2 -1 7 360.17 9.34 0
 -2 -1 8 154.3 6.94 0
 -2 -1 9 110.85 6.68 0
 -2 0 -8 42.56 4.52 0
 -2 0 -6 138.32 6.14 0
 -2 0 -4 372.05 8.12 0
 -2 0 -2 30.78 2.08 0
 -2 0 -1 284.34 4.49 0
 -2 0 0 236 2.95 0
 -2 0 2 0.18 0.36 0
 -2 0 4 627.3 8.21 0
 -2 0 5 164.45 5.01 0
 -2 0 6 62.29 3.79 0
 -2 1 -8 56.35 5.16 0
 -2 1 -7 46.58 4.86 0
 -1 -4 7 88.79 6.14 0
 -1 -3 -7 65.35 5.19 0
 -1 -3 6 694.77 13.56 0
 -1 -3 8 119.29 6.67 0
 -1 -2 -8 464.58 12.39 0
 -1 -2 -7 189.68 7.78 0
 -1 -2 7 47.22 4.06 0
 -1 -2 8 107.18 6.08 0
 -1 -2 9 -0.07 2.6 0
 -1 -1 -8 309.13 10.15 0
 -1 -1 -7 67.58 4.78 0
 -1 -1 -5 88.23 4.51 0
 -1 -1 -4 933.39 12.4 0
 -1 -1 3 1154.02 11.36 0
 -1 -1 4 2311.42 18.07 0
 -1 -1 5 18.9 2.81 0
 -1 -1 7 356.53 9.46 0
 -1 -1 8 50.52 4.49 0
 -1 -1 9 17.77 3.46 0
 -1 0 -7 1.49 2.12 0
 -1 0 -4 345.25 7.55 0
 -1 0 -3 0.34 1.2 0
 -1 0 -2 105.79 3.34 0
 -1 0 -1 1577.22 8.98 0
 -1 0 2 15.27 1.36 0
 -1 0 3 298.18 5.18 0
 -1 0 4 1433.63 13.36 0
 -1 0 5 137.11 4.88 0
 -1 0 6 55.78 4 0
 -1 1 -8 317.08 10.38 0
 -1 1 -5 83.52 4.51 0
 -1 1 -4 929.25 12.44 0
 -1 1 -3 60.21 3.3 0
 0 -4 6 5.7 2.76 0
 0 -4 7 103.35 6.53 0
 0 -3 -8 61.63 5.43 0
 0 -3 -7 25.45 3.86 0
 0 -3 5 116.49 5.89 0
 0 -3 6 18.89 3.41 0
 0 -2 -8 352.18 10.65 0
 0 -2 -7 271.39 8.64 0
 0 -2 4 560.26 10.13 0
 0 -2 6 14.05 2.87 0
 0 -1 -9 2.71 2.43 0
 0 -1 -8 139.1 6.91 0
 0 -1 4 241.35 6.12 0
 0 -1 5 536.65 10.28 0
 0 -1 6 139.93 5.83 0
 0 -1 7 207.83 7.64 0
 0 0 -9 11.27 3.76 0
 0 0 -5 294.22 7.5 0
 0 0 -3 29.96 2.13 0
 0 0 -2 2903.94 14.08 0
 0 0 -1 65.4 1.57 0
 0 0 2 2918.91 14.13 0
 0 1 -5 524.93 10 0
 1 -5 6 303.1 10.58 0
 1 -4 -8 7.26 2.87 0
 1 -4 5 158.7 7.37 0
 1 -4 6 91.82 6.34 0
 1 -4 7 439.63 12.45 0
 1 -3 -9 92.55 6.55 0
 1 -3 -7 560.57 12.29 0
 1 -3 4 393.99 9.43 0
 1 -3 5 19.6 2.96 0
 1 -3 6 446.79 11.41 0
 1 -3 7 64.21 5.46 0
 1 -2 -9 1.49 2.31 0
 1 -2 -8 94.39 5.57 0
 1 -2 -7 45.83 4.19 0
 1 -2 -6 210.99 6.95 0
 1 -2 -5 166.59 5.73 0
 1 -2 3 565.42 9.42 0
 1 -2 4 34.82 3.21 0
 1 -2 5 86.64 4.96 0
 1 -2 6 439.59 10.79 0
 1 -2 7 191.15 7.75 0
 1 -2 8 468.25 12.85 0
 1 -1 -9 16.85 3.61 0
 1 -1 -7 370.07 9.58 0
 1 -1 -6 697.64 11.78 0
 1 -1 -5 22.77 2.68 0
 1 -1 -4 2315.98 17.06 0
 1 -1 -3 1131.44 10.25 0
 1 -1 1 1205.41 8.77 0
 1 -1 2 258.09 5.15 0
 1 -1 3 55.78 3.02 0
 1 -1 4 958.03 12.58 0
 1 -1 5 81.86 4.39 0
 1 -1 6 158.1 6.5 0
 1 -1 7 73.67 5.04 0
 1 -1 8 313.14 10.52 0
 1 0 -8 4.05 2.35 0
 1 0 -7 -1.39 1.7 0
 1 0 -6 58.97 4.06 0
 1 0 -5 140.31 5.25 0
 1 0 -4 1476.88 13.63 0
 1 0 -2 15.08 1.26 0
 2 -5 5 6.2 2.84 0
 2 -5 6 8.12 3.2 0
 2 -4 -8 113.3 6.52 0
 2 -4 -7 48.48 4.08 0
 2 -4 4 196.67 7.4 0
 2 -4 5 3.47 2.42 0
 2 -4 6 462.99 12.38 0
 2 -3 -8 23.62 3.64 0
 2 -3 -7 66.97 4.7 0
 2 -3 3 420.94 8.89 0
 2 -3 4 301.67 8.4 0
 2 -3 5 28.71 3.42 0
 2 -3 6 13 3.02 0
 2 -3 7 229.41 8.93 0
 2 -2 -9 58.3 4.82 0
 2 -2 -8 53.66 4.59 0
 2 -2 -7 155.29 6.34 0
 2 -2 -6 232.99 6.83 0
 2 -2 -5 84.4 3.8 0
 2 -2 1 135.35 3.88 0
 2 -2 2 223.41 5.47 0
 2 -2 6 142.44 6.74 0
 2 -1 -9 108.46 6.02 0
 2 -1 -8 147.83 6.77 0
 2 -1 -6 87.96 4.25 0
 2 -1 -5 47.76 2.95 0
 2 -1 -4 98.3 3.48 0
 2 -1 -3 211.46 4 0
 2 -1 -2 29.17 1.18 0
 2 -1 0 602.04 4.59 0
 2 -1 1 270.64 4.43 0
 2 -1 2 472.63 7.09 0
 2 -1 3 535.97 8.79 0
 2 -1 4 113.4 4.81 0
 3 -6 4 26.43 4.08 0
 3 -5 -8 -0.77 2.19 0
 3 -5 -7 19.92 3.08 0
 3 -5 3 65.29 4.94 0
 3 -5 4 59.85 4.92 0
 3 -5 5 42.12 5.08 0
 3 -4 -8 48.65 4.41 0
 3 -4 -7 21.1 3.28 0
 3 -4 -6 98.71 4.93 0
 3 -4 2 98.26 4.81 0
 3 -4 5 21.12 3.43 0
 3 -4 6 8.74 2.8 0
 3 -3 -9 6.7 2.45 0
 3 -3 -7 126.64 5.46 0
 3 -3 -6 232.5 6.59 0
 3 -3 -5 484.58 8.45 0
 3 -3 1 17.3 2.01 0
 3 -3 2 184.43 5.57 0
 3 -3 3 95.06 4.63 0
 3 -3 5 12 2.67 0
 3 -3 7 61.77 5.41 0
 3 -2 -10 -1.96 2.07 0
 3 -2 -8 121.6 5.78 0
 3 -2 -7 157.45 5.9 0
 3 -2 -6 14.73 2.14 0
 3 -2 -4 31.13 1.92 0
 3 -2 -3 213.53 3.41 0
 3 -2 0 688.13 6.31 0
 3 -2 1 85.15 2.93 0
 3 -2 2 7.62 1.52 0
 3 -2 3 127.05 4.73 0
 3 -2 4 72.79 4.39 0
 3 -2 5 114.33 5.61 0
 4 -6 1 -0.21 1.48 0
 4 -6 2 10.42 2.32 0
 4 -6 3 3.42 2.08 0
 4 -6 4 18.9 3.63 0
 4 -5 -5 122.1 4.9 0
 4 -5 0 8.58 1.84 0
 4 -5 2 56.73 3.95 0
 4 -5 3 262.95 8.11 0
 4 -5 4 124.61 6.34 0
 4 -5 5 14.32 3.2 0
 4 -4 -7 60.5 3.78 0
 4 -4 -6 16.93 2.18 0
 4 -4 -5 29.32 2.27 0
 4 -4 -4 86.54 3.1 0
 4 -4 -1 3.89 0.99 0
 4 -4 0 174.32 4.59 0
 4 -4 1 23.6 2.19 0
 4 -4 2 7.67 1.72 0
 4 -4 3 4.32 1.93 0
 4 -4 4 47.43 3.86 0
 4 -4 5 11.3 2.8 0
 4 -3 -8 40.06 3.47 0
 4 -3 -7 122.1 4.71 0
 4 -3 -6 45.37 2.75 0
 4 -3 -5 145.17 3.68 0
 4 -3 -4 222.2 3.25 0
 4 -3 0 22.81 1.45 0
 4 -3 1 361.95 6.23 0
 4 -3 2 76.3 3.49 0
 4 -3 3 210.69 6.38 0
 4 -3 4 285.43 8.21 0
 -5 -1 0 187.76 8.56 0
 -5 -1 1 13.01 3.31 0
 -5 -1 2 76.8 5.69 0
 -5 -1 3 45.87 5.65 0
 -5 0 3 306.09 10.34 0
 -5 0 4 73.55 5.56 0
 -5 1 1 12.53 3.56 0
 -5 1 2 77.2 5.3 0
 -5 1 3 49.33 4.56 0
 -5 1 4 34.55 4.3 0
 -5 1 5 15.6 3.39 0
 -5 1 6 18.33 3.7 0
 -5 2 2 137.38 6.43 0
 -5 2 3 220.6 8.06 0
 -5 2 4 18.34 3.28 0
 -5 2 5 236.92 8.6 0
 -5 2 6 66.05 5.04 0
 -5 3 3 2.75 2.01 0
 -5 3 4 43.86 3.72 0
 -5 3 5 64.93 4.51 0
 -4 -5 0 7.14 2.93 0
 -4 -4 -1 22.14 3.74 0
 -4 -4 1 3.8 2.59 0
 -4 -4 3 7.09 3.05 0
 -4 -3 -1 377.97 10.95 0
 -4 -3 0 24.42 3.77 0
 -4 -3 1 265.05 9.29 0
 -4 -3 3 5.7 2.74 0
 -4 -3 4 219.89 9.09 0
 -4 -2 -1 18.88 3.23 0
 -4 -2 0 100.02 5.99 0
 -4 -2 1 53.37 4.71 0
 -4 -2 2 5.67 2.7 0
 -4 -2 3 47.73 4.33 0
 -4 -1 -1 1187.08 18.1 0
 -4 -1 1 29.64 3.37 0
 -4 -1 2 93.48 5.85 0
 -4 -1 4 438.16 11.67 0
 -4 0 0 33.86 4.1 0
 -4 0 1 12.03 2.71 0
 -4 0 2 1.59 2.06 0
 -4 0 4 14.54 3.03 0
 -4 1 1 34.43 3.31 0
 -4 1 2 93.42 5.13 0
 -4 1 4 434.6 10.57 0
 -4 2 3 45.01 3.68 0
 -4 2 4 326.84 8.8 0
 -4 2 5 4.7 2 0
 -4 3 2 129.62 5.24 0
 -4 3 3 11.16 2.34 0
 -4 3 5 136.8 5.74 0
 -4 3 6 50.39 3.85 0
 -4 4 3 4.44 1.33 0
 -4 4 4 87.22 3.98 0
 -3 -7 -1 9.54 2.66 0
 -3 -7 1 186.91 7.95 0
 -3 -7 2 24.26 3.87 0
 -3 -6 -1 19.88 3.27 0
 -3 -6 0 40.3 3.98 0
 -3 -6 1 3.48 2.44 0
 -3 -6 2 65.17 5.21 0
 -3 -6 3 251.67 9.21 0
 -3 -5 -1 19.51 3.15 0
 -3 -5 0 315.57 9.72 0
 -3 -5 1 434.67 11.25 0
 -3 -5 2 19.68 3.37 0
 -3 -4 -1 21.41 3.23 0
 -3 -4 0 60.43 4.54 0
 -3 -4 1 19.43 3.18 0
 -3 -4 2 62.95 4.64 0
 -3 -3 0 189.38 7.2 0
 -3 -3 1 5.44 2.31 0
 -3 -3 2 10.9 2.76 0
 -3 -2 -1 85.03 4.73 0
 -3 -1 0 394.81 9.24 0
 -3 -1 1 114.7 5.36 0
 -3 -1 2 250.55 7.44 0
 -3 0 -1 567.92 10.85 0
 -3 0 0 511.74 10.06 0
 -3 0 1 457.08 9.45 0
 -3 0 2 238.53 7.13 0
 -3 1 0 387.09 8.35 0
 -3 1 2 239.59 6.61 0
 -3 2 1 262.08 6.45 0
 -3 2 2 58.09 3.42 0
 -3 3 2 14.75 1.95 0
 -3 4 3 253.01 5.16 0
 -3 4 5 189.84 5.13 0
 -2 -8 0 146.35 6.06 0
 -2 -8 1 4.32 1.96 0
 -2 -8 2 61.9 4.79 0
 -2 -8 3 120.14 6.49 0
 -2 -7 -1 112.01 5.31 0
 -2 -7 0 16.98 2.74 0
 -2 -7 2 15.66 2.91 0
 -2 -7 3 95.32 5.83 0
 -2 -6 0 376.62 9.32 0
 -2 -6 1 192.75 7.04 0
 -2 -6 2 5.22 2.17 0
 -2 -5 -1 520.24 10.18 0
 -2 -5 0 152.14 5.82 0
 -2 -4 -1 24.98 2.94 0
 -2 -4 0 739.25 11.91 0
 -2 -4 1 53.29 3.68 0
 -2 -3 -1 547.99 9.8 0
 -2 -3 0 324.6 7.66 0
 -2 -3 1 1017.98 13.51 0
 -2 -2 0 800.57 11.41 0
 -2 -2 1 491.03 9.13 0
 -2 -1 -1 274.68 6.47 0
 -2 -1 0 605.52 9.45 0
 -2 -1 1 284.81 6.62 0
 -2 0 -1 277.66 6.24 0
 -2 0 0 238.61 5.62 0
 -2 0 1 358.45 6.91 0
 -2 1 1 291.78 5.94 0
 -2 2 1 476.55 6.65 0
 -2 3 2 110.64 2.82 0
 -2 4 3 12.51 0.83 0
 -2 4 4 61.04 2.26 0
 -2 5 5 113.46 2.26 0
 -1 -8 0 69.41 3.56 0
 -1 -8 2 45.46 3.6 0
 -1 -7 0 31.62 2.63 0
 -1 -7 1 5.64 1.67 0
 -1 -7 2 47.34 3.52 0
 -1 -6 1 62.4 3.61 0
 -1 -5 0 38.47 2.86 0
 -1 -4 -1 506.71 7.8 0
 -1 -4 0 168.58 4.87 0
 -1 -3 -1 412.13 6.87 0
 -1 -2 -1 1139.07 10.39 0
 -1 -2 0 2136.04 14.29 0
 -1 -1 -1 1243.62 10.21 0
 -1 -1 0 5223.27 20.25 0
 -1 1 0 5205.35 15.94 0
 -1 5 5 21.08 1.44 0
 0 -8 1 105.81 3.4 0
 0 -8 2 12.03 1.94 0
 0 -7 1 186.8 4.83 0
 0 -6 0 43.98 2.11 0
 0 -4 -1 375.32 4.35 0
 0 -3 -1 573.35 4.87 0
 0 4 3 788.91 7.99 0
 0 5 4 61.9 2.65 0
 0 5 7 118.56 5.07 0
 0 5 8 72.94 4.55 0
 0 6 5 35.71 2.14 0
 1 -7 1 67.59 2.08 0
 1 -2 0 2109.38 9.49 0
 1 -1 0 5181.15 16.38 0
 1 0 0 482.33 5.78 0
 1 0 1 1562.8 10.87 0
 1 1 0 5192.68 20.44 0
 1 2 2 13.98 1.85 0
 1 2 3 561.45 8.87 0
 1 3 2 98.43 3.78 0
 1 3 3 74.43 3.66 0
 1 3 4 392.54 8.09 0
 1 4 2 62.99 3.15 0
 1 4 3 39.1 2.65 0
 1 4 4 45.47 3.32 0
 1 4 5 158.94 5.67 0
 1 4 6 86.42 4.93 0
 1 4 7 415.64 10.43 0
 1 5 4 447.57 8.91 0
 1 5 5 15.73 2.59 0
 1 5 6 295.59 8.3 0
 1 5 7 19.7 3.08 0
 1 5 8 4.35 2.24 0
 1 6 5 176.35 5.97 0
 1 6 6 10.19 2.11 0
 1 6 7 231.77 7.68 0
 2 -7 2 29.42 2.13 0
 2 -6 1 63.5 2.43 0
 2 -5 1 488.26 6.93 0
 2 -4 1 23.21 2.01 0
 2 -3 0 338.93 5.73 0
 2 -2 0 792.54 9.24 0
 2 -1 0 594.35 8.43 0
 2 -1 1 271.14 6.07 0
 2 -1 2 478.49 8.64 0
 2 0 0 242.03 5.9 0
 2 0 1 283.08 6.57 0
 2 0 2 31.94 2.64 0
 2 1 0 595.68 9.43 0
 2 1 1 278.3 6.74 0
 2 1 4 115.73 5.17 0
 2 2 1 134.81 5 0
 2 2 2 226.63 6.58 0
 2 2 3 83.94 4.75 0
 2 2 4 299.18 8.43 0
 2 2 5 61.9 4.29 0
 2 3 2 63.87 4.01 0
 2 3 4 312.54 8.63 0
 2 3 5 34.25 3.62 0
 2 3 6 14.4 3.45 0
 2 3 7 228.94 8.76 0
 2 4 2 459 9.79 0
 2 4 3 181.75 6.55 0
 2 4 4 192.21 7.02 0
 2 4 5 3.81 2.24 0
 2 4 7 161.08 7.44 0
 2 5 3 15.64 2.64 0
 2 5 4 20.42 2.97 0
 2 5 5 9.05 2.99 0
 2 5 6 12.31 2.84 0
 2 5 7 100.39 6.43 0
 2 6 6 96.04 5.78 0
 3 -6 1 21.19 2.15 0
 3 -6 2 37.62 3.07 0
 3 -6 3 25.32 3.12 0
 3 -6 4 28.34 3.37 0
 3 -5 1 20.85 2.5 0
 3 -5 4 58.86 4.42 0
 3 -4 0 53.45 3.08 0
 3 -4 1 24.98 2.7 0
 3 -4 2 109.88 5.04 0
 3 -4 3 167.01 6.45 0
 3 -3 0 170.69 5.38 0
 3 -3 1 14.75 2.47 0
 3 -3 2 192.66 6.52 0
 3 -3 3 84.74 4.76 0
 3 -2 1 88.91 4.31 0
 3 -2 3 125.52 5.59 0
 3 -2 4 69.56 4.77 0
 3 -1 1 5.04 1.77 0
 3 -1 2 73.56 4.27 0
 3 -1 4 253.05 8.33 0
 3 0 0 487.31 9.97 0
 3 0 1 564.49 11.08 0
 3 0 2 60.62 4.23 0
 3 0 3 19.06 2.92 0
 3 0 4 -0.73 1.74 0
 3 0 6 6.18 2.77 0
 3 1 1 6.04 2.14 0
 3 1 2 78.76 5.15 0
 3 1 6 145.5 7.64 0
 3 2 2 7.14 2.98 0
 3 2 3 120.62 6.14 0
 3 2 4 72.82 5.24 0
 3 2 6 39.38 4.68 0
 3 3 2 187.14 7.26 0
 3 3 3 88.49 5.48 0
 3 3 4 286.63 9.8 0
 3 3 5 13.65 3.91 0
 3 3 6 53.41 5.19 0
 3 4 3 164.36 7.22 0
 3 4 4 15.9 3.33 0
 3 4 5 17.97 4.09 0
 3 5 4 63.07 5.26 0
 3 5 5 55.18 5.44 0
 4 -6 2 17.05 2.86 0
 4 -5 1 98.65 4.91 0
 4 -5 2 64.06 4.63 0
 4 -5 3 273.5 8.94 0
 4 -4 1 25.37 3.28 0
 4 -4 2 9.6 2.68 0
 4 -4 3 5.52 2.42 0
 4 -4 4 48.52 4.66 0
 4 -3 2 76.15 5.19 0
 4 -3 4 281.73 9.61 0
 4 -2 0 97.63 5.21 0
 4 -2 1 20.36 3.21 0
 4 -2 2 58.15 4.49 0
 4 -2 3 20.58 3.47 0
 4 -2 4 202.26 8.33 0
 4 -1 1 1254.75 18.53 0
 4 -1 2 296.88 9.48 0
 4 -1 3 224.17 8.61 0
 4 0 2 91.74 6.14 0
 4 0 3 64.15 5.16 0
 4 0 4 10.7 3.15 0
 4 1 1 1243.06 19.41 0
 4 1 3 228.77 9.4 0
 4 1 4 352.59 11.41 0
 4 2 2 54.01 4.93 0
 4 2 3 20.16 3.87 0
 4 2 4 201.87 9.01 0
 4 3 3 224.26 9.7 0
 5 -5 2 36.49 4.11 0
 5 -4 2 11 3.25 0
 5 -3 1 107.98 6.5 0
 5 -2 1 83.82 5.8 0
 5 -2 2 18.26 3.64 0
 -3 -1 0 416.66 7.11 0
 -3 0 1 460.61 6.21 0
 -3 0 2 230.72 3.76 0
 -3 0 3 812.22 5.63 0
 -2 -3 12 27.42 4.04 0
 -2 -2 11 11.27 2.44 0
 -2 -2 12 6.6 2.22 0
 -2 -1 9 118.34 4.73 0
 -2 -1 11 19.05 2.89 0
 -2 0 -1 284.45 5.34 0
 -2 0 0 246.93 4.21 0
 -2 0 6 62.64 2.29 0
 -2 0 9 55.26 3.12 0
 -1 -3 12 6.95 3.1 0
 -1 -3 14 83.18 6.99 0
 -1 -2 11 8.86 3.02 0
 -1 -2 12 31.71 4.4 0
 -1 -2 13 7.41 3.08 0
 -1 -1 -4 927.39 10.82 0
 -1 -1 -3 56.56 2.78 0
 -1 -1 -2 266.17 4.96 0
 -1 -1 9 19.48 2.76 0
 -1 -1 10 69.68 4.79 0
 -1 -1 11 105.56 5.82 0
 -1 -1 12 37.79 4.1 0
 -1 0 -1 1580.39 9.59 0
 -1 0 0 486.8 4.19 0
 -1 0 7 1.56 1.21 0
 -1 0 8 6.06 1.65 0
 -1 0 10 77.59 4.4 0
 0 -3 11 67.61 5.82 0
 0 -3 12 65.39 6.31 0
 0 -3 13 17.72 4.83 0
 0 -2 -5 481.23 7.72 0
 0 -2 -4 556.27 7.78 0
 0 -2 11 43.59 4.85 0
 0 -2 12 48.78 5.03 0
 0 -1 -4 241.67 5.01 0
 0 -1 -3 1058.85 8.76 0
 0 -1 9 2.72 2.15 0
 0 -1 11 138.15 7.18 0
 0 -1 12 131.91 7.71 0
 0 0 4 250.16 5.2 0
 0 0 6 12.41 1.93 0
 0 0 8 1068.31 15.28 0
 0 0 9 12.63 2.71 0
 1 -4 12 5.42 3.73 0
 1 -3 -6 662.34 8.91 0
 1 -3 10 63.9 5.68 0
 1 -3 11 24.12 4.48 0
 1 -3 12 -0.49 3.79 0
 1 -2 -5 160.24 3.83 0
 1 -2 -4 148.53 3.28 0
 1 -2 10 35.56 5 0
 1 -2 11 22.99 4.35 0
 1 -2 12 2.83 3.49 0
 1 -2 13 9.45 4.17 0
 1 -1 -3 1140.01 6.49 0
 1 -1 9 66.8 5.36 0
 1 -1 10 56.33 5.5 0
 1 -1 11 36.58 5.3 0
 1 -1 12 8.37 4.13 0
 1 0 1 1542.14 9.55 0
 1 0 3 0.01 1.24 0
 1 0 5 1.89 1.79 0
 1 0 6 449.34 9.42 0
 1 0 7 2.11 1.88 0
 1 0 9 126.84 6.83 0
 2 -4 -6 185.71 4.55 0
 2 -4 10 37.11 5.89 0
 2 -4 11 21.21 4.84 0
 2 -3 -6 172.35 3.82 0
 2 -3 10 2.65 3.03 0
 2 -3 11 29.39 5.07 0
 2 -2 7 233.87 8.69 0
 2 -2 8 29.33 4.02 0
 2 -2 9 112.37 6.88 0
 2 -2 10 19.05 4.14 0
 2 -2 11 10.93 3.99 0
 2 -2 12 14.57 4.57 0
 2 -1 -1 295.19 3.75 0
 2 -1 0 595.6 6.6 0
 2 -1 1 272.88 5.25 0
 2 -1 3 526.67 9.16 0
 2 -1 4 115.5 4.77 0
 2 -1 5 20.07 2.62 0
 2 -1 6 22.23 3.26 0
 2 -1 7 42.82 3.94 0
 2 -1 8 58.42 4.92 0
 2 -1 9 11.55 3.85 0
 2 -1 10 26.16 4.54 0
 2 -1 11 25.51 4.72 0
 2 0 4 375.13 8.56 0
 2 0 7 129.24 6.48 0
 2 0 8 41.33 4.31 0
 3 -4 8 116.06 7.9 0
 3 -4 9 4.85 3.6 0
 3 -4 10 94.68 7.85 0
 3 -3 7 68.95 5.9 0
 3 -3 8 29.97 4.55 0
 3 -3 9 17.08 4.72 0
 3 -2 -2 58.82 1.95 0
 3 -2 -1 274.22 4.95 0
 3 -2 2 8.96 1.81 0
 3 -2 3 120.3 5.15 0
 3 -2 4 77.18 4.98 0
 3 -2 5 100.15 5.53 0
 3 -2 7 233.73 9.17 0
 3 -2 8 143.01 7.95 0
 3 -2 9 43.34 5.92 0
 3 -2 10 6.13 3.96 0
 3 -2 11 16.86 5.24 0
 3 -1 0 407.55 6.78 0
 3 -1 2 78.55 4.04 0
 3 -1 3 144.61 5.47 0
 3 -1 4 261.65 7.94 0
 3 -1 5 7.55 2.53 0
 3 -1 9 21.8 4.46 0
 4 -5 7 19.98 4.95 0
 4 -5 8 48.46 6.04 0
 4 -4 5 5.45 2.77 0
 4 -4 6 61.04 5.53 0
 4 -4 7 32.91 4.99 0
 4 -4 8 13.55 4.53 0
 4 -4 9 110.07 8.18 0
 4 -3 -2 133.57 3.66 0
 4 -3 0 22.92 2.54 0
 4 -3 1 356.48 8.3 0
 4 -3 2 71.16 4.25 0
 4 -3 3 214.17 7.7 0
 4 -3 4 286.09 9.22 0
 4 -3 5 24.83 3.93 0
 4 -3 6 146.44 7.7 0
 4 -3 7 21.98 4.39 0
 4 -3 8 48.15 6.14 0
 4 -3 9 22.47 5.07 0
 4 -2 0 97.81 4.18 0
 4 -2 1 20.79 2.55 0
 4 -2 2 57.56 4.1 0
 4 -2 3 13.65 2.61 0
 4 -2 5 35.57 4.68 0
 4 -2 6 148.14 8.25 0
 4 -2 7 3.86 3.29 0
 4 -2 9 37.35 5.84 0
 5 -5 -2 19.9 2.3 0
 5 -5 -1 115.82 4.92 0
 5 -5 0 64.05 4.14 0
 5 -5 1 41.5 3.81 0
 5 -5 2 38.23 3.78 0
 5 -5 3 65.31 5.26 0
 5 -5 4 5.41 2.64 0
 5 -5 5 39.94 5.12 0
 5 -5 6 17.6 4.02 0
 5 -4 -1 142.96 5.15 0
 5 -4 1 7.48 2.23 0
 5 -4 2 3.81 2.03 0
 5 -4 3 3.85 2.66 0
 5 -4 4 96.45 6.19 0
 5 -4 5 26.85 4.34 0
 5 -4 6 -1.27 3.34 0
 5 -4 7 95.56 7.57 0
 5 -3 0 236.53 6.72 0
 5 -3 1 105.74 5.3 0
 5 -3 2 144.74 6.76 0
 5 -3 3 91.81 5.86 0
 5 -3 4 1.32 2.54 0
 5 -3 5 7.43 3.25 0
 5 -3 7 42.09 5.8 0
 5 -3 8 66.46 7.9 0
 6 -4 4 16.29 3.52 0
 -6 3 -2 18.53 3.04 0
 -6 3 -1 73.67 5.32 0
 -6 4 -3 58.68 4.97 0
 -6 4 -2 40.33 4.66 0
 -6 4 -1 4.17 2.65 0
 -6 4 0 16.57 3.45 0
 -6 4 1 40.56 4.97 0
 -6 5 -3 63.67 5.85 0
 -6 5 -1 28.89 4.57 0
 -6 5 0 123.03 7.5 0
 -6 5 1 17.21 4.03 0
 -6 5 2 4.06 2.93 0
 -6 6 -3 4.65 3.15 0
 -6 6 -2 128.61 7.92 0
 -6 6 -1 -0.39 3.23 0
 -6 6 0 25.25 4.72 0
 -6 6 1 88.15 7.12 0
 -5 1 -3 24.84 2.27 0
 -5 1 -2 430.48 8.76 0
 -5 2 -3 68.4 4.14 0
 -5 2 -2 20.65 2.77 0
 -5 2 -1 86.57 4.91 0
 -5 2 0 112.67 5.69 0
 -5 3 -4 2.4 1.83 0
 -5 3 -2 137.53 6.43 0
 -5 3 -1 109.44 5.72 0
 -5 3 0 247.32 8.65 0
 -5 3 1 24.53 3.85 0
 -5 4 -5 19.16 3.21 0
 -5 4 -4 100.45 5.85 0
 -5 4 -3 3.07 2.38 0
 -5 4 -2 8.51 2.83 0
 -5 4 -1 8.17 2.84 0
 -5 4 1 139.75 7.35 0
 -5 5 -6 15.18 3.59 0
 -5 5 -5 56.12 5.31 0
 -5 5 -4 5.61 2.9 0
 -5 5 -2 34.01 4.96 0
 -5 5 -1 49.64 5.32 0
 -5 5 0 54.06 5.1 0
 -5 5 1 125.06 7.54 0
 -5 5 3 16.9 3.99 0
 -5 6 -6 2.83 3.01 0
 -5 6 -5 17.25 4.2 0
 -5 6 -4 23.37 4.73 0
 -5 6 -3 49.87 5.47 0
 -5 6 -2 7.92 3.72 0
 -5 6 -1 24.84 4.68 0
 -5 6 0 113.44 7.66 0
 -5 6 1 51.71 5.39 0
 -5 6 2 9.61 4.14 0
 -5 6 4 15.07 4.02 0
 -5 7 -4 10.59 3.93 0
 -5 7 -2 26.06 4.69 0
 -5 7 -1 95.72 7.16 0
 -5 7 0 22.56 4.67 0
 -5 7 1 73.57 6.53 0
 -5 7 3 27.36 5.04 0
 -5 7 4 10.62 3.84 0
 -4 2 -6 137.16 5.39 0
 -4 2 -5 47.51 3.46 0
 -4 2 -4 198.08 6.27 0
 -4 2 -1 17.67 2.71 0
 -4 2 0 100.27 4.82 0
 -4 2 1 57.22 3.88 0
 -4 3 -7 15.77 2.87 0
 -4 3 -6 138.42 6.27 0
 -4 3 -5 16.84 2.72 0
 -4 3 -4 291.79 8.56 0
 -4 3 -1 374.91 9.36 0
 -4 3 0 25.63 3.09 0
 -4 3 2 131.83 6.03 0
 -4 3 3 10.75 2.6 0
 -4 4 -7 27.73 3.91 0
 -4 4 -6 54.43 4.87 0
 -4 4 -5 12.38 2.99 0
 -4 4 -3 5.59 2.37 0
 -4 4 -2 10.65 2.91 0
 -4 4 -1 26.08 3.46 0
 -4 4 0 181.48 7.54 0
 -4 4 1 1.69 1.99 0
 -4 4 2 11.73 2.74 0
 -4 4 3 4.72 2.33 0
 -4 4 4 84.33 5.6 0
 -4 5 -7 16.37 3.48 0
 -4 5 -6 1.41 2.93 0
 -4 5 -5 17.47 4.14 0
 -4 5 -4 137.88 7.25 0
 -4 5 -3 268.71 9.5 0
 -4 5 -1 99.39 6 0
 -4 5 1 104.64 6.57 0
 -4 5 2 19.3 3.52 0
 -4 5 3 33.56 4.29 0
 -4 5 4 33.88 4.79 0
 -4 6 -8 22.72 4.45 0
 -4 6 -6 8.89 3.44 0
 -4 6 -5 2.75 2.94 0
 -4 6 -4 23.37 4.21 0
 -4 6 -3 4.75 2.91 0
 -4 6 -2 18.65 3.81 0
 -4 6 -1 -0.21 2.68 0
 -4 6 0 179.76 8.41 0
 -4 6 2 12.67 3.84 0
 -4 6 3 10.09 3.1 0
 -4 6 4 23.81 4.51 0
 -4 6 5 22.94 4.2 0
 -4 7 -6 8.62 4.15 0
 -4 7 -5 61.51 6.14 0
 -4 7 -4 29.17 4.87 0
 -4 7 -3 87.24 7.34 0
 -4 7 -2 37.3 5.29 0
 -4 7 0 66.7 5.87 0
 -4 7 2 74.01 6.55 0
 -4 7 3 12.13 3.65 0
 -4 7 4 4.85 3.27 0
 -4 7 5 38.54 5.12 0
 -4 8 -4 66.5 7.45 0
 -4 8 -3 -0.45 3.14 0
 -4 8 -2 17.35 4.94 0
 -4 8 -1 24.53 4.82 0
 -4 8 0 121.79 8.51 0
 -4 8 1 2.21 3.29 0
 -4 8 2 40.81 5.58 0
 -4 8 3 42.72 5.77 0
 -4 8 4 27.21 4.99 0
 -4 8 5 10.48 3.86 0
 -3 0 -5 452.1 6.39 0
 -3 0 -4 2.13 0.81 0
 -3 0 -3 17.21 1.37 0
 -3 0 -2 64.78 2.5 0
 -3 1 -1 3.35 1.24 0
 -3 2 -6 39.36 3.08 0
 -3 2 -5 100.64 4.44 0
 -3 2 -4 71.04 3.75 0
 -3 3 -8 30.87 3.77 0
 -3 3 -7 68.79 4.5 0
 -3 3 -6 51.04 3.78 0
 -3 3 -5 15 2.39 0
 -3 3 -4 289.33 7.86 0
 -3 3 -3 90.49 4.79 0
 -3 3 -1 15.66 2.71 0
 -3 3 0 189.25 6.27 0
 -3 3 2 14.05 2.37 0
 -3 4 -10 83.14 5.76 0
 -3 4 -9 8.9 2.76 0
 -3 4 -8 118.5 6.52 0
 -3 4 -7 47.36 4.15 0
 -3 4 -6 9.69 2.49 0
 -3 4 -5 17.36 3.27 0
 -3 4 -4 19.43 3.13 0
 -3 4 -1 21.47 3.04 0
 -3 4 0 58.34 4.38 0
 -3 4 2 75.8 4.74 0
 -3 4 3 238.18 7.9 0
 -3 4 4 61.85 4.49 0
 -3 5 -10 68.51 6.03 0
 -3 5 -9 5.89 2.94 0
 -3 5 -8 30.55 4.79 0
 -3 5 -7 95.8 6.25 0
 -3 5 -6 77.97 5.8 0
 -3 5 -5 49.26 4.71 0
 -3 5 -4 56.52 5.12 0
 -3 5 -3 64.33 4.73 0
 -3 5 -1 20.93 3.51 0
 -3 5 2 16.2 3.07 0
 -3 6 -9 6.64 3.25 0
 -3 6 -8 88.65 6.85 0
 -3 6 -7 6.81 2.96 0
 -3 6 -5 0.9 2.8 0
 -3 6 -3 23.17 3.9 0
 -3 6 -1 20.46 4.05 0
 -3 6 0 46.74 4.55 0
 -3 6 1 3.54 2.53 0
 -3 6 2 73.79 5.57 0
 -3 6 4 5.16 2.92 0
 -3 6 5 64.51 5.27 0
 -3 7 -8 68.28 6.54 0
 -3 7 -7 11.95 3.77 0
 -3 7 -6 10.02 3.94 0
 -3 7 -3 59 6.18 0
 -3 7 -2 10.07 3.48 0
 -3 7 -1 10.07 3.5 0
 -3 7 0 366.26 11.9 0
 -3 7 1 195.33 9.06 0
 -3 7 2 19.89 3.84 0
 -3 7 3 168.64 8.18 0
 -3 7 4 33.76 4.67 0
 -3 7 5 24.64 4.43 0
 -3 7 6 91.91 6.68 0
 -3 8 -6 21.99 4.82 0
 -3 8 -4 27.27 4.91 0
 -3 8 -3 -0.03 3.7 0
 -3 8 -2 28.78 5.33 0
 -3 8 -1 14.56 4.05 0
 -3 8 0 39.58 5.46 0
 -3 8 1 6.57 3.56 0
 -3 8 2 46.46 5.83 0
 -3 8 3 19.85 4.18 0
 -3 8 4 12.23 3.73 0
 -3 8 5 8.35 3.48 0
 -3 8 6 6.39 3.19 0
 -3 9 -3 9.43 4.33 0
 -3 9 -2 14.5 5.2 0
 -3 9 0 39 5.51 0
 -3 9 1 8.16 4.1 0
 -3 9 2 13.65 4.55 0
 -3 9 3 63.68 6.26 0
 -3 9 4 92.59 7.62 0
 -3 9 5 1.65 3.21 0
 -2 -1 -4 118.65 1.92 0
 -2 0 -2 33.85 1.62 0
 -2 0 -1 272.6 4.05 0
 -2 0 0 238.39 4.15 0
 -2 1 -3 528.29 7.21 0
 -2 1 -2 490.22 6.83 0
 -2 1 0 594.82 7.62 0
 -2 1 1 282.89 5.57 0
 -2 2 -1 134.03 4.53 0
 -2 3 2 110.8 4.45 0
 -2 3 3 83.61 4.03 0
 -2 4 -2 459.09 9.63 0
 -2 4 4 56.94 3.97 0
 -2 4 5 173.2 6.48 0
 -2 5 -4 19.66 3.08 0
 -2 5 -3 12.67 2.68 0
 -2 5 -1 491.77 11.08 0
 -2 5 2 109.73 5.38 0
 -2 5 3 312.63 8.79 0
 -2 5 4 12.54 2.62 0
 -2 5 5 110.54 5.76 0
 -2 6 -5 103.77 6.32 0
 -2 6 -4 68.52 5.15 0
 -2 6 -3 0.64 2.12 0
 -2 6 -2 321.07 9.75 0
 -2 6 -1 67.92 5.24 0
 -2 6 0 401.83 10.99 0
 -2 6 4 18.37 3.15 0
 -2 6 5 11.81 3.2 0
 -2 7 -7 3.33 3.09 0
 -2 7 -6 10.38 3.7 0
 -2 7 -5 6.13 3.27 0
 -2 7 -3 16.13 3.47 0
 -2 7 -1 120.73 7.06 0
 -2 7 0 16.87 3.45 0
 -2 7 2 11.43 3.01 0
 -2 7 3 101.58 6.16 0
 -2 7 4 173.09 7.77 0
 -2 7 6 47.76 4.76 0
 -2 8 -7 9.03 3.98 0
 -2 8 -6 35.27 5.24 0
 -2 8 -5 57.46 6.14 0
 -2 8 -3 15.55 4.36 0
 -2 8 -2 21.95 4.23 0
 -2 8 0 151.51 8.39 0
 -2 8 1 5.89 3 0
 -2 8 2 60.79 5.52 0
 -2 8 3 135.26 7.72 0
 -2 8 4 12.71 3.49 0
 -2 8 5 3.73 3.58 0
 -2 8 6 16.59 3.99 0
 -2 9 -5 0.06 3.03 0
 -2 9 -4 104.78 7.73 0
 -2 9 -3 51.56 6.6 0
 -2 9 -1 21.15 4.53 0
 -2 9 0 66.39 6.57 0
 -2 9 1 7.76 3.49 0
 -2 9 2 -0.02 3.2 0
 -2 9 3 7.51 3.67 0
 -2 9 4 78.41 6.87 0
 -2 9 5 0.69 2.98 0
 -2 10 0 25.67 5.11 0
 -2 10 1 11.63 4.23 0
 -2 10 2 11.61 4.29 0
 -2 10 3 22.34 4.72 0
 -2 10 4 11.69 4.12 0
 -1 -4 -6 90.56 3.14 0
 -1 -3 -5 25.13 1.67 0
 -1 -3 -4 395.91 5.08 0
 -1 -2 -4 33.28 1.48 0
 -1 -2 -3 572.05 4.58 0
 -1 0 -1 1581.85 6.74 0
 -1 0 0 474.75 4.06 0
 -1 1 -1 1230.3 8.71 0
 -1 1 0 5052.57 17.66 0
 -1 1 1 438.74 5.5 0
 -1 1 2 21.04 1.83 0
 -1 2 -1 1127.68 10.36 0
 -1 2 1 2000.67 13.9 0
 -1 2 2 965.68 9.9 0
 -1 4 -1 501.37 9.28 0
 -1 4 2 371.02 7.95 0
 -1 4 3 437.81 8.62 0
 -1 4 4 61.08 3.76 0
 -1 5 0 33.02 2.95 0
 -1 5 1 93.7 4.84 0
 -1 5 2 260.41 7.58 0
 -1 5 3 3.09 1.77 0
 -1 5 4 393.6 9.15 0
 -1 6 -2 118.66 5.9 0
 -1 6 -1 165.87 6.61 0
 -1 6 0 10.16 2.84 0
 -1 6 1 71.59 4.57 0
 -1 6 2 81.2 4.81 0
 -1 6 3 231.01 7.79 0
 -1 6 4 68.47 4.76 0
 -1 6 5 55.23 4.15 0
 -1 7 -3 15.83 3.52 0
 -1 7 -2 4.09 2.35 0
 -1 7 -1 75.26 5.6 0
 -1 7 1 10.57 3.36 0
 -1 7 3 110.21 6.18 0
 -1 7 4 152.09 7.11 0
 -1 7 5 24.56 3.77 0
 -1 7 6 42.08 4.14 0
 -1 8 -5 131.67 8.1 0
 -1 8 -4 149.43 7.97 0
 -1 8 -3 25.03 4.12 0
 -1 8 -2 56.17 5.54 0
 -1 8 1 100.65 6.79 0
 -1 8 3 117.93 6.59 0
 -1 8 4 123.96 6.95 0
 -1 8 5 16.98 3.34 0
 -1 8 6 1.91 2.33 0
 -1 9 -6 15.28 4.34 0
 -1 9 -5 0.66 2.96 0
 -1 9 -4 79.74 6.54 0
 -1 9 -3 26.61 4.58 0
 -1 9 -2 9.58 3.63 0
 -1 9 -1 4.24 3.1 0
 -1 9 0 33.07 4.93 0
 -1 9 1 4.04 2.99 0
 -1 9 2 2.54 2.7 0
 -1 9 3 10.33 3.8 0
 -1 9 5 13.06 3.82 0
 -1 10 -3 31.71 5.43 0
 -1 10 -2 68.71 7.1 0
 -1 10 -1 9.38 3.96 0
 -1 10 0 96.08 7.34 0
 -1 10 1 0.84 3.98 0
 -1 10 2 52.56 6.31 0
 -1 10 3 41.09 5.7 0
 -1 10 4 17.91 3.85 0
 -1 10 5 19.13 4.01 0
 -1 10 6 8.33 3.24 0
 0 -4 -4 47.95 2.77 0
 0 -4 -3 788.52 9.87 0
 0 -3 -5 119.31 4.02 0
 0 -3 -4 95.5 3.39 0
 0 -3 -3 471.29 6.85 0
 0 -3 -2 809.41 8.72 0
 0 -2 -6 12.92 1.75 0
 0 -2 -1 191.48 3.52 0
 0 1 1 476.06 3.95 0
 0 3 2 807.93 8.91 0
 0 3 3 441.85 6.65 0
 0 5 1 161.89 5.55 0
 0 5 2 21.75 2.68 0
 0 5 3 43.82 3.02 0
 0 5 4 63.06 3.5 0
 0 5 5 4.63 1.76 0
 0 6 -1 471.57 10.49 0
 0 6 0 42.76 3.51 0
 0 6 2 60.32 4.09 0
 0 6 3 270.27 7.54 0
 0 6 4 87.35 4.68 0
 0 6 5 34.76 3.14 0
 0 7 -1 189.05 7.68 0
 0 7 3 63.62 4.37 0
 0 7 4 9.24 2.65 0
 0 7 5 24.5 3.13 0
 0 7 6 76.76 4.59 0
 0 8 -3 135.45 7.43 0
 0 8 -2 14.24 3.29 0
 0 8 0 10.94 3.34 0
 0 8 1 107.55 6.5 0
 0 8 2 14.01 2.98 0
 0 8 3 138.66 6.52 0
 0 8 4 188.95 7.6 0
 0 8 5 21.43 3.58 0
 0 8 6 8.53 2.51 0
 0 9 -4 -3.24 2.66 0
 0 9 -3 162.77 8.58 0
 0 9 -1 57.28 5.82 0
 0 9 1 48.07 5.61 0
 0 9 2 7.83 3.29 0
 0 9 4 0.51 2.33 0
 0 9 5 77.95 5.32 0
 0 9 6 23.45 3.73 0
 0 10 -3 17.2 4.2 0
 0 10 -2 5.36 3.96 0
 0 10 0 146.81 8.53 0
 0 10 1 46.88 5.84 0
 0 10 2 4.08 2.9 0
 0 10 3 13.24 3.42 0
 0 10 4 204.79 8.88 0
 0 11 3 50.14 5.8 0
 1 -2 -1 2007.38 13.61 0
 1 -2 0 2156.51 13.71 0
 1 -1 -4 2332.4 16 0
 1 -1 -3 1177.49 10.58 0
 1 -1 -2 20.7 1.65 0
 1 -1 0 5317.06 17.73 0
 1 0 0 483.72 4.2 0
 1 2 2 13.21 0.81 0
 1 3 2 100.17 2.72 0
 1 3 3 66.45 2.11 0
 1 4 1 500.54 7.37 0
 1 4 2 65.94 2.81 0
 1 4 3 36.21 2.12 0
 1 6 0 10.62 2.34 0
 1 6 1 174.91 5.83 0
 1 6 3 96.63 4.29 0
 1 6 4 66.09 3.39 0
 1 6 5 181.12 5.34 0
 1 7 1 74.21 4.6 0
 1 7 2 2.49 2.08 0
 1 7 3 16.3 2.47 0
 1 7 4 97.54 4.67 0
 1 7 5 32.8 2.97 0
 1 8 -1 106.18 5.97 0
 1 8 0 78.04 5.29 0
 1 8 1 60.08 4.98 0
 1 8 2 55.29 4.2 0
 1 8 3 25.18 3.45 0
 1 8 5 131.32 5.57 0
 1 9 -3 9.05 3.8 0
 1 9 -2 5.03 2.98 0
 1 9 -1 1.29 2.46 0
 1 9 0 28.05 4 0
 1 9 1 5.48 2.62 0
 1 9 2 9.69 2.74 0
 1 9 3 30.14 4.08 0
 1 9 4 85.18 5.12 0
 1 10 -4 20.91 4.95 0
 1 10 -2 59.72 6.04 0
 1 10 -1 1.65 3.45 0
 1 10 0 97.02 7.04 0
 1 10 1 10.28 3.24 0
 1 10 2 54.56 5.19 0
 1 11 0 37.96 5.24 0
 2 -2 0 805.74 9.82 0
 2 -1 -3 205.2 5.25 0
 2 -1 -2 28.3 2.29 0
 2 -1 -1 302.95 5.71 0
 2 -1 1 265.91 4.99 0
 2 0 -2 0.78 1.18 0
 2 0 -1 363.9 5.59 0
 2 0 1 286.05 4.16 0
 2 1 0 606.94 5.85 0
 2 3 2 61.17 1.46 0
 2 4 3 175.44 2.78 0
 2 5 2 11.7 1.6 0
 2 5 3 12.7 1.36 0
 2 6 1 63 3.49 0
 2 6 4 66.65 2.74 0
 2 7 0 21.3 3.25 0
 2 7 1 116.23 4.96 0
 2 7 2 33.53 3.1 0
 2 7 3 12.88 1.97 0
 2 8 -1 4.91 2.81 0
 2 8 0 152.12 6.34 0
 2 8 1 1.25 1.84 0
 2 8 2 22.64 2.97 0
 2 8 3 25.51 3.01 0
 2 9 -2 3.7 2.71 0
 2 9 -1 0.87 2.24 0
 2 9 0 67.02 5.1 0
 2 9 1 26.07 3.69 0
 2 9 2 26.45 3.88 0
 2 10 -3 18.16 4.06 0
 2 10 -2 11.55 3.4 0
 2 10 -1 11.49 3.52 0
 2 10 0 31.3 4.4 0
 3 -1 1 5.08 1.45 0
 3 0 1 580.68 7.25 0
 3 1 -1 113.09 3.58 0
 3 1 0 408.59 6 0
 3 1 1 3.87 1.03 0
 3 2 1 86.92 2.31 0
 3 6 2 36.02 2.21 0
 3 6 3 27.34 1.29 0
 3 7 1 8.16 2.03 0
 3 8 0 37.73 3.47 0
 3 9 -1 7.73 2.59 0
 4 0 1 9.2 1.59 0
 4 1 0 22.13 2.16 0
 4 2 0 104.67 3.53 0
 4 2 1 24.46 1.78 0
 4 3 0 24.98 1.97 0
 4 4 1 24.1 1.52 0
 5 1 1 22.89 2.18 0
 -8 -5 2 6.33 7.14 0
 -8 -4 -2 3.45 4.99 0
 -8 -4 0 18.56 6.02 0
 -8 -4 1 29.81 7.34 0
 -8 -4 2 2.33 5.13 0
 -8 -3 -3 18.62 6.14 0
 -8 -3 -2 2.94 4.68 0
 -8 -3 -1 42.81 7.55 0
 -8 -3 0 22.93 6.89 0
 -8 -3 1 18.61 6.28 0
 -8 -2 -4 24.95 6.01 0
 -8 -2 -3 4.46 4.51 0
 -8 -2 -2 53.74 7.41 0
 -8 -2 -1 6.64 5.04 0
 -8 -2 0 33.18 6.37 0
 -8 -2 1 7.15 4.77 0
 -8 -2 2 44.76 7.25 0
 -8 -1 -2 14.67 4.57 0
 -8 -1 -1 17.94 4.64 0
 -8 -1 0 2.37 3.91 0
 -8 -1 1 4.2 4.05 0
 -7 -7 -1 5.23 6.22 0
 -7 -7 0 -1.38 6.49 0
 -7 -7 1 12.79 6.56 0
 -7 -7 2 23.72 7.98 0
 -7 -7 3 2.08 5.71 0
 -7 -6 -3 5.33 5.64 0
 -7 -6 -2 -6.17 4.81 0
 -7 -6 -1 40.89 8.36 0
 -7 -6 0 98.08 11.2 0
 -7 -6 1 31.66 7.49 0
 -7 -6 2 7.33 6.26 0
 -7 -6 3 25.33 7.82 0
 -7 -5 -5 5.26 6.61 0
 -7 -5 -4 4.39 5.35 0
 -7 -5 -3 8.29 6.19 0
 -7 -5 -2 4.82 6.3 0
 -7 -5 -1 2.92 5.02 0
 -7 -5 0 0.25 5.07 0
 -7 -5 2 20.96 6.34 0
 -7 -5 3 9.86 5.67 0
 -7 -4 -6 -2.94 4.75 0
 -7 -4 -5 17.07 6.41 0
 -7 -4 -4 35.19 7.05 0
 -7 -4 -3 42.44 7.58 0
 -7 -4 -1 39.48 7.6 0
 -7 -4 0 143.52 10.85 0
 -7 -4 1 59.1 8.25 0
 -7 -4 3 67.68 9.24 0
 -7 -3 -7 19.13 6.85 0
 -7 -3 -6 11.54 5.82 0
 -7 -3 -5 26.38 6.35 0
 -7 -3 -4 6.46 5.22 0
 -7 -3 -3 34.98 6.72 0
 -7 -3 -2 1.86 4.32 0
 -7 -3 -1 22.55 6.45 0
 -7 -3 1 4.27 4.59 0
 -7 -3 2 -1.66 3.83 0
 -7 -3 3 37.05 7.36 0
 -7 -2 -7 -2.86 4.29 0
 -7 -2 -6 10.49 5.25 0
 -7 -2 -5 19.05 5.53 0
 -7 -2 -4 1.74 4.79 0
 -7 -2 -3 33.23 6.03 0
 -7 -2 -2 9 5.31 0
 -7 -2 -1 85.85 8.58 0
 -7 -2 1 29.35 5.97 0
 -7 -2 2 81.39 7.8 0
 -7 -2 3 135.18 10.14 0
 -7 -1 -7 5.5 4.45 0
 -7 -1 -6 16.99 5.14 0
 -7 -1 -5 11.92 5.02 0
 -7 -1 -4 18.75 5.08 0
 -7 -1 -3 5.88 3.92 0
 -7 -1 -2 2.46 3.71 0
 -7 -1 -1 75.36 7.37 0
 -7 -1 0 86.62 7.21 0
 -7 -1 1 6.34 3.9 0
 -7 -1 2 4.35 4 0
 -7 0 -4 22.85 4.35 0
 -7 0 -3 -1.73 2.69 0
 -7 0 -2 64.22 5.99 0
 -7 0 -1 18.84 4.24 0
 -7 0 0 21.73 4.49 0
 -7 0 1 -1.66 2.92 0
 -6 -8 -3 15.35 6.45 0
 -6 -8 -2 14.67 6.24 0
 -6 -8 -1 16.1 6.79 0
 -6 -8 0 3.7 6.02 0
 -6 -8 3 20.5 6.92 0
 -6 -8 4 11.71 6.28 0
 -6 -7 -5 30.08 7.6 0
 -6 -7 -4 4.72 5.54 0
 -6 -7 -3 16.4 6.2 0
 -6 -7 -2 3.75 5.61 0
 -6 -7 -1 40.77 8.09 0
 -6 -7 0 32.34 7.69 0
 -6 -7 1 38.62 7.13 0
 -6 -7 2 18.85 6.41 0
 -6 -7 3 19.42 6.82 0
 -6 -7 4 0.62 6.32 0
 -6 -6 -7 3.91 5.67 0
 -6 -6 -6 15.99 6.56 0
 -6 -6 -5 14.05 6.08 0
 -6 -6 -4 7.2 5.45 0
 -6 -6 -3 11.91 5.52 0
 -6 -6 -2 114.08 10.76 0
 -6 -6 -1 -1.25 4.47 0
 -6 -6 0 20.96 6.7 0
 -6 -6 1 81.06 9.94 0
 -6 -6 2 26.02 6.41 0
 -6 -6 3 4.72 5.35 0
 -6 -5 -8 26.66 7.33 0
 -6 -5 -7 105.03 11.29 0
 -6 -5 -5 29.67 6.95 0
 -6 -5 -4 94.86 9.85 0
 -6 -5 -3 65.33 8.57 0
 -6 -5 -2 12.39 5.17 0
 -6 -5 -1 22.88 6.3 0
 -6 -5 0 135.53 10.69 0
 -6 -5 1 14.93 5.16 0
 -6 -5 2 3.56 4.63 0
 -6 -5 3 -4.72 3.55 0
 -6 -5 4 110.88 10.26 0
 -6 -4 -9 9.63 5.93 0
 -6 -4 -8 23.85 6.83 0
 -6 -4 -7 10.69 5.83 0
 -6 -4 -4 13.58 5.26 0
 -6 -4 -3 63.96 7.62 0
 -6 -4 -2 31.46 6.1 0
 -6 -4 -1 2.85 4.37 0
 -6 -4 1 39.06 6.85 0
 -6 -4 2 10.84 4.68 0
 -6 -3 -9 2.23 5.18 0
 -6 -3 -8 19.03 6.84 0
 -6 -3 -7 30.31 6.74 0
 -6 -3 -6 1.95 4.57 0
 -6 -3 -5 29.03 5.9 0
 -6 -3 -4 37.25 6.47 0
 -6 -3 -3 35.7 6.23 0
 -6 -3 -2 14.7 4.62 0
 -6 -3 -1 66.75 7.27 0
 -6 -3 0 26.68 5.36 0
 -6 -3 2 4.68 3.89 0
 -6 -3 3 63.06 6.77 0
 -6 -3 4 91.78 8.59 0
 -6 -2 -9 6.85 5.17 0
 -6 -2 -8 12.7 5.88 0
 -6 -2 -7 35.77 6.53 0
 -6 -2 -6 33.75 6.51 0
 -6 -2 -5 31.36 5.89 0
 -6 -2 -3 8.16 4.04 0
 -6 -2 -2 47.66 6.47 0
 -6 -2 0 61.54 6.36 0
 -6 -2 1 70.59 6.66 0
 -6 -2 2 -2.48 3.38 0
 -6 -1 -10 131.89 10.77 0
 -6 -1 -9 12.3 5.94 0
 -6 -1 -7 2.25 3.9 0
 -6 -1 -6 11.52 4.62 0
 -6 -1 -3 -2.59 2.65 0
 -6 -1 -2 11.88 4.16 0
 -6 -1 0 5.47 3.2 0
 -6 -1 1 6.06 3.84 0
 -6 -1 2 22.7 4.45 0
 -6 -1 3 63.68 6.2 0
 -6 0 -10 5.14 4.24 0
 -6 0 -9 2.36 4.28 0
 -6 0 -8 3.59 3.66 0
 -6 0 -6 4.98 3.09 0
 -6 0 -5 5.3 3.28 0
 -6 0 -4 22.87 4.26 0
 -6 0 -3 68.89 5.9 0
 -6 0 -2 36.69 4.63 0
 -6 1 -5 4.69 2.77 0
 -6 1 -4 24.15 3.66 0
 -6 1 0 6.69 2.62 0
 -6 1 1 3.74 2.54 0
 -5 -10 0 37.55 7.95 0
 -5 -10 1 54.09 8.95 0
 -5 -10 2 25.32 7.75 0
 -5 -10 3 34.36 8.14 0
 -5 -9 -4 3.63 5.5 0
 -5 -9 -3 30.32 7.52 0
 -5 -9 -2 4.96 5.6 0
 -5 -9 -1 83.39 10.37 0
 -5 -9 0 15.85 6.21 0
 -5 -9 1 9.54 5.76 0
 -5 -9 2 37.87 7.57 0
 -5 -9 3 19.7 6.72 0
 -5 -8 -6 7.4 5.93 0
 -5 -8 -5 18.13 6.4 0
 -5 -8 -4 9.95 6.21 0
 -5 -8 -3 -0.17 5.21 0
 -5 -8 -2 14.03 6.35 0
 -5 -8 -1 36.66 7.08 0
 -5 -8 0 24.14 6.36 0
 -5 -8 1 35.25 7.12 0
 -5 -8 2 9.45 5.78 0
 -5 -8 3 50.59 8.03 0
 -5 -8 4 36.88 7.76 0
 -5 -7 -8 32.13 7.96 0
 -5 -7 -7 -0.42 5.55 0
 -5 -7 -6 72.63 10.07 0
 -5 -7 -5 19.48 6.46 0
 -5 -7 -4 17.95 6.4 0
 -5 -7 -2 39.43 6.99 0
 -5 -7 -1 100.62 9.91 0
 -5 -7 0 26 6.68 0
 -5 -7 1 81.69 8.52 0
 -5 -7 2 74.07 9.23 0
 -5 -7 3 29.32 6.45 0
 -5 -7 4 7.46 5.23 0
 -5 -6 -9 24.3 8.39 0
 -5 -6 -7 53.31 8.97 0
 -5 -6 -5 11.36 5.01 0
 -5 -6 -4 24.34 6.48 0
 -5 -6 -3 54.32 7.83 0
 -5 -6 0 115.61 9.81 0
 -5 -6 1 46.23 6.95 0
 -5 -6 2 11.78 4.56 0
 -5 -6 3 40.26 6.45 0
 -5 -6 4 21 5.66 0
 -5 -5 -10 -4.36 4.59 0
 -5 -5 -9 39.91 8.27 0
 -5 -5 -7 19.87 6.92 0
 -5 -5 -6 22.75 6.76 0
 -5 -5 -4 6.41 4.39 0
 -5 -5 -3 86.02 8.57 0
 -5 -5 -2 42.44 6.41 0
 -5 -5 0 64.64 6.83 0
 -5 -5 1 121.14 8.64 0
 -5 -5 2 21.34 4.88 0
 -5 -5 3 12.01 4.63 0
 -5 -5 4 10.52 4.31 0
 -5 -4 -10 4.97 5.72 0
 -5 -4 -9 5.32 5.1 0
 -5 -4 -8 32.71 7.33 0
 -5 -4 -6 3.21 4.37 0
 -5 -4 -5 32.16 5.98 0
 -5 -4 -4 99.35 8.31 0
 -5 -4 -3 2.82 4.18 0
 -5 -4 -2 4.73 3.71 0
 -5 -4 -1 12.33 4.23 0
 -5 -4 3 118.66 8.97 0
 -5 -4 4 100.45 7.7 0
 -5 -3 -11 23.03 7 0
 -5 -3 -10 92.92 9.4 0
 -5 -3 -9 114.89 9.8 0
 -5 -3 -8 59.73 7.95 0
 -5 -3 -7 45.72 6.94 0
 -5 -3 -6 84.26 7.94 0
 -5 -3 -5 8.41 4.34 0
 -5 -3 -4 2.13 3.41 0
 -5 -3 -3 83.85 7.05 0
 -5 -3 -2 135.73 8.68 0
 -5 -3 0 240.29 10.33 0
 -5 -3 2 18.08 4.53 0
 -5 -3 3 1.06 2.96 0
 -5 -3 4 43.06 5.84 0
 -5 -2 -11 -5.49 4.16 0
 -5 -2 -9 32.06 6.54 0
 -5 -2 -7 21.46 5.28 0
 -5 -2 -6 15.12 5.08 0
 -5 -2 -5 39.19 6.25 0
 -5 -2 -4 29.93 4.98 0
 -5 -2 -3 68.38 6.38 0
 -5 -2 4 21.45 4.83 0
 -5 -1 -11 25.93 6.79 0
 -5 -1 -10 171.47 11.28 0
 -5 -1 -9 26.53 5.85 0
 -5 -1 -8 13.04 4.5 0
 -5 -1 -7 11.97 4.26 0
 -5 -1 -6 12.17 4.43 0
 -5 -1 -5 41.37 5.74 0
 -5 -1 -4 13.71 3.89 0
 -5 -1 1 7.15 3.18 0
 -5 0 -11 4.2 5.06 0
 -5 0 -10 21.52 5.53 0
 -5 0 -8 78.4 7.45 0
 -5 0 -6 4.36 3.32 0
 -5 0 -3 3.13 2.62 0
 -5 0 -1 147.42 6.76 0
 -5 0 0 186.17 7.79 0
 -5 0 1 69.13 5.17 0
 -5 0 2 310.92 9.81 0
 -5 1 -11 19.24 5.45 0
 -5 1 -10 174.63 10.1 0
 -5 1 -9 21.43 4.62 0
 -5 1 -8 23.12 4.69 0
 -5 1 -7 13.47 3.7 0
 -5 1 -6 7.85 3.01 0
 -5 1 -4 17.13 3.19 0
 -5 1 -3 31.49 3.57 0
 -5 1 -2 411.11 10.05 0
 -5 1 -1 21.64 3.17 0
 -5 1 0 194.29 6.97 0
 -5 1 1 7.02 2.25 0
 -5 2 -4 35.15 3.48 0
 -5 2 -3 69.79 4.11 0
 -4 -10 -2 10.18 6.05 0
 -4 -10 0 10.58 5.78 0
 -4 -10 1 13.36 6.02 0
 -4 -10 3 2.76 5.22 0
 -4 -9 -5 87.63 11.04 0
 -4 -9 -4 15.52 5.87 0
 -4 -9 -3 38.66 7.29 0
 -4 -9 -1 44.34 8.13 0
 -4 -9 0 117.5 10.41 0
 -4 -9 1 7.17 5.03 0
 -4 -9 2 145.4 11.27 0
 -4 -9 3 42.66 7.27 0
 -4 -8 -8 38.02 8.28 0
 -4 -8 -7 17.54 6.72 0
 -4 -8 -5 38.36 7.22 0
 -4 -8 -4 69.81 8.54 0
 -4 -8 -3 1.49 4.6 0
 -4 -8 -2 13.71 5.27 0
 -4 -8 1 3.69 4.15 0
 -4 -8 2 40.02 6.66 0
 -4 -8 3 44.08 7.07 0
 -4 -8 4 29.77 6.51 0
 -4 -7 -9 0.55 5.04 0
 -4 -7 -8 23.99 6.71 0
 -4 -7 -6 3.15 4.56 0
 -4 -7 -5 59.67 8.63 0
 -4 -7 -4 42.31 7.78 0
 -4 -7 -3 82.32 7.92 0
 -4 -7 -2 40.49 6.64 0
 -4 -7 -1 0.53 3.59 0
 -4 -7 0 73.86 7.92 0
 -4 -7 1 52.19 7.21 0
 -4 -7 3 8.28 4.34 0
 -4 -7 4 3.37 4.35 0
 -4 -6 -10 7.5 5.4 0
 -4 -6 -9 23.35 6.9 0
 -4 -6 -7 50.87 7.68 0
 -4 -6 -6 5.63 4.25 0
 -4 -6 -5 1.31 3.79 0
 -4 -6 -3 2.76 4.11 0
 -4 -6 -2 15.36 4.89 0
 -4 -6 -1 2.73 3.26 0
 -4 -6 0 165.3 9.48 0
 -4 -6 1 11.03 4.32 0
 -4 -6 2 18.33 4.48 0
 -4 -6 3 14.54 4.45 0
 -4 -6 4 26.5 5.88 0
 -4 -5 -11 110.15 11.34 0
 -4 -5 -9 20.13 6.9 0
 -4 -5 -8 45.93 7.25 0
 -4 -5 -7 23.68 6.22 0
 -4 -5 -6 3.27 4.13 0
 -4 -5 -4 118.06 8.36 0
 -4 -5 -3 258.19 11.93 0
 -4 -5 -2 67.25 6.38 0
 -4 -5 0 12.57 4.01 0
 -4 -5 2 16.43 4.3 0
 -4 -5 3 37.53 5.31 0
 -4 -5 4 41.59 5.71 0
 -4 -4 -12 5.29 6.18 0
 -4 -4 -11 -1.78 5.25 0
 -4 -4 -10 28.16 7.33 0
 -4 -4 -8 19.61 5.76 0
 -4 -4 -7 29.25 5.87 0
 -4 -4 -5 10.99 4.56 0
 -4 -4 -4 49.42 6.12 0
 -4 -4 -3 5.3 3.36 0
 -4 -4 -2 9.21 3.47 0
 -4 -4 4 90.26 7.4 0
 -4 -3 -7 15.12 4.96 0
 -4 -3 -6 137.17 8.9 0
 -4 -3 -5 26.87 4.72 0
 -4 -3 -4 285.41 11.41 0
 -4 -3 0 25.7 4.09 0
 -4 -2 -6 137.23 8.57 0
 -4 -2 -3 16.27 3.7 0
 -4 -2 -2 53.21 5.21 0
 -4 -2 -1 24.59 3.79 0
 -4 -2 0 99.15 5.89 0
 -4 -2 3 51.83 4.74 0
 -4 -2 4 317.32 10.81 0
 -4 -1 -4 341.7 10.72 0
 -4 -1 -3 227.56 8.57 0
 -4 -1 -2 290.29 9.41 0
 -4 -1 -1 1198.43 17.68 0
 -4 -1 0 16.66 3.26 0
 -4 -1 1 34.12 3.53 0
 -4 -1 2 96.34 5.59 0
 -4 0 -5 -0.52 2.51 0
 -4 0 -2 96.41 5.25 0
 -4 0 -1 8.55 2.7 0
 -4 0 0 37.16 3.6 0
 -4 0 1 8.47 2.41 0
 -4 0 2 0 2.13 0
 -4 1 -5 49.66 4.31 0
 -4 1 -4 340.9 9.19 0
 -4 1 -3 222.01 7.13 0
 -4 1 -2 286.55 7.53 0
 -4 1 -1 1225.01 14.66 0
 -4 1 1 29.89 2.94 0
 -4 2 -4 192.54 6.39 0
 -4 2 -3 17.33 2.32 0
 -4 3 -4 279.56 6.5 0
 -4 3 -2 75.26 2.71 0
 -4 3 -1 359.31 5.16 0
 -3 -11 -3 80.83 9.02 0
 -3 -11 -2 10.28 5.35 0
 -3 -11 -1 2.57 4.87 0
 -3 -11 0 35.35 6.65 0
 -3 -11 1 5.94 5.17 0
 -3 -11 2 0.7 4.4 0
 -3 -10 -6 10.58 5.61 0
 -3 -10 -5 46.35 8.31 0
 -3 -10 -4 1.91 5.26 0
 -3 -10 -3 9.42 5.2 0
 -3 -10 -1 14.6 5.25 0
 -3 -10 0 10.7 5.67 0
 -3 -10 1 41.38 7.21 0
 -3 -10 3 36.35 6.77 0
 -3 -9 -8 19.27 6.49 0
 -3 -9 -7 19.25 6.53 0
 -3 -9 -6 1.63 4.7 0
 -3 -9 -5 25.88 7.01 0
 -3 -9 -4 60.78 8.08 0
 -3 -9 -3 0.08 4.05 0
 -3 -9 -2 14.19 5.11 0
 -3 -9 -1 0.72 4.04 0
 -3 -9 0 31.18 6.68 0
 -3 -9 1 10.45 5.12 0
 -3 -9 3 65.54 7.85 0
 -3 -8 -10 64.99 9.98 0
 -3 -8 -9 -1.35 5.54 0
 -3 -8 -7 -1.6 4.33 0
 -3 -8 -5 21.19 5.79 0
 -3 -8 -4 27.39 5.9 0
 -3 -8 -2 29.76 5.58 0
 -3 -8 -1 16.66 4.69 0
 -3 -8 0 33.65 5.66 0
 -3 -8 1 4.98 3.93 0
 -3 -8 3 27.89 5.85 0
 -3 -8 4 14.11 4.77 0
 -3 -7 -11 5.03 6.65 0
 -3 -7 -10 31.71 7.43 0
 -3 -7 -9 6.21 5.22 0
 -3 -7 -7 14.87 5.38 0
 -3 -7 -6 3.18 4.91 0
 -3 -7 -5 67.72 8.19 0
 -3 -7 -4 40.27 6.3 0
 -3 -7 -2 4.26 3.26 0
 -3 -7 -1 6.6 3.46 0
 -3 -7 1 188.64 9.7 0
 -3 -7 2 24.23 4.8 0
 -3 -7 3 158.97 9.32 0
 -3 -7 4 34.49 5.99 0
 -3 -6 -12 13.91 7.27 0
 -3 -6 -11 18.2 7.41 0
 -3 -6 -10 112.04 10.32 0
 -3 -6 -9 11.36 5.46 0
 -3 -6 -8 106.45 9.3 0
 -3 -6 -7 7.75 4.35 0
 -3 -6 -6 77.76 7.17 0
 -3 -6 -5 3.97 3.79 0
 -3 -6 -3 26.47 5.13 0
 -3 -6 -2 33.78 5.1 0
 -3 -6 3 245.67 10.43 0
 -3 -6 4 5.69 3.56 0
 -3 -5 -7 100.36 8.9 0
 -3 -5 -6 81.27 7.06 0
 -3 -5 -5 51.74 6.06 0
 -3 -5 -4 58.32 6.41 0
 -3 -4 -5 19.79 4.1 0
 -3 -4 -2 99.72 6.43 0
 -3 -4 -1 17.22 3.59 0
 -3 -4 3 249.04 9.28 0
 -3 -3 -4 263.69 9.75 0
 -3 -3 -3 91.55 5.86 0
 -3 -3 -2 179.38 7.55 0
 -3 -3 -1 16.97 3.22 0
 -3 -3 0 191.08 7.5 0
 -3 -3 3 50.18 4.67 0
 -3 -3 4 761.53 15.54 0
 -3 -2 -3 120.61 6.05 0
 -3 -2 -2 9.39 2.76 0
 -3 -2 0 687.56 12.56 0
 -3 -2 1 260.31 7.88 0
 -3 -2 2 63.05 4.53 0
 -3 -2 3 214.59 7.86 0
 -3 -1 -2 75.42 4.41 0
 -3 -1 0 404.01 8.73 0
 -3 -1 1 112.14 4.95 0
 -3 -1 2 241.15 7.2 0
 -3 -1 3 3.85 2.07 0
 -3 0 -2 63.66 3.78 0
 -3 0 -1 579.85 9.7 0
 -3 0 0 500.46 8.8 0
 -3 0 1 466.96 8.65 0
 -3 0 2 235.54 6.49 0
 -3 1 -2 72.16 3.46 0
 -3 1 -1 3.17 1.43 0
 -3 1 0 389.57 6.78 0
 -3 1 1 112.87 4 0
 -3 2 -1 82.77 2.74 0
 -3 2 0 672.59 7.37 0
 -3 3 -3 83.21 2.89 0
 -3 3 -2 174.89 3.15 0
 -2 -11 -5 7.4 4.81 0
 -2 -11 -4 21.02 6.09 0
 -2 -11 -3 36.26 6.75 0
 -2 -11 -2 9.01 4.72 0
 -2 -11 0 2.49 4.05 0
 -2 -10 -8 22.32 7 0
 -2 -10 -7 41.2 7.59 0
 -2 -10 -6 23.73 5.8 0
 -2 -10 -4 8.56 4.69 0
 -2 -10 -3 15.37 5.26 0
 -2 -10 -2 11.2 4.47 0
 -2 -10 -1 12.36 4.38 0
 -2 -10 0 33.32 5.91 0
 -2 -10 1 12.53 4.57 0
 -2 -9 -9 12.25 6.18 0
 -2 -9 -8 18.63 6.15 0
 -2 -9 -7 6.6 4.88 0
 -2 -9 -6 20.92 6.12 0
 -2 -9 -5 -1.17 4.59 0
 -2 -9 -4 90.97 8 0
 -2 -9 -3 55.22 6.94 0
 -2 -9 -2 29.48 5.34 0
 -2 -9 -1 22.9 4.84 0
 -2 -9 1 3.42 3.77 0
 -2 -9 2 5.06 4.28 0
 -2 -9 3 13.22 4.31 0
 -2 -8 -11 14.25 6.31 0
 -2 -8 -10 46.74 8.19 0
 -2 -8 -9 23.79 6.42 0
 -2 -8 -8 11.68 5.43 0
 -2 -8 -7 11.21 5.52 0
 -2 -8 -6 38.71 6.36 0
 -2 -8 -5 43.89 6.44 0
 -2 -8 -4 10.73 4.35 0
 -2 -8 -3 26.01 4.97 0
 -2 -8 -2 21.68 4.54 0
 -2 -8 -1 5.46 3.72 0
 -2 -8 0 157.1 8.89 0
 -2 -8 1 5.9 3.62 0
 -2 -8 3 135.32 8.43 0
 -2 -7 -9 14.52 5.93 0
 -2 -7 -8 17.86 5.39 0
 -2 -7 -7 0.08 3.57 0
 -2 -7 -6 4.83 4.44 0
 -2 -7 -5 3.53 3.84 0
 -2 -7 -4 287.63 12.1 0
 -2 -6 -6 110.67 8.05 0
 -2 -6 -5 109.35 7.86 0
 -2 -6 -1 63.84 5.42 0
 -2 -6 1 203.27 8.64 0
 -2 -6 2 7.45 3.15 0
 -2 -6 3 101.6 6.53 0
 -2 -5 -3 10.76 3.27 0
 -2 -5 -2 16.77 3.41 0
 -2 -5 0 156.06 7 0
 -2 -5 1 342.49 9.85 0
 -2 -5 2 125.59 6.6 0
 -2 -5 3 306.65 9.77 0
 -2 -5 4 10.01 3.14 0
 -2 -4 -3 185.13 7.5 0
 -2 -4 -2 466.2 11.38 0
 -2 -4 -1 23.82 3.4 0
 -2 -4 0 732.61 13.25 0
 -2 -3 -2 66.14 4.62 0
 -2 -3 -1 573.76 11.12 0
 -2 -3 0 324.08 8.18 0
 -2 -3 3 91.37 4.92 0
 -2 -2 -2 215.6 6.63 0
 -2 -2 -1 138.32 5.29 0
 -2 -2 0 778.16 11.44 0
 -2 -2 1 466.69 8.97 0
 -2 -2 3 105.23 4.97 0
 -2 -1 0 594.24 8.87 0
 -2 -1 1 284.76 6.33 0
 -2 0 -1 277.86 5.69 0
 -2 0 1 361.25 6.27 0
 -2 0 2 2.86 1.9 0
 -2 2 -1 131.93 2.41 0
 -1 -11 -6 8.62 4.45 0
 -1 -11 -5 26.33 5.43 0
 -1 -10 -8 5.48 4.63 0
 -1 -10 -7 24.31 6.15 0
 -1 -10 -6 9.31 4.64 0
 -1 -10 -4 42.03 5.66 0
 -1 -10 -3 35.28 5.29 0
 -1 -10 -1 10.21 3.63 0
 -1 -10 0 102.77 7.08 0
 -1 -10 1 2.26 2.96 0
 -1 -9 -10 7.82 5.08 0
 -1 -9 -9 40.17 7.24 0
 -1 -9 -8 11.5 5.24 0
 -1 -9 -7 20.93 5.53 0
 -1 -9 -6 6.26 4.4 0
 -1 -9 -5 6.52 3.94 0
 -1 -9 -4 86.75 7.46 0
 -1 -9 -3 30.63 5.15 0
 -1 -9 -2 8.56 3.49 0
 -1 -9 -1 3.79 2.93 0
 -1 -8 -10 23.04 6.85 0
 -1 -8 -9 13.94 5.88 0
 -1 -8 -8 6.15 4.34 0
 -1 -8 -7 264.99 12.57 0
 -1 -8 -6 2.06 3.36 0
 -1 -8 -5 127.42 8.46 0
 -1 -8 -4 136 8.17 0
 -1 -8 -3 20.44 3.98 0
 -1 -7 -6 52.09 6.17 0
 -1 -7 -5 27.83 4.8 0
 -1 -7 -2 4.48 3.01 0
 -1 -7 -1 67.05 5.3 0
 -1 -7 0 30.51 4.25 0
 -1 -7 1 7.39 2.94 0
 -1 -7 2 52.22 4.81 0
 -1 -7 3 105.41 6.32 0
 -1 -6 -4 67.69 5.77 0
 -1 -6 -3 94.33 5.95 0
 -1 -6 -2 121.81 6.57 0
 -1 -6 -1 177.8 7.28 0
 -1 -6 0 13.53 2.87 0
 -1 -6 1 69.75 4.99 0
 -1 -6 2 89.2 5.29 0
 -1 -6 3 240.32 8.28 0
 -1 -5 -2 68.42 4.87 0
 -1 -5 0 35.6 3.31 0
 -1 -5 1 92.21 4.77 0
 -1 -5 2 253.27 7.8 0
 -1 -5 3 3.81 2.34 0
 -1 -4 -2 59.57 4.17 0
 -1 -4 0 168.52 5.82 0
 -1 -4 1 1333.59 15.23 0
 -1 -4 2 383.98 8.5 0
 -1 -4 3 431.47 9.62 0
 -1 -3 -1 414.57 8.25 0
 -1 -3 0 279.14 6.5 0
 -1 -3 1 354.52 7.2 0
 -1 -3 2 351.22 7.71 0
 -1 -3 3 26.72 2.97 0
 -1 -2 1 2022.94 14.89 0
 -1 -2 2 968.29 11.09 0
 -1 -1 0 5274.86 20.01 0
 -1 -1 2 20.42 2.21 0
 -1 0 0 465.63 4.8 0
 0 -10 -8 26.1 5.73 0
 0 -10 -7 12.98 4.55 0
 0 -10 -6 14.78 4.68 0
 0 -10 -5 3.43 3.01 0
 0 -10 -4 200.25 8.96 0
 0 -9 -9 14.35 4.95 0
 0 -9 -7 51.9 6.86 0
 0 -9 -6 15.18 4.35 0
 0 -9 -5 89.22 6.73 0
 0 -9 -4 2.98 2.72 0
 0 -9 -1 60.99 4.92 0
 0 -8 -7 -0.01 3.21 0
 0 -8 -6 4.09 3.26 0
 0 -8 -5 14.6 3.87 0
 0 -8 -3 139.4 7.05 0
 0 -8 -1 102.52 5.69 0
 0 -8 1 107.91 5.44 0
 0 -7 -4 9.01 3.23 0
 0 -7 -2 21.47 3.15 0
 0 -7 -1 195.15 6.89 0
 0 -7 1 192.8 6.63 0
 0 -7 2 20.53 2.94 0
 0 -6 -3 261.19 8.12 0
 0 -6 -1 485.02 9.73 0
 0 -6 0 46.7 3.52 0
 0 -6 1 486.92 9.36 0
 0 -6 2 53.56 3.6 0
 0 -5 -2 15.83 2.58 0
 0 -5 1 168.07 5.2 0
 0 -5 2 15.42 2.4 0
 0 -4 0 572.67 8.18 0
 0 -4 1 368.04 6.64 0
 0 -4 2 452.61 7.72 0
 0 -3 -1 568 7.66 0
 0 -3 1 571.83 7.12 0
 0 -2 0 9584.73 22.86 0
 0 -2 1 189.34 3.49 0
 1 -9 -10 16.1 4.99 0
 1 -9 -9 -1.28 3.63 0
 1 -9 -8 -3.77 2.8 0
 1 -9 -6 40.59 5.05 0
 1 -8 -5 17.59 3.36 0
 1 -8 -4 118.1 6.06 0
 1 -8 -3 113.49 5.35 0
 1 -8 -2 44.37 3.39 0
 1 -8 -1 103.97 4.34 0
 1 -8 0 71.29 3.45 0
 1 -7 -4 152.71 6.32 0
 1 -7 -3 105.39 5.19 0
 1 -7 -2 48.51 3.35 0
 1 -7 -1 10.07 1.83 0
 1 -7 0 30.41 2.38 0
 1 -6 -3 236.38 6.71 0
 1 -6 -2 89.49 4.05 0
 1 -6 -1 69.26 3.18 0
 1 -6 0 12.74 1.62 0
 1 -5 -2 238.32 5.56 0
 1 -5 -1 88.23 3.19 0
 1 -5 0 34.08 1.96 0
 1 -4 -1 1322.79 9.94 0
 1 -4 0 162.34 3.06 0
 2 -7 -4 181.34 5.75 0
 2 -7 -3 91.9 3.55 0
 2 -6 -3 102.8 3.73 0
 2 -6 -2 2.89 0.83 0
 -5 -5 -10 3.56 3.39 0
 -5 -4 -10 8.75 3.82 0
 -5 -4 -9 3.74 2.79 0
 -5 -3 -11 25.01 5.56 0
 -5 -3 -10 85.33 7.27 0
 -5 -3 -9 111.06 7.47 0
 -5 -3 -8 59.35 5.56 0
 -5 -2 -10 51.39 6.18 0
 -5 -2 -7 13.95 3.03 0
 -5 -1 -11 26.05 5.81 0
 -5 -1 -9 25.39 4.68 0
 -5 -1 -8 18.04 4.07 0
 -5 -1 -7 13.16 3.08 0
 -5 0 -11 -0.47 3.56 0
 -5 0 -10 22.51 5.3 0
 -5 0 -9 83.92 7.02 0
 -5 0 -7 10.93 3 0
 -5 0 -5 51.28 3.94 0
 -5 1 -11 19.98 5.55 0
 -5 1 -10 173.26 10.22 0
 -5 1 -9 22.3 4.45 0
 -5 1 -8 18.08 4.26 0
 -5 1 -7 14.39 3.55 0
 -5 1 -5 46.98 4.09 0
 -5 2 -11 3.08 4.85 0
 -5 2 -10 47.2 6.08 0
 -5 2 -9 25.36 5.2 0
 -5 2 -8 31.68 5.14 0
 -5 2 -7 15.4 3.92 0
 -5 2 -4 37.42 3.57 0
 -5 3 -11 34.83 6.54 0
 -5 3 -10 98.65 8.37 0
 -5 3 -8 58.1 6.14 0
 -5 3 -7 48.25 5.74 0
 -5 3 -6 91.11 6.56 0
 -5 3 -4 1.58 2.07 0
 -5 3 -3 78.06 4.94 0
 -5 4 -10 8.69 4.96 0
 -5 4 -9 0.92 3.61 0
 -5 4 -8 35.38 5.89 0
 -5 4 -7 102.94 7.79 0
 -5 4 -6 0.21 2.44 0
 -5 4 -5 24.94 4.07 0
 -5 4 -3 5.56 2.36 0
 -5 5 -10 -2.62 4.55 0
 -5 5 -9 32.05 6.45 0
 -5 5 -8 16.93 5.33 0
 -5 5 -7 23.12 5.17 0
 -5 5 -6 22.11 4.89 0
 -5 5 -4 8.67 3.24 0
 -5 6 -9 13.19 5.11 0
 -5 6 -8 19.11 5.22 0
 -5 6 -7 43.21 6.46 0
 -5 6 -6 -1.39 3.62 0
 -5 6 -5 9.36 4.05 0
 -5 6 -4 26.8 5.03 0
 -5 6 -3 49.51 5.41 0
 -5 7 -8 31.17 6.75 0
 -5 7 -7 -3.28 4.28 0
 -5 7 -6 98.09 9.02 0
 -5 7 -5 13.15 5.25 0
 -5 8 -6 5.17 4.5 0
 -4 -4 -12 6.3 4.21 0
 -4 -4 -11 4.05 4.08 0
 -4 -3 -12 37.03 6.72 0
 -4 -3 -11 21.93 4.79 0
 -4 -3 -10 14.5 4.1 0
 -4 -2 -13 13.8 5.51 0
 -4 -2 -12 7.02 4.38 0
 -4 -2 -11 14.17 4.74 0
 -4 -2 -10 37.05 5.52 0
 -4 -2 -9 36.38 5.15 0
 -4 -2 -8 51.53 5.46 0
 -4 -1 -13 10.09 4.88 0
 -4 -1 -12 25.84 6.14 0
 -4 -1 -11 14.97 5.04 0
 -4 -1 -10 16.87 4.69 0
 -4 -1 -8 18.81 3.9 0
 -4 -1 -6 178.93 7.27 0
 -4 -1 -5 45.76 3.87 0
 -4 -1 -4 336.16 7.91 0
 -4 -1 -3 217.69 5.75 0
 -4 -1 -1 1214.67 9.59 0
 -4 -1 0 19.83 0.93 0
 -4 0 -13 24.23 6.27 0
 -4 0 -12 10.11 5.31 0
 -4 0 -11 20.65 5.01 0
 -4 0 -10 57.72 7.08 0
 -4 0 -9 6.85 3.24 0
 -4 0 -8 98.45 6.51 0
 -4 0 -6 142.96 6.49 0
 -4 0 -5 -1.88 1.65 0
 -4 0 -4 8.45 2.15 0
 -4 0 -3 67.3 3.52 0
 -4 0 -1 9.58 1.24 0
 -4 0 0 35.91 1.27 0
 -4 1 -12 26.3 5.78 0
 -4 1 -11 14.07 5.26 0
 -4 1 -8 21.83 4.12 0
 -4 1 -6 179.47 7.46 0
 -4 1 -5 53.26 4.21 0
 -4 1 -4 341.84 8.6 0
 -4 1 -3 223.45 6.32 0
 -4 1 0 21 1.53 0
 -4 2 -13 13.92 6.27 0
 -4 2 -12 1.32 4.28 0
 -4 2 -11 13.29 5.16 0
 -4 2 -10 32.15 5.97 0
 -4 2 -9 22.98 4.77 0
 -4 2 -8 61.97 6.25 0
 -4 2 -7 3.2 2.87 0
 -4 2 -5 43.73 4.52 0
 -4 2 -4 202.94 7.24 0
 -4 2 -2 46.65 3.15 0
 -4 3 -12 37.07 6.64 0
 -4 3 -11 23.65 5.92 0
 -4 3 -10 13.34 4.67 0
 -4 3 -9 14.9 4.37 0
 -4 3 -8 39.07 5.9 0
 -4 3 -7 16.34 4.54 0
 -4 3 -5 18.53 3.45 0
 -4 3 -4 293.2 9.34 0
 -4 3 -3 209.45 7.47 0
 -4 3 -2 71.91 4.53 0
 -4 3 -1 363.33 8.53 0
 -4 4 -12 18.3 6.59 0
 -4 4 -11 -0.96 4.07 0
 -4 4 -10 25.07 5.73 0
 -4 4 -9 99 8.69 0
 -4 4 -8 17.43 4.61 0
 -4 4 -6 53.09 5.91 0
 -4 4 -4 41.52 5.13 0
 -4 4 -3 5.46 2.76 0
 -4 4 -2 10.26 2.98 0
 -4 5 -10 11.11 4.95 0
 -4 5 -9 19.8 6.03 0
 -4 5 -7 18.05 4.75 0
 -4 5 -6 5.84 4.16 0
 -4 5 -5 13.71 4.3 0
 -4 5 -2 61.14 5.43 0
 -4 5 -1 103.89 6.25 0
 -4 6 -10 17.68 6.05 0
 -4 6 -8 29.59 6.04 0
 -4 6 -7 56.34 7.69 0
 -4 6 -6 3.45 3.66 0
 -4 6 -5 1.04 3.58 0
 -4 6 -4 23.93 5.05 0
 -4 6 -3 1.82 3.6 0
 -4 7 -9 1.11 5.33 0
 -4 7 -8 15.99 5.55 0
 -4 7 -6 4.99 4.32 0
 -4 7 -5 58.96 7.65 0
 -4 7 -4 28.85 5.51 0
 -4 7 -3 88.14 7.9 0
 -4 8 -7 12.16 5.48 0
 -4 8 -6 40.99 7.4 0
 -4 8 -5 34.33 6.52 0
 -4 9 -7 0.78 6.07 0
 -4 9 -6 34.02 7.75 0
 -3 -4 -13 37.24 6.7 0
 -3 -3 -13 14.96 5.85 0
 -3 -3 -12 10.51 5.08 0
 -3 -2 -13 3.15 4.34 0
 -3 -2 -12 27.53 5.77 0
 -3 -2 -11 14.47 4.3 0
 -3 -1 -14 17.32 5.4 0
 -3 -1 -12 9.78 4.36 0
 -3 -1 -11 70.32 7.28 0
 -3 -1 -10 35.63 5.13 0
 -3 -1 -9 16.55 3.68 0
 -3 0 -14 11.75 5.17 0
 -3 0 -13 36.98 6.54 0
 -3 0 -11 1.17 3.37 0
 -3 0 -9 5.06 3.53 0
 -3 0 -6 6.5 2.43 0
 -3 0 -5 423.98 9.55 0
 -3 0 -4 0.9 1.38 0
 -3 0 -2 61.55 2.8 0
 -3 0 -1 581.84 6.54 0
 -3 1 -14 24.02 6.41 0
 -3 1 -13 6.62 4.99 0
 -3 1 -11 57.39 6.71 0
 -3 1 -10 32.07 5.08 0
 -3 1 -9 18.42 4.19 0
 -3 1 -8 23.25 3.95 0
 -3 1 -6 145.38 6.67 0
 -3 1 -5 6.66 2.51 0
 -3 1 -4 259.18 7.16 0
 -3 1 -2 71.8 3.19 0
 -3 1 -1 6.48 1.23 0
 -3 1 0 399.76 5.45 0
 -3 2 -13 -2.83 3.98 0
 -3 2 -12 25.42 6.01 0
 -3 2 -11 7.59 4.04 0
 -3 2 -10 11.23 4.31 0
 -3 2 -8 150.69 8.19 0
 -3 2 -6 37.77 4.16 0
 -3 2 -5 111.06 5.66 0
 -3 2 -4 71.6 4.28 0
 -3 2 -3 124.62 5.16 0
 -3 2 -1 87.71 3.63 0
 -3 2 0 672.57 8.85 0
 -3 3 -12 8.4 4.91 0
 -3 3 -11 3.22 4.47 0
 -3 3 -8 28.03 4.79 0
 -3 3 -4 284.47 8.66 0
 -3 3 -2 191.19 6.36 0
 -3 4 -13 41.32 7.46 0
 -3 4 -12 16.5 5.6 0
 -3 4 -11 23.36 6.44 0
 -3 4 -10 88.06 8.5 0
 -3 4 -9 3.96 3.71 0
 -3 4 -8 128.4 8.73 0
 -3 4 -7 46.65 5.73 0
 -3 4 -4 13.41 3.46 0
 -3 4 -3 163.43 7.16 0
 -3 4 -2 103.51 5.55 0
 -3 4 -1 25.41 3.38 0
 -3 5 -12 2.31 4.81 0
 -3 5 -11 3.73 5.05 0
 -3 5 -10 73.91 8.26 0
 -3 5 -9 10.44 4.77 0
 -3 5 -6 76.5 6.54 0
 -3 5 -3 67.81 5.79 0
 -3 5 -2 142.27 7.19 0
 -3 5 -1 17.49 3.38 0
 -3 6 -12 16.88 6.84 0
 -3 6 -10 131.82 10.33 0
 -3 6 -9 7.69 4.85 0
 -3 6 -7 7.54 4.29 0
 -3 6 -6 72.34 7.08 0
 -3 6 -5 2.61 3.37 0
 -3 6 -4 30.63 5.37 0
 -3 7 -11 10.27 6.32 0
 -3 7 -10 21.83 6.41 0
 -3 7 -9 4.92 5.15 0
 -3 7 -8 73.96 8.67 0
 -3 7 -7 11.54 5.02 0
 -3 7 -6 8.03 4.39 0
 -3 7 -5 68 7.14 0
 -3 7 -4 39.22 6.41 0
 -3 8 -9 2.72 5.72 0
 -3 8 -8 66.82 8.93 0
 -3 8 -7 -0.21 4.43 0
 -3 8 -6 25.34 6.02 0
 -3 8 -5 20.36 5.73 0
 -3 8 -4 25.26 5.76 0
 -3 9 -8 11.15 6.39 0
 -3 9 -6 -1.58 5.5 0
 -3 9 -5 30.63 6.79 0
 -2 -3 -14 94.37 8.83 0
 -2 -2 -14 65.96 8.1 0
 -2 -2 -13 29.38 5.94 0
 -2 -2 -12 12.94 4.29 0
 -2 -2 -11 10.01 4.14 0
 -2 -1 -15 10.5 5.5 0
 -2 -1 -14 17.83 6.13 0
 -2 -1 -13 6.86 4.55 0
 -2 -1 -11 22.07 4.78 0
 -2 -1 -10 22.18 4.18 0
 -2 -1 -9 11.57 3.56 0
 -2 0 -13 6.3 4.51 0
 -2 0 -12 13.55 4.98 0
 -2 0 -11 89.4 7.69 0
 -2 0 -10 17.88 4.11 0
 -2 0 -9 89.32 6.4 0
 -2 0 -7 118.61 5.89 0
 -2 0 -6 147.26 6.2 0
 -2 0 -4 377.06 7.78 0
 -2 0 -3 733.12 9.54 0
 -2 0 -2 29.64 1.96 0
 -2 0 -1 276.94 4.05 0
 -2 0 0 235 2.66 0
 -2 1 -15 13.25 6.46 0
 -2 1 -14 16.84 5.73 0
 -2 1 -13 -2.64 3.62 0
 -2 1 -12 20.3 5.4 0
 -2 1 -10 18.38 4.16 0
 -2 1 -9 13.2 3.48 0
 -2 1 -7 43.07 4.07 0
 -2 1 -6 20.75 2.98 0
 -2 1 -5 22.8 2.89 0
 -2 1 -3 533.92 8.44 0
 -2 1 -2 480.16 7.17 0
 -2 1 -1 272 4.84 0
 -2 1 0 585.14 6.04 0
 -2 2 -14 58.5 8.33 0
 -2 2 -13 30.45 6 0
 -2 2 -12 13.02 4.89 0
 -2 2 -11 14.15 4.54 0
 -2 2 -10 19.49 4.23 0
 -2 2 -9 121.6 7.65 0
 -2 2 -3 89.39 4.37 0
 -2 2 -2 219.21 5.62 0
 -2 2 0 797.11 9.32 0
 -2 3 -14 88.71 9.19 0
 -2 3 -13 34.36 6.59 0
 -2 3 -12 46.68 7.15 0
 -2 3 -11 27.97 5.41 0
 -2 3 -10 2.94 3.56 0
 -2 3 -9 14.94 3.73 0
 -2 3 -8 65.31 6.13 0
 -2 3 -6 13.93 3.19 0
 -2 3 -5 35.04 3.91 0
 -2 3 -4 303.27 8.42 0
 -2 3 -1 554.97 9.79 0
 -2 3 0 333.97 7.4 0
 -2 4 -14 61.93 9.28 0
 -2 4 -13 4.32 5.63 0
 -2 4 -12 32.76 6.38 0
 -2 4 -8 8.14 3.21 0
 -2 4 -5 6.3 2.78 0
 -2 4 -4 205.03 7.99 0
 -2 4 -2 477.98 10.87 0
 -2 5 -13 15.76 6.35 0
 -2 5 -12 15.19 5.4 0
 -2 5 -11 4.12 4.73 0
 -2 5 -9 49.07 6.97 0
 -2 5 -8 15.93 4.78 0
 -2 5 -7 102.32 7.08 0
 -2 5 -4 22.78 4.12 0
 -2 5 -1 509.71 12.21 0
 -2 6 -12 19.32 6.22 0
 -2 6 -11 5.89 4.8 0
 -2 6 -10 104.64 9.53 0
 -2 6 -9 25.7 5.56 0
 -2 6 -8 11.12 4.54 0
 -2 6 -7 83.27 7.44 0
 -2 6 -6 101.39 7.91 0
 -2 7 -12 56.84 9.15 0
 -2 7 -11 14.62 5.95 0
 -2 7 -10 48.09 7.87 0
 -2 7 -9 13.66 5.74 0
 -2 7 -8 12.56 4.93 0
 -2 7 -7 4.22 4.26 0
 -2 7 -6 8.28 4.19 0
 -2 7 -5 7.45 3.99 0
 -2 7 -4 288.03 12.28 0
 -2 8 -8 22.12 6.02 0
 -2 8 -7 11.93 5.17 0
 -2 8 -6 44.73 6.88 0
 -2 8 -5 58.74 7.23 0
 -2 8 -4 12.86 4.77 0
 -2 9 -9 16.16 6.29 0
 -2 9 -8 19.87 7.06 0
 -2 9 -7 4.16 5.19 0
 -2 9 -6 10.32 5.69 0
 -2 9 -5 0.77 4.6 0
 -2 10 -7 31.81 7.5 0
 -1 -3 -15 3.91 4.59 0
 -1 -3 -14 39.15 6.92 0
 -1 -2 -15 2.81 4.6 0
 -1 -2 -14 36.69 6.95 0
 -1 -2 -13 4.15 3.87 0
 -1 -2 -12 -1.82 2.96 0
 -1 -1 -14 120.31 9.53 0
 -1 -1 -13 189.54 11.06 0
 -1 -1 -12 10.93 4.17 0
 -1 -1 -10 56.52 5.73 0
 -1 0 -15 8.86 4.8 0
 -1 0 -14 37.88 6.35 0
 -1 0 -13 1.19 3.63 0
 -1 0 -8 517.91 12.43 0
 -1 0 -7 0.18 1.83 0
 -1 1 -14 102.32 9.46 0
 -1 1 -13 197.84 11.48 0
 -1 1 -12 3.35 3.68 0
 -1 1 -11 44.69 5.91 0
 -1 1 -10 60.41 5.37 0
 -1 1 -5 84.81 4.19 0
 -1 1 -4 963.17 11.75 0
 -1 1 -3 56.91 2.89 0
 -1 1 -2 258.89 4.8 0
 -1 1 -1 1240.46 8.8 0
 -1 1 0 5183.8 16.12 0
 -1 2 -15 6.52 5.11 0
 -1 2 -14 43.67 7.1 0
 -1 2 -13 8.16 4.62 0
 -1 2 -12 1.11 3.35 0
 -1 2 -11 33.09 5.81 0
 -1 2 -10 42.23 5.64 0
 -1 2 -7 189.18 7.39 0
 -1 2 -4 34.47 2.86 0
 -1 2 -3 547.72 8.87 0
 -1 2 -2 14.67 2.11 0
 -1 2 -1 1166.52 11.01 0
 -1 2 0 2119.96 14.25 0
 -1 3 -15 3.42 5.32 0
 -1 3 -14 36.51 6.62 0
 -1 3 -13 104.87 9.33 0
 -1 3 -11 23 5.26 0
 -1 3 -10 61.93 6.08 0
 -1 3 -9 105.93 7.2 0
 -1 3 -7 64.11 5.03 0
 -1 3 -3 64.06 3.75 0
 -1 3 -2 104.15 4.49 0
 -1 3 0 274.15 6.78 0
 -1 4 -14 24.46 6.74 0
 -1 4 -12 2.43 4.38 0
 -1 4 -11 46.39 6.58 0
 -1 4 -9 64.15 6.47 0
 -1 4 -1 503.39 10.38 0
 -1 5 -13 20.01 6.51 0
 -1 5 -12 22.65 5.76 0
 -1 5 -11 6.11 4.36 0
 -1 5 -10 193.94 10.64 0
 -1 5 -8 2.91 3.09 0
 -1 5 -7 16.27 4.06 0
 -1 5 -5 19.47 3.99 0
 -1 5 -4 432.16 11.83 0
 -1 5 -2 67.68 4.88 0
 -1 6 -13 9.78 5.69 0
 -1 6 -12 16.88 5.86 0
 -1 6 -11 109.2 9.55 0
 -1 6 -10 47.54 6.9 0
 -1 6 -9 28 6.06 0
 -1 6 -7 242.62 10.91 0
 -1 6 -6 12.18 4.05 0
 -1 6 -2 114.05 6.73 0
 -1 7 -12 0.76 4.72 0
 -1 7 -11 2.64 4.93 0
 -1 7 -9 105.27 8.84 0
 -1 7 -8 12.85 5.01 0
 -1 7 -7 13.39 4.71 0
 -1 7 -6 62.33 6.64 0
 -1 7 -4 97.49 7.27 0
 -1 7 -3 12.61 3.73 0
 -1 8 -11 -3.69 5.25 0
 -1 8 -9 9.81 5.2 0
 -1 8 -8 -0.6 3.97 0
 -1 8 -7 254.29 13.05 0
 -1 9 -10 9.84 6 0
 -1 9 -9 47.87 8.21 0
 -1 9 -8 9.86 5.69 0
 -1 9 -7 26.44 6.69 0
 -1 9 -6 11.22 5.46 0
 -1 9 -5 0.46 4.07 0
 -1 10 -8 10.6 6 0
 0 -3 -15 49.02 7.81 0
 0 -2 -15 75.83 9.22 0
 0 -2 -14 36.3 6.27 0
 0 -2 -13 187.76 10.41 0
 0 -1 -15 28.06 6.18 0
 0 -1 -14 51.51 7.09 0
 0 -1 -13 84.78 7.48 0
 0 -1 -12 120.24 7.91 0
 0 -1 -11 145.27 8.31 0
 0 0 -15 58.21 7.74 0
 0 0 -14 49.39 7.04 0
 0 0 -13 217.15 11.33 0
 0 0 -11 -3.32 2.46 0
 0 0 -10 167.81 8.13 0
 0 0 -8 1067.56 17.12 0
 0 1 -15 21.76 5.89 0
 0 1 -14 45.53 6.74 0
 0 1 -13 95.5 8.24 0
 0 1 -12 127.06 8.53 0
 0 1 -11 134.61 8.14 0
 0 1 -8 135.1 6.3 0
 0 1 -7 204.89 6.96 0
 0 1 -6 132.17 5.23 0
 0 1 -4 233.59 5.5 0
 0 1 -3 1021.61 9.8 0
 0 1 -2 466.23 5.83 0
 0 1 -1 479.64 5.01 0
 0 2 -14 34.55 7.05 0
 0 2 -13 193.92 10.83 0
 0 2 -12 43.25 6.1 0
 0 2 -11 48.67 5.44 0
 0 2 -10 219.91 9.36 0
 0 2 -8 354.88 10.22 0
 0 2 -7 266.48 8.22 0
 0 2 -6 10.39 2.25 0
 0 2 -5 477.15 9.2 0
 0 2 -4 563.58 9.21 0
 0 2 -3 870.13 10.41 0
 0 2 -2 1998.46 14.33 0
 0 2 -1 190.12 4.47 0
 0 3 -15 52.94 7.83 0
 0 3 -13 18.28 4.95 0
 0 3 -12 58.5 6.74 0
 0 3 -11 77.63 7.13 0
 0 3 -10 54.63 6.04 0
 0 3 -7 23.31 3.49 0
 0 3 -6 17.01 2.86 0
 0 3 -5 119.4 5.55 0
 0 3 -4 98.94 4.57 0
 0 3 -3 439.55 8.67 0
 0 3 -2 793.72 11.1 0
 0 4 -15 34.87 7.13 0
 0 4 -14 12.27 5.94 0
 0 4 -13 34 6.8 0
 0 4 -12 8.32 4.45 0
 0 4 -11 113.42 8.82 0
 0 4 -10 231.83 10.84 0
 0 4 -9 6.31 3.04 0
 0 4 -7 93.14 6.14 0
 0 4 -6 9.65 2.78 0
 0 4 -5 249.88 8.34 0
 0 4 -4 48.14 4.28 0
 0 5 -14 101.31 10.36 0
 0 5 -13 58.52 8.26 0
 0 5 -12 13.96 5.2 0
 0 5 -11 0.67 3.63 0
 0 5 -10 29.46 5.77 0
 0 5 -8 67.98 6.03 0
 0 5 -5 5.84 2.82 0
 0 5 -3 41.41 4.08 0
 0 6 -13 5.05 4.88 0
 0 6 -12 2.97 4.8 0
 0 6 -11 73.54 7.72 0
 0 6 -10 131.88 9.76 0
 0 6 -9 55.04 7.01 0
 0 6 -8 28.75 5.15 0
 0 6 -7 65.47 6.46 0
 0 6 -4 89.51 6.35 0
 0 6 -2 58.13 5.08 0
 0 7 -13 16.13 6.35 0
 0 7 -12 5.56 5.26 0
 0 7 -11 9.3 5.3 0
 0 7 -10 57.04 7.88 0
 0 7 -9 1.84 3.98 0
 0 7 -8 89.11 7.97 0
 0 7 -7 215.48 11.03 0
 0 7 -5 30.44 5.06 0
 0 7 -4 7.83 3.49 0
 0 8 -11 59.64 9.59 0
 0 8 -10 34.32 7.13 0
 0 8 -9 36.51 7.36 0
 0 8 -8 2.44 4.25 0
 0 8 -7 -1.94 3.65 0
 0 9 -10 5.53 5.52 0
 0 9 -9 4.05 5.46 0
 0 9 -8 63.87 8.66 0
 0 9 -6 13.56 5.75 0
 0 10 -9 25.21 7.22 0
 0 10 -8 31.33 7.38 0
 1 -4 -15 19.46 5.86 0
 1 -3 -15 84.71 8.18 0
 1 -3 -14 99.39 9.48 0
 1 -2 -15 26.21 6.2 0
 1 -2 -13 9.79 4.78 0
 1 -1 -15 48.45 7.09 0
 1 -1 -14 18.08 4.93 0
 1 -1 -13 -1 3.07 0
 1 0 -16 3.79 4.83 0
 1 0 -15 14.55 5.15 0
 1 0 -14 46.3 6.97 0
 1 0 -11 7.13 3.21 0
 1 0 -8 2.6 2.04 0
 1 1 -16 -4.37 3.89 0
 1 1 -15 54.51 8.01 0
 1 1 -14 9.82 5.03 0
 1 1 -13 0.08 3.42 0
 1 1 -12 40.42 5.48 0
 1 1 -11 114.07 7.61 0
 1 1 -9 17.17 3.41 0
 1 1 -8 50.92 4.1 0
 1 1 -6 681.04 10.73 0
 1 1 -5 19.83 2.29 0
 1 1 -4 2337.59 15.64 0
 1 1 -3 1139.78 9.36 0
 1 1 -2 20.21 1.44 0
 1 2 -14 133.77 9.98 0
 1 2 -13 9.04 4.21 0
 1 2 -12 36.99 5.69 0
 1 2 -11 11.57 3.75 0
 1 2 -8 97.45 5.54 0
 1 2 -7 49.03 3.84 0
 1 2 -6 213.01 6.67 0
 1 2 -5 158.42 5.37 0
 1 2 -4 154 4.88 0
 1 2 -2 987.64 9.66 0
 1 2 -1 1990.93 12.99 0
 1 3 -15 87.58 8.8 0
 1 3 -14 102.49 9.33 0
 1 3 -13 12.68 4.91 0
 1 3 -12 8.3 4.17 0
 1 3 -11 18.17 4.75 0
 1 3 -10 92.3 6.77 0
 1 3 -8 123.45 6.76 0
 1 3 -7 538 11.91 0
 1 3 -6 691.34 12.73 0
 1 3 -4 617.32 10.43 0
 1 3 -3 31.02 3.06 0
 1 3 -2 344.81 7.31 0
 1 3 -1 361.4 7.25 0
 1 4 -15 21.72 5.77 0
 1 4 -12 -0.35 3.5 0
 1 4 -11 28.27 5.14 0
 1 4 -10 19.3 4.33 0
 1 4 -9 102.47 6.79 0
 1 4 -7 83.41 5.86 0
 1 4 -4 61.34 4.38 0
 1 4 -3 439.4 9.65 0
 1 4 -2 368.9 8.57 0
 1 5 -14 47.69 7.49 0
 1 5 -13 11.62 5.51 0
 1 5 -12 31.51 6.04 0
 1 5 -11 13.56 4.58 0
 1 5 -10 4.35 3.56 0
 1 5 -9 131.07 8.38 0
 1 5 -8 75.12 6.48 0
 1 5 -5 19.37 3.65 0
 1 5 -4 382.62 10.71 0
 1 5 -3 2.65 2.27 0
 1 6 -13 24.41 7.04 0
 1 6 -12 21.52 6.45 0
 1 6 -11 55.92 7.45 0
 1 6 -10 23.6 5.47 0
 1 6 -9 23.61 5.04 0
 1 6 -8 9.81 4.02 0
 1 6 -7 104.13 7.78 0
 1 6 -3 236.65 9.19 0
 1 7 -13 2.43 4.89 0
 1 7 -12 20.97 6.17 0
 1 7 -11 82.77 9.43 0
 1 7 -9 37.15 5.86 0
 1 7 -8 1.02 3.89 0
 1 7 -5 28.02 4.94 0
 1 8 -11 23.8 7.24 0
 1 8 -10 10.55 5.89 0
 1 8 -9 15.76 5.42 0
 1 8 -8 38.8 6.46 0
 1 8 -7 50.1 7.03 0
 1 8 -6 6.68 3.94 0
 1 8 -5 23.98 5.84 0
 1 9 -9 2.56 4.8 0
 1 9 -8 6.82 5.25 0
 1 9 -7 137.55 10.45 0
 2 -4 -15 3.01 4.25 0
 2 -2 -14 8.77 4.02 0
 2 -2 -13 43.6 6.08 0
 2 -1 -15 12.65 5.14 0
 2 -1 -14 52.04 7.38 0
 2 -1 -13 88.31 7.41 0
 2 -1 -11 19.95 3.93 0
 2 0 -16 9.83 5.09 0
 2 0 -15 30.56 5.65 0
 2 0 -13 -0.44 3.35 0
 2 0 -12 10.79 3.66 0
 2 0 -9 58.28 4.54 0
 2 0 -8 32.13 3.11 0
 2 0 -7 37.54 3.19 0
 2 1 -13 91.3 7.69 0
 2 1 -12 52.65 6.26 0
 2 1 -11 14.47 3.7 0
 2 1 -9 114.06 5.94 0
 2 1 -8 148.45 6.18 0
 2 1 -7 356.73 8.35 0
 2 1 -6 85.33 3.8 0
 2 1 -4 97.76 3.17 0
 2 1 -3 205.86 3.65 0
 2 1 -2 27.32 1.22 0
 2 2 -15 53.66 7.57 0
 2 2 -13 32.92 5.38 0
 2 2 -12 5.32 3.47 0
 2 2 -11 15.37 3.65 0
 2 2 -7 154.72 5.86 0
 2 2 -6 227.62 6.51 0
 2 2 -5 73.98 3.64 0
 2 2 -4 332.46 6.26 0
 2 2 -3 111.25 3.54 0
 2 2 -2 331.52 5.33 0
 2 3 -14 43.64 6.6 0
 2 3 -13 41.74 6.12 0
 2 3 -12 23.97 4.75 0
 2 3 -11 25.57 4.62 0
 2 3 -10 20.96 4 0
 2 3 -8 23.33 3.49 0
 2 3 -7 69.4 4.67 0
 2 3 -6 174.44 6.26 0
 2 3 -3 88.24 3.93 0
 2 4 -15 0.16 4.43 0
 2 4 -14 55.85 7.73 0
 2 4 -13 154.54 10.12 0
 2 4 -12 1.99 3.72 0
 2 4 -11 33.12 5.6 0
 2 4 -10 34.49 4.76 0
 2 4 -8 116.17 6.5 0
 2 4 -7 54.67 4.58 0
 2 4 -5 169.26 6.58 0
 2 4 -4 60.35 4.05 0
 2 4 -3 15.9 2.55 0
 2 5 -14 25.69 5.86 0
 2 5 -13 51.11 7.34 0
 2 5 -11 215.49 10.93 0
 2 5 -10 21.69 5.08 0
 2 5 -9 30.22 4.84 0
 2 5 -6 155.16 7.34 0
 2 5 -5 113.26 6.01 0
 2 5 -4 10.23 2.81 0
 2 6 -13 94.98 9.13 0
 2 6 -12 11.35 5.02 0
 2 6 -10 41.44 6.32 0
 2 6 -7 14.67 4.3 0
 2 6 -5 11.98 3.58 0
 2 7 -13 21.41 6.08 0
 2 7 -12 21.5 6.17 0
 2 7 -10 2.83 4.32 0
 2 7 -9 9.59 4.29 0
 2 7 -8 50.29 6.51 0
 2 7 -7 17.62 4.56 0
 2 7 -6 49.21 6.46 0
 2 7 -5 24.19 4.91 0
 2 8 -12 5.32 5.72 0
 2 8 -10 67.49 8.81 0
 2 8 -9 4.3 4.42 0
 2 8 -8 73.12 8.13 0
 2 8 -7 8.56 4.54 0
 2 9 -10 -0.53 4.97 0
 2 9 -9 34.18 6.82 0
 3 -3 -15 40.78 6.34 0
 3 -2 -15 9.59 4.48 0
 3 -2 -14 15.13 4.38 0
 3 -2 -12 67.69 5.76 0
 3 -1 -14 18.32 5.04 0
 3 -1 -13 36.48 5.56 0
 3 -1 -12 131.84 7.73 0
 3 -1 -11 1.4 2.43 0
 3 0 -15 18.24 5.06 0
 3 0 -13 67.85 6.56 0
 3 0 -12 12.35 3.69 0
 3 0 -11 3.38 2.67 0
 3 0 -9 105.17 5.5 0
 3 0 -8 136.79 5.39 0
 3 0 -6 8.4 1.68 0
 3 0 -5 1.07 1.02 0
 3 0 -4 5.47 0.83 0
 3 1 -15 86.96 8.05 0
 3 1 -14 22.34 4.96 0
 3 1 -13 24.72 4.85 0
 3 1 -11 3.75 2.88 0
 3 1 -9 21.67 3.14 0
 3 1 -8 47.38 3.76 0
 3 1 -7 220.75 6.14 0
 3 1 -6 200.89 5.16 0
 3 1 -5 62.13 2.59 0
 3 1 -4 850.09 7.09 0
 3 2 -15 21.79 5.48 0
 3 2 -14 19.22 4.56 0
 3 2 -12 58.77 6.12 0
 3 2 -11 29.48 4.36 0
 3 2 -9 97.12 5.66 0
 3 2 -6 14.38 2.04 0
 3 2 -5 173.25 4.65 0
 3 2 -4 26.23 1.96 0
 3 3 -15 55.37 7.07 0
 3 3 -14 67.03 7.37 0
 3 3 -13 138.08 8.85 0
 3 3 -12 93.19 7.23 0
 3 3 -11 13.86 4.02 0
 3 3 -9 4.72 2.69 0
 3 3 -8 26.27 3.57 0
 3 3 -7 130.28 5.73 0
 3 3 -6 236.91 6.82 0
 3 3 -5 488.49 8.96 0
 3 3 -4 737.07 9.93 0
 3 4 -14 13.4 4.41 0
 3 4 -13 17.59 4.87 0
 3 4 -12 93.16 7.62 0
 3 4 -11 42.34 5.7 0
 3 4 -7 19.13 3.4 0
 3 4 -4 59.65 3.97 0
 3 5 -14 51.93 7.27 0
 3 5 -13 74.36 7.89 0
 3 5 -12 2.72 3.54 0
 3 5 -11 27.23 5.57 0
 3 5 -10 16.18 4.06 0
 3 5 -9 158.69 8.2 0
 3 5 -5 157.56 6.86 0
 3 6 -13 5.04 4.16 0
 3 6 -12 1.78 4.43 0
 3 6 -11 143.36 9.48 0
 3 6 -10 5.96 3.94 0
 3 6 -9 9.86 3.66 0
 3 7 -12 -2.3 3.51 0
 3 7 -11 34.71 6.14 0
 3 7 -10 22.72 5.4 0
 3 7 -9 64 7.5 0
 3 7 -8 106.62 7.68 0
 3 7 -7 0.3 3.19 0
 3 8 -11 18.34 5.6 0
 3 8 -10 23.82 5.82 0
 3 8 -9 3.96 4.35 0
 4 -2 -13 15.84 4.23 0
 4 -2 -12 70.9 5.67 0
 4 -1 -13 61.6 5.83 0
 4 -1 -12 151.22 7.48 0
 4 -1 -10 19.77 3.03 0
 4 -1 -9 59.66 3.97 0
 4 -1 -8 14.04 2.22 0
 4 -1 -7 417.14 7.34 0
 4 -1 -6 403.48 6.16 0
 4 -1 -5 87.86 2.43 0
 4 0 -12 0.5 2.26 0
 4 0 -9 0.64 1.8 0
 4 0 -8 13.03 2.01 0
 4 0 -7 78.48 3.21 0
 4 0 -6 41.32 2.01 0
 4 1 -12 158.17 7.64 0
 4 1 -10 17.12 3.03 0
 4 1 -8 13.2 2.02 0
 4 1 -7 407.16 7.04 0
 4 1 -6 394.19 5.59 0
 4 2 -12 58.12 5.42 0
 4 2 -10 132.27 6.19 0
 4 2 -9 56.89 4.01 0
 4 2 -8 149.11 5.34 0
 4 2 -7 151.59 4.75 0
 4 3 -11 -0.13 2.29 0
 4 3 -9 227.21 7.63 0
 4 3 -8 46.35 3.69 0
 4 3 -7 123.06 4.86 0
 4 3 -6 47.75 2.94 0
 4 4 -11 16.31 3.79 0
 4 4 -9 25.53 3.54 0
 4 4 -8 214.98 7.48 0
 4 4 -7 57.71 4.13 0
 4 5 -10 10.06 3.55 0
 4 5 -8 17.31 3.34 0
 4 5 -7 111.15 5.84 0
 4 6 -9 9.35 3.74 0
 -4 -2 -1 23.03 1.09 0
 -4 -1 -7 24.72 3.47 0
 -4 -1 -6 176.09 6.85 0
 -4 -1 -4 336.29 7.55 0
 -4 -1 -3 221.92 5.46 0
 -4 -1 -1 1245.79 8.29 0
 -4 0 -7 19.57 3.3 0
 -4 0 -5 0.01 1.55 0
 -4 0 -4 7.34 1.76 0
 -4 0 -3 68.32 3.45 0
 -4 1 -6 175.75 7.04 0
 -4 1 -4 358.85 8.74 0
 -4 1 -3 228 6.53 0
 -4 1 -2 287.48 6.81 0
 -4 2 -6 125.01 6.38 0
 -4 2 -5 46.9 3.99 0
 -4 2 -4 195.43 7.13 0
 -4 2 -3 19.53 2.7 0
 -4 3 -4 277.28 8.98 0
 -3 -8 1 4.34 2.62 0
 -3 -8 2 51.52 4.79 0
 -3 -7 0 365.48 9.77 0
 -3 -7 1 193.44 7.13 0
 -3 -7 2 23.92 3.22 0
 -3 -7 3 162.66 6.45 0
 -3 -6 0 38.69 3.26 0
 -3 -6 1 4.81 1.67 0
 -3 -6 2 65.25 3.75 0
 -3 -5 0 304.2 7.12 0
 -3 -5 1 423.47 8.01 0
 -3 -3 1 4.32 0.74 0
 -3 -1 -1 4.75 0.82 0
 -3 0 -4 2.15 1.42 0
 -3 0 -2 61.23 2.7 0
 -3 0 -1 589.71 6.9 0
 -3 1 -7 89.25 5.73 0
 -3 1 -6 141.22 6.37 0
 -3 1 -5 3.33 2.14 0
 -3 1 -4 249.91 6.92 0
 -3 2 -6 39.49 3.87 0
 -3 2 -5 101.41 5.57 0
 -3 2 -4 65.06 4.44 0
 -3 2 -3 124.15 5.08 0
 -3 3 -6 52.6 4.96 0
 -3 3 -5 14.23 3.15 0
 -3 3 -4 273.47 8.64 0
 -3 3 -3 94 5.08 0
 -3 4 -5 18.14 3.39 0
 -3 4 -4 13.27 3.07 0
 -2 -7 0 19.33 3.31 0
 -2 -7 1 6.18 2.48 0
 -2 -7 2 16.94 3.28 0
 -2 -7 3 100.51 5.61 0
 -2 -7 4 178.9 7.48 0
 -2 -6 0 395.97 10.04 0
 -2 -6 1 187.24 6.95 0
 -2 -6 2 3.99 2.08 0
 -2 -6 3 105.42 5.44 0
 -2 -6 4 22.13 3.35 0
 -2 -5 1 354.21 8.05 0
 -2 -5 3 312.75 7.77 0
 -2 -4 1 65.8 3.33 0
 -2 -4 2 170.67 4.98 0
 -2 -3 2 125.98 3.53 0
 -2 -2 1 472.46 4.67 0
 -2 0 -1 276.7 4.16 0
 -2 1 -8 58.98 4.83 0
 -2 1 -7 39.93 4.1 0
 -2 1 -5 17.99 2.66 0
 -2 1 -3 536.64 8.7 0
 -2 2 -7 219.75 8.23 0
 -2 2 -6 142.58 6.19 0
 -2 2 -3 83.78 4.13 0
 -2 2 -2 222.4 6.02 0
 -2 3 -7 228.54 8.69 0
 -2 3 -6 16.91 3.21 0
 -2 4 -6 432.6 11.99 0
 -2 4 -5 7.3 2.64 0
 -2 4 -4 194.28 7.45 0
 -2 5 -5 5.97 2.69 0
 -1 -7 0 30.31 4.27 0
 -1 -7 1 9.98 2.76 0
 -1 -7 2 52.86 4.54 0
 -1 -7 3 96.67 5.93 0
 -1 -6 1 71.89 5.24 0
 -1 -6 2 84.53 5.01 0
 -1 -6 3 229.42 7.91 0
 -1 -6 4 67.09 4.69 0
 -1 -5 2 247.06 7.28 0
 -1 -5 3 1.21 2.06 0
 -1 -5 4 400.92 9.63 0
 -1 -4 1 1322.93 14.47 0
 -1 -4 3 420.58 8.63 0
 -1 -3 2 346.78 6.59 0
 -1 -3 3 28.77 2.32 0
 -1 -2 1 1931.86 11.56 0
 -1 -2 2 967.58 8.9 0
 -1 1 -3 54.38 3.03 0
 -1 1 -2 257.8 4.95 0
 -1 1 -1 1213.11 9.39 0
 -1 2 -8 474.52 12.02 0
 -1 2 -7 186.86 7.17 0
 -1 2 -2 15.44 2.02 0
 -1 2 -1 1158.44 11.62 0
 -1 3 -7 68.91 4.91 0
 -1 3 -6 428.69 10.51 0
 -1 3 -3 74.19 4 0
 -1 3 -2 100.56 4.83 0
 -1 4 -7 428.45 11.87 0
 -1 4 -6 90.34 5.41 0
 -1 4 -5 162.83 6.8 0
 -1 5 -6 312.66 10.29 0
 -1 5 -5 13.79 3.35 0
 0 -6 1 483.61 11.64 0
 0 -6 3 267.15 9.15 0
 0 -6 5 35.52 4.68 0
 0 -5 1 169.91 6.59 0
 0 -5 2 19.46 2.96 0
 0 -5 3 44.11 4.3 0
 0 -5 4 62.77 4.75 0
 0 -4 2 437.18 9.05 0
 0 -4 3 793.92 12.54 0
 0 -4 4 52.15 3.84 0
 0 -3 1 570.9 8.99 0
 0 -3 2 789.31 10.72 0
 0 -3 3 465.72 8.77 0
 0 -2 1 193.63 4.46 0
 0 -2 2 2040.94 14.43 0
 0 -1 1 482.26 5 0
 0 1 -2 472.03 6 0
 0 2 -9 11.81 3.13 0
 0 2 -7 265.54 8.26 0
 0 2 -6 12.69 2.46 0
 0 2 -5 487.31 9.43 0
 0 2 -4 567.72 9.37 0
 0 2 -2 2032.45 14.56 0
 0 3 -8 58.44 4.71 0
 0 3 -7 18.6 3.09 0
 0 3 -6 19.59 2.98 0
 0 3 -5 114.57 5.13 0
 0 3 -3 462.69 8.85 0
 0 3 -2 787.09 10.95 0
 0 4 -7 96 5.76 0
 0 4 -6 7.38 2.57 0
 0 4 -5 254.36 8.22 0
 0 4 -4 55.17 4.37 0
 0 4 -3 794.64 13.02 0
 0 5 -6 116.83 6.7 0
 0 5 -5 4.3 2.42 0
 1 -6 2 127.26 6.95 0
 1 -6 3 96.74 6.39 0
 1 -5 0 29.46 4.36 0
 1 -5 1 71.42 4.7 0
 1 -5 2 75.13 5.14 0
 1 -5 3 0.1 2.33 0
 1 -5 4 441.12 11.19 0
 1 -4 1 524.12 10.35 0
 1 -4 2 60.08 3.83 0
 1 -4 3 36.19 3.53 0
 1 -4 4 48.63 4.17 0
 1 -3 1 424.39 8.5 0
 1 -3 2 101.34 4.48 0
 1 -3 3 70.1 3.81 0
 1 -2 2 13.33 2.01 0
 1 -1 0 5235 18.08 0
 1 -1 1 1228.46 9.39 0
 1 1 -2 21.75 1.42 0
 1 1 -1 444.04 3.81 0
 1 2 -6 216.2 6.88 0
 1 2 -5 155.59 5.16 0
 1 2 -4 148.45 4.54 0
 1 2 -3 515.86 7.49 0
 1 2 -2 984.36 9.18 0
 1 3 -8 120.74 6.06 0
 1 3 -7 531.62 11.5 0
 1 3 -6 680.97 12.08 0
 1 3 -5 33.82 3.34 0
 1 3 -4 608.31 9.84 0
 1 3 -3 27.53 2.75 0
 1 4 -8 6.9 2.95 0
 1 4 -7 91.47 5.64 0
 1 4 -6 32.99 4.04 0
 1 4 -5 21.44 2.9 0
 1 5 -7 114.86 6.52 0
 1 5 -6 66.86 4.8 0
 1 5 -5 23.28 3.61 0
 2 -6 -1 183.12 8.16 0
 2 -6 1 62.83 5.08 0
 2 -5 2 18.59 3.29 0
 2 -5 3 17.29 3.36 0
 2 -5 4 21.93 3.74 0
 2 -4 0 742.13 12.8 0
 2 -4 1 24.45 2.99 0
 2 -4 2 454.72 10.19 0
 2 -4 3 182.51 7.04 0
 2 -3 0 332.26 7.52 0
 2 -3 1 558.45 9.92 0
 2 -3 2 62.48 3.71 0
 2 -2 0 782.46 9.82 0
 2 -2 1 142.03 4.63 0
 2 -1 0 604.28 6.89 0
 2 -1 1 274.49 5.09 0
 2 1 -2 24.09 1.03 0
 2 2 -9 60.17 4.66 0
 2 2 -8 49.96 4.13 0
 2 2 -7 150.13 5.98 0
 2 2 -5 77.28 3.49 0
 2 2 -4 336.37 6.2 0
 2 2 -3 107.96 3.15 0
 2 3 -9 13.65 3.09 0
 2 3 -8 21.41 3.23 0
 2 3 -7 63.8 4.44 0
 2 3 -6 176.94 6.12 0
 2 3 -5 64.08 3.47 0
 2 3 -4 216.57 5.69 0
 2 4 -8 112.05 6.11 0
 2 4 -7 52.45 4.29 0
 2 4 -6 200.25 6.85 0
 2 4 -5 175.75 6.19 0
 2 5 -7 26.18 3.58 0
 2 5 -6 147.16 6.51 0
 3 -6 -2 64.57 5.4 0
 3 -6 -1 3.16 2.68 0
 3 -5 0 302.6 9.41 0
 3 -5 2 150.77 6.98 0
 3 -5 3 60.78 4.91 0
 3 -4 -1 23.94 3.52 0
 3 -4 0 54.49 3.98 0
 3 -4 1 19.62 3.17 0
 3 -4 2 111.1 5.74 0
 3 -4 3 161.99 6.85 0
 3 -3 -1 4.96 2.08 0
 3 -3 0 174.28 5.76 0
 3 -3 1 20.1 2.59 0
 3 -2 -1 267.72 6.13 0
 3 -2 0 678.47 9.6 0
 3 -2 1 87.72 3.75 0
 3 -1 -1 115.16 3.23 0
 3 1 -3 1.14 0.45 0
 3 2 -9 102.75 5.58 0
 3 2 -7 149.72 5.44 0
 3 2 -6 12.3 1.94 0
 3 2 -5 176.42 4.64 0
 3 2 -4 31.76 1.9 0
 3 3 -9 3.37 2.05 0
 3 3 -8 21.01 2.98 0
 3 3 -7 132.87 5.47 0
 3 3 -6 228.33 6.28 0
 3 3 -5 486.47 8.2 0
 3 4 -9 47.93 4.44 0
 3 4 -8 53.28 4.4 0
 3 4 -6 84.71 4.51 0
 3 5 -8 2.07 2.05 0
 4 -5 -1 98.84 6.21 0
 4 -5 0 10.1 2.86 0
 4 -5 1 100.09 5.86 0
 4 -5 2 70.64 5.63 0
 4 -4 -2 12.15 2.71 0
 4 -4 -1 3.58 2.02 0
 4 -4 1 24.5 3.5 0
 4 -4 2 6.39 2.97 0
 4 -3 -2 132.72 5.43 0
 4 -3 -1 289.23 7.48 0
 4 -3 1 363.13 8.62 0
 4 -2 -2 7.35 1.47 0
 4 -2 -1 59.11 3.17 0
 4 -2 0 98.41 3.99 0
 4 -1 -2 88.77 2.94 0
 4 -1 -1 32.59 1.89 0
 4 0 -3 222.19 3.04 0
 4 1 -5 95.98 2.88 0
 4 2 -9 55.51 4.06 0
 4 2 -8 140.69 5.35 0
 4 2 -7 149.4 4.95 0
 4 2 -5 4.86 0.97 0
 4 3 -8 37.86 3.23 0
 4 3 -7 130.45 4.82 0
 4 3 -6 52.37 2.95 0
 5 -5 -2 21.62 3.76 0
 5 -5 -1 118.15 6.45 0
 5 -4 -4 97.67 5.51 0
 5 -4 -3 106.7 5.61 0
 5 -4 -2 35.89 3.71 0
 5 -4 -1 151.4 6.37 0
 5 -4 0 117.18 5.7 0
 5 -4 1 9.66 2.74 0
 5 -3 -4 42.29 3.48 0
 5 -3 -3 1.55 1.38 0
 5 -3 -2 19.47 2.72 0
 5 -3 -1 25.14 2.7 0
 5 -3 0 241.46 7.05 0
 5 -2 -4 25.01 2.32 0
 5 -2 -3 219.91 5.64 0
 5 -2 -2 153.62 4.65 0
 5 -2 -1 34.37 2.55 0
 5 -1 -4 30.68 2.02 0
 5 -1 -3 44.94 1.97 0
 5 0 -5 150.96 2.86 0
 -5 -3 0 245.42 8.76 0
 -5 -3 1 24.53 3.5 0
 -5 -1 -2 416.99 10.73 0
 -5 -1 -1 21.13 3.01 0
 -5 -1 0 195.47 6.73 0
 -5 -1 1 10.85 2.13 0
 -5 -1 2 81.58 4.04 0
 -5 -1 3 44.12 2.95 0
 -5 0 0 197.53 6.14 0
 -5 0 1 74.23 3.63 0
 -5 0 2 301.16 6.26 0
 -4 -4 -2 5.86 2.88 0
 -4 -3 -3 206.09 8.19 0
 -4 -3 -2 77.32 5.46 0
 -4 -3 -1 352.11 10.08 0
 -4 -2 -4 187.23 7.87 0
 -4 -2 -3 15.43 3.04 0
 -4 -2 -1 25.13 3.21 0
 -4 -2 0 94.95 4.79 0
 -4 -1 -3 222.37 7.82 0
 -4 -1 -2 285.92 8.26 0
 -4 -1 -1 1225.29 15.81 0
 -4 0 -3 75.07 4.85 0
 -4 0 -2 96.09 4.7 0
 -4 0 -1 13.19 2.07 0
 -4 0 2 0.64 0.76 0
 -3 -5 -3 58.6 5.18 0
 -3 -4 -3 161.3 7.35 0
 -3 -3 -5 15.88 3.94 0
 -3 -3 -4 265.57 8.91 0
 -3 -3 -3 91.82 5.84 0
 -3 -3 -2 189.68 7.13 0
 -3 -2 -6 33.13 4.61 0
 -3 -2 -5 116.52 6.62 0
 -3 -2 -3 116.81 5.51 0
 -3 -2 -2 10.28 2.56 0
 -3 -1 -5 5.48 2.39 0
 -3 -1 -3 143.22 5.82 0
 -3 -1 -1 2.63 1.46 0
 -3 -1 0 400.57 7.7 0
 -3 -1 10 6.33 2.53 0
 -3 0 -1 576.76 9.2 0
 -3 0 0 504.6 7.68 0
 -3 0 8 133.85 5.14 0
 -3 0 9 102.03 5.05 0
 -3 0 10 44.6 3.78 0
 -3 1 5 58.97 1.81 0
 -3 1 6 197.39 4.15 0
 -3 1 7 219.26 5.16 0
 -2 -5 -5 0.85 2.46 0
 -2 -5 -4 21.62 3.63 0
 -2 -4 -6 471.34 12.54 0
 -2 -4 -5 10.36 2.91 0
 -2 -4 -4 200 7.77 0
 -2 -3 -7 223.23 9.16 0
 -2 -3 -6 17.18 3.29 0
 -2 -3 -5 26.86 3.53 0
 -2 -2 -7 225.5 8.84 0
 -2 -2 -6 143.66 6.97 0
 -2 -2 -3 87.83 4.56 0
 -2 -2 -2 213.02 6.33 0
 -2 -1 -2 478.78 8.44 0
 -2 -1 -1 270.53 6.05 0
 -2 -1 10 8.92 2.72 0
 -2 0 -3 740.58 11.01 0
 -2 0 -2 33 2.76 0
 -2 0 -1 271.35 5.54 0
 -2 0 0 235.94 4.36 0
 -2 0 7 37.83 2.92 0
 -2 0 8 29.94 3.38 0
 -2 0 9 61.44 4.63 0
 -2 0 10 66.85 4.96 0
 -2 1 6 81.38 3.38 0
 -2 1 7 359.13 7.66 0
 -2 1 8 149.94 5.62 0
 -2 1 9 117.61 5.56 0
 -2 1 10 5.69 2.11 0
 -2 1 11 16.53 3.26 0
 -2 2 7 145.87 4.83 0
 -2 2 8 49.27 3.41 0
 -2 2 10 205.92 7.52 0
 -2 2 11 12.39 2.7 0
 -1 -6 -5 176.31 8.37 0
 -1 -5 -6 311.98 9.99 0
 -1 -5 -5 15.94 3.15 0
 -1 -4 -5 170.86 6.9 0
 -1 -3 -7 62.13 4.85 0
 -1 -3 -6 449.5 10.86 0
 -1 -3 -5 22.77 3.07 0
 -1 -3 -4 397.6 9.19 0
 -1 -3 -3 71.71 4.08 0
 -1 -2 -7 190.93 7.4 0
 -1 -2 -6 437.87 10.61 0
 -1 -2 -4 33.61 2.89 0
 -1 -1 -5 83.59 4.58 0
 -1 -1 -4 945.07 12.71 0
 -1 -1 -3 54.72 3.13 0
 -1 -1 -2 263.69 5.63 0
 -1 -1 9 21.64 3.62 0
 -1 0 -2 107.38 3.44 0
 -1 0 -1 1553.9 10.13 0
 -1 0 0 466.77 4.46 0
 -1 0 6 55.5 3.38 0
 -1 0 7 0.23 1.77 0
 -1 0 8 5.79 2.21 0
 -1 0 9 84.25 5.45 0
 -1 0 10 78.45 5.93 0
 -1 1 4 2286.88 14.55 0
 -1 1 5 23.56 2.29 0
 -1 1 6 675.3 10.4 0
 -1 1 7 355.44 8.42 0
 -1 1 8 50.51 4.18 0
 -1 1 9 20.54 3.52 0
 -1 1 10 70.26 5.54 0
 -1 2 8 97.34 5.2 0
 -1 2 9 -0.88 2.08 0
 -1 2 10 13.96 3.47 0
 0 -7 -5 21.49 3.68 0
 0 -6 -7 66.84 5.53 0
 0 -5 -8 71.16 5.67 0
 0 -5 -6 117.57 5.99 0
 0 -5 -5 3.15 2.23 0
 0 -4 -8 140.02 6.79 0
 0 -4 -7 100.76 5.49 0
 0 -4 -6 5.35 2.14 0
 0 -4 -5 261.2 7.68 0
 0 -4 -4 47.78 3.52 0
 0 -3 -7 22.38 3.28 0
 0 -3 -5 118.73 4.95 0
 0 -3 -4 91.2 4.32 0
 0 -2 -6 13.53 2.74 0
 0 -2 -5 481.67 9.19 0
 0 -2 -3 859.71 9.97 0
 0 -1 -4 233.67 5.74 0
 0 -1 -3 1077.17 10.3 0
 0 -1 7 199.31 7.23 0
 0 -1 9 3.59 2.71 0
 0 0 3 29.05 2.11 0
 0 0 4 241.58 5.79 0
 0 0 5 293.72 7.34 0
 0 0 6 11.99 2.38 0
 0 0 7 105.17 5.44 0
 0 1 2 478.61 5.9 0
 0 1 3 1027.05 10.11 0
 0 1 4 230.02 5.74 0
 0 1 5 529.04 9.34 0
 0 1 6 132.58 5.33 0
 0 1 7 209.81 7.4 0
 0 1 8 134.8 6.41 0
 0 1 9 3.25 2.43 0
 0 2 5 475.88 9.16 0
 0 2 7 271.76 8.46 0
 0 2 8 346.38 10.1 0
 0 2 9 7.95 2.96 0
 1 -7 -7 46.29 4.3 0
 1 -7 -6 33.93 4.15 0
 1 -7 -5 20.94 3.29 0
 1 -6 -8 8.83 2.49 0
 1 -6 -7 95.53 5.43 0
 1 -6 -6 48.66 3.97 0
 1 -5 -7 113.16 5.58 0
 1 -4 -7 93.52 5.02 0
 1 -4 -6 40.36 3.48 0
 1 -4 -5 17.5 2.34 0
 1 -4 -4 63.51 3.36 0
 1 -3 -5 37.84 2.65 0
 1 -3 -4 598.94 8.44 0
 1 -2 -4 152.43 4.03 0
 1 -2 -3 511.92 6.18 0
 1 -2 8 455.03 12.54 0
 1 -1 4 940.5 12.55 0
 1 -1 5 83.84 4.74 0
 1 -1 7 66.97 5.21 0
 1 -1 8 321.23 10.36 0
 1 0 1 1563.75 10.19 0
 1 0 2 105.04 3.39 0
 1 0 3 -0.23 1.24 0
 1 0 4 344.63 7.69 0
 1 0 5 1.45 1.99 0
 1 0 6 451.95 10.44 0
 1 0 8 529.87 12.95 0
 1 1 4 916.98 12.68 0
 1 1 5 81.44 4.42 0
 1 1 6 162.79 6.46 0
 1 1 7 61.93 4.66 0
 1 1 8 326.41 10.33 0
 1 2 7 188.14 7.61 0
 2 -6 -6 26.19 2.96 0
 2 -5 -7 25.04 2.59 0
 2 -5 -6 152.85 5.1 0
 2 -5 -4 11.44 1.76 0
 2 -4 -6 202.96 5.35 0
 2 -4 -4 58.99 2.66 0
 2 -3 -3 85.6 2.26 0
 2 -2 3 85.97 4.46 0
 2 -2 4 282.83 7.99 0
 2 -2 5 61.63 4.45 0
 2 -2 6 135.2 6.59 0
 2 -2 7 222.17 9.02 0
 2 -1 0 593.07 6.18 0
 2 -1 2 482.7 8.16 0
 2 -1 4 113.63 4.99 0
 2 -1 5 19.71 3.05 0
 2 -1 6 18.75 3.26 0
 2 0 1 277.7 5.53 0
 2 0 4 369.29 8.81 0
 2 0 6 139.1 6.68 0
 2 0 7 115.85 6.32 0
 2 1 4 111.8 5.23 0
 2 1 5 19.08 3.07 0
 2 1 6 21.51 3.44 0
 3 -6 -5 54.26 2.52 0
 3 -6 -4 5.5 1.28 0
 3 -5 -4 82.2 2.27 0
 3 -4 4 16.07 2.96 0
 3 -4 5 17.86 3.39 0
 3 -3 -1 4.23 0.85 0
 3 -3 0 182.88 4.47 0
 3 -3 1 20.07 2.27 0
 3 -3 2 191.95 6.01 0
 3 -3 3 84.8 4.57 0
 3 -3 4 269.88 8.46 0
 3 -3 5 12.25 3.05 0
 3 -3 6 59.67 5.68 0
 3 -2 1 85.7 3.45 0
 3 -2 2 6.71 1.62 0
 3 -2 3 124.35 5.25 0
 3 -2 4 74.74 4.67 0
 3 -2 5 116.24 6.41 0
 3 -1 1 3.04 1.22 0
 3 -1 2 78.35 3.96 0
 3 -1 3 143.65 5.71 0
 3 -1 4 253.99 7.88 0
 3 -1 5 5.91 2.45 0
 3 -1 6 149.05 7.53 0
 3 0 3 17.21 2.64 0
 3 0 4 0.15 1.84 0
 3 0 6 7.84 2.94 0
 4 -5 -1 104.4 3.31 0
 4 -5 0 11.03 1.86 0
 4 -4 -1 4.64 0.96 0
 4 -4 0 175.67 4.77 0
 4 -4 1 23.58 2.53 0
 4 -4 2 11.72 2.13 0
 4 -4 3 6.33 2.25 0
 4 -4 4 41.42 3.96 0
 4 -3 0 25.2 2.08 0
 4 -3 1 375.72 7.78 0
 4 -3 2 76.73 4.06 0
 4 -3 3 212.15 7.36 0
 4 -3 4 291.35 9.12 0
 4 -3 5 24.86 3.86 0
 4 -2 1 22.5 2.39 0
 4 -2 2 55.04 3.59 0
 4 -2 3 18.4 2.87 0
 4 -2 5 42.23 4.32 0
 4 -1 5 46.05 4.7 0
 5 -4 1 9.79 2.02 0
 5 -4 2 7.38 1.95 0
 5 -3 2 132.24 5.64 0
 5 -3 4 1.24 1.93 0
 5 -2 4 34.11 4.13 0
 -8 -2 -4 18.18 5.5 0
 -8 -1 -4 21.52 5.66 0
 -8 0 -4 59.06 8.17 0
 -8 1 -4 21.64 5.49 0
 -8 1 -3 -3.33 3.14 0
 -8 2 -4 22.63 6.6 0
 -7 -6 -3 1.37 3.82 0
 -7 -6 -2 1.34 3.57 0
 -7 -5 -5 7.54 4.94 0
 -7 -5 -4 0.82 4.44 0
 -7 -5 -3 10.35 4.64 0
 -7 -5 -2 2.23 3.52 0
 -7 -5 -1 2.72 2.91 0
 -7 -4 -6 0.46 4.33 0
 -7 -4 -5 13.05 5.5 0
 -7 -4 -4 22.2 5.45 0
 -7 -4 -3 41.51 6.25 0
 -7 -4 -2 28.16 5.04 0
 -7 -3 -7 16.36 6.14 0
 -7 -3 -6 16.47 5.43 0
 -7 -3 -4 15.12 5.19 0
 -7 -3 -3 32.41 5.76 0
 -7 -3 -2 8.75 3.82 0
 -7 -2 -7 6.95 4.95 0
 -7 -2 -6 7.45 4.84 0
 -7 -2 -5 17.52 5.1 0
 -7 -2 -4 5.03 4.21 0
 -7 -2 -3 26.55 5.29 0
 -7 -2 -2 15.17 4.5 0
 -7 -1 -7 1.41 4.44 0
 -7 -1 -6 8.79 4.85 0
 -7 -1 -5 9.58 4.39 0
 -7 -1 -4 19.58 5.6 0
 -7 -1 -3 4.77 4.02 0
 -7 -1 -2 1.29 3 0
 -7 0 -7 1.93 4.65 0
 -7 0 -6 -1.19 4.03 0
 -7 0 -5 6.47 5.16 0
 -7 0 -4 17.01 5.07 0
 -7 0 -3 4.48 4.39 0
 -7 1 -7 8.85 5.05 0
 -7 1 -6 17.51 6.24 0
 -7 1 -5 14.83 5.27 0
 -7 1 -4 16.25 4.89 0
 -7 1 -3 2.85 3.39 0
 -7 1 -2 7.32 3.55 0
 -7 2 -7 2.82 5.25 0
 -7 2 -6 3.37 4.61 0
 -7 2 -5 20.64 5.56 0
 -7 2 -4 0.75 4.82 0
 -7 2 -2 15.53 4.22 0
 -7 3 -7 19.42 6.25 0
 -7 3 -6 6.22 5.16 0
 -7 3 -5 25.07 6.15 0
 -7 3 -4 9.89 4.96 0
 -7 3 -3 33.31 6.17 0
 -7 3 -2 9.62 4.36 0
 -7 4 -6 5.05 6.12 0
 -7 4 -5 16.19 5.79 0
 -7 4 -4 21.56 5.91 0
 -7 4 -3 40.69 7.14 0
 -7 4 -2 32.35 6.06 0
 -7 5 -5 1.73 4.91 0
 -7 5 -4 10.78 5.42 0
 -7 5 -3 7.64 5.01 0
 -6 -8 -3 7.92 4.86 0
 -6 -7 -5 22.63 6.41 0
 -6 -7 -4 7.57 4.64 0
 -6 -7 -3 17.4 5.18 0
 -6 -7 -2 4.09 3.92 0
 -6 -6 -7 4.93 5.88 0
 -6 -6 -6 15.52 5.4 0
 -6 -6 -5 6.14 4.56 0
 -6 -6 -4 5.74 4.97 0
 -6 -6 -3 8.22 5.01 0
 -6 -6 -2 118.31 8.73 0
 -6 -6 -1 3.32 3.25 0
 -6 -6 0 19.18 4.53 0
 -6 -5 -8 23.9 6.24 0
 -6 -5 -7 97.57 9.52 0
 -6 -5 -6 17.32 5.29 0
 -6 -5 -5 19.97 5.09 0
 -6 -5 -4 112.62 8.96 0
 -6 -5 -2 17.53 4.45 0
 -6 -5 -1 29.16 5.11 0
 -6 -5 0 137.67 7.94 0
 -6 -4 -9 1.84 5.21 0
 -6 -4 -8 22.29 5.93 0
 -6 -4 -7 5.74 5.1 0
 -6 -4 -5 8.77 4.48 0
 -6 -4 -4 17.33 5.3 0
 -6 -4 -3 62.51 6.26 0
 -6 -4 -2 29.97 5.17 0
 -6 -4 -1 6.91 3.3 0
 -6 -4 0 19.37 3.84 0
 -6 -3 -9 9.74 4.98 0
 -6 -3 -8 24.81 6.46 0
 -6 -3 -6 -1.83 4.36 0
 -6 -3 -5 33.96 5.83 0
 -6 -3 -4 52.53 6.26 0
 -6 -3 -3 43.19 5.52 0
 -6 -3 -2 21.86 4.26 0
 -6 -2 -9 1.08 4.41 0
 -6 -2 -7 38.66 6.52 0
 -6 -2 -6 35.01 5.67 0
 -6 -2 -5 37.09 5.96 0
 -6 -2 -4 29.7 5.35 0
 -6 -2 -3 17.56 4.62 0
 -6 -2 -2 47.06 5.67 0
 -6 -2 -1 6.75 3.13 0
 -6 -1 -10 139.75 11.54 0
 -6 -1 -8 135.28 10.69 0
 -6 -1 -7 1.13 3.93 0
 -6 -1 -6 2.96 4.06 0
 -6 -1 -5 2.21 3.53 0
 -6 -1 -4 25.12 5.1 0
 -6 -1 -3 3.02 3.17 0
 -6 -1 -2 9.57 3.44 0
 -6 -1 1 2.78 1.64 0
 -6 0 -10 8.17 5.38 0
 -6 0 -6 5.35 4.1 0
 -6 0 -5 11.11 4.24 0
 -6 0 -4 20.55 4.52 0
 -6 0 -3 64.32 6.33 0
 -6 0 -2 36.58 4.72 0
 -6 0 0 105.2 5.9 0
 -6 1 -10 124.8 10.91 0
 -6 1 -9 16.58 5.97 0
 -6 1 -8 136.36 10.34 0
 -6 1 -7 2.81 4.12 0
 -6 1 -5 1.62 4.18 0
 -6 1 -4 22.68 5.18 0
 -6 1 -3 0.79 3.08 0
 -6 1 -2 8.77 3.31 0
 -6 1 1 3 1.68 0
 -6 2 -9 4.27 6.02 0
 -6 2 -8 18 6.75 0
 -6 2 -6 31.67 6.48 0
 -6 2 -5 34.46 6.04 0
 -6 2 -4 33.34 5.79 0
 -6 2 -2 44.26 5.79 0
 -6 2 -1 5.61 3.08 0
 -6 3 -9 12.84 6.25 0
 -6 3 -8 19.12 6.17 0
 -6 3 -7 19.28 6.29 0
 -6 3 -6 -1.1 4.59 0
 -6 3 -5 23.46 5.96 0
 -6 3 -4 49.3 7.12 0
 -6 3 -3 49.25 6.7 0
 -6 3 -2 17.7 4.6 0
 -6 3 -1 73.5 6.35 0
 -6 4 -9 1.01 6.33 0
 -6 4 -8 20.97 6.5 0
 -6 4 -7 12.14 6.44 0
 -6 4 -6 29.99 6.76 0
 -6 4 -5 14.49 5.23 0
 -6 4 -4 19.17 5.63 0
 -6 4 -2 38.65 6.56 0
 -6 4 -1 3.77 3.83 0
 -6 4 0 22.3 4.18 0
 -6 5 -7 99.37 10.8 0
 -6 5 -6 14.97 5.68 0
 -6 5 -5 24.23 6.89 0
 -6 5 -4 98.4 9.41 0
 -6 5 -3 72.53 8.75 0
 -6 5 -2 16.25 5.51 0
 -6 5 -1 22.76 5.45 0
 -6 6 -7 3.61 6.66 0
 -6 6 -6 15.94 6.16 0
 -6 6 -5 9.04 5.71 0
 -6 6 -4 6.6 5.07 0
 -5 -8 -6 4.28 4.91 0
 -5 -7 -8 40.39 7.29 0
 -5 -7 -7 3.57 4.54 0
 -5 -7 -5 17.5 5.05 0
 -5 -6 -9 21.31 6.15 0
 -5 -6 -8 25.23 6.25 0
 -5 -6 -7 50.89 7.15 0
 -5 -6 -6 0.21 3.89 0
 -5 -6 -5 15.3 4.96 0
 -5 -5 -10 3.54 4.59 0
 -5 -5 -9 28.13 6.09 0
 -5 -5 -8 26.43 5.95 0
 -5 -5 -7 24.58 5.39 0
 -5 -5 -6 20.78 5.2 0
 -5 -5 -5 41.8 6.35 0
 -5 -5 -4 4.3 3.61 0
 -5 -5 -3 79.81 6.83 0
 -5 -4 -10 16.63 5.61 0
 -5 -4 -9 5.13 4.63 0
 -5 -4 -8 36.78 6.17 0
 -5 -4 -7 98.5 8.77 0
 -5 -4 -6 4.34 3.67 0
 -5 -4 -4 99.12 7.22 0
 -5 -4 -3 2.72 3.55 0
 -5 -4 -2 12.06 3.94 0
 -5 -3 -11 31.53 7.31 0
 -5 -3 -9 109.81 9.04 0
 -5 -3 -8 70.28 7.98 0
 -5 -3 -7 50.45 6.9 0
 -5 -3 -6 84.13 7.47 0
 -5 -3 -5 6.2 3.41 0
 -5 -3 -4 1.94 2.9 0
 -5 -3 -3 85.27 6.12 0
 -5 -3 0 246.16 8.39 0
 -5 -3 2 17.9 2.79 0
 -5 -3 3 0.08 1.02 0
 -5 -2 -11 -2.65 4.44 0
 -5 -2 -10 46.79 7.1 0
 -5 -2 -8 30.64 5.58 0
 -5 -2 -6 16.62 4.65 0
 -5 -2 -4 28.97 4.55 0
 -5 -2 0 103.96 5.43 0
 -5 -2 2 143.06 5.15 0
 -5 -2 3 214.8 5.61 0
 -5 -1 -11 19.68 5.83 0
 -5 -1 -10 178.21 11.64 0
 -5 -1 -9 18.61 5.08 0
 -5 -1 -8 17.55 4.87 0
 -5 -1 -7 13.23 3.98 0
 -5 -1 0 192.51 6.9 0
 -5 -1 1 10.85 2.13 0
 -5 -1 2 76.25 3.78 0
 -5 -1 3 45.24 2.59 0
 -5 0 -11 -3.63 5.19 0
 -5 0 -10 22.79 6.1 0
 -5 0 -9 81.95 8.61 0
 -5 0 -5 39.34 5.51 0
 -5 0 -4 64.19 5.88 0
 -5 0 -2 -0.91 2.38 0
 -5 0 -1 157.79 6.84 0
 -5 0 1 70.64 4.04 0
 -5 0 2 302.34 7.11 0
 -5 1 -10 179.95 11.92 0
 -5 1 -9 17.57 5.09 0
 -5 1 -7 12.49 4.24 0
 -5 1 -6 10.69 3.97 0
 -5 1 -4 16.85 4.14 0
 -5 1 -1 24.32 3.48 0
 -5 1 1 6.37 1.92 0
 -5 1 2 81.62 4.06 0
 -5 2 -10 54.34 8.06 0
 -5 2 -9 18.84 5.63 0
 -5 2 -8 25.62 6.42 0
 -5 2 -7 18.81 5.07 0
 -5 2 -6 12.8 4.36 0
 -5 2 -1 83.53 5.8 0
 -5 2 0 102.66 5.65 0
 -5 2 1 28.86 3.11 0
 -5 2 2 148.35 5.65 0
 -5 3 -11 40.65 8 0
 -5 3 -10 88.59 9.64 0
 -5 3 -9 117.12 10.54 0
 -5 3 -7 44.28 7.03 0
 -5 3 -5 8.97 4.02 0
 -5 3 -4 1.23 3.19 0
 -5 3 -3 84.55 6.57 0
 -5 3 0 241.78 8.96 0
 -5 3 1 21.75 3.38 0
 -5 3 2 13.38 2.66 0
 -5 4 -10 10.37 7.05 0
 -5 4 -9 0.99 5.4 0
 -5 4 -8 43.62 7.43 0
 -5 4 -6 2.01 4.05 0
 -5 4 -5 28.01 5.84 0
 -5 4 -4 103.8 8.1 0
 -5 4 -3 6.19 3.79 0
 -5 5 -10 -0.21 5.13 0
 -5 5 -9 33.71 8.33 0
 -5 5 -8 25.55 6.53 0
 -5 5 -7 16.12 5.78 0
 -5 5 -5 51 7.05 0
 -5 5 -4 9.05 4.68 0
 -5 5 -2 32.9 5.94 0
 -5 6 -9 19.52 7.85 0
 -5 6 -8 15.57 6.38 0
 -5 6 -7 40.04 7.77 0
 -5 6 -6 0.85 4.56 0
 -5 6 -5 14.54 5.73 0
 -5 6 -4 18.86 5.32 0
 -5 6 -3 53.29 7.01 0
 -4 -8 -8 44.87 7.74 0
 -4 -7 -9 0.8 4.71 0
 -4 -7 -8 17.95 5.46 0
 -4 -6 -10 17.09 5.63 0
 -4 -6 -9 13.57 6.08 0
 -4 -6 -8 29.75 5.88 0
 -4 -5 -11 104.1 9.94 0
 -4 -5 -10 5.85 4.55 0
 -4 -5 -9 18.7 5.58 0
 -4 -5 -8 48.93 6.58 0
 -4 -5 -6 6.73 3.65 0
 -4 -4 -12 12.41 5.69 0
 -4 -4 -10 22.7 5.89 0
 -4 -4 -9 117.89 8.91 0
 -4 -4 -8 22.49 5.1 0
 -4 -4 -7 30.64 5.51 0
 -4 -4 -6 53.75 6.08 0
 -4 -4 -5 12.74 3.57 0
 -4 -3 -12 34.34 6.64 0
 -4 -3 -11 22.53 6.34 0
 -4 -3 -10 18.76 5.34 0
 -4 -3 -9 22.27 5.31 0
 -4 -3 -8 39.09 5.49 0
 -4 -3 -7 15.28 3.79 0
 -4 -3 -6 154.66 8.26 0
 -4 -3 -5 23.59 4.11 0
 -4 -2 -13 19.21 5.96 0
 -4 -2 -12 3.83 4.65 0
 -4 -2 -11 11.44 5 0
 -4 -2 -10 24.38 5.42 0
 -4 -2 -9 31.33 5.49 0
 -4 -2 -8 51.6 6.44 0
 -4 -2 -7 2.81 3.45 0
 -4 -2 -6 131.92 7.54 0
 -4 -2 -3 13.36 2.92 0
 -4 -2 -2 50.42 4.23 0
 -4 -2 -1 24.46 3.04 0
 -4 -2 0 103.75 4.9 0
 -4 -2 1 58.02 3.52 0
 -4 -2 2 6.53 1.48 0
 -4 -2 5 6.96 0.87 0
 -4 -1 -13 13.33 6.39 0
 -4 -1 -12 19.63 6.41 0
 -4 -1 -11 13.15 5.2 0
 -4 -1 -9 104.34 8.45 0
 -4 -1 -8 17.3 4.14 0
 -4 -1 -7 28.08 4.95 0
 -4 -1 -6 177.42 8.73 0
 -4 -1 -3 221.62 7.9 0
 -4 -1 -2 277.4 8.26 0
 -4 -1 -1 1202.12 15.7 0
 -4 -1 0 16.38 2.39 0
 -4 -1 1 33.48 2.69 0
 -4 -1 3 32.17 1.94 0
 -4 -1 4 440.05 4.81 0
 -4 0 -13 26.59 6.84 0
 -4 0 -12 12.74 6.23 0
 -4 0 -9 8.59 4.22 0
 -4 0 -8 107.72 7.65 0
 -4 0 -6 149.7 8.03 0
 -4 0 -4 9.56 2.83 0
 -4 0 -3 63.64 4.81 0
 -4 0 -2 92.89 5.06 0
 -4 0 -1 10.17 2.39 0
 -4 0 0 37.53 2.99 0
 -4 0 3 223.03 4.42 0
 -4 0 4 13.15 0.85 0
 -4 1 -13 12.16 5.93 0
 -4 1 -12 21.15 6.02 0
 -4 1 -11 12.26 5.3 0
 -4 1 -9 94 8.12 0
 -4 1 -7 21.44 4.49 0
 -4 1 -6 188.72 8.95 0
 -4 1 -2 282.09 8.58 0
 -4 1 -1 1209.54 16.3 0
 -4 1 1 33.29 2.83 0
 -4 2 -13 13.53 6.34 0
 -4 2 -12 6.84 5.23 0
 -4 2 -11 12.19 5.25 0
 -4 2 -9 34.64 5.91 0
 -4 2 -8 55.64 7.1 0
 -4 2 -6 135.92 7.99 0
 -4 2 -3 20.07 3.62 0
 -4 2 -2 51.8 4.63 0
 -4 2 0 98.33 4.85 0
 -4 2 1 56.58 3.81 0
 -4 2 2 8.54 1.92 0
 -4 3 -12 40.75 8 0
 -4 3 -9 12.88 5.09 0
 -4 3 -8 37.49 6.59 0
 -4 3 -7 22.67 4.91 0
 -4 3 -6 152.05 9.14 0
 -4 3 -2 74.66 5.25 0
 -4 3 0 26.8 3.56 0
 -4 3 1 275.6 7.97 0
 -4 4 -12 13.48 6.63 0
 -4 4 -11 1.99 4.81 0
 -4 4 -10 22.2 6.32 0
 -4 4 -9 102.18 9.32 0
 -4 4 -8 18.02 4.97 0
 -4 4 -7 29.59 5.34 0
 -4 4 -6 57.29 6.18 0
 -4 4 -5 10.16 3.88 0
 -4 4 -4 44.13 5.32 0
 -4 4 -1 28.29 4.49 0
 -4 4 0 170.51 7.34 0
 -4 5 -11 112.18 10.98 0
 -4 5 -10 12.05 5.8 0
 -4 5 -9 20.1 5.96 0
 -4 5 -8 48.86 7.36 0
 -4 5 -7 20.71 5.47 0
 -4 5 -6 10.99 4.61 0
 -4 5 -5 23.88 5.17 0
 -4 5 -4 135.46 9.01 0
 -4 5 -3 262.54 11.25 0
 -4 6 -10 6.71 5.96 0
 -4 6 -9 22.78 6.86 0
 -4 6 -8 25.49 6.25 0
 -4 6 -7 57.96 8.14 0
 -4 6 -6 8.97 4.71 0
 -4 6 -5 -0.25 3.44 0
 -3 -8 -10 67.72 9.18 0
 -3 -7 -11 8.69 5.05 0
 -3 -7 -10 32.15 6.32 0
 -3 -7 -9 8.14 4.69 0
 -3 -6 -12 10.47 5.6 0
 -3 -6 -11 15.61 5.72 0
 -3 -6 -10 131.63 10.16 0
 -3 -6 -9 14.04 5.23 0
 -3 -5 -12 9.42 4.92 0
 -3 -5 -11 3 4.3 0
 -3 -5 -9 12.38 4.79 0
 -3 -4 -13 35.28 6.46 0
 -3 -4 -12 13.18 5.14 0
 -3 -4 -11 30.66 5.93 0
 -3 -4 -10 84.91 7.54 0
 -3 -4 -9 6.47 3.64 0
 -3 -4 -8 114.88 8.12 0
 -3 -3 -12 9.85 4.72 0
 -3 -3 -11 -2.72 3.41 0
 -3 -3 -9 6.72 3.42 0
 -3 -3 -8 35.18 5.1 0
 -3 -3 -7 71.34 6.13 0
 -3 -2 -13 1.21 4.1 0
 -3 -2 -12 29.11 6.14 0
 -3 -2 -11 13.94 4.52 0
 -3 -2 -10 3.94 3.92 0
 -3 -2 -9 39.34 5.48 0
 -3 -2 -8 150.54 8.04 0
 -3 -2 -5 107.07 5.93 0
 -3 -2 -4 71.8 4.67 0
 -3 -2 -3 125.11 5.54 0
 -3 -1 -14 19.03 5.57 0
 -3 -1 -13 4.2 4.58 0
 -3 -1 -12 11.4 5.34 0
 -3 -1 -11 78.72 7.84 0
 -3 -1 -10 40.24 6.22 0
 -3 -1 -9 19.6 4.73 0
 -3 -1 -4 255.26 7.98 0
 -3 -1 -3 140.82 5.64 0
 -3 -1 1 117.78 3.76 0
 -3 -1 2 245.67 4.62 0
 -3 -1 3 2.15 0.69 0
 -3 0 -14 13.03 5.52 0
 -3 0 -13 45.35 6.97 0
 -3 0 -12 5.41 4.39 0
 -3 0 -11 0.35 3.66 0
 -3 0 -10 48.35 6.63 0
 -3 0 -9 0.32 2.94 0
 -3 0 -8 -0.43 2.74 0
 -3 0 -6 9.1 2.81 0
 -3 0 -4 2.87 1.75 0
 -3 0 0 501.46 8.07 0
 -3 0 1 477.27 7 0
 -3 0 2 236.71 4.25 0
 -3 1 -14 32.64 7.47 0
 -3 1 -13 5.61 5.28 0
 -3 1 -12 19.06 5.37 0
 -3 1 -11 82.15 8.03 0
 -3 1 -10 40.03 5.91 0
 -3 1 -9 20.33 4.41 0
 -3 1 -8 26.25 4.41 0
 -3 1 -5 7.83 2.59 0
 -3 1 -4 262.62 8.33 0
 -3 1 -3 144.68 5.87 0
 -3 1 0 411.57 7.63 0
 -3 1 1 118.09 3.9 0
 -3 2 -14 54.14 8.41 0
 -3 2 -13 0.06 4.33 0
 -3 2 -11 12.92 5.37 0
 -3 2 -10 6.64 4.15 0
 -3 2 -9 33.54 5.18 0
 -3 2 -8 144.81 8.33 0
 -3 2 -5 104.39 6.09 0
 -3 2 -4 67.06 4.86 0
 -3 2 1 271.39 6.39 0
 -3 2 2 62.92 3.04 0
 -3 3 -13 13.07 5.65 0
 -3 3 -12 12.34 5.37 0
 -3 3 -11 1.28 4.06 0
 -3 3 -9 10.46 4.11 0
 -3 3 -8 30.14 5.09 0
 -3 3 -7 68.61 6.38 0
 -3 3 -3 95.78 5.91 0
 -3 3 -2 184.57 7.24 0
 -3 3 -1 17.02 3.09 0
 -3 4 -13 41.1 8.43 0
 -3 4 -12 11.97 5.56 0
 -3 4 -11 30 6.75 0
 -3 4 -10 87.79 8.39 0
 -3 4 -8 129.01 9.22 0
 -3 4 -6 15.23 3.93 0
 -3 4 -3 168.17 7.8 0
 -3 4 -2 103.31 6.12 0
 -3 4 -1 19.89 3.49 0
 -3 4 0 51.14 4.73 0
 -3 5 -12 5.88 5.46 0
 -3 5 -11 -0.99 5.16 0
 -3 5 -9 8.2 4.83 0
 -3 5 -6 70.28 7.08 0
 -3 5 -5 55.05 6.23 0
 -3 5 -2 145.76 8.02 0
 -3 6 -11 12 6.79 0
 -3 6 -10 131.17 10.82 0
 -3 6 -9 6.92 4.81 0
 -3 6 -8 83.99 8.83 0
 -3 6 -7 15.28 5.08 0
 -3 6 -5 4.3 3.95 0
 -2 -8 -11 12.23 5.93 0
 -2 -7 -12 49.68 7.36 0
 -2 -7 -11 7.13 4.58 0
 -2 -6 -12 19.19 5.38 0
 -2 -6 -11 5.96 4.37 0
 -2 -6 -10 111.76 8.48 0
 -2 -5 -13 13.92 4.79 0
 -2 -5 -12 10.83 5.02 0
 -2 -5 -11 10.09 4.34 0
 -2 -4 -14 74.11 7.88 0
 -2 -4 -12 28.54 5.54 0
 -2 -4 -11 24.99 4.93 0
 -2 -4 -10 43.99 6.04 0
 -2 -4 -9 55.46 5.73 0
 -2 -4 -8 12.1 3.92 0
 -2 -3 -14 104.42 8.85 0
 -2 -3 -13 35.83 5.91 0
 -2 -3 -11 28.6 5.54 0
 -2 -3 -10 1.98 3.4 0
 -2 -3 -9 16.42 3.73 0
 -2 -2 -14 55.4 7.38 0
 -2 -2 -13 31.03 5.61 0
 -2 -2 -12 19.74 4.93 0
 -2 -2 -11 7.97 3.74 0
 -2 -2 -9 121.65 7.32 0
 -2 -2 -7 233.35 8.76 0
 -2 -2 -6 137.77 6.39 0
 -2 -1 -15 4.78 4.41 0
 -2 -1 -13 0.34 3.53 0
 -2 -1 -12 15.19 4.99 0
 -2 -1 -11 23.91 4.65 0
 -2 -1 -10 25.35 4.67 0
 -2 -1 -9 6.59 2.83 0
 -2 -1 -6 20.28 3.07 0
 -2 -1 -2 489.95 8.24 0
 -2 0 -15 26.53 5.86 0
 -2 0 -14 206.77 11.54 0
 -2 0 -13 9.36 4.52 0
 -2 0 -12 13.25 4.75 0
 -2 0 -11 92.8 7.63 0
 -2 0 -10 16.47 4.44 0
 -2 0 -7 111.94 6.3 0
 -2 0 -6 143.45 6.18 0
 -2 0 -3 737.47 10.75 0
 -2 0 -2 33.03 2.55 0
 -2 0 0 245.8 4.57 0
 -2 0 1 356.88 4.57 0
 -2 0 2 0.81 0.47 0
 -2 1 -14 12.15 4.86 0
 -2 1 -13 -0.87 3.83 0
 -2 1 -12 12.68 4.55 0
 -2 1 -11 30.42 5.76 0
 -2 1 -9 7.63 3.14 0
 -2 1 -7 47.53 4.43 0
 -2 1 -6 18.62 3.3 0
 -2 1 0 601.62 7.7 0
 -2 1 1 291.73 4.75 0
 -2 1 2 23.97 1.49 0
 -2 2 -13 35.03 6.44 0
 -2 2 -12 21.79 5.82 0
 -2 2 -11 10.3 4.24 0
 -2 2 -10 16.4 4.66 0
 -2 2 -9 111.06 7.49 0
 -2 2 -7 221.15 8.76 0
 -2 2 -6 147.08 6.81 0
 -2 2 -3 88.71 4.43 0
 -2 2 -2 228.19 6.37 0
 -2 3 -14 99.22 9.68 0
 -2 3 -13 40.3 7.13 0
 -2 3 -12 40.6 6.57 0
 -2 3 -11 30.76 5.93 0
 -2 3 -6 14.16 3.61 0
 -2 3 -2 63.27 4.23 0
 -2 3 -1 552.33 10.24 0
 -2 4 -14 63.66 8.56 0
 -2 4 -13 1.27 5.03 0
 -2 4 -12 28.22 6.67 0
 -2 4 -11 19.68 5.35 0
 -2 4 -9 53.76 6.42 0
 -2 4 -5 7.53 3.2 0
 -2 4 -4 195.91 8.23 0
 -2 4 -2 466.94 10.83 0
 -2 5 -13 9.6 5.46 0
 -2 5 -12 11.62 5.22 0
 -2 5 -11 8.76 5.58 0
 -2 5 -10 49 6.87 0
 -2 5 -9 45.68 6.66 0
 -2 5 -7 102.6 7.78 0
 -2 5 -6 10.56 3.77 0
 -2 5 -4 21.21 3.7 0
 -2 5 -3 10.54 3.2 0
 -2 6 -11 3.47 4.76 0
 -2 6 -10 111.49 9.84 0
 -2 6 -9 21.34 5.46 0
 -2 6 -8 9.03 4.5 0
 -1 -8 -11 4.02 3.73 0
 -1 -7 -12 0.28 3.73 0
 -1 -7 -11 0.79 3.57 0
 -1 -6 -13 3.01 3.68 0
 -1 -6 -12 21.61 5.25 0
 -1 -6 -11 116.74 8.85 0
 -1 -5 -14 15.13 4.71 0
 -1 -5 -13 19.61 4.84 0
 -1 -5 -12 12.09 4.12 0
 -1 -5 -11 5.23 3.59 0
 -1 -5 -10 191.57 9.33 0
 -1 -4 -14 29.69 5.81 0
 -1 -4 -13 3.18 3.86 0
 -1 -4 -12 4.84 3.78 0
 -1 -4 -11 37.05 5.62 0
 -1 -4 -10 38.21 5.18 0
 -1 -4 -9 60.08 5.59 0
 -1 -3 -15 -0.53 3.37 0
 -1 -3 -14 35.85 5.56 0
 -1 -3 -12 0.09 3.61 0
 -1 -3 -8 32.59 4.04 0
 -1 -2 -15 7.4 4.22 0
 -1 -2 -14 32.18 5.56 0
 -1 -2 -13 9.13 3.74 0
 -1 -2 -12 -0.79 3.11 0
 -1 -2 -11 25.79 4.25 0
 -1 -2 -8 462.11 11.27 0
 -1 -2 -7 188.71 6.97 0
 -1 -1 -15 13.21 4.35 0
 -1 -1 -14 112.05 8.01 0
 -1 -1 -13 181.28 9.44 0
 -1 -1 -12 9.74 3.47 0
 -1 -1 -11 33 4.54 0
 -1 -1 -9 73.91 5.46 0
 -1 -1 -8 314.25 9.16 0
 -1 -1 -6 162.42 5.97 0
 -1 -1 -5 85.93 4.07 0
 -1 -1 -4 955.54 11.52 0
 -1 0 -15 10.86 4.33 0
 -1 0 -13 -2.19 2.95 0
 -1 0 -12 16.6 4.26 0
 -1 0 -11 3.3 3.57 0
 -1 0 -9 129.09 6.73 0
 -1 0 -8 540.75 11.81 0
 -1 0 -7 -0.36 1.72 0
 -1 0 -5 2.71 1.72 0
 -1 0 -4 349.66 6.99 0
 -1 0 -3 -0 1.23 0
 -1 0 -2 104.38 3.35 0
 -1 0 -1 1543.09 9.6 0
 -1 0 0 474.53 4.31 0
 -1 1 -15 12.23 4.67 0
 -1 1 -13 201.61 10 0
 -1 1 -12 11.28 3.99 0
 -1 1 -11 34.45 5.04 0
 -1 1 -9 67.98 5.58 0
 -1 1 -8 321.73 9.61 0
 -1 1 -7 61.59 4.57 0
 -1 1 -6 153.16 5.78 0
 -1 1 -4 954.28 11.79 0
 -1 1 -3 57.7 3.01 0
 -1 1 -2 265.76 5.42 0
 -1 1 -1 1254.87 9.74 0
 -1 1 0 5134.72 17.24 0
 -1 2 -15 5.73 4.43 0
 -1 2 -14 38.98 6.59 0
 -1 2 -13 10.4 4.38 0
 -1 2 -8 450.88 11.62 0
 -1 2 -7 187.63 7.4 0
 -1 2 -6 448.9 10.16 0
 -1 2 -5 84.27 4.67 0
 -1 2 -4 37.1 3.06 0
 -1 2 -3 551.36 9.29 0
 -1 2 -2 13.75 2.21 0
 -1 2 -1 1163.2 11.61 0
 -1 2 0 2107.26 14.31 0
 -1 3 -15 -1.88 3.97 0
 -1 3 -14 39.58 6.35 0
 -1 3 -13 107.52 8.86 0
 -1 3 -12 -1.85 3.7 0
 -1 3 -11 23.91 5.24 0
 -1 3 -10 64.94 5.95 0
 -1 3 -8 29.94 4.52 0
 -1 3 -7 73.64 5.64 0
 -1 3 -6 440.85 10.94 0
 -1 3 -5 22.53 3.34 0
 -1 3 -4 399.58 9.47 0
 -1 3 -3 72.17 4.12 0
 -1 3 -2 97.66 4.73 0
 -1 4 -14 30.4 5.72 0
 -1 4 -13 -3.06 3.39 0
 -1 4 -12 9.09 4.51 0
 -1 4 -11 36.96 5.83 0
 -1 4 -10 42.51 5.88 0
 -1 4 -9 51.43 5.68 0
 -1 4 -7 417.23 12.38 0
 -1 4 -6 97.01 6.54 0
 -1 4 -5 168.54 7.27 0
 -1 4 -4 47.3 3.97 0
 -1 5 -12 11.56 5.38 0
 -1 5 -11 4.17 4.87 0
 -1 5 -10 192 10.29 0
 -1 5 -9 34.49 5.76 0
 -1 5 -8 1.52 3.2 0
 0 -8 -12 61.02 6.78 0
 0 -7 -13 6.53 3.84 0
 0 -7 -12 1.8 3.29 0
 0 -6 -13 6.03 3.55 0
 0 -6 -12 1.71 3.12 0
 0 -5 -12 7.68 3.44 0
 0 -5 -11 1.38 2.81 0
 0 -4 -13 33.59 5.29 0
 0 -4 -11 105.66 6.69 0
 0 -3 -13 19.14 4.03 0
 0 -3 -12 59.19 5.35 0
 0 -3 -8 59.93 4.3 0
 0 -2 -14 36.59 5.03 0
 0 -2 -13 176.39 8.42 0
 0 -2 -10 200.27 7.64 0
 0 -2 -9 8.27 2.74 0
 0 -2 -8 337.63 8.54 0
 0 -1 -14 47.73 5.85 0
 0 -1 -13 95.11 6.54 0
 0 -1 -9 4.89 2.47 0
 0 -1 -8 140.03 5.47 0
 0 -1 -7 210.61 6.08 0
 0 -1 -6 125.84 4.44 0
 0 0 -14 53 6.01 0
 0 0 -13 214.01 9.14 0
 0 0 -10 170.83 7.12 0
 0 0 -9 11.19 2.58 0
 0 0 -8 1059.66 14.35 0
 0 0 -7 101.58 4.38 0
 0 0 -6 13.01 2.02 0
 0 0 -4 245.6 4.8 0
 0 0 -3 29.96 1.72 0
 0 0 -2 2959.39 11.06 0
 0 1 -14 51.66 6.07 0
 0 1 -13 86.16 6.6 0
 0 1 -12 127.73 7.34 0
 0 1 -10 28.97 3.9 0
 0 1 -9 -0.02 1.85 0
 0 1 -8 140.15 5.81 0
 0 1 -7 208.98 6.4 0
 0 1 -6 126.07 4.63 0
 0 1 -5 527.68 8.26 0
 0 1 -3 1028.89 9.17 0
 0 1 -2 482.32 5.62 0
 0 1 -1 484.97 4.97 0
 0 2 -14 35.18 5.4 0
 0 2 -13 187.08 9.12 0
 0 2 -12 40.68 5.41 0
 0 2 -10 214.29 8.57 0
 0 2 -9 11.5 3.09 0
 0 2 -7 258.41 7.67 0
 0 2 -6 14.51 2.43 0
 0 2 -5 472.9 8.81 0
 0 2 -4 563.6 8.91 0
 0 2 -2 2031.66 14.15 0
 0 3 -14 49.49 6.32 0
 0 3 -12 52.37 6.16 0
 0 3 -11 66.27 6.27 0
 0 3 -9 31.72 4.61 0
 0 3 -8 60.79 5.09 0
 0 3 -7 20.15 3.24 0
 0 3 -4 89.33 4.24 0
 0 4 -13 29.46 5.18 0
 0 4 -12 3.15 3.61 0
 0 4 -11 111.06 7.12 0
 0 4 -8 141.55 7.23 0
 0 4 -7 102.05 5.82 0
 0 4 -6 8.77 2.69 0
 1 -6 -12 21.31 4.31 0
 1 -6 -11 55.71 5.35 0
 1 -5 -12 21.49 3.84 0
 1 -5 -11 16.93 3.64 0
 1 -4 -12 1.72 2.3 0
 1 -4 -10 18.55 3.43 0
 1 -3 -11 16.09 3.06 0
 1 -2 -12 31.68 3.83 0
 1 -2 -11 11.57 2.73 0
 1 -2 -10 7.37 2.2 0
 1 -2 -9 1.18 1.73 0
 1 -2 -8 101.93 4.32 0
 1 -2 -7 48.09 2.93 0
 1 -1 -12 39.18 3.87 0
 1 -1 -11 107.1 5.2 0
 1 -1 -9 17.12 2.43 0
 1 -1 -8 51.93 3.15 0
 1 -1 -6 680.86 8 0
 1 -1 -5 21.09 1.67 0
 1 0 -12 157 6.51 0
 1 0 -11 7.89 2.47 0
 1 0 -9 94.6 4.34 0
 1 0 -8 3.03 1.51 0
 1 0 -7 0.42 1.28 0
 1 0 -6 60.99 2.64 0
 1 0 -5 135.4 3.11 0
 1 0 -4 1421.44 7.87 0
 1 1 -12 29.83 3.78 0
 1 1 -9 22.87 2.86 0
 1 1 -8 46.09 3.26 0
 1 1 -6 689.66 8.68 0
 1 1 -5 22.57 1.8 0
 1 1 -4 2293.85 12.29 0
 1 2 -11 10.42 2.9 0
 1 2 -10 12.83 2.63 0
 1 2 -9 1.4 2.06 0
 1 2 -7 48.1 3.15 0
 1 2 -6 207.56 5.56 0
 1 3 -11 17.94 3.68 0
 1 3 -10 86.05 5.29 0
 1 3 -9 89.86 5.07 0
 2 -4 -10 37.55 3.34 0
 2 -3 -10 21.66 2.43 0
 2 -3 -9 11.78 1.98 0
 2 -2 -10 201.21 5.14 0
 2 -2 -9 62.15 2.89 0
 2 -2 -8 46.91 2.45 0
 2 -2 -7 154.09 3.74 0
 2 -1 -10 7.79 1.5 0
 2 -1 -9 108.61 3.29 0
 2 -1 -8 149.65 3.41 0
 2 -1 -7 353.89 4.41 0
 2 -1 -6 86.2 1.87 0
 2 0 -9 58.01 2.5 0
 -6 -8 -3 10.7 6.66 0
 -6 -8 -2 19.44 7 0
 -6 -8 -1 13.06 6.59 0
 -6 -8 0 8.95 5.99 0
 -6 -7 -5 38.07 8.49 0
 -6 -7 -4 6.99 6.07 0
 -6 -7 -3 11.93 6.03 0
 -6 -7 -1 47.19 8.18 0
 -6 -7 0 28.41 7.19 0
 -6 -6 -7 0.08 5.23 0
 -6 -6 -6 10.82 6.26 0
 -6 -6 -5 8.54 5.83 0
 -6 -6 -4 11.23 5.4 0
 -6 -6 -3 12.37 5.94 0
 -6 -6 -2 125.34 10.81 0
 -6 -6 -1 3.61 4.75 0
 -6 -6 0 19.51 5.64 0
 -6 -5 -8 30.61 7.67 0
 -6 -5 -7 97.24 10.57 0
 -6 -5 -6 17.46 6.34 0
 -6 -5 -5 19.28 5.83 0
 -6 -5 -4 86.84 9.03 0
 -6 -5 -3 55.53 7.96 0
 -6 -5 -2 12.15 4.78 0
 -6 -5 -1 32.26 6.11 0
 -6 -5 0 141.97 9.71 0
 -6 -5 1 20.03 4.86 0
 -6 -4 -9 8.96 5.59 0
 -6 -4 -8 28.96 6.63 0
 -6 -4 -7 6.46 4.75 0
 -6 -4 -6 36.23 6.62 0
 -6 -4 -5 11.26 4.91 0
 -6 -4 -4 20.28 4.85 0
 -6 -4 -2 41.31 5.88 0
 -6 -4 -1 3.17 3.26 0
 -6 -4 0 23.89 4.8 0
 -6 -3 -9 12.04 5.39 0
 -6 -3 -7 29.39 6.42 0
 -6 -3 -6 1.94 3.75 0
 -6 -3 -5 38.64 5.85 0
 -5 -10 0 46.93 10.03 0
 -5 -9 -4 6.91 8.01 0
 -5 -9 -3 31.25 8.95 0
 -5 -9 -2 4.61 6.15 0
 -5 -8 -6 9.67 6.71 0
 -5 -8 -5 18.61 6.87 0
 -5 -8 -4 10.6 6.62 0
 -5 -8 -3 4.25 5.76 0
 -5 -8 -1 36.4 7.79 0
 -5 -7 -8 36.61 8.17 0
 -5 -7 -6 91.01 11.25 0
 -5 -7 -5 12.49 7.23 0
 -5 -7 -4 11.73 5.96 0
 -5 -7 -3 54.72 8.84 0
 -5 -7 -2 40.36 8.15 0
 -5 -7 -1 93.42 10.19 0
 -5 -6 -8 9.41 6.23 0
 -5 -6 -7 54.27 9.06 0
 -5 -6 -6 6.12 5.6 0
 -5 -6 -4 31.42 6.76 0
 -5 -6 -3 58.96 8.42 0
 -5 -6 -2 12.52 5.24 0
 -5 -6 -1 30.49 6.36 0
 -5 -5 -10 -2.47 6.2 0
 -5 -5 -9 41.91 8.52 0
 -5 -5 -8 16.13 6.14 0
 -5 -5 -7 26.24 6.76 0
 -5 -5 -6 23.91 6.22 0
 -5 -5 -5 43.95 7.86 0
 -5 -5 -3 65.47 7.79 0
 -5 -5 -2 35.48 6.27 0
 -5 -5 -1 37.9 5.91 0
 -5 -4 -10 4.4 6.56 0
 -5 -4 -9 5.23 6.37 0
 -5 -4 -8 37.32 7.39 0
 -5 -4 -7 86.94 8.61 0
 -5 -4 -6 7.21 5.4 0
 -5 -4 -5 31.79 6.1 0
 -5 -4 -4 101.08 8.84 0
 -5 -3 -11 25.27 7.33 0
 -5 -3 -10 97.35 10.92 0
 -5 -3 -9 99.94 10.23 0
 -5 -3 -7 37.28 6.87 0
 -5 -3 -6 85.36 7.72 0
 -5 -3 -5 2.8 3.59 0
 -5 -3 -2 133.47 7.72 0
 -5 -3 -1 103.96 6.95 0
 -5 -2 -8 27.88 6.17 0
 -5 -2 -7 25.76 5.42 0
 -5 -2 -6 10.13 4.09 0
 -5 -2 -3 76.35 5.94 0
 -5 -2 -1 73.79 5.34 0
 -5 -2 0 113.38 5.82 0
 -5 -2 1 32.76 3.36 0
 -5 -1 -11 17.82 6.72 0
 -5 -1 -9 23.81 5.81 0
 -5 -1 -7 8.57 4.3 0
 -5 -1 -6 9.72 3.76 0
 -5 -1 -4 18.92 3.48 0
 -5 -1 -2 406.18 10.24 0
 -5 -1 0 196.22 6.41 0
 -5 -1 1 10.57 1.92 0
 -5 -1 2 83.87 3.95 0
 -5 0 -11 4.39 5.23 0
 -5 0 -10 23.51 6.02 0
 -5 0 -9 85.02 8.68 0
 -5 0 -8 85.98 7.83 0
 -5 0 -7 15.38 4.25 0
 -5 0 -5 43.12 4.76 0
 -5 0 -3 2.49 1.67 0
 -5 0 -2 1.59 1.42 0
 -5 0 -1 146.2 4.9 0
 -5 1 -10 184.52 11.64 0
 -5 1 -9 22.66 5.17 0
 -4 -10 -4 14.51 7.89 0
 -4 -10 -3 47.1 9.38 0
 -4 -10 -2 0.43 5.75 0
 -4 -9 -7 0.49 5.97 0
 -4 -9 -6 33.25 8.83 0
 -4 -9 -4 17.07 8.19 0
 -4 -9 -2 16.52 7.6 0
 -4 -8 -7 15.38 6.95 0
 -4 -8 -6 60.19 10.39 0
 -4 -8 -5 34.24 7.94 0
 -4 -8 -4 66.67 9.77 0
 -4 -8 -3 3.9 5.68 0
 -4 -8 -2 6.93 6.22 0
 -4 -7 -9 0.48 5.67 0
 -4 -7 -8 19.55 7.58 0
 -4 -7 -7 23.36 6.99 0
 -4 -7 -6 -1.67 5.04 0
 -4 -7 -5 60.85 9.64 0
 -4 -7 -4 45.47 8.28 0
 -4 -7 -3 87.7 9.88 0
 -4 -7 -2 42.85 7.42 0
 -4 -6 -9 24.41 7.2 0
 -4 -6 -8 26.61 7.22 0
 -4 -6 -7 55.98 9.2 0
 -4 -6 -6 3.52 4.89 0
 -4 -6 -5 -2.8 4.22 0
 -4 -6 -4 21.11 6.27 0
 -4 -6 -3 -0.16 3.87 0
 -4 -6 -2 14.43 5.15 0
 -4 -5 -11 88.91 11.19 0
 -4 -5 -10 7.3 6.96 0
 -4 -5 -9 22.55 6.78 0
 -4 -5 -8 54.79 8.48 0
 -4 -5 -7 18.82 5.67 0
 -4 -5 -6 10.27 4.79 0
 -4 -5 -5 18.36 5.23 0
 -4 -4 -12 5.87 6.53 0
 -4 -4 -11 -2.2 4.91 0
 -4 -4 -10 14.07 7.1 0
 -4 -4 -9 108.26 10.67 0
 -4 -4 -8 14.91 5.55 0
 -4 -4 -7 32.44 6.75 0
 -4 -4 -6 52.84 7.53 0
 -4 -4 -5 12.54 4.34 0
 -4 -4 -2 11.35 3.87 0
 -4 -3 -12 32.97 8.03 0
 -4 -3 -11 20.91 6.94 0
 -4 -3 -10 16.02 6.43 0
 -4 -3 -9 13.28 5.77 0
 -4 -3 -8 41.88 6.91 0
 -4 -3 -7 24.02 5.46 0
 -4 -3 -6 140.09 9.08 0
 -4 -3 -3 214.48 9.46 0
 -4 -3 -2 82.05 6.01 0
 -4 -2 -13 13.31 6.92 0
 -4 -2 -12 8.54 6.13 0
 -4 -2 -11 11.36 6.43 0
 -4 -2 -10 33.58 6.68 0
 -4 -2 -9 36.96 6.85 0
 -4 -2 -8 43.1 6.72 0
 -4 -2 -7 3.9 3.76 0
 -4 -2 -4 188.18 8.77 0
 -4 -2 -3 14.54 3.57 0
 -4 -2 -2 53.57 4.94 0
 -4 -2 -1 18.65 3.26 0
 -4 -1 -13 1.74 5.69 0
 -4 -1 -11 11.67 6.53 0
 -4 -1 -10 24.54 6.86 0
 -4 -1 -9 100.85 8.96 0
 -4 -1 -8 17.98 5.51 0
 -4 -1 -7 20.8 4.63 0
 -4 -1 -5 44.55 5.29 0
 -4 -1 -4 365.1 10.67 0
 -4 -1 -3 211 7.82 0
 -4 -1 -2 287.03 8.3 0
 -4 -1 -1 1214.72 15.79 0
 -4 0 -13 31.41 7.98 0
 -4 0 -12 10.74 6.2 0
 -4 0 -11 16.58 6.01 0
 -4 0 -10 56.71 8.38 0
 -4 0 -9 17.14 5.72 0
 -4 0 -8 104.62 8.51 0
 -4 0 -6 138.32 8.02 0
 -4 0 -5 0.07 2.37 0
 -4 0 -4 12.97 2.8 0
 -4 0 -3 65.28 4.16 0
 -4 0 -2 87.71 4.35 0
 -4 0 0 35.63 2.36 0
 -4 0 1 9.16 1.36 0
 -4 1 -12 22.19 6.99 0
 -4 1 -11 10.71 5.8 0
 -4 1 -9 91.09 8.79 0
 -4 1 -8 11.14 4.51 0
 -4 1 -6 176.6 8.56 0
 -4 1 -5 47.91 4.57 0
 -4 1 -3 217.29 6.72 0
 -4 1 -1 1214.69 11.13 0
 -4 1 0 18.82 1.16 0
 -4 2 -8 62 6.48 0
 -4 2 -6 135.84 7.64 0
 -4 2 -5 45.01 4.39 0
 -4 2 -4 191.16 7.17 0
 -4 2 -3 13.97 2.26 0
 -3 -11 -2 4.8 6.4 0
 -3 -10 -6 18.65 8.22 0
 -3 -10 -5 57.5 10.02 0
 -3 -10 -4 9.23 7.61 0
 -3 -10 -3 11.61 6.16 0
 -3 -10 -2 5.1 7.05 0
 -3 -9 -8 8.21 6.87 0
 -3 -9 -6 9 6.44 0
 -3 -9 -5 32.37 8.27 0
 -3 -9 -4 74.42 10.7 0
 -3 -9 -3 6.02 6.15 0
 -3 -8 -9 4.35 6.12 0
 -3 -8 -7 -0.81 6.13 0
 -3 -8 -4 28.9 7.05 0
 -3 -8 -3 -2.47 4.77 0
 -3 -7 -11 5.84 6.47 0
 -3 -7 -10 29.18 8.6 0
 -3 -7 -9 6.78 5.68 0
 -3 -7 -8 59.64 9.15 0
 -3 -7 -7 19.59 6.89 0
 -3 -7 -5 72.77 9.25 0
 -3 -7 -4 46.7 7.43 0
 -3 -7 -3 55.87 7.99 0
 -3 -6 -12 16.81 7.6 0
 -3 -6 -11 17.14 7.02 0
 -3 -6 -10 112.6 11.44 0
 -3 -6 -9 11.29 5.87 0
 -3 -6 -8 106.17 10.08 0
 -3 -6 -7 19.09 6.12 0
 -3 -6 -5 3.77 4.37 0
 -3 -6 -4 31.78 6.1 0
 -3 -6 -3 30.51 5.6 0
 -3 -5 -12 9.51 6.33 0
 -3 -5 -11 -2.06 5.14 0
 -3 -5 -10 68.52 9.67 0
 -3 -5 -9 13.1 5.58 0
 -3 -5 -8 34.25 7.16 0
 -3 -4 -12 14.63 6.46 0
 -3 -4 -11 30.12 7.38 0
 -3 -4 -10 104.78 10.13 0
 -3 -4 -9 9.76 5.28 0
 -3 -4 -8 125.85 9.85 0
 -3 -4 -7 48.06 6.62 0
 -3 -4 -6 15.03 4.76 0
 -3 -4 -4 17.37 4.81 0
 -3 -4 -3 165.75 8.88 0
 -3 -3 -13 7.27 6.64 0
 -3 -3 -12 19.32 7.58 0
 -3 -3 -11 -0.71 5.03 0
 -3 -3 -9 7.23 5.12 0
 -3 -3 -5 12.87 3.83 0
 -3 -3 -4 274.1 10.5 0
 -3 -3 -3 90.12 6.17 0
 -3 -3 -2 181.07 7.77 0
 -3 -2 -14 52.2 10.03 0
 -3 -2 -13 -4.69 4.94 0
 -3 -2 -12 27.1 7.29 0
 -3 -2 -10 9.24 5.15 0
 -3 -2 -9 39.56 6.65 0
 -3 -2 -6 31.9 4.92 0
 -3 -2 -5 107.45 7.01 0
 -3 -2 -4 77.99 6.09 0
 -3 -1 -14 22.06 7.81 0
 -3 -1 -12 15.53 6.46 0
 -3 -1 -11 76.57 8.83 0
 -3 -1 -10 34.57 6.54 0
 -3 -1 -9 15.2 4.88 0
 -3 -1 -8 25.3 5.12 0
 -3 -1 -6 143.98 8.04 0
 -3 -1 -5 6.82 2.92 0
 -3 -1 -1 5.07 1.9 0
 -3 0 -14 13.18 7.79 0
 -3 0 -13 32.73 8.56 0
 -3 0 -12 4.51 6.36 0
 -3 0 -11 2.12 4.57 0
 -3 0 -10 51.25 7.39 0
 -3 0 -9 0.83 3.85 0
 -3 0 -7 376.85 12.64 0
 -3 0 -6 4.82 3.12 0
 -3 0 -5 446.2 11.52 0
 -3 0 -4 -0.15 1.76 0
 -3 0 -2 64.3 3.43 0
 -3 0 -1 565.18 8.36 0
 -3 0 0 492.6 6.89 0
 -3 1 -12 19.04 6.94 0
 -3 1 -11 70.13 8.66 0
 -3 1 -10 38.87 7.31 0
 -3 1 -9 24.82 5.73 0
 -3 1 -7 93.96 6.9 0
 -3 1 -6 139.56 7.31 0
 -3 1 -5 6.13 2.5 0
 -3 1 -4 257.04 7.83 0
 -3 1 -2 77.12 3.54 0
 -3 1 -1 4.53 1.09 0
 -3 1 0 399.8 4.24 0
 -3 2 -7 202.99 10.04 0
 -3 2 -6 31.43 4.53 0
 -3 2 -5 109.83 6.39 0
 -3 2 -4 74.46 4.73 0
 -2 -11 -5 6.65 6.9 0
 -2 -11 -4 17.69 7.69 0
 -2 -11 -3 35.56 8.21 0
 -2 -11 -2 7.52 7.18 0
 -2 -10 -8 35.87 9.18 0
 -2 -10 -7 48.18 9.94 0
 -2 -10 -6 22.54 7.63 0
 -2 -10 -5 13.32 6.75 0
 -2 -10 -4 0.38 6.52 0
 -2 -10 -3 14.22 6.4 0
 -2 -9 -9 14.69 8.24 0
 -2 -9 -8 14.45 7.01 0
 -2 -9 -7 6.83 6.16 0
 -2 -9 -6 21.6 7.11 0
 -2 -9 -4 108.29 10.72 0
 -2 -9 -3 57.99 8.52 0
 -2 -8 -11 13.55 6.98 0
 -2 -8 -8 15.16 6.32 0
 -2 -8 -7 14.93 6.15 0
 -2 -8 -6 31.75 6.96 0
 -2 -8 -5 54.01 8.05 0
 -2 -8 -3 19.2 5.42 0
 -2 -7 -12 40.42 9.41 0
 -2 -7 -11 5.32 6.14 0
 -2 -7 -10 39.17 8.26 0
 -2 -7 -9 14.11 6.23 0
 -2 -7 -8 20.49 5.84 0
 -2 -7 -7 5.49 5.03 0
 -2 -7 -6 9.18 5.45 0
 -2 -7 -5 5.07 4.26 0
 -2 -7 -4 294.54 13.95 0
 -2 -6 -12 18.1 7.58 0
 -2 -6 -11 5.59 5.96 0
 -2 -6 -10 119.59 11.44 0
 -2 -6 -9 17.06 5.95 0
 -2 -6 -8 6.52 5.15 0
 -2 -6 -7 71.88 7.91 0
 -2 -6 -6 105.81 8.67 0
 -2 -5 -13 12.96 6.79 0
 -2 -5 -12 16.23 6.7 0
 -2 -5 -11 11.42 6.31 0
 -2 -5 -10 44.99 7.48 0
 -2 -5 -9 46.67 7.27 0
 -2 -5 -8 19.71 5.52 0
 -2 -5 -7 102.78 8.31 0
 -2 -5 -6 10.43 4.08 0
 -2 -5 -4 22.04 4.38 0
 -2 -4 -13 3.59 6.84 0
 -2 -4 -8 15.06 4.44 0
 -2 -4 -5 7.09 3.66 0
 -2 -4 -4 205.16 9.43 0
 -2 -3 -14 85.76 11.17 0
 -2 -3 -13 30.3 7.67 0
 -2 -3 -12 28.58 6.85 0
 -2 -3 -11 34.77 6.89 0
 -2 -3 -10 0.69 4.26 0
 -2 -3 -9 19.31 4.8 0
 -2 -3 -8 60.04 6.48 0
 -2 -3 -5 30.94 4.84 0
 -2 -3 -4 300.47 10.36 0
 -2 -2 -14 58.13 10.31 0
 -2 -2 -11 14.17 5.38 0
 -2 -2 -10 16.54 5.21 0
 -2 -2 -9 118.02 8.62 0
 -2 -2 -7 224.21 9.81 0
 -2 -2 -6 137.7 7.32 0
 -2 -2 -5 56.59 4.89 0
 -2 -2 -3 76.32 5.16 0
 -2 -2 -2 225.34 7.25 0
 -2 -1 -15 12.25 7.59 0
 -2 -1 -14 10.88 7.8 0
 -2 -1 -13 2.28 5.96 0
 -2 -1 -12 17.13 6.08 0
 -2 -1 -11 27.18 6.17 0
 -2 -1 -10 19.78 5.84 0
 -2 -1 -9 13.29 4.41 0
 -2 -1 -6 15.95 3.52 0
 -2 -1 -3 531.59 10.49 0
 -2 -1 -2 479.67 9.12 0
 -2 -1 -1 280.25 6.29 0
 -2 0 -14 193.48 14.48 0
 -2 0 -13 9.4 6.37 0
 -2 0 -12 5.72 5.42 0
 -2 0 -11 76.69 8.88 0
 -2 0 -9 79.13 7.2 0
 -2 0 -6 135.42 7.26 0
 -2 0 -4 371.26 8.97 0
 -2 0 -3 713.61 11 0
 -2 0 0 235.61 4.09 0
 -2 1 -12 21.85 6.59 0
 -2 1 -11 28.43 6.49 0
 -2 1 -10 18.68 5.94 0
 -2 1 -9 13.35 4.77 0
 -2 1 -7 50.11 5.06 0
 -2 1 -6 19.93 3.67 0
 -2 1 -4 119 5.25 0
 -2 1 -3 528.17 9.28 0
 -2 1 -2 494.39 7.67 0
 -2 1 -1 268.26 4.52 0
 -2 2 -9 123.18 8.84 0
 -2 2 -6 144.38 7.72 0
 -2 2 -5 60.53 5.02 0
 -2 2 -3 85.75 4.3 0
 -1 -12 -2 48.17 9.66 0
 -1 -11 -5 30.27 8.04 0
 -1 -11 -4 24.83 8.69 0
 -1 -11 -3 16.58 6.86 0
 -1 -10 -8 12.21 6.72 0
 -1 -10 -7 16.91 7.28 0
 -1 -10 -5 33.55 8.7 0
 -1 -9 -9 37.76 9.1 0
 -1 -9 -8 7.41 5.88 0
 -1 -9 -7 17.78 6.5 0
 -1 -9 -6 5.04 5.13 0
 -1 -9 -5 5.83 6.11 0
 -1 -9 -4 89.71 9.27 0
 -1 -8 -10 29.32 7.53 0
 -1 -8 -9 12.12 5.89 0
 -1 -8 -8 7.1 5.55 0
 -1 -8 -7 260.99 14.34 0
 -1 -8 -6 0.48 5.29 0
 -1 -8 -5 130.46 10.07 0
 -1 -7 -12 -1.37 5.32 0
 -1 -7 -10 43.95 7.88 0
 -1 -7 -8 18.75 5.87 0
 -1 -7 -7 11.78 5.2 0
 -1 -7 -6 63.16 7.33 0
 -1 -7 -4 93.86 7.94 0
 -1 -6 -13 2.8 6.09 0
 -1 -6 -12 20.81 6.84 0
 -1 -6 -10 48 7.77 0
 -1 -6 -9 33.85 6.6 0
 -1 -6 -8 14.08 4.82 0
 -1 -6 -6 8.24 4.69 0
 -1 -5 -14 13.49 7.71 0
 -1 -5 -12 16.21 6.86 0
 -1 -5 -11 13.95 5.78 0
 -1 -5 -9 27.97 5.97 0
 -1 -5 -8 4.63 4.43 0
 -1 -5 -7 20.04 4.68 0
 -1 -5 -4 454.87 13.71 0
 -1 -4 -14 26.98 8.2 0
 -1 -4 -12 5.05 5.75 0
 -1 -4 -11 40.97 7.08 0
 -1 -4 -10 33.35 6.15 0
 -1 -4 -9 62.98 7.52 0
 -1 -4 -8 53.37 6.18 0
 -1 -4 -6 91.6 6.74 0
 -1 -4 -5 160.05 8.07 0
 -1 -3 -15 -3.54 5.72 0
 -1 -3 -14 31.21 8.78 0
 -1 -3 -13 104.54 10.61 0
 -1 -3 -11 29.35 6.15 0
 -1 -3 -10 53 7.01 0
 -1 -3 -9 109.77 8.52 0
 -1 -3 -7 67.49 6.03 0
 -1 -3 -6 447.48 12.72 0
 -1 -3 -3 69.91 4.89 0
 -1 -2 -15 4.82 7.09 0
 -1 -2 -14 42.71 8.88 0
 -1 -2 -13 3.01 5.36 0
 -1 -2 -12 1.14 4.88 0
 -1 -2 -11 21.13 5.33 0
 -1 -2 -10 30.52 5.49 0
 -1 -2 -3 566.32 11.22 0
 -1 -2 -2 12.02 2.51 0
 -1 -1 -15 15.8 8.4 0
 -1 -1 -14 106.88 12.76 0
 -1 -1 -12 13.46 5.59 0
 -1 -1 -11 35 6.12 0
 -1 -1 -7 71.34 5.48 0
 -1 -1 -5 82.57 4.96 0
 -1 -1 -4 930.31 13.71 0
 -1 -1 -3 60.21 3.82 0
 -1 -1 -2 249.62 5.88 0
 -1 0 -13 1.95 5.73 0
 -1 0 -12 15.14 5.92 0
 -1 0 -11 0.74 3.61 0
 -1 0 -10 134.37 9.42 0
 -1 0 -8 527.74 14.77 0
 -1 0 -5 2.68 2.28 0
 -1 0 -4 349.39 8.24 0
 -1 0 -3 1.48 1.85 0
 -1 0 -1 1564.12 9.75 0
 -1 1 -12 4.73 5.36 0
 -1 1 -11 45.51 7.18 0
 -1 1 -10 55.17 7.02 0
 -1 1 -8 329.33 12.27 0
 -1 1 -7 66.58 5.93 0
 -1 1 -5 81.39 4.94 0
 -1 1 -4 967.53 13.77 0
 -1 1 -3 61.5 3.88 0
 -1 1 -2 261.03 5.42 0
 -1 1 -1 1203.75 8.69 0
 -1 2 -7 179.47 8.89 0
 -1 2 -6 451.52 12.23 0
 0 -12 -3 19.91 7.01 0
 0 -12 -2 4.65 6.32 0
 0 -11 -6 31.23 7.44 0
 0 -11 -5 21.06 6.83 0
 0 -11 -4 -0.2 5.17 0
 0 -11 -3 47.34 8.21 0
 0 -10 -9 22.13 7.29 0
 0 -10 -8 26.6 7.65 0
 0 -10 -7 10.82 6.14 0
 0 -10 -6 6.33 5.93 0
 0 -10 -5 5.31 5.26 0
 0 -10 -4 212.85 13.2 0
 0 -10 -3 14.22 5.6 0
 0 -9 -10 0.89 4.97 0
 0 -9 -9 12.37 6.07 0
 0 -9 -8 60.7 8.68 0
 0 -9 -7 61.28 8.92 0
 0 -9 -6 17.65 6.48 0
 0 -9 -5 87.25 8.94 0
 0 -9 -4 5.46 5.12 0
 0 -8 -11 58.7 9.29 0
 0 -8 -9 30.49 7.46 0
 0 -8 -8 7.09 5.49 0
 0 -8 -7 4.41 4.65 0
 0 -8 -6 7.3 5.16 0
 0 -8 -5 17.44 5.61 0
 0 -7 -12 1.04 5.11 0
 0 -7 -11 10.35 6.04 0
 0 -7 -9 2.15 4.43 0
 0 -7 -8 98.53 9.54 0
 0 -7 -7 209.37 11.52 0
 0 -6 -13 4.38 5.77 0
 0 -6 -12 5.09 5.39 0
 0 -6 -11 56.72 8.68 0
 0 -6 -8 19.55 5.75 0
 0 -6 -7 65.9 6.81 0
 0 -6 -4 91.53 6.92 0
 0 -5 -13 44.62 8.81 0
 0 -5 -12 10.8 5.85 0
 0 -5 -11 3.22 4.74 0
 0 -5 -10 30.17 6.67 0
 0 -5 -9 27.7 5.77 0
 0 -5 -8 79.08 7.76 0
 0 -5 -6 115.26 7.89 0
 0 -5 -5 6.78 3.39 0
 0 -4 -15 30.65 8.25 0
 0 -4 -11 105.24 9.87 0
 0 -4 -9 1.32 4.04 0
 0 -4 -7 94.04 6.8 0
 0 -4 -6 3.64 2.81 0
 0 -4 -5 260.12 9.42 0
 0 -4 -4 43.16 4.83 0
 0 -4 -3 785.06 13.95 0
 0 -3 -15 45.93 9.31 0
 0 -3 -14 41.95 8.86 0
 0 -3 -13 21.14 6.78 0
 0 -3 -12 50.83 8.11 0
 0 -3 -10 50.39 6.77 0
 0 -3 -7 25.32 4.36 0
 0 -3 -6 19.2 3.58 0
 0 -3 -5 112.78 5.96 0
 0 -2 -15 76.73 11.71 0
 0 -2 -14 31.68 8.13 0
 0 -2 -12 49.3 7.68 0
 0 -2 -8 350.25 11.93 0
 0 -2 -7 273.43 9.96 0
 0 -2 -6 15.58 3.27 0
 0 -2 -5 482.03 10.91 0
 0 -2 -4 550.69 10.49 0
 0 -2 -3 833.75 11.92 0
 0 -2 -2 1999.08 15.98 0
 0 -1 -15 20.69 8.6 0
 0 -1 -14 54.01 10.05 0
 0 -1 -13 99.62 10.8 0
 0 -1 -10 32.3 5.59 0
 0 -1 -8 141.84 7.97 0
 0 -1 -7 197.11 8.26 0
 0 -1 -6 130.29 6.38 0
 0 -1 -4 238.55 6.8 0
 0 -1 -3 1058.03 11.7 0
 0 -1 -2 486.74 6.99 0
 0 0 -11 -2.18 3.84 0
 0 0 -8 1060.74 20.3 0
 0 0 -6 10.3 2.73 0
 0 0 -5 296.04 8.12 0
 0 0 -2 2949.76 15.02 0
 0 1 -8 126.44 7.74 0
 0 1 -5 519.24 11.2 0
 0 1 -3 1066.11 12.44 0
 1 -12 -3 3.41 4.84 0
 1 -12 -2 34.67 7.62 0
 1 -11 -7 5.54 4.97 0
 1 -11 -6 33.55 7.66 0
 1 -11 -5 16.24 6.14 0
 1 -11 -4 39.62 7.59 0
 1 -11 -3 77.38 9.41 0
 1 -11 -2 17.34 5.91 0
 1 -10 -9 27.46 7.01 0
 1 -10 -8 51.71 8.03 0
 1 -10 -7 11.78 5.8 0
 1 -10 -6 5.78 4.79 0
 1 -10 -5 19.08 6.41 0
 1 -10 -3 31.31 6.52 0
 1 -9 -10 15.44 5.88 0
 1 -9 -8 -1.53 4.15 0
 1 -9 -6 38.11 6.66 0
 1 -9 -5 20.26 5.89 0
 1 -9 -4 184.09 11.28 0
 1 -9 -3 0.94 3.91 0
 1 -8 -11 23.48 7 0
 1 -8 -10 4.07 4.75 0
 1 -8 -9 12.34 5.27 0
 1 -8 -8 39.14 7.11 0
 1 -8 -6 2.62 4.05 0
 1 -8 -5 25.05 5.25 0
 1 -8 -4 116.1 8.72 0
 1 -7 -13 3.43 4.91 0
 1 -7 -12 20.71 6.59 0
 1 -7 -11 92.53 9.22 0
 1 -7 -10 3.21 4.43 0
 1 -7 -9 50.52 7.16 0
 1 -7 -8 1.89 3.72 0
 1 -7 -7 47.77 6.72 0
 1 -7 -4 147.36 8.87 0
 1 -6 -14 21.76 6.8 0
 1 -6 -13 35.69 8.12 0
 1 -6 -12 23.97 6.74 0
 1 -6 -11 48.7 7.51 0
 1 -6 -10 31.16 6.87 0
 1 -6 -9 25.31 5.94 0
 1 -6 -8 12.63 4.21 0
 1 -6 -5 56.78 5.93 0
 1 -6 -4 67.79 6.1 0
 1 -5 -14 45.29 8.53 0
 1 -5 -13 10.98 5.8 0
 1 -5 -12 29.41 6.66 0
 1 -5 -11 16.31 5.21 0
 1 -5 -10 3.18 4.52 0
 1 -5 -9 130.51 9.14 0
 1 -5 -7 112.38 7.27 0
 1 -5 -4 403.28 11.04 0
 1 -5 -3 2.14 2.17 0
 1 -4 -15 12.86 7.02 0
 1 -4 -13 47.21 7.85 0
 1 -4 -12 5.5 4.81 0
 1 -4 -11 22.72 6.15 0
 1 -4 -10 22.86 5.57 0
 1 -4 -4 60.72 4.39 0
 1 -4 -3 421.63 9.61 0
 1 -3 -15 82.14 11.34 0
 1 -3 -14 93.6 11.19 0
 1 -3 -12 6.77 5.2 0
 1 -3 -11 12.91 5.01 0
 1 -3 -10 99.73 7.89 0
 1 -3 -8 119.23 7.2 0
 1 -3 -7 529.11 13.1 0
 1 -3 -6 670.11 13.57 0
 1 -3 -5 36.69 3.59 0
 1 -3 -4 596.68 10.83 0
 1 -3 -3 25.45 2.76 0
 1 -2 -15 21.68 7.14 0
 1 -2 -14 141.64 12 0
 1 -2 -13 15.4 5.9 0
 1 -2 -12 30.39 6.53 0
 1 -2 -11 8.38 4.2 0
 1 -2 -8 100.23 6.71 0
 1 -2 -7 52.68 4.68 0
 1 -2 -6 216.01 7.64 0
 1 -2 -5 164.26 6.21 0
 1 -2 -4 156.34 5.26 0
 1 -2 -3 513.03 8.17 0
 1 -2 -2 985.89 9.57 0
 1 -1 -13 2.72 6.08 0
 1 -1 -11 92.07 8.84 0
 1 -1 -9 14.74 4.14 0
 1 -1 -8 49.9 5.17 0
 1 -1 -7 360.27 10.52 0
 1 -1 -5 18.88 3.01 0
 1 -1 -4 2286.26 18.02 0
 1 -1 -3 1143.52 10.71 0
 1 -1 -2 21.9 1.67 0
 1 0 -9 84.84 7.37 0
 1 0 -8 6.1 3.16 0
 1 0 -7 -0.98 2.21 0
 1 0 -6 62.97 4.71 0
 1 0 -5 134.44 5.86 0
 1 0 -4 1477.49 15.08 0
 2 -11 -2 23.82 6 0
 2 -10 -7 26.49 5.97 0
 2 -10 -6 -0.29 3.72 0
 2 -10 -5 15.58 4.88 0
 2 -10 -4 3.58 4.17 0
 2 -10 -3 26.57 6.07 0
 2 -10 -2 12.27 4.9 0
 2 -9 -10 -1.24 4.51 0
 2 -9 -9 31.61 6.63 0
 2 -9 -8 20.99 5.72 0
 2 -9 -7 -0.24 3.62 0
 2 -9 -6 -1.87 3.29 0
 2 -9 -5 1.03 3.18 0
 2 -9 -4 66.66 6.96 0
 2 -8 -12 1.63 4.96 0
 2 -8 -10 61.26 7.84 0
 2 -8 -9 4.22 4.33 0
 2 -8 -8 96.83 8.05 0
 2 -8 -7 8.45 4.64 0
 2 -8 -6 17.52 4.9 0
 2 -7 -13 15.58 5.76 0
 2 -7 -12 29.12 6.47 0
 2 -7 -11 114.49 9.86 0
 2 -7 -10 1.45 3.96 0
 2 -7 -9 14.1 4.58 0
 2 -7 -8 59.77 6.52 0
 2 -7 -5 30.52 4.65 0
 2 -7 -4 173.21 8.29 0
 2 -6 -13 89.51 9.22 0
 2 -6 -12 1.05 4.24 0
 2 -6 -10 30.86 5.93 0
 2 -6 -9 98.19 8.05 0
 2 -6 -7 20.99 4.13 0
 2 -6 -6 19.46 4.04 0
 2 -6 -4 18.87 3.65 0
 2 -6 -3 110 6.04 0
 2 -5 -14 32.15 7.58 0
 2 -5 -13 47.8 7.97 0
 2 -5 -12 9.25 5.27 0
 2 -5 -11 200.64 11.29 0
 2 -5 -6 151.18 7.06 0
 2 -5 -5 116.63 5.91 0
 2 -5 -3 309.09 8.35 0
 2 -4 -15 0.95 5.21 0
 2 -4 -13 154.51 11.8 0
 2 -4 -12 -0.22 4.02 0
 2 -4 -11 37.1 6.48 0
 2 -4 -10 36.22 5.63 0
 2 -4 -8 112.61 7.17 0
 2 -4 -7 47.69 4.38 0
 2 -4 -6 203.46 7.63 0
 2 -4 -4 62.46 4.01 0
 2 -3 -14 54.28 9.44 0
 2 -3 -13 42.69 7.72 0
 2 -3 -12 26.54 6.18 0
 2 -3 -11 27.56 5.5 0
 2 -3 -9 7.36 3.51 0
 2 -3 -8 25.9 4.03 0
 2 -3 -6 164.41 6.37 0
 2 -3 -4 217.53 5.75 0
 2 -3 -2 116.47 3.45 0
 2 -2 -12 7.2 4.58 0
 2 -2 -11 10.03 4.51 0
 2 -2 -9 59.36 5.78 0
 2 -2 -7 148.87 6.71 0
 2 -2 -6 229.5 7.43 0
 2 -2 -4 310.46 6.33 0
 2 -2 -3 110.01 3.19 0
 2 -2 -2 323.01 3.81 0
 2 -1 -11 21.08 5.4 0
 2 -1 -8 148.49 7.73 0
 2 -1 -7 352.4 10.31 0
 2 -1 -6 83.24 5.01 0
 2 -1 -5 44.23 3.39 0
 2 -1 -4 98.83 3.87 0
 2 -1 -3 214.1 4.41 0
 3 -8 -4 15.87 3.64 0
 3 -8 -3 22.87 3.94 0
 3 -8 -2 48.45 4.65 0
 3 -7 -7 2.98 2.8 0
 3 -7 -6 80.49 5.47 0
 3 -7 -5 20.32 3.53 0
 3 -7 -4 34.34 3.83 0
 3 -7 -3 156.01 6.62 0
 3 -6 -11 140.64 9.22 0
 3 -6 -10 7.43 3.91 0
 3 -6 -8 128.37 7.1 0
 3 -6 -7 38.99 4.17 0
 3 -6 -6 24.9 3.61 0
 3 -6 -4 4.93 1.97 0
 3 -6 -2 71.02 4.1 0
 3 -5 -12 0.68 3.59 0
 3 -5 -10 14.79 3.96 0
 3 -5 -8 -0.74 2.65 0
 3 -5 -7 19.91 3.35 0
 3 -5 -6 43.25 3.87 0
 3 -5 -5 148.76 5.55 0
 3 -5 -4 75.8 3.84 0
 3 -5 -3 165.11 4.99 0
 3 -5 -2 21.35 2.2 0
 3 -4 -13 18.35 5.75 0
 3 -4 -12 83.62 8.43 0
 3 -4 -11 35.41 6.02 0
 3 -4 -9 47.65 5.63 0
 3 -4 -8 53.4 4.92 0
 3 -4 -7 19.5 3.38 0
 3 -4 -6 89.85 4.66 0
 3 -4 -5 194.29 5.62 0
 3 -4 -4 63.29 2.97 0
 3 -4 -3 247.92 4.64 0
 3 -4 -2 71.3 2.37 0
 3 -3 -12 92.83 8.66 0
 3 -3 -11 13.87 4.39 0
 3 -3 -9 5.36 3.68 0
 3 -3 -7 122.81 5.84 0
 3 -3 -6 222.75 6.57 0
 3 -3 -5 474.73 8.06 0
 3 -3 -4 742.04 8.05 0
 3 -3 -3 51.87 1.51 0
 3 -2 -8 120.34 6.56 0
 3 -2 -7 155.01 6.61 0
 3 -2 -6 15.77 2.7 0
 -7 5 1 43.57 6.41 0
 -7 6 -2 -0.22 3.35 0
 -7 6 -1 34.54 6.15 0
 -7 6 0 108.22 9.03 0
 -7 7 -1 5.28 5.65 0
 -7 7 0 2.73 4.69 0
 -6 4 -4 18.87 4.5 0
 -6 4 -3 65.09 6.33 0
 -6 4 -1 -0.08 2.74 0
 -6 4 0 21.48 4.1 0
 -6 4 1 34.74 5.21 0
 -6 4 2 8.83 3.71 0
 -6 5 -7 90.81 8.61 0
 -6 5 -6 13.3 4.74 0
 -6 5 -5 22.67 5.54 0
 -6 5 -4 94 8.3 0
 -6 5 -3 71.24 7.06 0
 -6 5 -2 17.04 5.06 0
 -6 5 -1 33.58 5.63 0
 -6 5 0 126.53 8.6 0
 -6 5 1 15.15 4.62 0
 -6 5 2 9.37 4.58 0
 -6 6 -7 -0.9 4.32 0
 -6 6 -6 11.09 5.26 0
 -6 6 -5 9.56 4.73 0
 -6 6 -4 9.34 4.88 0
 -6 6 -3 6.46 4.49 0
 -6 6 -1 4.97 4.18 0
 -6 6 0 23 5.57 0
 -6 6 1 94.39 8.74 0
 -6 7 -5 30.86 6.84 0
 -6 7 -4 12.41 5.71 0
 -6 7 -2 5.21 4.88 0
 -6 7 -1 43.62 7.09 0
 -6 7 0 28.06 6.43 0
 -6 7 1 30.7 6.89 0
 -6 7 2 21.66 6.22 0
 -6 7 3 27.1 6.35 0
 -6 8 -3 12.27 6.74 0
 -6 8 -2 27.44 7.64 0
 -6 8 -1 20.28 7.12 0
 -6 8 0 10.19 5.49 0
 -6 8 1 4.78 6.06 0
 -6 8 3 16.43 6.19 0
 -5 0 -1 148.46 4.46 0
 -5 1 -4 16.01 2.72 0
 -5 1 -2 414.32 9.18 0
 -5 1 -1 22.67 2.85 0
 -5 1 0 193.63 6.2 0
 -5 1 1 10.61 2.22 0
 -5 2 -4 28.59 3.84 0
 -5 2 -2 20.76 3.25 0
 -5 2 -1 75.34 4.63 0
 -5 2 0 97.38 5.43 0
 -5 2 1 32.93 3.77 0
 -5 2 2 149.45 6.7 0
 -5 3 -9 112.84 8.21 0
 -5 3 -8 60.54 6.79 0
 -5 3 -7 41.94 5.92 0
 -5 3 -6 90.21 7.19 0
 -5 3 -2 140.69 7.28 0
 -5 3 -1 102.86 6.05 0
 -5 3 0 249.8 9.16 0
 -5 3 1 20.24 3.53 0
 -5 3 2 17.28 3.53 0
 -5 4 -10 11.17 5.05 0
 -5 4 -9 0.51 4.15 0
 -5 4 -8 35.87 6.61 0
 -5 4 -5 24.36 4.91 0
 -5 4 -4 105.39 7.92 0
 -5 4 -3 3.93 3.51 0
 -5 5 -9 37.52 7 0
 -5 5 -8 19.9 5.8 0
 -5 5 -6 19.73 5.62 0
 -5 5 -5 48.96 6.82 0
 -5 5 -4 7.19 4.6 0
 -5 5 -3 82.92 7.34 0
 -5 5 -2 41.49 6.01 0
 -5 5 -1 45.37 5.9 0
 -5 5 0 59.09 5.96 0
 -5 5 1 120.54 7.88 0
 -5 5 2 20.1 4.56 0
 -5 5 3 10.6 4.29 0
 -5 6 -9 15.78 6.19 0
 -5 6 -8 16.58 6.33 0
 -5 6 -6 1.73 4.45 0
 -5 6 -4 25.2 6.04 0
 -5 6 -3 44.56 6.34 0
 -5 6 -2 7.16 4.24 0
 -5 6 -1 26.7 5.23 0
 -5 6 0 112.46 8.87 0
 -5 6 1 56.06 6.69 0
 -5 6 2 11.3 4.32 0
 -5 6 3 40.46 6.23 0
 -5 7 -8 35.55 8.37 0
 -5 7 -6 96.67 9.51 0
 -5 7 -4 15.81 5.68 0
 -5 7 -3 46.27 7.33 0
 -5 7 -2 29.09 6.02 0
 -5 7 1 72.77 7.64 0
 -5 7 2 67.23 8.07 0
 -5 7 4 7.88 5.26 0
 -5 8 -6 9.35 5.94 0
 -5 8 -5 22.03 7.11 0
 -5 8 -4 7.99 5.27 0
 -5 8 -3 4.07 4.85 0
 -5 8 -2 12.07 5.34 0
 -5 8 -1 32.05 7.38 0
 -5 8 0 25.76 6.22 0
 -5 8 1 35.51 6.58 0
 -5 8 3 50.68 8.33 0
 -5 8 4 43.11 7.27 0
 -5 9 -4 -0.2 4.87 0
 -5 9 -3 36.39 8.55 0
 -5 9 -2 0.01 6.02 0
 -5 9 -1 85.76 9.55 0
 -5 9 0 12.89 5.9 0
 -5 9 1 8.06 5.41 0
 -5 9 3 19.49 6.7 0
 -5 10 0 41.47 8.72 0
 -5 10 1 52.82 8.42 0
 -5 10 2 23.46 7.88 0
 -5 10 3 25.75 7.24 0
 -4 -1 -5 48.19 3.19 0
 -4 -1 -4 346.54 6.85 0
 -4 -1 -2 282 4.48 0
 -4 -1 -1 1228.92 8 0
 -4 0 -6 149.24 6.4 0
 -4 0 -5 0.48 1.45 0
 -4 0 -4 11.75 2.17 0
 -4 0 -3 73.66 3.67 0
 -4 0 0 38.73 2.39 0
 -4 1 -11 17.63 4.68 0
 -4 1 -10 22.55 5.05 0
 -4 1 -9 82.21 6.8 0
 -4 1 -7 20.33 4.08 0
 -4 1 -6 183.62 7.77 0
 -4 1 -5 45.18 4.13 0
 -4 1 -4 354.55 9.17 0
 -4 1 -3 220.33 7.04 0
 -4 1 -2 292.92 7.57 0
 -4 1 -1 1206.19 14.27 0
 -4 1 1 34.8 2.97 0
 -4 2 -12 4.32 4.31 0
 -4 2 -11 11.24 4.93 0
 -4 2 -10 23.18 5.13 0
 -4 2 -9 26.84 5.1 0
 -4 2 -4 194.25 7.91 0
 -4 2 -3 16.15 3.34 0
 -4 2 -2 56.86 4.36 0
 -4 2 0 93.47 5.03 0
 -4 2 1 53.61 3.9 0
 -4 2 2 7.14 2.44 0
 -4 3 -11 30.13 6.41 0
 -4 3 -9 19.23 5.43 0
 -4 3 -8 32.84 5.42 0
 -4 3 -7 19.41 4.34 0
 -4 3 -4 278.63 10.14 0
 -4 3 -3 224.52 8.94 0
 -4 3 -1 378.08 10.42 0
 -4 3 0 25.94 3.89 0
 -4 3 1 284.79 8.95 0
 -4 3 2 127.79 6.59 0
 -4 3 3 8.55 2.94 0
 -4 4 -12 9.52 5.62 0
 -4 4 -11 -1.93 4.45 0
 -4 4 -10 20.85 6.08 0
 -4 4 -8 13.83 5.56 0
 -4 4 -7 24.65 5.76 0
 -4 4 -6 49.07 5.99 0
 -4 4 -5 7.27 3.59 0
 -4 4 -2 11.33 3.38 0
 -4 4 -1 27.4 4.21 0
 -4 4 0 183.98 8.12 0
 -4 4 1 1.43 3.07 0
 -4 4 2 10.53 3.17 0
 -4 5 -10 11.6 5.59 0
 -4 5 -9 18.66 5.64 0
 -4 5 -8 52.65 7.66 0
 -4 5 -7 16.11 4.95 0
 -4 5 -6 6.08 4.7 0
 -4 5 -5 17.76 5.3 0
 -4 5 -4 143.9 8.72 0
 -4 6 -10 9.74 5.61 0
 -4 6 -8 34.7 6.81 0
 -4 6 -7 50.97 7.38 0
 -4 6 -5 0.63 3.7 0
 -4 6 -4 17.31 4.78 0
 -4 6 -3 -0.63 3.33 0
 -4 6 -1 -3.42 2.86 0
 -4 6 0 176 9.79 0
 -4 6 1 10.52 3.73 0
 -4 6 2 17.54 4.35 0
 -4 6 3 13.9 4.13 0
 -4 6 4 29.81 5.28 0
 -4 7 -9 1.4 5.35 0
 -4 7 -8 14.16 5.98 0
 -4 7 -7 32.48 6.89 0
 -4 7 -6 3.95 4.58 0
 -4 7 -2 36.13 6.67 0
 -4 7 -1 0.42 3.59 0
 -4 7 0 68.72 7.24 0
 -4 7 2 65.69 6.88 0
 -4 7 3 11.99 4.41 0
 -4 7 4 1.99 3.76 0
 -4 8 -8 42.31 7.9 0
 -4 8 -7 11.26 6.71 0
 -4 8 -6 50.22 8.99 0
 -4 8 -5 32.75 6.8 0
 -4 8 -4 67.26 8.56 0
 -4 8 -3 4.12 4.36 0
 -4 8 -2 14.59 5.4 0
 -4 8 -1 30.42 6.08 0
 -4 8 0 138.8 10.13 0
 -4 8 1 -1.92 4 0
 -4 8 2 48.69 6.81 0
 -4 8 3 35.66 6.36 0
 -4 8 4 36.84 6.97 0
 -4 9 -6 37.62 8.02 0
 -4 9 -5 84.43 10.2 0
 -4 9 -4 8.84 5.56 0
 -4 9 -2 17.05 6.18 0
 -4 9 -1 38.68 6.97 0
 -4 9 0 119.34 10.65 0
 -4 9 1 5.2 5.48 0
 -4 9 2 161.54 11.04 0
 -4 9 3 43.99 7.12 0
 -4 9 4 -1.98 4.87 0
 -4 10 -4 30.66 7.14 0
 -4 10 -3 46.94 8.83 0
 -4 10 -2 4.88 6.27 0
 -4 10 -1 9 5.69 0
 -4 10 0 4.11 5.44 0
 -4 10 2 40.44 7.45 0
 -4 10 3 7.93 5.25 0
 -3 -2 -3 126 3.03 0
 -3 -1 -3 144.91 3.95 0
 -3 -1 -2 76.86 2.42 0
 -3 -1 -1 5.09 0.7 0
 -3 0 -3 20.32 2.38 0
 -3 0 -2 62.86 2.92 0
 -3 0 -1 562.31 7.33 0
 -3 0 0 511.98 6.75 0
 -3 0 1 476.9 6.86 0
 -3 1 -5 4.79 2.3 0
 -3 1 -4 262.22 7.62 0
 -3 1 -1 4.29 1.65 0
 -3 1 0 389.86 7.34 0
 -3 1 1 116.5 4.19 0
 -3 1 2 231.17 6.05 0
 -3 2 -14 54.8 8.29 0
 -3 2 -13 -1.49 4.5 0
 -3 2 -12 27.3 6.6 0
 -3 2 -9 33.13 5.48 0
 -3 2 -6 34.71 4.33 0
 -3 2 -4 68.55 5.07 0
 -3 2 -3 120.52 5.75 0
 -3 3 -13 13.68 5.89 0
 -3 3 -12 13.48 5.71 0
 -3 3 -11 3.89 4.54 0
 -3 3 -10 10.88 4.5 0
 -3 3 -9 10.63 4.51 0
 -3 3 -8 23.62 4.72 0
 -3 3 -5 11.24 3.72 0
 -3 3 -4 271.93 9.21 0
 -3 3 -3 83.83 5.47 0
 -3 3 1 3.8 2.09 0
 -3 3 2 15.72 2.78 0
 -3 3 3 50.83 4.42 0
 -3 4 -13 36.71 7.77 0
 -3 4 -12 8.99 5.96 0
 -3 4 -11 25.27 6.41 0
 -3 4 -4 12.62 3.54 0
 -3 4 -3 162.11 7.76 0
 -3 4 -1 22.78 4.01 0
 -3 4 0 51.91 4.89 0
 -3 4 1 23.99 3.57 0
 -3 4 2 72.37 4.96 0
 -3 4 3 250.47 8.96 0
 -3 5 -12 6.12 6.5 0
 -3 5 -11 -0.76 5.16 0
 -3 5 -10 72.17 8.72 0
 -3 5 -8 34.6 6.08 0
 -3 5 -7 94.03 7.92 0
 -3 5 -6 83.22 7.76 0
 -3 5 -5 49.8 6.22 0
 -3 5 -1 16.88 3.7 0
 -3 5 0 310.28 10.42 0
 -3 5 1 416.76 12.03 0
 -3 6 -12 24.44 7.18 0
 -3 6 -11 16.11 6.32 0
 -3 6 -8 96.99 8.97 0
 -3 6 -6 76.53 7.33 0
 -3 6 -5 1.17 3.42 0
 -3 6 -3 27 5.27 0
 -3 6 -2 33.44 4.9 0
 -3 6 4 8.23 3.21 0
 -3 7 -11 6.81 6.51 0
 -3 7 -10 19.64 6.31 0
 -3 7 -9 -0.36 4.48 0
 -3 7 -7 19.54 5.8 0
 -3 7 -6 4.41 4.45 0
 -3 7 -4 44.64 6.58 0
 -3 7 -3 55.66 6.56 0
 -3 7 -2 10.59 3.85 0
 -3 7 -1 12.15 3.98 0
 -3 7 0 352.48 12.96 0
 -3 7 1 191.1 9.77 0
 -3 7 2 25.69 5.04 0
 -3 7 3 157.41 9.08 0
 -3 7 4 33.74 5.47 0
 -3 8 -10 62.57 10.01 0
 -3 8 -9 6.29 6.86 0
 -3 8 -6 21.13 6.15 0
 -3 8 -5 17.96 6.07 0
 -3 8 -4 30.44 6.67 0
 -3 8 -2 35.13 6.58 0
 -3 8 -1 20.5 4.93 0
 -3 8 0 43.64 6.45 0
 -3 8 1 2.79 3.43 0
 -3 8 2 55.4 6.17 0
 -3 8 3 25.72 5.4 0
 -3 9 -8 12.2 6.85 0
 -3 9 -7 32.24 7.61 0
 -3 9 -6 -1.6 4.9 0
 -3 9 -4 62.86 8.67 0
 -3 9 -3 1.9 4.87 0
 -3 9 -2 15.33 5.24 0
 -3 9 -1 3.75 4.54 0
 -3 9 0 29.62 6.01 0
 -3 9 2 15.22 4.91 0
 -3 9 3 77.71 8.58 0
 -3 10 -4 8.28 6.32 0
 -3 10 -3 4.26 5.35 0
 -3 10 -2 0.28 5.71 0
 -3 10 -1 16.48 5.87 0
 -3 10 0 11.95 5.63 0
 -3 10 1 38.5 7.02 0
 -3 10 2 41.46 7.35 0
 -3 10 3 54.37 8.43 0
 -3 10 4 19.1 6.38 0
 -3 11 -3 62.63 9.19 0
 -3 11 -2 2.72 5.37 0
 -3 11 -1 6.8 6.52 0
 -3 11 0 26.89 6.86 0
 -3 11 1 13.08 6.1 0
 -3 11 2 1.96 4.72 0
 -2 0 -2 29.89 1.97 0
 -2 0 -1 277.53 4.47 0
 -2 0 0 238.6 3.92 0
 -2 0 1 361.85 5.08 0
 -2 1 -2 493.48 8.04 0
 -2 1 1 295.62 5.87 0
 -2 1 2 28.99 2.49 0
 -2 2 -2 218.64 6.3 0
 -2 2 -1 133.92 4.87 0
 -2 2 0 803.08 11.01 0
 -2 2 1 469.5 8.42 0
 -2 2 2 322.63 7.23 0
 -2 2 3 108.15 4.66 0
 -2 3 -6 12 3.27 0
 -2 3 -4 306.26 9.13 0
 -2 3 0 335.16 8.17 0
 -2 3 1 992.68 13.81 0
 -2 4 -14 58.51 9.24 0
 -2 4 -13 -4.27 5.06 0
 -2 4 -12 25.37 6.41 0
 -2 4 -11 27.43 6.91 0
 -2 4 -10 46.13 6.82 0
 -2 4 -9 46.13 6.39 0
 -2 4 -8 14.72 4.3 0
 -2 4 -5 8.72 3.35 0
 -2 4 -4 190.71 8.04 0
 -2 4 -3 174.72 7.33 0
 -2 5 -13 20.13 6.85 0
 -2 5 -11 5.22 6.08 0
 -2 5 -10 47.81 7.29 0
 -2 5 -9 36.98 6.64 0
 -2 5 -8 24.21 5.15 0
 -2 5 -6 11.49 3.59 0
 -2 5 -4 17.73 3.79 0
 -2 5 -3 13.14 3.23 0
 -2 5 -2 15.48 3.3 0
 -2 5 -1 504.07 12.54 0
 -2 5 3 302.83 9.91 0
 -2 5 4 12.11 2.95 0
 -2 6 -12 25.12 7.38 0
 -2 6 -9 21.74 5.41 0
 -2 6 -8 8.91 4.22 0
 -2 6 -7 78.31 7.13 0
 -2 6 -6 104.73 8.39 0
 -2 6 1 181.76 8.51 0
 -2 6 2 7.97 2.95 0
 -2 7 -12 51.53 9.05 0
 -2 7 -10 49.52 8.07 0
 -2 7 -9 20.07 5.72 0
 -2 7 -8 18.06 6.09 0
 -2 7 -7 2.09 3.81 0
 -2 7 -6 10.81 5 0
 -2 7 -4 282.89 12.13 0
 -2 7 -3 19.25 4.38 0
 -2 7 -2 22.97 4.58 0
 -2 7 -1 115.85 7.36 0
 -2 7 2 11.52 3.81 0
 -2 7 3 96.12 7.44 0
 -2 8 -11 8.76 6.56 0
 -2 8 -10 48.23 8.25 0
 -2 8 -9 22.28 6.34 0
 -2 8 -7 18.07 5.89 0
 -2 8 -6 38.96 7.14 0
 -2 8 -5 47.96 7.36 0
 -2 8 -4 12.29 5.01 0
 -2 8 -3 24.46 5.55 0
 -2 8 -2 26.32 5.55 0
 -2 8 -1 4.94 3.68 0
 -2 8 0 143.02 9.08 0
 -2 8 1 -0.28 3.13 0
 -2 8 2 64.79 6.53 0
 -2 8 3 134.25 8.88 0
 -2 8 4 7.91 4.41 0
 -2 9 -9 14.25 6.35 0
 -2 9 -8 10.4 6.65 0
 -2 9 -6 13.36 6.21 0
 -2 9 -5 0.44 4.13 0
 -2 9 -4 98.13 9.15 0
 -2 9 -2 22.88 6.25 0
 -2 9 -1 23.7 5.37 0
 -2 9 1 3.69 4.09 0
 -2 9 2 -0.12 3.63 0
 -2 9 3 4.75 4.37 0
 -2 9 4 53.9 7.47 0
 -2 10 -8 22.38 7.94 0
 -2 10 -7 35.84 8 0
 -2 10 -6 30.41 7.69 0
 -2 10 -5 -0.35 4.87 0
 -2 10 -4 6.66 5.21 0
 -2 10 -3 12.02 5.26 0
 -2 10 -2 8.31 5.79 0
 -2 10 -1 6.57 5.26 0
 -2 10 0 24.56 6.13 0
 -2 10 2 7.19 4.69 0
 -2 10 3 29.01 6.97 0
 -2 10 4 2.64 5.23 0
 -2 11 -5 3.84 6.62 0
 -2 11 -4 16.4 6.73 0
 -2 11 -3 36.68 7.96 0
 -2 11 -2 11.06 6.38 0
 -2 11 -1 15.19 6.18 0
 -2 11 0 5.91 5.01 0
 -2 11 1 8.04 5.56 0
 -2 11 2 24.28 7.29 0
 -2 11 3 -0.4 4.48 0
 -1 1 -1 1217.29 9.88 0
 -1 1 0 5216.39 19 0
 -1 1 1 443.25 5.92 0
 -1 2 -2 15.23 2.35 0
 -1 2 -1 1179.24 11.92 0
 -1 2 0 2093.08 15.33 0
 -1 2 1 2007.67 14.76 0
 -1 2 2 955.97 10.79 0
 -1 3 -3 68.54 4.24 0
 -1 3 -2 94.89 4.67 0
 -1 3 -1 397.08 8.31 0
 -1 3 0 285.89 6.9 0
 -1 3 1 372.68 7.97 0
 -1 3 2 339.89 7.6 0
 -1 3 3 30.61 3.01 0
 -1 4 -6 91.33 6.48 0
 -1 4 -5 170.19 7.74 0
 -1 4 -1 496.13 10.46 0
 -1 4 0 164.94 6.36 0
 -1 4 1 1359.78 16.35 0
 -1 4 3 431.86 9.77 0
 -1 5 -14 9.57 6.22 0
 -1 5 -13 23.5 6.9 0
 -1 5 -12 17.42 6.83 0
 -1 5 -11 4.44 4.96 0
 -1 5 -9 37.46 6.13 0
 -1 5 -4 440.74 12.07 0
 -1 5 -3 2.6 2.2 0
 -1 5 -2 66.13 5.22 0
 -1 5 -1 75.9 4.99 0
 -1 5 0 38.13 3.71 0
 -1 5 1 85.98 5.05 0
 -1 5 2 252.84 8.2 0
 -1 5 3 2.29 2.26 0
 -1 6 -12 28.25 7.23 0
 -1 6 -11 103.04 10.09 0
 -1 6 -10 47.3 7.39 0
 -1 6 -9 30.79 5.82 0
 -1 6 -8 20.38 5.21 0
 -1 6 -7 242.87 11.37 0
 -1 6 -3 95.56 6.44 0
 -1 6 -2 124.21 7.2 0
 -1 6 0 12.81 3.07 0
 -1 6 1 65.84 5.06 0
 -1 6 3 241.23 9.08 0
 -1 7 -12 4.13 5.77 0
 -1 7 -11 8.48 5.86 0
 -1 7 -10 39.13 7.15 0
 -1 7 -9 94.49 8.93 0
 -1 7 -7 6.54 4.03 0
 -1 7 -6 68.6 7.54 0
 -1 7 -5 35.14 5.37 0
 -1 7 -4 88.1 7.45 0
 -1 8 -11 6.45 6.42 0
 -1 8 -10 33.28 7.51 0
 -1 8 -8 -2.7 4.1 0
 -1 8 -7 254.24 13.01 0
 -1 8 -6 -0.96 4.05 0
 -1 8 -5 128.94 9.7 0
 -1 8 -2 60.3 6.64 0
 -1 8 -1 53.64 5.95 0
 -1 8 0 81.45 7.13 0
 -1 8 1 100.34 7.6 0
 -1 8 3 122.06 7.85 0
 -1 8 4 115.43 7.71 0
 -1 9 -10 12.93 6.47 0
 -1 9 -9 36.37 7.53 0
 -1 9 -8 11.36 6.06 0
 -1 9 -5 4.85 4.83 0
 -1 9 -4 91.78 8.39 0
 -1 9 -3 34.7 5.92 0
 -1 9 -2 10.59 4.34 0
 -1 9 -1 7.57 4.14 0
 -1 9 0 32.59 5.57 0
 -1 9 1 5.82 4.07 0
 -1 9 2 2 3.49 0
 -1 9 3 10.44 4.64 0
 -1 10 -8 8.75 5.84 0
 -1 10 -7 28.86 7.24 0
 -1 10 -6 7.76 5.31 0
 -1 10 -5 46.9 7.78 0
 -1 10 -4 44.31 7.21 0
 -1 10 -2 65.29 8.44 0
 -1 10 -1 12.65 4.79 0
 -1 10 0 92.11 8.75 0
 -1 10 1 2.49 4.87 0
 -1 10 2 55.9 7.53 0
 -1 10 3 37.3 6.26 0
 -1 11 -6 9.4 6.12 0
 -1 11 -5 36.49 7.06 0
 -1 11 -4 10.43 5.19 0
 -1 11 -3 20.47 6.38 0
 -1 11 -2 0.99 4.47 0
 -1 11 -1 2.1 4.55 0
 -1 11 0 32.06 6.84 0
 -1 11 1 9.12 4.95 0
 -1 11 2 13.21 6.06 0
 -1 12 -2 46.76 8.54 0
 -1 12 -1 -1.05 4.63 0
 -1 12 0 4.99 4.92 0
 -1 12 1 5.45 5.83 0
 0 1 1 482.62 4.7 0
 0 2 -1 192.54 4.5 0
 0 2 0 9810.63 27.37 0
 0 2 1 195.32 4.21 0
 0 2 2 2026.27 13.68 0
 0 3 -2 783.17 10.87 0
 0 3 -1 566.3 8.79 0
 0 3 1 558.27 8.26 0
 0 3 2 787.71 10.08 0
 0 4 -4 55.23 4.22 0
 0 4 -3 795.3 13.22 0
 0 4 -2 447.4 9.46 0
 0 4 -1 373.67 8.35 0
 0 4 0 568.22 10 0
 0 4 1 375.61 7.99 0
 0 4 3 800.88 12.12 0
 0 5 -5 2.02 2.72 0
 0 5 -4 59.88 5.17 0
 0 5 -3 38.26 4.07 0
 0 5 -1 162.7 6.32 0
 0 5 1 160.03 6.19 0
 0 5 2 18.05 2.78 0
 0 5 3 40.97 3.53 0
 0 6 -13 8.78 6.34 0
 0 6 -12 6.28 5.21 0
 0 6 -11 69.77 8.29 0
 0 6 -10 135.54 10.41 0
 0 6 -8 27.74 5.49 0
 0 6 -4 83.88 6.13 0
 0 6 -3 270.16 9.44 0
 0 6 -2 54.54 5.16 0
 0 6 -1 485.75 11.69 0
 0 6 0 36.69 4.28 0
 0 6 1 483.9 11.35 0
 0 6 2 52.5 4.51 0
 0 6 3 264.82 8.64 0
 0 7 -13 11.06 6.49 0
 0 7 -12 1.67 5.85 0
 0 7 -11 7.96 5.41 0
 0 7 -9 -2.44 4.32 0
 0 7 -8 100.69 8.46 0
 0 7 -6 79.74 7.47 0
 0 7 -5 23.13 4.57 0
 0 7 -2 24.12 4.21 0
 0 7 2 20.65 4 0
 0 7 3 67.79 5.33 0
 0 8 -12 43.82 9.14 0
 0 8 -11 60.76 9.09 0
 0 8 -10 26.7 7.3 0
 0 8 -9 29.48 7.27 0
 0 8 -8 8.92 4.95 0
 0 8 -7 0.45 4.17 0
 0 8 -6 10.75 4.6 0
 0 8 -5 21.52 5.34 0
 0 8 -4 194.22 10.39 0
 0 9 -10 -2.97 5.19 0
 0 9 -9 12.09 6.93 0
 0 9 -8 69.29 9.24 0
 0 9 -6 20.59 5.56 0
 0 9 -5 74.8 8.15 0
 0 9 -4 0.31 3.57 0
 0 9 -3 162.5 10.05 0
 0 9 -2 6.95 3.92 0
 0 9 -1 61.39 6.74 0
 0 9 1 53.19 6.3 0
 0 9 2 6.76 4.07 0
 0 9 3 168.35 9.19 0
 0 10 -9 22.74 7.66 0
 0 10 -8 33.12 7.37 0
 0 10 -7 12.6 6.1 0
 0 10 -6 12.51 5.55 0
 0 10 -5 4.77 4.61 0
 0 10 -4 197.7 11.71 0
 0 10 -3 11.67 5.38 0
 0 10 -2 8.42 4.3 0
 0 10 0 143.25 8.97 0
 0 10 1 44.05 6.47 0
 0 10 2 7.13 4.2 0
 0 10 3 18.66 4.82 0
 0 11 -7 8.99 5.98 0
 0 11 -5 13.37 6.14 0
 0 11 -4 0.65 4.21 0
 0 11 -3 42.09 7.3 0
 0 11 -1 2.79 4.26 0
 0 11 1 3.65 4.09 0
 0 11 2 73.71 8 0
 0 12 -3 21.83 5.59 0
 0 12 -2 10.11 5.36 0
 0 12 0 113.8 9.58 0
 0 12 1 33.95 6.21 0
 0 12 2 4.82 4.34 0
 1 2 -1 1980.96 11.29 0
 1 2 0 2078.59 9.43 0
 1 2 1 1121.85 7.09 0
 1 3 -2 349.44 6.77 0
 1 3 -1 355.41 6.09 0
 1 3 0 286.95 5.18 0
 1 3 1 404.03 5.79 0
 1 4 -3 421.92 8.95 0
 1 4 -1 1363.16 13.86 0
 1 4 1 510.68 7.87 0
 1 4 2 68.93 3.34 0
 1 5 -5 16.72 3.66 0
 1 5 -3 1.64 2.03 0
 1 5 -2 261.65 7.57 0
 1 5 -1 93.69 4.46 0
 1 5 0 37.96 3.14 0
 1 5 1 71.08 3.7 0
 1 5 2 68.91 3.88 0
 1 6 -14 22.16 7.5 0
 1 6 -13 37.39 8.66 0
 1 6 -10 25 6.07 0
 1 6 -9 30.2 5.86 0
 1 6 -8 15.27 4.78 0
 1 6 -7 98.51 7.74 0
 1 6 -4 73 5.26 0
 1 6 -3 227.75 8.11 0
 1 6 -1 70.83 4.83 0
 1 6 0 9.33 2.7 0
 1 6 2 122.16 5.5 0
 1 7 -13 3.88 5.78 0
 1 7 -12 24.24 6.86 0
 1 7 -11 84.65 9.78 0
 1 7 -10 8.41 4.91 0
 1 7 -9 47.94 6.87 0
 1 7 -8 6.26 4.77 0
 1 7 -7 44.55 6.16 0
 1 7 -6 42.81 5.58 0
 1 7 -2 45.15 4.51 0
 1 7 -1 9.91 3.05 0
 1 7 1 74.39 4.85 0
 1 7 2 5.79 2.42 0
 1 8 -12 16.8 6.88 0
 1 8 -11 23.49 6.78 0
 1 8 -10 14.71 6.95 0
 1 8 -9 14.76 5.36 0
 1 8 -6 1.71 3.69 0
 1 8 -5 22.33 5.17 0
 1 8 -4 101.58 7.33 0
 1 8 0 78.39 5.69 0
 1 8 1 52.74 5.19 0
 1 8 2 65.53 5.52 0
 1 9 -10 10.42 5.55 0
 1 9 -9 2.78 4.88 0
 1 9 -8 0.11 4.46 0
 1 9 -7 137.24 10.28 0
 1 9 -6 39.98 6.82 0
 1 9 -5 15.91 4.82 0
 1 9 -4 195.33 10.44 0
 1 9 -3 5.1 3.92 0
 1 9 -2 4.73 3.21 0
 1 9 -1 3.79 2.9 0
 1 9 0 28.33 4.8 0
 1 9 1 7.27 3.69 0
 1 9 2 9.29 3.88 0
 1 10 -9 46.39 8.01 0
 1 10 -8 51.13 7.84 0
 1 10 -7 15.05 5.44 0
 1 10 -6 9.44 4.83 0
 1 10 -5 17.13 5.43 0
 1 10 -4 18.49 5.46 0
 1 10 -3 35.34 5.57 0
 1 10 -1 -0.94 3.31 0
 1 10 0 98.55 7.42 0
 1 10 1 13.92 4.06 0
 1 10 2 54.42 5.83 0
 1 11 -6 23.81 6.25 0
 1 11 -5 13.24 5.36 0
 1 11 -4 45.91 7.04 0
 1 11 -3 78.91 7.94 0
 1 11 -2 7.25 4.35 0
 1 11 -1 5.3 4.25 0
 1 11 0 37.52 5.56 0
 1 11 1 1.75 3.95 0
 1 12 -3 7.68 4.53 0
 2 3 -1 997.13 8 0
 2 4 -3 18.76 2.52 0
 2 4 -2 170.05 4.87 0
 2 4 -1 52.14 2.62 0
 2 4 0 713.65 7.43 0
 2 4 1 21.02 1.63 0
 2 5 -5 119.36 6.48 0
 2 5 -4 13.64 2.7 0
 2 5 -3 314.5 8.01 0
 2 5 -2 115.5 4.74 0
 2 5 -1 354.22 7.17 0
 2 5 0 148.98 4.36 0
 2 5 1 505.83 7.52 0
 2 6 -8 130.97 8.93 0
 2 6 -5 7.99 2.84 0
 2 6 -4 20.1 3.2 0
 2 6 -3 98.14 5.41 0
 2 6 -2 5.06 2.29 0
 2 6 -1 185.31 5.97 0
 2 6 0 386.47 7.96 0
 2 6 1 68.98 3.63 0
 2 7 -12 21.5 6.5 0
 2 7 -11 112.23 9.69 0
 2 7 -10 7.2 5.49 0
 2 7 -9 14.19 4.79 0
 2 7 -8 66.12 7.44 0
 2 7 -7 18.45 4.51 0
 2 7 -3 98.12 5.95 0
 2 7 -1 2.58 1.96 0
 2 7 0 14.78 2.72 0
 2 8 -12 3.92 5.54 0
 2 8 -11 60.23 8.26 0
 2 8 -10 73.76 8.65 0
 2 8 -9 9.62 4.81 0
 2 8 -8 81.99 7.96 0
 2 8 -7 13.29 4.41 0
 2 8 -6 20.18 5.12 0
 2 8 -5 4.03 3.66 0
 2 8 -2 57.28 4.98 0
 2 8 -1 1.2 2.03 0
 2 8 1 3.4 2.14 0
 2 9 -10 -2.76 4.33 0
 2 9 -9 24.28 6.44 0
 2 9 -7 -1.46 3.62 0
 2 9 -6 3.37 3.81 0
 2 9 -5 6.21 3.62 0
 2 9 -4 61.64 5.88 0
 2 9 -3 5.75 3.12 0
 2 10 -9 5.04 5.16 0
 2 10 -7 39.18 6.99 0
 2 10 -6 2.3 3.68 0
 2 10 -5 16.44 4.26 0
 2 10 -4 6.26 3.9 0
 2 10 -3 28.19 4.62 0
 2 10 -2 7.69 3.3 0
 3 4 -3 245.47 5.82 0
 3 4 -2 70.41 2.7 0
 3 5 -5 141.76 6.38 0
 3 5 -4 76.29 4.4 0
 3 5 -3 166.98 5.28 0
 3 5 -2 19.01 2.23 0
 3 5 -1 409.3 5.35 0
 3 6 -8 150.33 9.07 0
 3 6 -6 33.65 4.64 0
 3 6 -5 61.41 4.83 0
 3 6 -4 1.81 1.91 0
 3 6 -3 276.94 7.25 0
 3 6 -2 68.73 3.48 0
 3 6 -1 4.26 1.26 0
 3 7 -12 0.07 5.25 0
 3 7 -10 30.09 6.4 0
 3 7 -8 96.39 7.53 0
 3 7 -7 4.71 3.18 0
 3 7 -5 24.58 3.95 0
 3 7 -4 37.33 4.02 0
 3 7 -3 160.59 6.2 0
 3 7 -2 16.31 2.44 0
 3 7 -1 181.99 5.2 0
 3 8 -11 19.62 6 0
 3 8 -10 17.76 5.95 0
 3 8 -9 4.14 4.01 0
 3 8 -8 45.53 6.61 0
 3 8 -6 8.6 3.3 0
 3 8 -4 7.65 2.68 0
 3 8 -3 21.53 3.13 0
 3 9 -10 26.8 5.79 0
 3 9 -9 7.03 4.24 0
 3 9 -8 42.21 6.64 0
 4 4 -3 5.52 1.16 0
 4 5 -5 109.92 5.04 0
 4 5 -4 33.82 2.74 0
 4 6 -8 26.19 4.74 0
 4 6 -6 41.8 4.18 0
 4 6 -5 22 3.16 0
 4 7 -11 1.26 4.24 0
 4 7 -10 21.32 5.12 0
 4 7 -9 85.26 7.36 0
 -8 -5 2 6 7.72 0
 -8 -4 -2 8.47 9.3 0
 -8 -4 -1 2.81 8.47 0
 -8 -4 0 15.55 9.43 0
 -8 -4 1 26.75 9.33 0
 -8 -4 2 7.16 7.69 0
 -8 -4 4 8.26 7.19 0
 -8 -4 5 30.51 9.34 0
 -8 -3 -3 14.63 8.05 0
 -8 -3 -2 3.29 8.49 0
 -8 -3 -1 40.57 10.34 0
 -8 -3 0 18.1 8.15 0
 -8 -3 1 23.27 8.21 0
 -8 -3 2 24.24 8.5 0
 -8 -3 3 30.99 9.2 0
 -8 -3 4 27.47 8.89 0
 -8 -3 6 33.72 9.5 0
 -8 -3 7 66.28 12.16 0
 -8 -2 -4 18.49 8.45 0
 -8 -2 -3 2.58 7.62 0
 -8 -2 -2 54.52 10.53 0
 -8 -2 0 34.68 9.95 0
 -8 -2 2 47.7 9.75 0
 -8 -2 3 53.22 11.27 0
 -8 -2 4 57.64 10.65 0
 -8 -2 5 42 10.67 0
 -8 -2 6 51.48 11.61 0
 -8 -1 -4 22.08 8.72 0
 -8 -1 -3 25.2 9.55 0
 -8 -1 -1 20.1 8.84 0
 -8 -1 0 2.25 6.46 0
 -8 -1 1 9.52 7.24 0
 -8 -1 2 51.21 10.97 0
 -8 -1 3 9.58 7.79 0
 -8 -1 4 11.82 7.05 0
 -8 -1 5 27.25 9.64 0
 -8 -1 7 82.68 12.79 0
 -8 -1 8 6.14 7.54 0
 -8 0 -3 31.7 9.51 0
 -8 0 -1 59.44 10.44 0
 -8 0 0 5.96 6.85 0
 -8 0 1 19.3 7.55 0
 -8 0 2 75.24 11.46 0
 -8 0 4 74.91 12.16 0
 -8 0 5 83.77 11.83 0
 -8 0 7 13.09 7.6 0
 -8 0 8 -3.12 6.86 0
 -8 1 -3 1.59 5.93 0
 -8 1 -2 18.17 7.2 0
 -8 1 -1 11.84 6.61 0
 -8 1 1 -0.74 5.59 0
 -8 1 2 35.72 8.16 0
 -8 1 3 14.98 7 0
 -8 1 4 3.3 6.09 0
 -8 1 5 23.89 8.34 0
 -8 1 7 88.83 12.32 0
 -8 2 -2 43.97 8.71 0
 -8 2 -1 9.11 5.93 0
 -8 2 0 30.4 7.68 0
 -8 2 1 5.4 5.87 0
 -8 2 2 33.77 8.25 0
 -8 2 3 73.49 10.13 0
 -8 2 5 31.82 8.11 0
 -8 2 6 29.01 8.58 0
 -7 -7 -1 -3.48 6.51 0
 -7 -7 0 4.31 7.54 0
 -7 -7 1 0.94 7.7 0
 -7 -7 2 15.78 7.5 0
 -7 -7 3 -2.13 6.81 0
 -7 -7 4 2.94 6.64 0
 -7 -6 -3 -0.04 8.45 0
 -7 -6 1 23.06 8.66 0
 -7 -6 2 7.07 7.49 0
 -7 -6 3 21.21 7.78 0
 -7 -6 4 20.96 8.26 0
 -7 -6 6 7.78 7.61 0
 -7 -6 7 18.83 8.39 0
 -7 -5 -4 -0.73 6.86 0
 -7 -5 -3 5.51 7.36 0
 -7 -5 -2 7.86 7.18 0
 -7 -5 -1 2.97 6.58 0
 -7 -5 1 50.48 10.28 0
 -7 -5 2 17.51 8.45 0
 -7 -5 3 10.63 7.21 0
 -7 -5 4 14.95 7.08 0
 -7 -5 5 37.05 9.31 0
 -7 -5 7 17.57 8.06 0
 -7 -5 8 32.49 9.54 0
 -7 -4 -5 23.31 9.11 0
 -7 -4 -4 23.03 9.03 0
 -7 -4 -3 40.43 9.82 0
 -7 -4 -2 24.61 8.39 0
 -7 -4 0 141.55 13.62 0
 -7 -4 1 50.92 9.74 0
 -7 -4 4 47.32 10.05 0
 -7 -4 5 43.44 9.63 0
 -7 -4 6 -1.11 6.4 0
 -7 -4 7 1.62 6.58 0
 -7 -4 8 69.22 12.09 0
 -7 -4 9 17.28 9.32 0
 -7 -3 -5 25.3 8.61 0
 -7 -3 -3 26.25 8.99 0
 -7 -3 -2 5.37 6.43 0
 -7 -3 -1 23.61 8.21 0
 -7 -3 0 6.77 6.94 0
 -7 -3 1 7.7 6.75 0
 -7 -3 2 -2.52 5.48 0
 -7 -3 3 26.61 7.31 0
 -7 -3 6 8.09 7.1 0
 -7 -3 8 76.82 11.62 0
 -7 -3 9 0.64 6.35 0
 -7 -3 10 19.97 9.19 0
 -7 -2 -5 18.72 8.32 0
 -7 -2 -4 2.81 6.42 0
 -7 -2 -2 11.61 6.87 0
 -7 -2 -1 78.8 11.41 0
 -7 -2 0 33.86 8.73 0
 -7 -2 2 77.35 11.03 0
 -7 -2 3 144.67 12.67 0
 -7 -2 4 14.43 6.97 0
 -7 -2 6 11.26 7.92 0
 -7 -2 7 26.38 9.37 0
 -7 -2 8 5.18 6.47 0
 -7 -2 10 34.49 9.66 0
 -7 -1 -5 11.79 7.48 0
 -7 -1 -4 17.07 7.7 0
 -7 -1 -3 9.68 6.74 0
 -7 -1 -2 2.98 5.64 0
 -7 -1 -1 88.46 10.52 0
 -7 -1 0 85.94 10.67 0
 -7 -1 1 -0.51 5.24 0
 -7 -1 4 24.86 7.26 0
 -7 -1 7 61.44 10.53 0
 -7 -1 8 -0.81 6.41 0
 -7 -1 9 12.03 7.66 0
 -7 -1 11 11.19 8.09 0
 -7 0 -4 21.84 7.61 0
 -7 0 -3 0.09 5.44 0
 -7 0 -2 51.88 9.34 0
 -7 0 -1 23.33 7.69 0
 -7 0 0 22.16 7.2 0
 -7 0 2 10.79 6.5 0
 -7 0 7 1.86 5.63 0
 -7 0 10 11.43 7.8 0
 -7 1 -4 12.74 6.86 0
 -7 1 -3 0.88 5.87 0
 -7 1 -2 -0.32 4.87 0
 -7 1 -1 56.9 9.3 0
 -7 1 0 71.22 9.71 0
 -7 1 1 2.89 5.04 0
 -7 1 2 4.17 5.14 0
 -7 1 4 30.96 8.03 0
 -7 1 5 12.83 7.21 0
 -7 1 6 26.14 7.59 0
 -7 1 9 13.44 7.9 0
 -7 1 10 2.02 8.09 0
 -7 1 11 13.38 7.78 0
 -7 2 -3 36.92 7.13 0
 -7 2 -2 9.44 5.58 0
 -7 2 -1 91.45 9.92 0
 -7 2 0 32.59 6.89 0
 -7 2 1 24.01 6.51 0
 -7 2 2 89.02 9.22 0
 -7 2 3 127.16 10.54 0
 -7 2 4 18.22 6.52 0
 -7 2 5 31.18 7.2 0
 -7 2 6 4.08 5.88 0
 -7 2 7 32.1 7.97 0
 -7 2 8 12.98 6.66 0
 -7 2 9 9.51 8.26 0
 -7 2 10 44.44 10.47 0
 -7 3 -1 3.96 3.75 0
 -7 3 1 5.18 3.9 0
 -7 3 2 3.68 4.14 0
 -7 3 3 23.84 5.88 0
 -7 3 4 34.33 6.68 0
 -7 3 5 53.33 8.36 0
 -7 3 6 14.33 6.69 0
 -7 3 8 63.95 10.06 0
 -7 3 10 4.94 6.35 0
 -6 -8 -3 15.35 7.79 0
 -6 -8 -1 15.34 7.27 0
 -6 -8 0 2.18 6.25 0
 -6 -8 1 -1.91 5.35 0
 -6 -8 2 29.33 7.94 0
 -6 -8 3 23.56 7.7 0
 -6 -8 4 15.91 7.15 0
 -6 -8 5 4.02 6.48 0
 -6 -8 6 -1.36 6.03 0
 -6 -7 -4 6.65 7.17 0
 -6 -7 -3 14.19 7.44 0
 -6 -7 -2 4.9 7.3 0
 -6 -7 0 20.97 7.88 0
 -6 -7 2 16.45 8.04 0
 -6 -7 5 11.62 7.71 0
 -6 -7 7 119.62 13.76 0
 -6 -7 8 35.9 8.99 0
 -6 -6 -4 12.92 7.43 0
 -6 -6 -3 8.64 6.97 0
 -6 -6 -1 -1.82 5.85 0
 -6 -6 0 17.85 6.98 0
 -6 -6 4 28.75 8.5 0
 -6 -6 5 7.18 6.43 0
 -6 -6 6 65.01 10.37 0
 -6 -6 7 9.71 6.84 0
 -6 -6 8 -2.61 6.23 0
 -6 -6 10 58.24 11.19 0
 -6 -5 -5 30.33 9.03 0
 -6 -5 -4 114.47 12.02 0
 -6 -5 -2 14.3 7.45 0
 -6 -5 -1 31 7.78 0
 -6 -5 2 -0.54 4.99 0
 -6 -5 3 2.85 5.57 0
 -6 -5 4 110.38 11.17 0
 -6 -5 5 21.74 7.41 0
 -6 -5 6 2.94 5.75 0
 -6 -5 7 38.95 8.62 0
 -6 -5 9 51.57 10.23 0
 -6 -5 10 7.78 7.67 0
 -6 -4 -4 25.19 8.25 0
 -6 -4 -1 6.91 6.72 0
 -6 -4 0 18.05 7.22 0
 -6 -4 1 40.41 7.64 0
 -6 -4 2 10.88 5.36 0
 -6 -4 3 24.07 6.8 0
 -6 -4 5 198.12 13.98 0
 -6 -4 7 34.71 8.83 0
 -6 -4 10 32.89 9.17 0
 -6 -4 11 5.73 7.36 0
 -6 -3 -4 35.99 8.1 0
 -6 -3 -3 47.92 8.52 0
 -6 -3 -2 24.03 6.91 0
 -6 -3 0 23.35 6.62 0
 -6 -3 1 5.93 5.17 0
 -6 -3 2 3.84 4.51 0
 -6 -3 3 63.42 8.8 0
 -6 -3 6 45.63 9 0
 -6 -3 7 63.1 10.18 0
 -6 -3 8 26.61 7.64 0
 -6 -3 9 62.17 11.28 0
 -6 -3 10 -4.64 5.92 0
 -6 -3 11 28.06 9.16 0
 -6 -3 12 93.35 14.68 0
 -6 -2 -5 27.78 7.66 0
 -6 -2 -4 33.77 7.82 0
 -6 -2 -3 6.69 6.2 0
 -6 -2 -2 50.53 8.35 0
 -6 -2 -1 11.74 5.32 0
 -6 -2 0 62.7 8.81 0
 -6 -2 1 70.5 8.27 0
 -6 -2 2 -0.84 4.15 0
 -6 -2 3 47.59 7.5 0
 -6 -2 5 71.33 9.43 0
 -6 -2 7 14.24 6.71 0
 -6 -2 8 18.44 6.89 0
 -6 -2 9 3.89 5.69 0
 -6 -2 10 5.46 6.72 0
 -6 -2 11 -1.77 5.98 0
 -6 -2 12 16.19 8.36 0
 -6 -1 -5 -1.1 5.65 0
 -6 -1 -3 0.23 5.52 0
 -6 -1 -2 11.04 5.6 0
 -6 -1 -1 53.01 8.16 0
 -6 -1 5 10.94 5.83 0
 -6 -1 7 25.99 7.27 0
 -6 -1 9 16.43 6.66 0
 -6 -1 10 0.53 6.28 0
 -6 0 -5 8.36 6.6 0
 -6 0 -4 23.15 6.37 0
 -6 0 -3 63.96 8.39 0
 -6 0 -1 3.52 5.24 0
 -6 0 2 29.76 6.58 0
 -6 0 3 21.31 5.99 0
 -6 0 4 3.29 4.88 0
 -6 0 5 29.4 7.04 0
 -6 0 6 12.57 5.95 0
 -6 0 7 5.39 5.89 0
 -6 0 8 9.5 5.95 0
 -6 0 9 3.15 6.79 0
 -6 0 12 25.97 9.16 0
 -6 0 13 -0.33 7.1 0
 -6 1 -4 25.72 6.79 0
 -6 1 -3 4.93 5.09 0
 -6 1 -2 7.94 5.52 0
 -6 1 -1 51.63 7.77 0
 -6 1 0 4.3 4.32 0
 -6 1 1 3.72 4.09 0
 -6 1 2 29.28 6.42 0
 -6 1 4 36.51 6.85 0
 -6 1 5 9.08 5.68 0
 -6 1 7 23.7 6.99 0
 -6 1 8 42.54 8.14 0
 -6 1 10 7.88 6.86 0
 -6 1 11 41.51 9.65 0
 -6 1 12 13.4 8.38 0
 -6 2 -4 24.67 6.75 0
 -6 2 -3 6.84 4.96 0
 -6 2 -2 41.54 6.52 0
 -6 2 -1 10.76 5.25 0
 -6 2 1 74.52 8.43 0
 -6 2 2 3.34 4.59 0
 -6 2 3 45.3 7.45 0
 -6 2 4 16.85 5.78 0
 -6 2 5 87.95 9.77 0
 -6 2 6 27.61 6.96 0
 -6 2 7 10.93 5.75 0
 -6 2 10 -0.26 5.77 0
 -6 2 11 7.21 6.8 0
 -6 2 12 11.24 7.4 0
 -6 3 -3 34.55 5.73 0
 -6 3 -2 21.84 5.61 0
 -6 3 4 98.56 9.14 0
 -6 3 5 20.24 6.01 0
 -6 3 6 44.81 7.38 0
 -6 3 7 87.68 10.65 0
 -6 3 9 49.83 8.65 0
 -6 3 10 2.69 6.24 0
 -6 3 11 25.31 8.23 0
 -6 4 5 204.47 11.53 0
 -6 4 8 23.23 6.73 0
 -6 4 9 30.45 7.08 0
 -6 4 10 25.31 7.34 0
 -6 4 11 2.82 5.91 0
 -5 -9 -2 7.78 6.47 0
 -5 -9 -1 76.66 10.09 0
 -5 -9 2 35.82 7.92 0
 -5 -9 3 18.51 6.77 0
 -5 -9 4 3.14 5.2 0
 -5 -9 5 -3.2 4.19 0
 -5 -9 6 11.64 5.89 0
 -5 -8 -3 2.83 5.82 0
 -5 -8 -2 25.42 8.22 0
 -5 -8 0 17.83 7.14 0
 -5 -8 1 29.92 6.99 0
 -5 -8 2 5.56 5.44 0
 -5 -8 3 36.14 7.88 0
 -5 -8 4 35.03 8.17 0
 -5 -8 5 7.78 5.76 0
 -5 -8 6 80.24 11.38 0
 -5 -8 8 22.13 7.47 0
 -5 -8 9 16.28 6.82 0
 -5 -7 -4 15.43 6.93 0
 -5 -7 -3 49.95 8.93 0
 -5 -7 -2 31.44 8.32 0
 -5 -7 -1 92.7 10.48 0
 -5 -7 0 29.07 7.15 0
 -5 -7 3 28.23 7.16 0
 -5 -7 4 12.67 5.92 0
 -5 -7 5 8.35 5.91 0
 -5 -7 6 41 8.65 0
 -5 -7 7 39.15 8.5 0
 -5 -7 8 0.14 5.77 0
 -5 -7 9 24.55 7.99 0
 -5 -7 10 24.46 8.77 0
 -5 -6 -4 21.35 7.2 0
 -5 -6 -2 7.31 5.68 0
 -5 -6 -1 26.67 6.87 0
 -5 -6 0 112.99 10.24 0
 -5 -6 2 9.44 5.37 0
 -5 -6 3 44.36 8.35 0
 -5 -6 4 18.51 6.09 0
 -5 -6 5 24.67 6.67 0
 -5 -6 6 45.57 8.8 0
 -5 -6 7 28.43 7.79 0
 -5 -6 8 174.05 14.26 0
 -5 -6 10 8.25 7.01 0
 -5 -6 11 15.68 7.36 0
 -5 -5 -5 45.03 9.13 0
 -5 -5 -3 93.89 11.2 0
 -5 -5 -1 50.16 8.21 0
 -5 -5 3 11.71 5.46 0
 -5 -5 4 8.46 5.33 0
 -5 -5 8 17.44 6.71 0
 -5 -5 9 52.18 10.26 0
 -5 -5 10 33.35 9.22 0
 -5 -5 11 6.16 6.66 0
 -5 -4 -5 29.92 7.53 0
 -5 -4 -4 91.08 10.79 0
 -5 -4 -3 3.78 4.39 0
 -5 -4 -2 8.5 5.29 0
 -5 -4 -1 13.73 5.38 0
 -5 -4 1 141.9 10.37 0
 -5 -4 2 39.3 7.27 0
 -5 -4 3 106.5 10.03 0
 -5 -4 4 106.23 9.75 0
 -5 -4 6 37 7.54 0
 -5 -4 7 14.32 6.68 0
 -5 -4 10 14.35 8.11 0
 -5 -4 11 25.38 8.39 0
 -5 -3 -5 1.3 5.23 0
 -5 -3 -4 4.43 5.47 0
 -5 -3 -3 96.56 9.64 0
 -5 -3 -1 105.83 9.13 0
 -5 -3 0 234.47 12.32 0
 -5 -3 1 21.63 5.18 0
 -5 -3 2 13.82 5.02 0
 -5 -3 3 2.31 4.09 0
 -5 -3 4 46.09 7.92 0
 -5 -3 5 68.83 8.19 0
 -5 -3 6 10.1 5.2 0
 -5 -3 8 70.64 9.34 0
 -5 -3 9 11.08 6.12 0
 -5 -3 10 12.91 6.36 0
 -5 -3 11 -5.01 5.73 0
 -5 -3 12 4.3 7.14 0
 -5 -3 13 45.25 11.02 0
 -5 -2 -5 37.82 7.7 0
 -5 -2 -3 73.78 8.06 0
 -5 -2 5 258.76 13.3 0
 -5 -2 6 81.25 8.63 0
 -5 -2 7 7.62 4.79 0
 -5 -2 8 6.69 5.57 0
 -5 -2 9 22.74 6.78 0
 -5 -2 11 81.8 11.51 0
 -5 -2 12 11.72 7.36 0
 -5 -2 14 19.5 8.88 0
 -5 -1 -5 38.16 7.11 0
 -5 -1 -4 15.23 5.5 0
 -5 -1 -3 29.75 5.88 0
 -5 -1 5 16.84 5.2 0
 -5 -1 6 16.35 5.14 0
 -5 -1 7 52.88 7.87 0
 -5 -1 8 23.87 6.99 0
 -5 -1 9 12.54 6.24 0
 -5 -1 10 82.37 11.01 0
 -5 0 -5 43.76 7.22 0
 -5 0 -4 53.23 7.4 0
 -5 0 6 116.45 9.45 0
 -5 0 7 1.1 4.76 0
 -5 0 8 -2.08 4.33 0
 -5 0 9 72.32 9.74 0
 -5 1 -1 25.82 5.39 0
 -5 1 0 193.77 10.48 0
 -5 1 6 22.23 5.54 0
 -5 1 7 46.43 7.48 0
 -5 2 -2 17.25 4.75 0
 -5 2 -1 81.09 6.9 0
 -5 2 3 237.05 11.39 0
 -5 2 7 3.28 4.71 0
 -5 2 8 6.05 5.23 0
 -5 3 -3 73.77 6.65 0
 -5 3 -2 137.2 8.23 0
 -5 3 -1 109.21 7.49 0
 -5 3 0 239.19 10.2 0
 -5 3 1 22.74 4.37 0
 -5 3 2 11.13 3.55 0
 -5 3 3 1.3 3.2 0
 -5 3 4 40.88 6.14 0
 -5 3 7 34.98 6.73 0
 -5 3 8 77.57 8.54 0
 -5 4 -1 9.16 2.78 0
 -5 4 0 120.12 6.91 0
 -5 4 2 31.29 4.6 0
 -5 4 3 113.34 7.58 0
 -5 4 4 106.26 7.73 0
 -5 5 7 -1.21 3.19 0
 -5 5 9 47.99 7.56 0
 -4 -9 -1 40.28 7.47 0
 -4 -9 0 118.98 9.9 0
 -4 -9 1 11.58 5.35 0
 -4 -9 2 156.41 10.87 0
 -4 -9 3 43.03 6.62 0
 -4 -9 4 2.9 4.85 0
 -4 -8 -2 10.53 5.79 0
 -4 -8 -1 34.31 6.83 0
 -4 -8 0 128.35 10.24 0
 -4 -8 2 45.62 7.01 0
 -4 -8 3 45.78 7.21 0
 -4 -8 5 11.2 4.85 0
 -4 -8 6 31.25 6.46 0
 -4 -8 8 39.56 7.84 0
 -4 -7 -3 82.09 9.28 0
 -4 -7 -2 37.24 6.86 0
 -4 -7 -1 -2.5 4.32 0
 -4 -7 0 78.1 9.45 0
 -4 -7 1 48.03 7.26 0
 -4 -7 3 12.14 5.79 0
 -4 -7 4 6.04 4.97 0
 -4 -7 5 46.42 7.31 0
 -4 -7 6 13.5 5.43 0
 -4 -7 7 55.7 8.96 0
 -4 -7 8 43.35 8.58 0
 -4 -7 9 95.74 11.15 0
 -4 -7 11 1.47 5.52 0
 -4 -6 -2 15.42 5.51 0
 -4 -6 -1 -0.79 4.15 0
 -4 -6 0 182.6 11.38 0
 -4 -6 1 8.73 4.21 0
 -4 -6 3 14.8 4.86 0
 -4 -6 4 24.07 5.8 0
 -4 -6 5 18.48 5.51 0
 -4 -6 7 22.01 6.66 0
 -4 -6 8 22.82 6.99 0
 -4 -6 9 8.88 5.75 0
 -4 -6 10 20.72 7.16 0
 -4 -6 11 2.25 6.32 0
 -4 -5 -4 116.18 10.31 0
 -4 -5 -3 250.02 13.4 0
 -4 -5 6 47.27 7.6 0
 -4 -5 7 130.96 10.49 0
 -4 -5 9 134.2 12.02 0
 -4 -5 11 15.82 7.31 0
 -4 -5 12 5 6.73 0
 -4 -5 13 9.08 7.03 0
 -4 -4 -5 8.99 5.17 0
 -4 -4 -4 44.92 7 0
 -4 -4 1 2.08 3.73 0
 -4 -4 6 15.65 5.93 0
 -4 -4 7 54.21 7.57 0
 -4 -4 8 232.62 13.46 0
 -4 -4 9 24.46 6.87 0
 -4 -4 10 55.11 8.74 0
 -4 -4 11 29.66 8.01 0
 -4 -4 12 12.15 6.87 0
 -4 -3 -5 26.88 5.93 0
 -4 -3 -1 352.18 13.43 0
 -4 -3 0 28.77 5.2 0
 -4 -3 1 297.61 12.22 0
 -4 -3 2 134.23 8.88 0
 -4 -2 -3 14.45 4.54 0
 -4 -2 -2 48.76 6.54 0
 -4 -2 -1 25.8 4.65 0
 -4 -2 0 100.2 7.56 0
 -4 -2 2 7.9 3.76 0
 -4 -2 4 336.23 13.27 0
 -4 -2 7 156.29 10.18 0
 -4 -1 -1 1218.57 22.74 0
 -4 -1 0 20.52 4.09 0
 -4 -1 3 35.43 5.24 0
 -4 -1 4 451.94 14.68 0
 -4 -1 5 84.42 7.84 0
 -4 0 -4 7.6 4.66 0
 -4 0 -3 69.03 6.47 0
 -4 0 -1 9.66 3.49 0
 -4 0 0 39.55 5.55 0
 -4 0 1 13 3.74 0
 -4 0 2 -1.3 2.84 0
 -4 0 3 222.22 10.2 0
 -4 0 4 11.4 3.81 0
 -4 1 -4 353.32 12.82 0
 -4 1 -3 221.67 9.98 0
 -4 1 -2 296.23 10.94 0
 -4 1 -1 1247.94 21.38 0
 -4 1 0 20.05 3.99 0
 -4 1 2 95.37 6.75 0
 -4 1 3 32.93 5.21 0
 -4 1 5 96.75 7.79 0
 -4 2 -3 15.06 4.27 0
 -4 2 -2 56.31 5.25 0
 -4 2 -1 19.04 3.85 0
 -4 2 4 311.7 11.7 0
 -4 2 5 4.95 3.85 0
 -4 3 -3 207.38 8.61 0
 -4 3 -2 76.57 5.45 0
 -4 3 2 139.98 7.3 0
 -4 3 5 133.8 7.91 0
 -4 4 -1 22.96 2.99 0
 -4 4 0 178.63 6.89 0
 -4 4 1 3.78 2.04 0
 -4 4 3 3.79 2.41 0
 -4 4 4 80.48 5.94 0
 -4 4 5 27.11 4.4 0
 -4 5 3 31.88 3.53 0
 -4 5 4 41.31 4.27 0
 -4 5 5 116.35 6.84 0
 -3 -9 0 30.8 5.46 0
 -3 -8 -2 29.25 5.73 0
 -3 -8 5 7.51 3.77 0
 -3 -8 6 2.43 3.65 0
 -3 -8 7 34.93 6.12 0
 -3 -7 1 181.2 9.83 0
 -3 -7 2 28.75 5.19 0
 -3 -7 8 108.67 9.41 0
 -3 -7 10 16.31 5.67 0
 -3 -7 11 25.87 7.06 0
 -3 -7 12 -0.43 6.12 0
 -3 -6 -1 21.19 4.98 0
 -3 -6 0 38.53 5.55 0
 -3 -6 1 4.01 3.67 0
 -3 -6 2 72.04 6.89 0
 -3 -6 3 246.61 11.03 0
 -3 -6 7 37.71 6.34 0
 -3 -6 10 3.82 5.25 0
 -3 -6 11 139.66 11.77 0
 -3 -6 12 5.01 5.49 0
 -3 -6 13 10.16 7.21 0
 -3 -5 -3 59.55 7 0
 -3 -5 -1 14.93 4.19 0
 -3 -5 2 18.23 4.25 0
 -3 -5 5 140.97 9.03 0
 -3 -5 8 0.98 4.74 0
 -3 -5 9 176.48 11.46 0
 -3 -4 -4 14.19 4.83 0
 -3 -4 -3 165.74 9.2 0
 -3 -4 -2 108.71 7.48 0
 -3 -4 0 51.07 6.09 0
 -3 -4 1 22.28 4.51 0
 -3 -4 2 63.47 6.62 0
 -3 -4 3 241.13 10.3 0
 -3 -4 4 60.26 6.1 0
 -3 -3 -4 269.88 11.7 0
 -3 -3 -3 96.73 6.98 0
 -3 -3 -2 189.91 9.3 0
 -3 -3 -1 20.06 3.92 0
 -3 -3 5 473 14.9 0
 -3 -2 -4 76.59 6.28 0
 -3 -2 1 265.41 9.69 0
 -3 -2 2 60.82 5.27 0
 -3 -2 4 31.22 4.45 0
 -3 -1 -4 261.36 10.55 0
 -3 -1 -1 7.05 3.01 0
 -3 -1 1 119.07 6.45 0
 -3 0 -1 571.96 12.74 0
 -3 0 1 473.77 11.72 0
 -3 0 2 222.43 8.45 0
 -3 1 2 235.33 8.16 0
 -3 2 -3 118.48 6.1 0
 -3 2 0 656.37 12.13 0
 -3 2 1 275.89 8.36 0
 -3 3 0 187.03 6.22 0
 -3 4 0 56.71 3.22 0
 -3 4 3 246.13 7.88 0
 -3 5 0 315.27 5.22 0
 -2 -8 0 143.96 7.54 0
 -2 -8 1 6.89 3.16 0
 -2 -8 2 56.07 5.07 0
 -2 -8 3 130.37 6.94 0
 -2 -8 5 0.64 2.57 0
 -2 -8 6 21.79 4.25 0
 -2 -7 -2 24.25 4.52 0
 -2 -7 -1 116.06 7.25 0
 -2 -7 0 19.56 3.85 0
 -2 -7 1 5.79 3.24 0
 -2 -7 2 12.1 3.46 0
 -2 -7 3 98.34 6.31 0
 -2 -7 4 188.2 8.52 0
 -2 -7 10 3.13 4.67 0
 -2 -6 -2 315.23 11.27 0
 -2 -6 1 199.19 8.37 0
 -2 -6 2 3.51 2.71 0
 -2 -6 3 104.81 6.65 0
 -2 -6 5 7.73 3.44 0
 -2 -6 6 20.56 4.37 0
 -2 -6 7 18.48 5.14 0
 -2 -6 9 96.59 8.86 0
 -2 -5 -3 12.66 3.87 0
 -2 -5 -2 18.13 3.98 0
 -2 -5 -1 505.35 12.88 0
 -2 -5 0 149.04 7.07 0
 -2 -5 1 344.35 10.24 0
 -2 -5 2 120.76 6.74 0
 -2 -5 3 320.36 10.42 0
 -2 -5 5 115.96 7.09 0
 -2 -5 6 156.82 8.87 0
 -2 -4 -3 184.69 8.6 0
 -2 -4 -2 455.64 12.13 0
 -2 -4 0 720.94 13.95 0
 -2 -4 1 64.6 5.02 0
 -2 -4 2 168.84 7.23 0
 -2 -4 3 18.04 3.79 0
 -2 -4 4 62.13 5.81 0
 -2 -4 5 168.2 7.96 0
 -2 -3 -3 439.74 12.04 0
 -2 -3 -2 61.57 5.16 0
 -2 -3 -1 557.15 12.15 0
 -2 -3 0 330.07 9.21 0
 -2 -3 1 1013.47 15.97 0
 -2 -3 2 122.62 6.04 0
 -2 -3 3 88.42 5.61 0
 -2 -2 -3 75.47 5.24 0
 -2 -2 -1 129.54 5.98 0
 -2 -2 0 782.35 13.47 0
 -2 -2 1 487.97 10.89 0
 -2 -2 3 109.91 5.73 0
 -2 -1 -3 527.43 12.11 0
 -2 -1 -2 493.68 10.92 0
 -2 -1 -1 270.36 7.83 0
 -2 -1 0 612.41 11.25 0
 -2 -1 2 31.94 3.99 0
 -2 0 -3 735.94 13.72 0
 -2 0 -2 34.18 3.54 0
 -2 0 -1 272.71 7.32 0
 -2 0 0 236.72 6.93 0
 -2 0 1 360.19 8.43 0
 -2 1 -3 540.98 11.15 0
 -2 1 -2 487.77 9.84 0
 -2 1 -1 276.84 6.96 0
 -2 1 1 294.74 7.19 0
 -2 2 -2 220.1 6.03 0
 -2 2 -1 127.53 4.29 0
 -2 2 0 781.68 10.04 0
 -2 2 1 463.51 8.07 0
 -2 3 -1 546.58 7.47 0
 -2 3 0 331.48 5.78 0
 -2 3 1 1004 10.91 0
 -2 4 0 709.91 6.03 0
 -2 4 1 51.43 2.36 0
 -2 5 2 106.6 3.56 0
 -1 -7 0 32.76 3.39 0
 -1 -7 1 7.77 2.14 0
 -1 -7 2 49.03 3.59 0
 -1 -7 3 102.38 4.9 0
 -1 -7 4 143.34 5.91 0
 -1 -7 5 22.81 3.48 0
 -1 -7 6 40.6 4.45 0
 -1 -7 8 4.12 3.34 0
 -1 -6 0 12.15 2.69 0
 -1 -6 2 78.72 4.35 0
 -1 -6 3 231.5 7.22 0
 -1 -6 4 71.44 4.64 0
 -1 -6 5 51.37 4.58 0
 -1 -6 6 49.93 5.07 0
 -1 -5 -1 70.17 4.46 0
 -1 -5 0 33.44 3.19 0
 -1 -5 1 90.67 4.31 0
 -1 -5 2 256.5 7.13 0
 -1 -5 3 2.35 2.01 0
 -1 -5 4 401.01 10.05 0
 -1 -4 -2 57.11 4.43 0
 -1 -4 -1 519.19 10.16 0
 -1 -4 1 1288.68 14.45 0
 -1 -4 2 370.78 8.32 0
 -1 -4 3 416.78 9.19 0
 -1 -3 0 271.52 6.52 0
 -1 -3 1 362.44 7.58 0
 -1 -2 -2 13.32 2.71 0
 -1 -2 -1 1147.28 13.05 0
 -1 -2 0 2146.48 16.45 0
 -1 -2 1 2009.38 16.04 0
 -1 -1 0 5255.34 23.25 0
 -1 -1 1 450.38 7.2 0
 -1 0 -2 109.41 4.2 0
 -1 0 -1 1605.42 12.56 0
 -1 1 -1 1202.73 9.52 0
 -1 1 0 5075.57 17.54 0
 0 -6 3 262.55 4.89 0
 0 -6 4 88.44 3.82 0
 0 -6 5 38.71 3.42 0
 0 -5 1 160.27 3.24 0
 0 -5 2 18.87 1.55 0
 0 -5 3 39.58 2.51 0
 0 -4 0 534.97 6.19 0
 0 -4 1 362.24 4.82 0
 0 -4 2 449.27 6.26 0
 0 -3 1 569.11 5.71 0
 -3 -4 -3 167.75 4.37 0
 -3 -3 -3 88.23 2.53 0
 -3 -1 -3 146.43 3.25 0
 -3 0 -3 20.77 1.89 0
 -2 -9 -4 105.03 7.77 0
 -2 -8 -6 37.19 5.3 0
 -2 -8 -4 11.78 3.71 0
 -2 -8 -3 22.71 4.27 0
 -2 -7 -5 6.93 2.88 0
 -2 -7 -4 298.7 10.7 0
 -2 -7 -3 12.96 3.09 0
 -2 -6 -4 62.97 5.17 0
 -2 -6 -3 2.98 2.3 0
 -2 -6 -2 313.99 9.42 0
 -2 -5 -3 13.92 2.84 0
 -2 1 -2 497.02 8.02 0
 -2 2 -3 84.9 4.44 0
 -2 2 -2 218.53 6.21 0
 -1 -10 -5 37.31 6.79 0
 -1 -10 -4 51.78 7.3 0
 -1 -9 -8 11.02 5.3 0
 -1 -9 -7 16.32 5.21 0
 -1 -9 -6 12.53 4.69 0
 -1 -9 -5 0.42 3.53 0
 -1 -9 -4 89.52 8.37 0
 -1 -9 -3 31.11 5.65 0
 -1 -8 -5 132.16 8.75 0
 -1 -8 -4 148.37 9.14 0
 -1 -8 -3 20.68 4.85 0
 -1 -7 -4 91.63 7.06 0
 -1 -7 -3 15.12 3.66 0
 -1 -7 -2 4.11 3 0
 -1 -7 -1 71.98 5.88 0
 -1 -6 -3 92.6 6.04 0
 -1 -6 -1 177.01 7.79 0
 -1 -5 -1 67.74 4.58 0
 -1 -2 0 2142.59 12.78 0
 -1 1 -1 1218.95 10.15 0
 -1 2 -2 16.55 2.36 0
 -1 2 -1 1153.76 12.48 0
 -1 3 -2 96.23 4.87 0
 0 -9 -6 17.1 6.24 0
 0 -9 -5 77.17 9.34 0
 0 -9 -4 3.76 4.3 0
 0 -9 -2 7.59 4.26 0
 0 -8 -3 128.57 8.97 0
 0 -8 -2 10.21 4.21 0
 0 -8 -1 108.24 8.18 0
 0 -7 -3 67.19 6.83 0
 0 -7 -2 25.07 4.73 0
 0 -6 0 47.37 5.03 0
 0 -5 -1 159.69 7.04 0
 0 -4 0 536.47 11.25 0
 0 -2 0 9717.77 31.39 0
 0 3 -2 786.44 11.91 0
 0 3 -1 566.11 9.54 0
 1 -10 -3 31.73 7 0
 1 -9 -6 35.67 7.23 0
 1 -9 -5 24.44 6.1 0
 1 -9 -4 174.72 12.29 0
 1 -9 -3 3.23 4.51 0
 1 -9 -2 2.83 4.36 0
 1 -8 -4 110.95 9.16 0
 1 -8 -1 104.33 8.41 0
 1 -7 -2 46.87 6.14 0
 1 -7 -1 8.73 3.79 0
 1 -6 -1 63.52 6.38 0
 1 -6 0 12.34 3.63 0
 1 -5 -1 84.22 5.66 0
 1 -5 0 35.12 3.97 0
 1 -2 0 2128.66 17.3 0
 1 -2 1 1133.17 12.57 0
 1 3 -1 364.1 7.46 0
 2 -9 -5 5.21 5.08 0
 2 -9 -3 9.37 5.09 0
 2 -9 -2 2.69 4.55 0
 2 -6 -1 193.14 10.02 0
 2 -6 0 380.06 12.98 0
 2 -5 -1 356.59 11.81 0
 2 -5 0 155.7 7.78 0
 2 -5 1 519.46 13.8 0
 2 -4 0 736.18 14.84 0
 2 -4 1 27.14 4.06 0
 2 -2 0 785.43 11.81 0
 2 -1 0 601.63 8.24 0
 2 3 -1 1018.39 11.05 0
 3 -9 -4 97.83 11.63 0
 3 -9 -3 68.93 9.15 0
 3 -9 -2 8.69 5.08 0
 3 -8 -5 2.31 4.6 0
 3 -8 -4 16.35 6.14 0
 3 -8 -3 23.66 7 0
 3 -8 -2 47.14 7.19 0
 3 -8 -1 5.07 5.56 0
 3 -7 -3 166.66 10.51 0
 3 -7 -2 24.63 5.51 0
 3 -6 -1 2.4 3.8 0
 3 -6 0 41.19 6 0
 3 -5 -1 409.78 13.03 0
 3 -5 0 315.67 11.35 0
 3 -4 -1 22.44 3.81 0
 3 -4 0 60.12 5.28 0
 3 -3 0 194.35 7.7 0
 3 4 -2 70.03 3.84 0
 4 -8 -5 9.69 5.64 0
 4 -8 -4 30.19 6.82 0
 4 -8 -2 32.49 7.3 0
 4 -8 -1 7.64 4.92 0
 4 -7 -4 4.69 4.59 0
 4 -7 -3 9.97 4.72 0
 4 -7 -2 81.76 8.63 0
 4 -6 -3 11.65 4.59 0
 4 -6 -2 14.21 4.65 0
 4 -6 -1 7.74 4.16 0
 4 -6 0 169.85 10.2 0
 4 -5 -2 16.9 4.27 0
 4 -5 -1 103.1 7.85 0
 4 -5 0 10.04 4.1 0
 4 -4 -1 4.23 2.87 0
 4 -2 -1 57.96 4.12 0
 4 3 -2 136.7 3.71 0
 4 4 -3 6.92 1.87 0
 5 -7 -5 5.1 4.91 0
 5 -7 -3 39.52 6.93 0
 5 -7 -2 73.34 8.82 0
 5 -6 -4 15.15 5.24 0
 5 -6 -2 8.72 4.4 0
 5 -6 -1 47.16 6.52 0
 5 -5 -3 8.95 4.08 0
 5 -5 -2 24.84 5.16 0
 5 -5 -1 127.02 8.35 0
 5 -4 -2 33.93 4.79 0
 5 -4 -1 141.9 7.94 0
 5 -3 -2 15.94 3.53 0
 5 -3 -1 20.01 3.34 0
 5 -2 -2 156.52 6.93 0
 6 -6 -5 20.69 5.61 0
 6 -6 -4 21.97 5.59 0
 6 -6 -3 7.42 5.12 0
 6 -6 -2 21.55 5.76 0
 6 -5 -5 26.49 5.62 0
 6 -5 -3 0.47 3.16 0
 6 -5 -2 4.62 3.98 0
 6 -4 -4 33.59 5.9 0
 6 -4 -3 19.76 4.33 0
 6 -4 -2 4.65 2.85 0
 6 -3 -3 56.06 5.04 0
 6 -3 -2 4 2.73 0
 6 -2 -3 43.68 4.21 0
 6 -2 -2 3.47 2.01 0
 6 -1 -3 61.86 4.29 0
 6 -1 -2 24.17 2.9 0
 -4 -9 4 2.69 5.23 0
 -4 -8 4 27.68 6.28 0
 -4 -8 5 10 5.16 0
 -4 -8 7 152.33 11.29 0
 -4 -7 4 6.71 4.65 0
 -4 -7 5 44.19 7.14 0
 -4 -6 4 22.91 4.41 0
 -4 -6 6 29.27 5.66 0
 -4 -5 5 121.26 7.49 0
 -4 -4 3 4.95 2.34 0
 -4 -4 4 84.3 5.26 0
 -4 -2 1 54.87 2.17 0
 -4 -1 -1 1230.73 8.96 0
 -3 -9 5 0.53 5.1 0
 -3 -8 6 1.16 4.51 0
 -3 -8 7 34.52 7.55 0
 -3 -7 5 20.09 5.42 0
 -3 -6 5 64.58 7.22 0
 -3 -6 6 35.61 5.94 0
 -3 -6 7 36.11 6.04 0
 -3 -5 5 139.63 8.58 0
 -3 -4 4 54.84 4.88 0
 -3 -4 5 181.89 8.49 0
 -3 -3 4 758.73 13.87 0
 -3 0 -3 16.84 2.22 0
 -3 0 -2 59.8 2.93 0
 -2 -8 5 -1.52 4.9 0
 -2 -8 6 24.49 6.43 0
 -2 -8 7 11.65 5.93 0
 -2 -8 8 92.71 11.15 0
 -2 -7 5 26.34 6.18 0
 -2 -7 6 43.39 7.14 0
 -2 -7 7 17.4 5.89 0
 -2 -7 8 62.01 8.17 0
 -2 -6 5 5.75 3.91 0
 -2 -6 6 26.26 6.33 0
 -2 -5 5 116.62 7.94 0
 -2 -5 6 154.03 9.77 0
 -2 -4 4 59.68 5.33 0
 -2 -4 5 163.38 8.24 0
 -2 -4 6 194.11 9.32 0
 -2 1 -3 530.82 9.75 0
 -1 -9 5 28.47 7.56 0
 -1 -9 6 41.59 8.82 0
 -1 -8 7 45.55 8.25 0
 -1 -8 8 41.03 8.23 0
 -1 -7 5 21.42 5.72 0
 -1 -7 6 33.89 6.57 0
 -1 -7 7 41.14 7.25 0
 -1 -7 8 2.24 4.72 0
 -1 -6 5 53.86 7.77 0
 -1 -6 6 51.6 7.08 0
 -1 -5 5 18.29 4.32 0
 -1 -5 6 67.89 7.77 0
 -1 -4 4 57.12 5.28 0
 -1 -4 5 21.3 4.14 0
 -1 -4 6 37.27 5.15 0
 -1 -3 4 597.09 12.95 0
 -1 -3 5 37.17 4.21 0
 -1 1 -4 947.48 14.17 0
 -1 1 -2 263.47 5.99 0
 0 -9 6 21.44 7.29 0
 0 -8 5 12.52 5.79 0
 0 -8 6 3.68 5.16 0
 0 -8 7 7.42 6.47 0
 0 -7 5 24.55 6.43 0
 0 -7 6 91.03 9 0
 0 -7 8 91.75 8.99 0
 0 -6 5 39.1 6.55 0
 0 -5 5 5.15 3.79 0
 0 -5 7 126.48 8.85 0
 0 -4 6 6.7 3.77 0
 0 -3 5 112.51 6.42 0
 0 -1 2 476.36 7.74 0
 0 1 -4 236.49 6.99 0
 0 1 -3 1064.73 12.99 0
 0 1 -2 467.73 7.76 0
 1 -9 6 5.68 5.83 0
 1 -8 5 123.47 10.52 0
 1 -8 6 3.09 5.41 0
 1 -8 7 262.65 15.63 0
 1 -7 7 6.31 5.11 0
 1 -6 5 169.11 10.16 0
 1 -6 6 8.44 4.66 0
 1 -6 7 246.16 13.21 0
 1 -5 5 18.42 4.35 0
 1 -5 6 305.99 12.79 0
 1 -4 4 49.93 5.54 0
 1 -3 3 71.37 4.85 0
 1 -2 2 12.95 2.49 0
 1 -1 1 1238.56 10.57 0
 1 1 -4 2355.79 20.65 0
 1 1 -3 1133.66 12.58 0
 2 -9 4 106.99 12.47 0
 2 -9 5 -0.34 6.28 0
 2 -8 4 12 5.78 0
 2 -8 5 49.83 8.49 0
 2 -8 6 49.1 8.44 0
 2 -8 7 9.26 5.98 0
 2 -7 4 282.85 14.33 0
 2 -7 5 5.59 5.55 0
 2 -7 6 1.27 4.35 0
 2 -6 4 66.78 6.92 0
 2 -6 5 108.2 9.2 0
 2 -6 6 108.02 8.98 0
 2 -5 4 22.23 4.76 0
 2 -5 5 2.95 3.47 0
 2 -4 3 186.09 8.92 0
 2 -4 4 198.95 9.09 0
 2 -4 5 8.59 3.41 0
 2 -2 2 215.49 6.62 0
 2 0 -2 2.74 0.89 0
 2 1 -5 47.05 4.05 0
 2 1 -4 100.37 4.91 0
 3 -9 3 -0.57 5.3 0
 3 -9 4 78.79 10.35 0
 3 -8 3 -0.59 4.26 0
 3 -8 5 17.37 6.44 0
 3 -8 6 14.49 5.97 0
 3 -7 4 37.26 6.7 0
 3 -6 3 22.63 4.87 0
 3 -6 4 26.15 5.23 0
 3 -6 5 1.21 3.64 0
 3 -5 4 58.15 6.58 0
 3 -4 3 159.09 7.88 0
 3 -4 4 19.05 3.71 0
 3 -2 0 683.85 9.15 0
 3 -2 1 86.94 3.66 0
 3 0 -5 2.49 1.63 0
 3 0 -4 5.08 1.7 0
 4 -9 2 11.62 5.57 0
 4 -9 3 38.29 7.33 0
 4 -8 3 0.29 4.11 0
 4 -7 2 43.49 6.73 0
 4 -7 4 34.5 6.37 0
 4 -6 2 12.53 4.1 0
 4 -6 4 21.57 5.09 0
 4 -5 2 62.91 5.6 0
 4 -4 1 21.83 3.16 0
 4 -4 2 8.57 2.58 0
 4 -3 0 26.62 2.42 0
 4 -1 -5 94.35 4.11 0
 4 -1 -4 442.96 6.76 0
 4 0 -6 44.36 3.63 0
 5 -6 1 19.23 3.83 0
 5 -6 2 8.36 3.3 0
 5 -5 -1 128.44 6.41 0
 5 -5 1 40.94 4.1 0
 -4 0 -5 0.88 1.18 0
 -4 0 -4 10.28 1.72 0
 -4 1 -4 362.29 8.8 0
 -4 2 -7 2.75 2.07 0
 -4 2 -6 124.02 6.43 0
 -4 2 -5 41.37 4.16 0
 -4 2 -4 190.11 7.27 0
 -4 2 -3 15.92 3.2 0
 -4 3 -6 146.64 7.85 0
 -4 3 -4 278.03 9.82 0
 -4 3 -3 223.1 8.41 0
 -4 3 -2 71.79 5.19 0
 -4 4 -2 8.21 3.03 0
 -4 4 -1 25.84 4.31 0
 -3 -1 -4 268.76 5.02 0
 -3 -1 -3 145.13 3.36 0
 -3 0 -5 422.35 8.31 0
 -3 0 -3 19.77 1.97 0
 -3 0 -2 60.32 2.97 0
 -3 1 -6 134.36 5.68 0
 -3 1 -5 5.04 1.93 0
 -3 1 -2 75.09 3.71 0
 -3 1 -1 5.12 1.7 0
 -3 2 -7 203.07 8.14 0
 -3 2 -6 35.56 3.67 0
 -3 2 -5 102.52 5.63 0
 -3 2 -4 73.24 4.8 0
 -3 2 -3 117.62 5.6 0
 -3 3 -7 64.64 5.17 0
 -3 3 -6 53.59 5.13 0
 -3 3 -5 12.92 3.13 0
 -3 3 -4 279.18 9.19 0
 -3 3 -2 178.28 6.96 0
 -3 3 -1 17.36 2.94 0
 -3 3 0 187.45 7.41 0
 -3 4 -5 13.45 3.39 0
 -3 4 -4 17.58 3.72 0
 -3 4 -3 162.99 7.58 0
 -3 4 -2 103.17 6.16 0
 -3 4 -1 20.85 3.57 0
 -3 4 0 51.07 5.08 0
 -3 5 -3 62.63 5.52 0
 -3 5 -2 147.07 7.91 0
 -3 5 -1 18.59 3.88 0
 -2 -4 -5 5.52 0.97 0
 -2 -1 -2 469.8 4.23 0
 -2 0 -2 31.41 2.05 0
 -2 0 -1 274.81 4.87 0
 -2 1 -3 542.81 9.02 0
 -2 2 -3 84.55 4.26 0
 -2 2 -2 217.89 6.55 0
 -2 2 0 788.1 11.43 0
 -2 3 -4 306.3 8.81 0
 -2 3 0 341.89 8.48 0
 -2 4 -5 6.15 2.66 0
 -2 4 -2 472.93 11.49 0
 -2 5 -5 9.57 3.27 0
 -2 5 -4 18.89 3.92 0
 -2 5 -3 13.1 3.45 0
 -2 5 -2 12.59 2.96 0
 -2 5 0 142.36 6.79 0
 -2 5 1 335.81 10.5 0
 -2 6 -3 0.44 2.61 0
 -2 6 -1 60.9 5.11 0
 -2 6 0 379.56 11.77 0
 -1 -6 -7 246.57 7.93 0
 -1 -6 -6 7.72 2.15 0
 -1 -6 -5 175.83 6.12 0
 -1 -5 -8 3.91 1.85 0
 -1 -5 -7 17.78 2.65 0
 -1 -5 -6 308.01 7.8 0
 -1 -5 -5 15.62 2.34 0
 -1 -4 -6 93.68 4.54 0
 -1 -4 -5 173.72 5.35 0
 -1 0 -1 1578.98 8.28 0
 -1 1 -1 1220.86 10.22 0
 -1 1 0 5182.49 20.19 0
 -1 2 -1 1162.93 12.3 0
 -1 2 0 2085.21 15.96 0
 -1 3 0 276.09 6.9 0
 -1 4 0 162.42 6 0
 -1 4 1 1354.44 16.69 0
 -1 5 -4 446.91 11.82 0
 -1 5 -3 2.79 2.99 0
 -1 5 -1 70.44 4.78 0
 -1 5 0 29.93 4.02 0
 -1 5 1 89.54 5.1 0
 -1 6 -4 70.26 5.58 0
 -1 6 -3 94.3 6.2 0
 -1 6 -2 117.74 6.94 0
 -1 6 -1 167.87 7.58 0
 -1 6 0 10.91 2.89 0
 -1 6 1 77.99 5.54 0
 -1 7 0 26.78 4.6 0
 -1 7 1 12.53 3.35 0
 0 -7 -7 208.92 8.93 0
 0 -7 -6 83.43 5.69 0
 0 -7 -5 24.57 3.64 0
 0 -7 -4 9.03 3.2 0
 0 -6 -8 15.65 3.18 0
 0 -6 -7 68.76 5.06 0
 0 -6 -6 7.15 2.95 0
 0 -6 -4 89.19 5.5 0
 0 -6 -3 275.82 8.65 0
 0 -5 -9 23.45 4.1 0
 0 -5 -8 76.92 5.65 0
 0 -5 -5 5.99 2.1 0
 0 -5 -4 58.15 4.26 0
 0 -5 -3 40.81 3.81 0
 0 -5 -2 19.63 2.8 0
 0 -4 -5 256.03 7.63 0
 0 -4 -4 47.69 3.3 0
 0 -4 -3 791.81 11.86 0
 0 -4 -2 459.19 8.89 0
 0 -3 -3 460.88 8.3 0
 0 -3 -2 806.15 10.12 0
 0 -3 -1 563.91 8.5 0
 0 2 0 9877.76 28.63 0
 0 3 1 571.15 8.32 0
 0 4 -1 358.56 8.19 0
 0 4 1 354.09 7.63 0
 0 5 -2 19.82 3.1 0
 0 5 -1 157.55 6.47 0
 0 5 1 163.91 6 0
 0 6 -3 253.53 9.04 0
 0 6 -2 50.85 4.91 0
 0 6 -1 485.5 11.85 0
 0 6 0 41.86 3.97 0
 0 6 1 492.55 11.14 0
 0 7 -3 64.48 5.95 0
 0 7 -2 21.34 3.85 0
 0 7 -1 179.81 8.08 0
 0 7 1 185.83 7.94 0
 1 -7 -3 109.87 6.57 0
 1 -6 -6 51.87 5.65 0
 1 -6 -5 58.49 5.35 0
 1 -6 -3 221.91 8.56 0
 1 -6 -2 81.44 5.39 0
 1 -5 -7 112.24 6.61 0
 1 -5 -5 16.43 3.6 0
 1 -5 -4 411.73 11.01 0
 1 -5 -1 88.92 5.08 0
 1 -4 -4 58.19 4.16 0
 1 -4 -3 413.11 9.65 0
 1 -4 -2 376.73 9.28 0
 1 -4 -1 1317.95 16.7 0
 1 -3 -3 28.75 3.06 0
 1 -3 -1 365.79 8.08 0
 1 -2 -2 967.24 12.22 0
 1 -2 -1 1965.06 15.58 0
 1 0 0 472.38 4.67 0
 1 2 1 1163.23 6.75 0
 1 3 0 284 5.34 0
 1 4 0 165.95 4.93 0
 1 4 1 510.47 7.9 0
 1 5 -1 83.68 4.6 0
 1 5 0 37.94 3.29 0
 1 6 -2 76.36 5.27 0
 1 6 -1 72.08 4.62 0
 1 6 0 8.67 2.57 0
 1 6 1 171.04 6.29 0
 1 7 -4 155.87 7.96 0
 1 7 -1 8.82 2.85 0
 1 7 0 27.33 3.42 0
 1 7 1 74.73 5.01 0
 1 8 -2 44.49 4.83 0
 1 8 -1 103.81 6.42 0
 1 8 0 73.54 5.56 0
 1 8 1 55.07 5.21 0
 2 -6 -4 21.1 4.27 0
 2 -6 -2 5.93 3.09 0
 2 -5 -6 148.91 7.83 0
 2 -5 -4 9.61 3.07 0
 2 -4 -5 161.69 7.52 0
 2 -4 -4 58.69 4.74 0
 2 -4 -3 15.58 2.96 0
 2 -4 -2 167.3 7.38 0
 2 -4 -1 60.56 4.53 0
 2 -3 -3 90.71 5.06 0
 2 -2 -2 317.65 8 0
 2 -2 -1 474.47 9.06 0
 2 -2 0 815.65 11.93 0
 2 0 1 279.64 4.8 0
 2 4 1 23.66 1.62 0
 2 5 -1 350.55 7.73 0
 2 5 0 162.85 5.11 0
 2 6 -1 189.99 6.52 0
 2 6 0 393.98 8.6 0
 2 6 1 56.71 3.42 0
 2 7 -2 14.78 2.96 0
 2 7 -1 3.82 2.16 0
 2 7 0 19.48 2.85 0
 2 8 -2 66.28 5.35 0
 2 8 -1 1.66 2.02 0
 2 8 0 155.1 6.58 0
 3 -5 -4 74.12 6.51 0
 3 -5 -3 170.54 8.6 0
 3 -5 -2 23.16 4.55 0
 3 -4 -3 248.42 9.46 0
 3 -4 -2 62.71 5.82 0
 3 -4 -1 22.75 3.78 0
 3 -4 0 62.03 5.49 0
 3 -3 -4 754.61 15.35 0
 3 -3 -2 15.46 3.01 0
 3 -3 -1 4.18 2.53 0
 3 -3 0 186.31 7.35 0
 3 -2 -2 63.59 4.32 0
 3 -2 0 684.92 12.35 0
 3 -2 1 91.39 4.86 0
 3 -1 -2 246.43 7.52 0
 3 -1 -1 118.34 4.81 0
 3 -1 1 4.19 1.54 0
 3 0 0 516.15 8.33 0
 3 0 1 580.17 8.41 0
 3 1 0 406.08 6.35 0
 3 1 1 5.52 1.02 0
 3 4 0 56.74 2.13 0
 3 6 -1 2.38 1.62 0
 3 6 0 43.65 2.62 0
 3 7 -2 24.31 3.35 0
 3 7 -1 203.44 6.71 0
 3 7 0 347.46 7.54 0
 4 -4 -3 7.41 3.45 0
 4 -4 -2 9.76 3.43 0
 4 -4 -1 2.37 2.73 0
 4 -3 -5 141.44 7.92 0
 4 -3 -4 216.95 9.07 0
 4 -3 -3 7.59 3.07 0
 4 -3 0 25.18 3.91 0
 4 -2 -3 48.22 4.44 0
 4 -2 -2 4.41 2.98 0
 4 -2 -1 61.72 4.64 0
 4 -2 0 100.2 5.53 0
 4 -1 -3 29.02 4 0
 4 -1 -2 89.94 5.24 0
 4 -1 -1 33.79 3.45 0
 4 -1 1 1194.75 15.63 0
 4 0 -2 0.06 1.5 0
 4 0 0 40.64 3.17 0
 4 0 1 10.34 1.95 0
 4 1 -1 34.87 2.89 0
 4 1 0 19.69 2.24 0
 4 2 0 94.53 3.17 0
 4 3 0 25.07 1.44 0
 5 -3 -2 17.43 4.03 0
 5 -3 -1 26.56 4.16 0
 5 -3 0 248.56 9.66 0
 5 -2 -4 19.31 3.86 0
 5 -2 -2 152.83 7.88 0
 5 -2 -1 35.04 4.7 0
 5 -1 -4 33.67 4.33 0
 5 -1 -3 49.18 4.88 0
 5 -1 -2 75.25 4.99 0
 5 -1 0 186.09 7.11 0
 5 0 -3 296.37 9.46 0
 5 0 0 188.74 6.6 0
 5 1 -2 81.24 4.58 0
 5 1 -1 9.39 2.19 0
 5 1 0 197.74 5.9 0
 5 2 -1 33.95 2.77 0
 5 2 0 97.45 3.45 0
 5 3 -1 17.88 2.03 0
 6 0 -2 36.52 4.2 0
 6 0 -1 112.67 5.9 0
 6 1 -3 61.18 4.74 0
 6 1 -2 27.71 3.54 0
 -5 -3 -3 86.19 5.79 0
 -5 -3 -1 100.02 5.18 0
 -5 -3 0 237.43 6.97 0
 -5 -2 -3 68.12 5.3 0
 -5 -2 -2 18.03 3.29 0
 -5 -2 -1 84.75 4.81 0
 -5 -2 0 104.54 4.61 0
 -5 -1 -2 404.99 10.55 0
 -5 -1 -1 27.42 3.31 0
 -5 -1 0 192.54 6.36 0
 -5 0 -3 2.88 2.41 0
 -5 0 -2 1.29 1.84 0
 -5 1 -3 28.79 4.44 0
 -4 -3 3 8.73 0.9 0
 -4 -2 -5 36.05 4.99 0
 -4 -2 -4 191.34 7.99 0
 -4 -2 -3 14.53 2.78 0
 -4 -2 -2 51.62 3.99 0
 -4 -2 0 103.62 4.21 0
 -4 -2 2 7.69 1.12 0
 -4 -1 -5 43.88 4.98 0
 -4 -1 -4 346.49 10.6 0
 -4 -1 -3 214.34 7.8 0
 -4 -1 -2 288.11 8.25 0
 -4 -1 -1 1240.68 15.52 0
 -4 -1 1 33.85 2.32 0
 -4 0 -5 1.06 2.99 0
 -4 0 -4 11.84 3 0
 -4 0 -2 94.61 5.36 0
 -4 1 -3 234.26 8.51 0
 -3 -6 5 59.71 4.05 0
 -3 -4 5 191.3 4.65 0
 -3 -4 6 98.37 3.28 0
 -3 -3 4 735.9 6.58 0
 -3 -1 -6 136.49 6.96 0
 -3 -1 -5 9.49 2.85 0
 -3 -1 -3 140.76 5.6 0
 -3 -1 -1 5.21 1.46 0
 -3 -1 1 119.98 3.33 0
 -3 -1 2 253.86 3.46 0
 -3 0 -6 7.72 2.93 0
 -3 0 -5 421.89 11.32 0
 -3 0 -4 3.41 2.12 0
 -3 0 -1 569.42 9.55 0
 -3 0 0 514.26 8.24 0
 -3 1 -5 6.8 2.68 0
 -3 1 -4 259.33 8.63 0
 -3 2 -6 30.14 4.5 0
 -3 2 -5 102.21 6.56 0
 -3 2 -4 73.3 5.17 0
 -3 2 -3 121.99 6.24 0
 -2 -7 5 28.2 4.18 0
 -2 -7 6 41.49 4.58 0
 -2 -6 5 7.65 2.47 0
 -2 -6 6 27.29 3.73 0
 -2 -5 5 122.79 5.5 0
 -2 -5 6 157.71 6.15 0
 -2 -5 7 29.7 3.46 0
 -2 -5 8 168.89 6.51 0
 -2 -4 5 166.81 5.37 0
 -2 -4 6 195.02 5.9 0
 -2 -4 7 52.53 3.51 0
 -2 -2 3 109.03 2.59 0
 -2 -2 4 325.37 4.42 0
 -2 -1 -7 45.02 4.37 0
 -2 -1 -6 17.9 3.04 0
 -2 0 -8 36.07 4.58 0
 -2 0 -7 125.74 6.91 0
 -2 0 -4 373.43 9.11 0
 -2 0 -3 718 11.33 0
 -2 0 -2 35.29 2.73 0
 -2 0 -1 283.73 6 0
 -2 1 -8 63.35 6.05 0
 -2 1 -7 45.93 4.83 0
 -2 1 -3 542.03 10.43 0
 -2 1 -2 483.1 9.06 0
 -2 1 -1 267.76 6.17 0
 -2 2 -7 233.45 9.22 0
 -2 2 -6 143.42 7.03 0
 -2 2 -3 86.17 4.71 0
 -1 -6 5 55.49 5.19 0
 -1 -6 6 49.86 4.75 0
 -1 -6 7 93.49 6.4 0
 -1 -5 5 20.56 3.48 0
 -1 -5 6 70.37 5.02 0
 -1 -5 7 119.25 6.36 0
 -1 -5 8 87.12 5.69 0
 -1 -4 4 63.15 4.17 0
 -1 -4 5 15.61 2.79 0
 -1 -4 6 40.82 3.64 0
 -1 -4 7 88.3 4.87 0
 -1 -3 4 588.44 9.53 0
 -1 -3 5 33.34 2.69 0
 -1 -3 6 660.43 10.98 0
 -1 -2 3 501.67 6.94 0
 -1 -2 4 153.78 4.31 0
 -1 -2 5 166.44 4.73 0
 -1 -1 -9 71.81 5.56 0
 -1 -1 -8 317.86 9.96 0
 -1 0 -8 536.86 12.89 0
 -1 0 -7 2.3 2.07 0
 -1 0 -5 3.15 1.69 0
 -1 0 -4 340.21 7.53 0
 -1 0 -3 0.88 1.39 0
 -1 0 -2 107.65 3.5 0
 -1 0 -1 1585.93 10.52 0
 -1 0 0 470.21 4.49 0
 -1 1 -9 67.51 5.48 0
 -1 1 -8 321.5 10.4 0
 -1 1 -7 69.86 5.27 0
 -1 1 -6 150.34 6.28 0
 -1 1 -4 935.63 12.85 0
 -1 1 -3 58.34 3.67 0
 -1 1 -1 1234.34 11.03 0
 -1 2 -9 96.67 6.77 0
 -1 2 -7 196.15 7.85 0
 -1 2 -6 434.78 10.84 0
 -1 2 -5 88.29 4.75 0
 0 -6 4 88.74 6.54 0
 0 -6 5 35.73 4.66 0
 0 -6 6 5.55 2.92 0
 0 -5 5 6.35 2.65 0
 0 -5 6 114.03 6.54 0
 0 -5 7 118.44 7.14 0
 0 -4 4 47.76 4.26 0
 0 -4 5 264.56 8.51 0
 0 -4 6 3.14 2.31 0
 0 -4 7 94.77 5.93 0
 0 -4 8 139.03 6.94 0
 0 -3 3 462.97 9.43 0
 0 -3 4 86.74 4.49 0
 0 -3 5 112.21 5.3 0
 0 -3 6 19.93 3.44 0
 0 -2 3 842.54 10.61 0
 0 -2 4 555.05 9.38 0
 0 -2 5 477.92 9.18 0
 0 -1 -10 23.33 3.8 0
 0 -1 -9 0.79 2.23 0
 0 -1 2 472.39 6.05 0
 0 -1 3 1045.51 10.23 0
 0 0 -10 180.19 8.26 0
 0 0 -9 9.32 3.17 0
 0 0 -8 1085.53 16.64 0
 0 0 -7 108 5.15 0
 0 0 -6 10.14 2.27 0
 0 0 -5 298.77 6.81 0
 0 1 -10 27.49 4.31 0
 0 1 -9 4.2 2.91 0
 0 1 -8 125.78 6.09 0
 0 1 -7 201.74 6.96 0
 0 1 -6 131.06 5.42 0
 0 1 -4 239.49 5.74 0
 0 1 -3 1071.65 10.54 0
 0 1 -2 472.38 6.12 0
 0 2 -10 209.75 9.1 0
 0 2 -9 8.24 2.82 0
 0 2 -8 337.92 10 0
 0 2 -7 266.23 8.47 0
 0 2 -6 10.52 2.37 0
 0 2 -5 480.63 9.64 0
 0 2 -4 573.02 9.84 0
 1 -6 4 67.69 5.81 0
 1 -5 3 -0.14 2.49 0
 1 -5 4 442.2 12.06 0
 1 -5 5 15.3 3.42 0
 1 -5 6 313.84 11.15 0
 1 -4 3 38.68 3.73 0
 1 -4 4 47.76 4.23 0
 1 -4 5 168.23 7.61 0
 1 -4 6 95.67 5.97 0
 1 -3 2 102.9 5.19 0
 1 -3 3 69.55 4.36 0
 1 -3 4 383.96 9.72 0
 1 -3 5 19.24 3.1 0
 1 -3 6 451.43 11.4 0
 1 -2 2 10.82 2.09 0
 1 -2 4 33.39 3.07 0
 1 -1 -11 91.51 5.89 0
 1 -1 -10 67.68 4.85 0
 1 -1 1 1252.2 10.99 0
 1 -1 3 54.36 3.1 0
 1 0 -11 5.89 2.58 0
 1 0 -10 70.63 5.13 0
 1 0 -9 85.74 5.29 0
 1 0 -7 1.68 1.82 0
 1 0 -6 54.91 3.16 0
 1 0 0 478.66 4.45 0
 1 1 -11 105.72 6.57 0
 1 1 -10 62.8 5.05 0
 1 1 -8 52.82 3.87 0
 1 1 -7 352.72 8.14 0
 1 1 -6 690.74 10.2 0
 1 1 -5 20.72 2.12 0
 1 1 -4 2359.69 14.45 0
 1 2 -11 10.07 3.14 0
 1 2 -10 11.81 2.94 0
 1 2 -9 1.65 2.25 0
 1 2 -8 105.35 5.42 0
 1 2 -7 47.32 3.55 0
 2 -6 2 301.56 11.26 0
 2 -5 2 21.23 3.85 0
 2 -4 2 450.78 11.26 0
 2 -4 3 179.23 7.62 0
 2 -4 5 7.35 3.12 0
 2 -4 6 465.61 13.12 0
 2 -3 2 58.61 4.69 0
 2 -3 3 438.77 10.69 0
 2 -3 4 302.03 9.32 0
 2 -3 5 33.54 4.07 0
 2 -3 6 13.55 3.62 0
 2 -2 0 789.26 11.2 0
 2 -2 2 220.07 6.68 0
 2 -2 3 80.42 4.6 0
 2 -2 5 66.13 4.9 0
 2 -1 -11 15 3.13 0
 2 -1 -10 6.19 2.1 0
 2 -1 -9 117.85 5.3 0
 2 -1 -1 305.1 5.5 0
 2 -1 0 587.14 8.08 0
 2 -1 1 278.57 6.23 0
 2 -1 2 483.5 8.83 0
 2 -1 3 524.66 9.94 0
 2 0 -11 13.21 2.87 0
 2 0 -10 66.96 4.31 0
 2 0 -9 57.83 3.82 0
 2 0 -8 31.25 2.87 0
 2 0 -7 38.6 2.65 0
 2 0 -6 61.85 2.67 0
 2 0 -1 350.52 4.37 0
 2 1 -11 10.73 2.6 0
 2 1 -10 8.49 2.23 0
 2 1 -8 147.62 5.13 0
 2 1 -7 352.81 6.85 0
 2 1 -6 88.28 3.12 0
 3 -5 1 21.91 4.15 0
 3 -5 2 154.84 7.98 0
 3 -5 3 58 5.97 0
 3 -4 0 54.78 4.57 0
 3 -4 1 17.64 3.18 0
 3 -4 2 104.37 6.14 0
 3 -4 3 167.18 8.1 0
 3 -3 -1 2.63 1.71 0
 3 -3 0 170.95 6.39 0
 3 -3 1 16.55 3.22 0
 3 -3 2 188.04 7.62 0
 3 -3 3 92.84 5.67 0
 3 -3 4 286.59 9.73 0
 3 -3 5 15.5 3.59 0
 3 -2 -1 274.73 6.91 0
 3 -2 0 686.15 11.31 0
 3 -2 1 88.05 4.47 0
 3 -2 2 8.91 2.4 0
 3 -2 3 116.98 5.73 0
 3 -2 4 73.73 5.39 0
 3 -1 -9 20.63 2.54 0
 3 -1 -3 2.18 0.92 0
 3 -1 -2 240.24 5.06 0
 3 -1 -1 114.36 3.87 0
 3 -1 1 6.32 1.73 0
 3 0 -9 105.29 3.88 0
 3 0 -8 131.14 3.75 0
 3 0 -7 652.42 6.65 0
 4 -5 -1 107.99 6.68 0
 4 -5 0 10.91 3.29 0
 4 -4 -2 9.41 2.38 0
 4 -4 -1 4.72 2.21 0
 4 -4 0 166.73 7.44 0
 4 -4 1 21.41 3.62 0
 4 -4 2 8.92 3.72 0
 4 -3 -3 9.37 2.11 0
 4 -3 -2 139.58 5.94 0
 4 -3 0 27.42 3.31 0
 4 -3 3 216.6 9.05 0
 4 -2 -4 332.27 7.01 0
 4 -2 -3 46.91 3.21 0
 4 -2 -2 6.7 1.77 0
 4 -2 -1 63.41 3.92 0
 4 -2 0 100.53 5.03 0
 4 -2 1 20.94 2.99 0
 4 -2 2 50.3 4.18 0
 4 -1 -5 94.75 2.27 0
 4 -1 -4 453.62 5.76 0
 4 -1 -3 34.77 2.12 0
 4 -1 -2 87.43 3.51 0
 4 -1 -1 36.9 2.67 0
 5 -4 -2 35.4 3.99 0
 5 -4 -1 137.43 6.88 0
 5 -4 0 130.3 6.94 0
 5 -3 -5 62.6 3.9 0
 5 -3 -4 44.06 3.64 0
 5 -3 -3 2.76 1.75 0
 5 -3 -2 12.62 2.85 0
 5 -3 -1 26.71 3.46 0
 5 -3 1 97.78 6.1 0
 5 -2 -5 242.29 5.26 0
 5 -2 -4 22.69 2.29 0
 5 -2 -2 150.12 5.64 0
 5 -2 -1 32.56 3.16 0
 -6 3 4 92.23 7.15 0
 -6 3 5 24.65 5.18 0
 -6 3 7 78.87 8.94 0
 -6 4 6 16.26 5.12 0
 -6 4 7 44.56 7.51 0
 -6 4 8 17.37 5.91 0
 -6 5 7 41.23 7.58 0
 -5 2 3 235.9 9.54 0
 -5 2 4 18.98 4.31 0
 -5 2 5 233.55 10.86 0
 -5 2 7 3.9 4.45 0
 -5 2 8 2.22 4.31 0
 -5 2 9 10.98 5.33 0
 -5 2 10 36.45 8.38 0
 -5 3 1 20.81 3.13 0
 -5 3 2 11.73 3.18 0
 -5 3 3 1.24 2.56 0
 -5 3 4 37.45 5.53 0
 -5 3 5 67.85 7.37 0
 -5 3 6 2.18 3.9 0
 -5 3 7 29.85 6.63 0
 -5 3 10 10.68 5.97 0
 -5 4 3 109.92 7.33 0
 -5 4 4 105.9 7.74 0
 -5 4 5 8.11 4.75 0
 -5 4 6 26.52 6.57 0
 -5 4 7 13.99 5.4 0
 -5 4 9 20.1 6.32 0
 -5 5 2 15.35 3.55 0
 -5 5 3 14.49 4.1 0
 -5 5 4 5.77 3.76 0
 -5 5 5 52.1 7.01 0
 -5 5 6 68.04 8.48 0
 -5 5 7 3.52 4.79 0
 -5 5 8 15.74 7.12 0
 -5 5 9 47.18 8.98 0
 -5 6 4 12.57 4.69 0
 -5 6 5 17.54 5.34 0
 -5 6 6 45.95 7.55 0
 -5 6 8 161.22 13.36 0
 -5 7 4 6.79 4.21 0
 -5 7 5 11.47 6 0
 -5 7 6 41.32 7.81 0
 -4 1 2 89.75 5.27 0
 -4 1 3 34.13 4.42 0
 -4 1 4 443.49 12.68 0
 -4 1 7 424.53 14.98 0
 -4 1 8 13.48 4.77 0
 -4 1 9 66.09 8.48 0
 -4 1 10 23.89 6.08 0
 -4 2 2 5.49 2.31 0
 -4 2 3 44.08 4.4 0
 -4 2 4 312.17 11.32 0
 -4 2 5 3.33 3.32 0
 -4 2 6 11.98 4.2 0
 -4 2 7 153.08 9.77 0
 -4 2 9 54.19 8.53 0
 -4 2 10 123.44 10.91 0
 -4 2 11 89.5 10.17 0
 -4 3 -2 71.8 2.31 0
 -4 3 4 225.89 10.25 0
 -4 3 6 46.19 6.93 0
 -4 3 7 129.22 9.48 0
 -4 3 10 19.99 7 0
 -4 3 11 2.01 5.22 0
 -4 4 1 2.38 2.14 0
 -4 4 2 10.93 3.33 0
 -4 4 3 7.31 3.59 0
 -4 4 5 23.32 5.1 0
 -4 4 6 20.11 5.25 0
 -4 4 7 68.37 8.23 0
 -4 4 8 225.62 13.25 0
 -4 4 9 26.16 7.08 0
 -4 4 10 54.24 8.6 0
 -4 5 1 107.02 6.51 0
 -4 5 2 18.56 4.38 0
 -4 5 3 31 5.01 0
 -4 5 4 36.9 5.83 0
 -4 5 7 106.47 9.35 0
 -4 5 8 14.77 6.36 0
 -4 5 9 135.66 11.5 0
 -4 6 0 185.21 8.56 0
 -4 6 1 8.85 3.61 0
 -4 6 2 19.18 4.36 0
 -4 6 5 22.18 5.68 0
 -4 6 6 36.63 6.84 0
 -4 6 7 31.37 7.31 0
 -4 6 8 24.83 6.92 0
 -4 6 9 7.13 6.05 0
 -4 7 2 76.48 7.76 0
 -4 7 3 13.04 5.24 0
 -4 7 4 5.71 4.46 0
 -4 7 5 40.07 7.05 0
 -4 7 6 10.06 5.6 0
 -4 7 7 49.1 8.67 0
 -4 8 1 1.81 3.26 0
 -4 8 2 40.7 6.7 0
 -4 8 3 40.51 6.85 0
 -4 8 4 31.5 7.11 0
 -4 8 5 15.26 6.1 0
 -4 8 6 30.51 7.26 0
 -4 9 3 52.04 8.56 0
 -4 9 4 0.94 5.43 0
 -3 0 5 -0.51 2.47 0
 -3 0 7 654.77 17.26 0
 -3 0 8 126.91 8.8 0
 -3 0 9 105.67 8.42 0
 -3 1 0 389.98 7.06 0
 -3 1 1 110.68 4.72 0
 -3 1 6 202.31 9.49 0
 -3 1 10 4.45 4.55 0
 -3 1 11 7.58 5.07 0
 -3 1 12 106.45 10.97 0
 -3 2 -1 89.21 3.24 0
 -3 2 0 687.03 10.38 0
 -3 2 4 27.48 4.11 0
 -3 2 5 179.95 9.1 0
 -3 2 6 11.85 4.63 0
 -3 2 8 96.01 8.08 0
 -3 2 9 92.58 8.87 0
 -3 2 10 -1.81 3.96 0
 -3 2 11 26.8 6.77 0
 -3 2 12 52.61 8.5 0
 -3 3 -3 84.53 2.5 0
 -3 3 -2 179.11 4.67 0
 -3 3 -1 19.66 2.39 0
 -3 3 0 173.16 6 0
 -3 3 4 754.08 16.63 0
 -3 3 5 480.21 14.28 0
 -3 3 6 228.48 11.18 0
 -3 3 7 125.43 8.86 0
 -3 3 8 25.59 5.83 0
 -3 3 9 6.5 4.7 0
 -3 3 11 12.61 6.09 0
 -3 4 1 25.26 4.05 0
 -3 4 2 65.18 5.73 0
 -3 4 3 245.32 10.22 0
 -3 4 4 56.1 6.3 0
 -3 4 5 189.54 10.11 0
 -3 4 7 17.68 5 0
 -3 4 8 52.71 7.55 0
 -3 4 9 51.72 7.87 0
 -3 4 10 45.9 7.8 0
 -3 5 0 319.31 10.49 0
 -3 5 1 429.01 12.37 0
 -3 5 2 19.74 4.38 0
 -3 5 3 158.59 9.3 0
 -3 5 5 147.34 9.44 0
 -3 5 6 52.97 7.36 0
 -3 5 7 20.18 6.29 0
 -3 5 8 -1.61 4.12 0
 -3 5 9 162.34 11.73 0
 -3 5 10 15.51 6.26 0
 -3 5 11 20.03 8.13 0
 -3 6 1 5.18 3.2 0
 -3 6 2 74.7 6.76 0
 -3 6 3 270.14 12.52 0
 -3 6 4 3.81 4.56 0
 -3 6 5 65.62 7.61 0
 -3 6 6 32.11 6.57 0
 -3 6 7 37.99 7.66 0
 -3 6 8 143.87 11.61 0
 -3 6 9 9.57 5.94 0
 -3 6 10 1.08 6.06 0
 -3 7 3 160.4 10.91 0
 -3 7 8 104.13 11.36 0
 -3 8 3 28.45 6.64 0
 -3 8 5 2.4 5.17 0
 -3 9 2 14.41 5.65 0
 -3 9 5 2.66 5.96 0
 -3 10 1 33.85 7.96 0
 -2 0 1 349.51 6.76 0
 -2 0 2 1.01 1.72 0
 -2 0 7 34.79 5.16 0
 -2 0 8 30.1 5.02 0
 -2 1 -1 271.46 3.8 0
 -2 1 1 287.99 6.57 0
 -2 1 7 368.39 12.56 0
 -2 1 8 147.8 9.26 0
 -2 1 9 113.17 8.34 0
 -2 1 11 17.47 5.8 0
 -2 1 12 51.87 7.82 0
 -2 2 -7 214.32 5.55 0
 -2 2 -6 137.92 4.06 0
 -2 2 -5 61.83 2.41 0
 -2 2 0 781.61 10.38 0
 -2 2 1 474.73 9.32 0
 -2 2 7 149.18 8.83 0
 -2 2 10 205.45 11.74 0
 -2 2 11 7.37 4.88 0
 -2 2 12 2.78 5.17 0
 -2 2 13 33.24 7.77 0
 -2 3 -7 222.22 6.07 0
 -2 3 -6 12.07 1.85 0
 -2 3 -5 29.67 2.34 0
 -2 3 6 174.83 8.98 0
 -2 3 7 69.21 7.02 0
 -2 3 8 25.86 5.36 0
 -2 3 9 11.25 4.88 0
 -2 3 10 27.9 6.47 0
 -2 3 11 23.99 6.4 0
 -2 3 12 31.27 7.32 0
 -2 3 13 34.56 7.62 0
 -2 4 3 18.57 3.71 0
 -2 4 4 60.05 6.24 0
 -2 4 5 184.46 9.43 0
 -2 4 8 115.97 8.76 0
 -2 4 9 88.19 8.64 0
 -2 4 11 34.41 7.16 0
 -2 4 12 1.94 5.11 0
 -2 5 3 315.45 12.23 0
 -2 5 4 11.75 4.12 0
 -2 5 5 110.72 8.76 0
 -2 5 6 147.04 9.71 0
 -2 5 7 28.7 5.7 0
 -2 5 8 169.2 10.88 0
 -2 5 9 31.77 6.53 0
 -2 5 11 202.63 14.47 0
 -2 6 4 19.02 4.98 0
 -2 6 6 26.44 5.85 0
 -2 6 7 22.08 5.86 0
 -2 6 8 139.43 10.6 0
 -2 7 5 26.85 6.27 0
 -2 7 6 52.9 8.36 0
 -2 7 7 15.35 5.97 0
 -2 7 9 20.22 6.91 0
 -2 8 4 13.95 5.78 0
 -2 8 6 20.69 6.93 0
 -2 9 4 64.64 9.63 0
 -2 9 5 6.59 5.79 0
 -2 9 6 1.86 5.85 0
 -1 0 1 31.83 2.07 0
 -1 0 3 305.93 7.33 0
 -1 0 7 0.76 2.94 0
 -1 0 8 9.16 3.5 0
 -1 0 10 81.12 7.74 0
 -1 1 -7 71.19 4.49 0
 -1 1 2 21.83 2.72 0
 -1 1 6 666.06 14.54 0
 -1 1 7 360.27 11.84 0
 -1 1 8 51.6 5.65 0
 -1 1 10 67.95 7.72 0
 -1 1 11 106.69 8.69 0
 -1 1 12 33.68 6.25 0
 -1 1 13 4.08 5.27 0
 -1 2 -6 459.53 9.42 0
 -1 2 -5 80.5 4 0
 -1 2 2 956.3 13.54 0
 -1 2 5 164.97 7.32 0
 -1 2 6 218.86 8.89 0
 -1 2 7 46.57 5.42 0
 -1 2 9 0.15 3.82 0
 -1 2 11 14.15 4.96 0
 -1 2 12 37.62 6.78 0
 -1 2 13 3.88 5.3 0
 -1 3 -5 24.44 2.74 0
 -1 3 4 589.19 13.49 0
 -1 3 6 684.42 16.34 0
 -1 3 7 530.73 15.15 0
 -1 3 8 111.97 8.74 0
 -1 3 9 103.46 8.4 0
 -1 3 10 88.98 8.21 0
 -1 3 11 13.87 5.38 0
 -1 3 13 4.64 5.11 0
 -1 4 6 35.25 5.38 0
 -1 4 7 87.05 7.51 0
 -1 4 8 6.89 4.15 0
 -1 4 9 93.04 9.35 0
 -1 4 10 21.92 5.94 0
 -1 4 11 31.75 6.68 0
 -1 4 12 6.36 6.13 0
 -1 5 5 19.89 4.44 0
 -1 5 6 62.22 7.07 0
 -1 5 7 120.76 9.07 0
 -1 5 8 91.42 8.48 0
 -1 5 10 7.27 5.04 0
 -1 6 6 49.87 7.24 0
 -1 6 7 90.6 9.4 0
 -1 6 10 20.02 6.32 0
 -1 6 11 51.51 9.36 0
 -1 7 6 34.8 6.89 0
 -1 7 9 33.12 8.41 0
 -1 7 10 11.23 5.95 0
 -1 8 6 1.09 4.56 0
 -1 8 7 38.82 7.8 0
 -1 8 8 43.97 8.78 0
 0 0 -5 293.01 7.74 0
 0 0 -2 2982.15 15.05 0
 0 0 2 2910.03 14.81 0
 0 0 4 247.91 6.48 0
 0 0 7 109.58 6.27 0
 0 0 9 8.46 3.17 0
 0 0 10 169.14 9.02 0
 0 1 -3 1046.29 11.28 0
 0 1 3 1060.64 12.53 0
 0 1 4 227.07 6.68 0
 0 1 7 200.44 8.48 0
 0 1 8 134.11 7.55 0
 0 1 9 5.37 3.3 0
 0 1 10 27.92 4.98 0
 0 1 11 133.52 9.11 0
 0 1 12 120.32 9.3 0
 0 2 -5 474.37 9.97 0
 0 2 6 11.7 3.11 0
 0 2 7 266.94 9.8 0
 0 2 8 356.05 12.16 0
 0 2 9 6.94 3.57 0
 0 2 10 217.12 11.08 0
 0 2 11 37.75 6.02 0
 0 2 12 40.28 6.62 0
 0 3 5 111.7 6.49 0
 0 3 7 17.95 4.07 0
 0 3 9 35.11 5.63 0
 0 3 11 69.62 8.23 0
 0 3 12 59.44 8.55 0
 0 3 13 17.02 5.61 0
 0 4 8 133.82 8.98 0
 0 4 9 0.57 3.72 0
 0 4 10 225.09 12.4 0
 0 4 11 107.75 9.89 0
 0 4 12 1.65 4.68 0
 0 5 8 61.95 7.6 0
 0 5 10 24.03 6.11 0
 0 5 11 7.02 4.99 0
 0 5 12 11.12 5.56 0
 0 6 8 20.4 5.95 0
 0 6 9 54.5 8 0
 0 6 10 131.85 10.97 0
 0 6 11 69.21 9.24 0
 0 7 9 1.76 5.5 0
 0 7 10 41.08 8.12 0
 0 8 7 0.99 4.88 0
 0 8 8 6.56 6.82 0
 1 -1 -4 2314.07 22.55 0
 1 -1 -3 1163.78 14.43 0
 1 -1 -2 23.89 2.79 0
 1 0 -1 36.2 2.36 0
 1 0 3 1.61 1.09 0
 1 0 4 349.02 6.43 0
 1 0 5 2.12 1.72 0
 1 0 8 513.81 11.74 0
 1 0 9 134.8 6.95 0
 1 1 -4 2341.1 21.72 0
 1 1 -3 1150.28 13.67 0
 1 1 4 945.37 12.26 0
 1 1 5 81.51 4.31 0
 1 1 8 326.98 10.33 0
 1 1 10 57.27 5.85 0
 1 1 11 31.14 4.65 0
 1 2 7 189 7.95 0
 1 2 10 38.2 5.41 0
 1 2 11 24.73 4.86 0
 1 3 6 441.27 12.38 0
 1 3 7 62.02 6.14 0
 1 3 8 29.17 5.06 0
 1 3 9 109.57 8.08 0
 1 3 10 59.21 6.83 0
 1 3 11 27.23 5.49 0
 1 3 12 -0.11 3.57 0
 1 4 8 49.23 6.34 0
 1 4 9 51.52 6.99 0
 1 4 11 35.12 6.19 0
 1 4 12 11.19 5.17 0
 1 5 8 5.42 4.15 0
 1 5 9 29.79 5.92 0
 1 5 10 180.57 11.43 0
 1 5 11 9.11 5.11 0
 1 5 12 22.41 6.11 0
 1 6 7 239.07 13.31 0
 1 6 8 19.24 5.62 0
 1 6 9 26.02 6.11 0
 1 6 11 106.01 9.66 0
 1 7 8 15.86 5.97 0
 1 7 9 100.35 10.06 0
 1 7 10 48.86 8.81 0
 1 8 8 3.03 5.21 0
 2 -1 -3 203.7 7.46 0
 2 -1 -1 299.74 6.83 0
 2 -1 0 613.37 7.84 0
 2 0 -3 1.42 2.5 0
 2 0 -2 0.02 1.91 0
 2 0 1 281.8 4.17 0
 2 0 4 372.33 4.68 0
 2 0 5 44.76 2.28 0
 2 0 6 133.82 4.19 0
 2 0 7 123.66 4.63 0
 2 1 -3 207.63 7.04 0
 2 1 -2 25.56 3.23 0
 2 1 4 117.57 4.05 0
 2 1 5 20.99 2.4 0
 2 1 6 22.61 2.8 0
 2 1 9 11.03 2.7 0
 2 1 10 24.93 3.85 0
 2 2 7 219.87 7.95 0
 2 2 8 24.83 4.01 0
 2 2 9 125.44 7.17 0
 2 2 10 16.2 3.58 0
 2 3 6 14.32 3.49 0
 2 3 8 59.6 5.75 0
 2 3 9 17.16 3.91 0
 2 3 10 4.36 3.63 0
 2 4 7 171.32 9.28 0
 2 4 8 6.74 3.51 0
 2 4 10 46.42 6.24 0
 2 4 11 18.54 4.9 0
 2 5 7 102.89 8.41 0
 2 5 8 16.7 5.74 0
 2 5 9 43.28 6.57 0
 2 5 11 6.06 4.4 0
 2 6 10 103.82 9.68 0
 2 7 10 31.4 6.75 0
 2 8 8 14.3 6.64 0
 3 -1 0 408.72 7.52 0
 3 0 -2 225.94 7.17 0
 3 0 -1 475.55 9.43 0
 3 0 0 508.86 8.49 0
 3 0 1 584.58 7.68 0
 3 0 2 63.72 1.97 0
 3 1 0 411.85 8.26 0
 3 1 4 250.8 5.12 0
 3 1 5 7.73 1.36 0
 3 1 6 142.85 4.12 0
 3 1 8 22.34 2.31 0
 3 3 6 49.24 4.68 0
 3 3 7 75.84 5.54 0
 3 3 9 8.68 3.33 0
 3 4 7 38.62 5.36 0
 3 4 8 110.68 7.19 0
 3 4 9 5.44 3.18 0
 3 5 7 104.58 8.38 0
 3 5 8 32.86 5.47 0
 3 5 9 7.03 4.24 0
 3 6 8 92.52 8.27 0
 3 6 9 6.14 4.28 0
 4 -1 0 20.6 2.48 0
 4 0 -1 10.46 2.36 0
 4 0 0 38.14 3.02 0
 4 0 1 11.37 1.77 0
 4 0 2 97.27 2.8 0
 4 1 0 19.63 2.88 0
 4 1 1 1242.33 14.57 0
 4 1 2 291.85 6.38 0
 4 1 3 225.51 4.75 0
 4 2 5 39.16 2.95 0
 4 3 6 147.9 6.41 0
 5 0 1 157.31 5.08 0
 -8 -2 -4 14.46 7.64 0
 -8 -2 -3 11.99 9.32 0
 -8 -1 -4 24.79 9.01 0
 -8 -1 -2 21.07 9.1 0
 -8 0 -4 58.32 11.9 0
 -8 0 -3 20.2 7.63 0
 -8 0 -2 115.29 12.31 0
 -8 1 -4 15.89 7.77 0
 -8 1 -2 21.28 7.33 0
 -8 1 -1 6.77 5.23 0
 -8 2 -4 19.87 8.27 0
 -8 2 -3 21.01 7.78 0
 -7 -4 -6 2.97 9.22 0
 -7 -4 -4 28.14 8.89 0
 -7 -3 -5 28.46 9.15 0
 -7 -3 -4 15.93 7.98 0
 -7 -3 -3 37.05 10.1 0
 -7 -2 -7 5.91 8.12 0
 -7 -2 -6 10.95 8.58 0
 -7 -2 -5 20.96 8.67 0
 -7 -2 -4 2.18 7.04 0
 -7 -2 -2 7.21 6.24 0
 -7 -1 -6 14.73 8.19 0
 -7 -1 -5 2.41 7.04 0
 -7 -1 -2 3.39 7.36 0
 -7 0 -7 1.8 8.57 0
 -7 0 -6 3.46 6.55 0
 -7 0 -5 7.25 7.08 0
 -7 0 -4 19.91 8.65 0
 -7 0 -2 52.23 9.52 0
 -7 0 -1 22.41 7.26 0
 -7 0 0 16.86 5.84 0
 -7 1 -7 1.02 7.61 0
 -7 1 -6 7.39 6.85 0
 -7 1 -5 17.43 7.97 0
 -7 1 -1 85.19 9.24 0
 -7 1 0 73.29 8.13 0
 -7 2 -7 -3.9 6 0
 -7 2 -6 5.67 6.53 0
 -7 2 -5 17.31 7.24 0
 -7 2 -4 0.43 5.47 0
 -7 2 -3 35.3 7.46 0
 -7 2 -2 16.09 6.19 0
 -7 2 -1 87.13 8.97 0
 -7 2 0 26.86 5.67 0
 -7 3 -7 18.61 7.77 0
 -7 3 -6 9.85 6.66 0
 -7 3 -5 24.86 7.17 0
 -7 3 -4 11.38 6.14 0
 -7 3 -3 33.84 6.83 0
 -7 3 -2 4.15 4.74 0
 -7 4 -6 3.98 6.91 0
 -7 4 -5 19.92 6.98 0
 -6 -5 -8 34.96 10.84 0
 -6 -5 -7 89.57 14.15 0
 -6 -5 -6 15.08 8.53 0
 -6 -5 -5 27.25 9.22 0
 -6 -4 -9 5.19 7.59 0
 -6 -4 -8 31.57 10.7 0
 -6 -4 -6 34.11 9.22 0
 -6 -4 -5 4 6.88 0
 -6 -4 -4 14.38 7.03 0
 -6 -4 -3 54.59 9.94 0
 -6 -3 -9 7 8.6 0
 -6 -3 -8 15.34 8.4 0
 -6 -3 -7 24.35 8.79 0
 -6 -3 -6 2.59 6.74 0
 -6 -3 -5 40.01 9.14 0
 -6 -3 -4 43.7 9.15 0
 -6 -3 -3 38.43 8.45 0
 -6 -3 -1 57.73 8.86 0
 -6 -2 -9 -3.45 7.2 0
 -6 -2 -7 35.03 9.78 0
 -6 -2 -6 38.37 9.28 0
 -6 -2 -4 30.99 8.01 0
 -6 -2 -3 7.08 6.87 0
 -6 -2 -1 12 5.84 0
 -6 -1 -10 125.45 13.97 0
 -6 -1 -9 23.51 8.74 0
 -6 -1 -8 136.68 14.8 0
 -6 -1 -7 7.54 7.09 0
 -6 -1 -5 0.77 5.59 0
 -6 -1 -4 26.57 8.23 0
 -6 -1 -3 1.66 5.3 0
 -6 -1 -2 14.08 5.76 0
 -6 -1 -1 57.5 8.27 0
 -6 -1 0 5.32 4.54 0
 -6 0 -8 6.35 7.09 0
 -6 0 -7 13.73 7.98 0
 -6 0 -6 4.96 6.49 0
 -6 0 -5 6.38 6.04 0
 -6 0 -1 3.37 4.67 0
 -6 0 0 108.2 9.6 0
 -6 1 -10 124.6 15.17 0
 -6 1 -8 122.9 13.75 0
 -6 1 -7 5.08 6.41 0
 -6 1 -6 13.48 6.52 0
 -6 1 -5 5.13 6.29 0
 -6 1 -3 1.67 4.74 0
 -6 1 -1 50.03 6.93 0
 -6 2 -9 1.03 6.9 0
 -6 2 -8 10.17 7.89 0
 -6 2 -7 47.03 9.59 0
 -6 2 -6 38.48 8.39 0
 -6 2 -5 26.22 7.53 0
 -6 2 -4 29.81 7.69 0
 -6 2 -3 10.09 5.27 0
 -6 2 -2 47.3 7.02 0
 -6 2 -1 6.17 4.17 0
 -6 3 -9 10.17 7.48 0
 -6 3 -8 23.41 7.99 0
 -6 3 -7 27.28 8.11 0
 -6 3 -6 -0.67 5.17 0
 -6 3 -5 26.41 7.39 0
 -6 3 -4 38.78 7.22 0
 -6 3 -3 33.96 6.9 0
 -6 3 -2 25.18 5.93 0
 -6 4 -7 6.86 6.3 0
 -6 4 -6 31.47 7.11 0
 -6 4 -5 12.92 6.39 0
 -6 4 -4 24.76 6.76 0
 -6 4 -3 56.47 8.14 0
 -6 5 -7 67.45 10.72 0
 -6 5 -6 17.78 6.61 0
 -6 5 -5 19.98 6.44 0
 -6 5 -4 91.9 9.07 0
 -6 5 -3 64.47 7.59 0
 -6 6 -7 -1.81 6.01 0
 -6 6 -6 14.3 6.44 0
 -6 6 -5 7.79 4.99 0
 -5 -6 -9 20.84 9.82 0
 -5 -6 -8 12.45 7.64 0
 -5 -6 -7 43.08 10.04 0
 -5 -6 -6 3.43 6.17 0
 -5 -6 -5 8.25 6.21 0
 -5 -5 -9 26.79 8.99 0
 -5 -5 -8 18.02 9.43 0
 -5 -5 -7 14.52 8.02 0
 -5 -5 -6 26.18 8.11 0
 -5 -5 -5 45.3 9.46 0
 -5 -5 -4 0.27 6.57 0
 -5 -4 -10 8.92 8.01 0
 -5 -4 -9 2.5 6.8 0
 -5 -4 -8 32.02 9.1 0
 -5 -4 -7 89.68 11.85 0
 -5 -4 -6 -0.54 5.84 0
 -5 -4 -5 26.41 7.81 0
 -5 -4 -4 102.01 10.67 0
 -5 -4 -3 1.5 4.97 0
 -5 -3 -11 23.74 8.73 0
 -5 -3 -9 100.65 12.82 0
 -5 -3 -8 65.87 10.36 0
 -5 -3 -7 50.88 9.35 0
 -5 -3 -6 91.31 10.74 0
 -5 -3 -5 2.66 5.21 0
 -5 -3 -4 2.63 4.66 0
 -5 -3 -3 96.17 9.5 0
 -5 -3 -2 124.28 10.73 0
 -5 -3 -1 103.4 9.69 0
 -5 -2 -11 0.69 7.84 0
 -5 -2 -10 56.76 10.73 0
 -5 -2 -9 32.25 8.45 0
 -5 -2 -8 25.78 7.67 0
 -5 -2 -6 13.94 6.35 0
 -5 -2 -5 37.4 7.5 0
 -5 -2 -4 29.38 6.75 0
 -5 -2 -3 75.58 9.06 0
 -5 -1 -9 28.76 8.57 0
 -5 -1 -8 18.09 7.11 0
 -5 -1 -7 9.55 5.83 0
 -5 -1 -4 19.8 5.61 0
 -5 -1 -3 32.15 6.54 0
 -5 -1 1 13.88 4.6 0
 -5 0 -11 -0.96 6.45 0
 -5 0 -9 81.1 12.54 0
 -5 0 -6 10.57 6.02 0
 -5 0 -5 49.09 7.85 0
 -5 0 -4 63.53 8.32 0
 -5 0 -3 1.29 4.17 0
 -5 0 0 198.76 10.25 0
 -5 0 1 75.62 6.54 0
 -5 1 -11 31.36 10.66 0
 -5 1 -10 176.04 14.52 0
 -5 1 -9 18.75 8 0
 -5 1 -8 25.06 7.78 0
 -5 1 -6 9.34 5.36 0
 -5 1 -5 41.21 7.36 0
 -5 1 -3 32.03 5.9 0
 -5 1 -1 28.84 5.75 0
 -5 1 0 195.06 9.49 0
 -5 1 1 8.04 3.93 0
 -5 2 -9 18.92 6.99 0
 -5 2 -5 34.26 7.12 0
 -5 2 0 112.59 6.99 0
 -5 2 1 27.69 4.29 0
 -5 2 2 136.87 6.52 0
 -5 3 -10 102.57 12.6 0
 -5 3 -9 120.14 13.21 0
 -5 3 -6 87.34 9.38 0
 -5 3 -4 3.74 4.13 0
 -5 3 -1 100.3 7.25 0
 -5 3 0 243.64 9.49 0
 -5 3 1 21.32 3.59 0
 -5 3 2 15.81 2.58 0
 -5 4 -9 3.67 6.21 0
 -5 4 -8 37.69 8.26 0
 -5 4 -7 104.64 11.02 0
 -5 4 -6 7.2 5.3 0
 -5 4 -5 23.12 6.03 0
 -5 4 -4 103.48 8.67 0
 -5 4 -3 4.76 4.27 0
 -5 4 -1 7.98 2.96 0
 -5 4 0 117.18 6.51 0
 -5 5 -9 35.9 9.01 0
 -5 5 -8 25.02 7.57 0
 -5 5 -7 20.86 6.63 0
 -5 5 -6 16.19 5.79 0
 -5 5 -5 45.82 7.06 0
 -5 5 -4 9.31 5.11 0
 -5 5 -3 85.09 7.28 0
 -5 6 -9 19.66 7.44 0
 -5 6 -8 15.35 7.93 0
 -5 6 -7 49.73 9.1 0
 -5 6 -6 5.12 5.66 0
 -5 6 -5 11.3 5.4 0
 -5 7 -8 36.6 7.89 0
 -5 7 -7 0.48 5.38 0
 -5 7 -6 98.26 9.63 0
 -5 7 -5 21.05 5.84 0
 -4 -7 -9 2.22 6.54 0
 -4 -7 -8 17.4 7.57 0
 -4 -6 -10 7.52 7.46 0
 -4 -6 -7 49.29 8.86 0
 -4 -6 -6 9.99 6.11 0
 -4 -6 -5 3.87 5.09 0
 -4 -5 -11 99.44 12.9 0
 -4 -5 -10 7.87 6.62 0
 -4 -5 -9 25.14 8.56 0
 -4 -5 -7 22.33 8.34 0
 -4 -5 -6 11.51 6.05 0
 -4 -5 -5 17.01 7.17 0
 -4 -5 -4 123.54 11.21 0
 -4 -5 -3 264.85 14.13 0
 -4 -4 -11 6.4 6.91 0
 -4 -4 -10 16.66 7.47 0
 -4 -4 -9 100.76 12.14 0
 -4 -4 -8 15.78 6.52 0
 -4 -4 -7 32.92 7.66 0
 -4 -4 -6 49.97 8.13 0
 -4 -4 -5 8.45 5.19 0
 -4 -4 -4 44.92 7.12 0
 -4 -4 -3 6.37 4.73 0
 -4 -4 -2 7.1 4.82 0
 -4 -3 -12 37.58 9.65 0
 -4 -3 -11 22.94 8.11 0
 -4 -3 -10 18.93 7.75 0
 -4 -3 -9 17.33 6.95 0
 -4 -3 -8 41.79 8.14 0
 -4 -3 -5 19.49 5.78 0
 -4 -3 0 25.62 5.05 0
 -4 -2 -12 8.12 8.82 0
 -4 -2 -11 15.89 7.36 0
 -4 -2 -10 35.6 9.44 0
 -4 -2 -9 38.42 8.83 0
 -4 -2 -7 5.87 5.22 0
 -4 -2 -6 144.12 11.36 0
 -4 -2 -5 38.98 6.95 0
 -4 -2 -2 50.67 6.32 0
 -4 -2 -1 22.31 5.06 0
 -4 -2 0 103.09 7.79 0
 -4 -1 -13 9.32 7.77 0
 -4 -1 -9 99.48 11.08 0
 -4 -1 -8 23.07 7.13 0
 -4 -1 -7 31.04 6.67 0
 -4 -1 -6 185.87 11.99 0
 -4 -1 -2 297.23 11.97 0
 -4 -1 -1 1234.45 22.62 0
 -4 0 -13 21.31 8.73 0
 -4 0 -12 9.68 8.56 0
 -4 0 -10 68.17 10.23 0
 -4 0 -9 11.62 6.61 0
 -4 0 -8 100.59 10.32 0
 -4 0 -7 23.59 6.14 0
 -4 0 -6 135.83 9.86 0
 -4 0 -3 64.96 6.59 0
 -4 0 -2 94.77 7.27 0
 -4 0 -1 13.35 3.69 0
 -4 0 0 40.64 4.8 0
 -4 0 1 9.94 3.61 0
 -4 1 -13 13.82 7.73 0
 -4 1 -12 23.66 7.97 0
 -4 1 -8 22.17 6.11 0
 -4 1 -7 24.1 6.03 0
 -4 1 -6 186.55 11.37 0
 -4 1 -1 1240.47 20.77 0
 -4 1 0 20.39 3.7 0
 -4 1 2 97.49 5.39 0
 -4 2 -13 10.97 7.85 0
 -4 2 -11 13.5 7.61 0
 -4 2 -10 27.56 7.52 0
 -4 2 -9 24.46 7.16 0
 -4 2 -7 0.48 4.29 0
 -4 2 -6 136.03 9.74 0
 -4 2 -3 15.04 4.18 0
 -4 2 -1 18.76 4.02 0
 -4 2 1 60.17 4.36 0
 -4 3 -12 32.01 10.08 0
 -4 3 -11 32.41 8.65 0
 -4 3 -10 23.12 7.44 0
 -4 3 -9 17.17 6.69 0
 -4 3 -8 39.71 8.1 0
 -4 3 -7 15.68 5.35 0
 -4 3 -6 150.51 10.22 0
 -4 3 -5 16.83 4.81 0
 -4 3 -3 208.31 9.82 0
 -4 3 -2 70.75 5.94 0
 -4 3 -1 375.34 10.77 0
 -4 3 0 26.78 3.77 0
 -4 3 2 131.28 4.78 0
 -4 4 -10 17.54 7.81 0
 -4 4 -9 106.76 11.82 0
 -4 4 -8 11.72 6.65 0
 -4 4 -6 50.36 7.25 0
 -4 4 -5 12.87 5.08 0
 -4 4 -3 3.1 3.37 0
 -4 4 -2 5.22 3.03 0
 -4 4 0 175.36 6.72 0
 -4 4 1 4.73 1.72 0
 -4 5 -11 112.67 12.5 0
 -4 5 -6 6.68 5.43 0
 -4 5 -5 20.24 5.77 0
 -4 5 -2 68.37 5.88 0
 -4 5 -1 95.27 5.71 0
 -4 6 -10 10.49 6.84 0
 -4 6 -9 21.47 7.27 0
 -4 6 -7 44.38 7.87 0
 -4 6 -6 8.95 5.67 0
 -4 6 -5 6.47 4.75 0
 -4 6 -2 16.39 3.59 0
 -4 6 -1 -0.84 1.85 0
 -4 7 -9 3.8 6.14 0
 -4 7 -8 12.36 6.56 0
 -4 7 -7 25.39 6.8 0
 -4 7 -4 31.67 5.92 0
 -4 7 -3 98.16 7.77 0
 -4 8 -8 36.53 8.51 0
 -4 8 -7 19.4 6.7 0
 -4 9 -7 -0.41 5.97 0
 -3 -7 -11 10.17 6.49 0
 -3 -7 -10 26.43 8.14 0
 -3 -7 -9 2.58 5.77 0
 -3 -7 -8 59.14 9.38 0
 -3 -7 -7 12.84 5.85 0
 -3 -6 -12 16.43 7.66 0
 -3 -6 -11 9.73 6.65 0
 -3 -6 -10 120.9 12.2 0
 -3 -6 -9 12.72 6.46 0
 -3 -6 -6 65.36 9.02 0
 -3 -6 -5 2.74 4.57 0
 -3 -5 -11 3.96 6.14 0
 -3 -5 -9 4.03 6.37 0
 -3 -5 -8 39.19 8.3 0
 -3 -5 -6 79.43 8.44 0
 -3 -5 -5 46.35 7.32 0
 -3 -4 -12 10.52 7.37 0
 -3 -4 -11 33.61 7.91 0
 -3 -4 -10 106.75 10.66 0
 -3 -4 -9 2.54 5.56 0
 -3 -4 -8 135.09 11.25 0
 -3 -4 -7 46.12 7.56 0
 -3 -4 -6 16.39 5.69 0
 -3 -4 -3 171.86 10.1 0
 -3 -4 -1 24.56 4.73 0
 -3 -3 -13 21.52 7.7 0
 -3 -3 -12 15.56 7.51 0
 -3 -3 -10 10.53 6.48 0
 -3 -3 -9 16.44 6.94 0
 -3 -3 -7 75.21 8.64 0
 -3 -3 -4 276.42 11.82 0
 -3 -3 -3 93.62 7.14 0
 -3 -3 -1 15.86 4.1 0
 -3 -2 -14 55.19 10.47 0
 -3 -2 -12 23.94 8.29 0
 -3 -2 -11 13.17 7.61 0
 -3 -2 -10 9.6 5.92 0
 -3 -2 -9 42.97 7.5 0
 -3 -2 -8 150.36 10.77 0
 -3 -2 -3 117.71 7.48 0
 -3 -2 -2 7.67 3.11 0
 -3 -2 0 687.13 15.29 0
 -3 -1 -14 26.59 8.91 0
 -3 -1 -12 14.75 6.96 0
 -3 -1 -10 30.22 7.22 0
 -3 -1 -9 25.61 6.18 0
 -3 -1 -7 96.89 8.47 0
 -3 -1 -5 4.96 3.34 0
 -3 -1 -4 259.32 10.5 0
 -3 -1 -1 4.03 2.83 0
 -3 -1 0 399.26 10.87 0
 -3 -1 1 120.9 6.13 0
 -3 0 -14 10.91 8.75 0
 -3 0 -13 40.64 9.05 0
 -3 0 -12 -0.16 5.87 0
 -3 0 -11 1.49 5.14 0
 -3 0 -10 52.32 8.1 0
 -3 0 -8 -2.1 3.4 0
 -3 0 -7 366.13 14.47 0
 -3 0 -5 446.95 14.04 0
 -3 0 -4 2.4 2.91 0
 -3 0 -3 19.85 4.07 0
 -3 0 0 498.58 11.03 0
 -3 0 1 466.21 10.55 0
 -3 1 -14 28.73 9.11 0
 -3 1 -13 3.98 6.65 0
 -3 1 -12 26.14 7.88 0
 -3 1 -11 68.1 10.26 0
 -3 1 -10 39.46 7.79 0
 -3 1 -9 23.84 6.02 0
 -3 1 -8 24.9 6.31 0
 -3 1 -7 94 8.65 0
 -3 1 -5 7.4 3.56 0
 -3 1 -4 255.63 10.07 0
 -3 1 -2 79.38 5.31 0
 -3 1 -1 5.6 2.48 0
 -3 1 0 385.87 9.13 0
 -3 1 2 233.85 6.26 0
 -3 2 -14 65.64 12.48 0
 -3 2 -13 1.82 6.77 0
 -3 2 -12 26.95 8.81 0
 -3 2 -11 8.28 6.04 0
 -3 2 -10 5.92 5.37 0
 -3 2 -7 208.97 11.57 0
 -3 2 -5 96.59 7.63 0
 -3 2 -4 75.8 6.34 0
 -3 2 -3 126.21 7.15 0
 -3 2 -2 8.73 2.78 0
 -3 2 0 663.98 11.18 0
 -3 3 -11 -0.31 6.23 0
 -3 3 -10 13.49 6.05 0
 -3 3 -9 5.81 4.97 0
 -3 3 -1 17.7 2.83 0
 -3 3 0 174.7 5.83 0
 -3 3 2 14.03 1.39 0
 -3 4 -13 37.22 9.84 0
 -3 4 -12 15.8 7.69 0
 -3 4 -11 22.23 7.67 0
 -3 4 1 21.64 2.03 0
 -3 4 2 63.9 1.79 0
 -3 5 -12 3.09 6.75 0
 -3 5 1 415.59 7.34 0
 -2 -7 -11 6.29 5.4 0
 -2 -7 -9 24.62 6.58 0
 -2 -6 -11 5.02 5.19 0
 -2 -6 -9 16.02 5.64 0
 -2 -5 -13 9.73 6.94 0
 -2 -5 -12 13.14 5.94 0
 -2 -5 -11 6.4 6.23 0
 -2 -5 -10 45.83 7.62 0
 -2 -5 -8 18.9 5.33 0
 -2 -5 -5 0.47 4.39 0
 -2 -5 -4 19.43 5.16 0
 -2 -5 -3 13.64 4.26 0
 -2 -4 -14 70.18 11.08 0
 -2 -4 -13 1.81 5.77 0
 -2 -4 -12 31.48 7.73 0
 -2 -4 -11 19.72 6.39 0
 -2 -4 -10 35.27 7.04 0
 -2 -4 -9 45.29 7.09 0
 -2 -4 -8 9.78 4.45 0
 -2 -4 -4 206.16 9.97 0
 -2 -4 -3 179.07 9.09 0
 -2 -3 -13 37.54 8.41 0
 -2 -3 -12 37.07 7.98 0
 -2 -3 -11 34.61 7.55 0
 -2 -3 -9 17.65 5.4 0
 -2 -3 -6 14.54 4.25 0
 -2 -3 -5 31.42 5.05 0
 -2 -3 -4 296.47 10.57 0
 -2 -3 -2 60.87 5.67 0
 -2 -3 -1 546.71 12.92 0
 -2 -2 -14 63.69 10.97 0
 -2 -2 -13 25.26 7.37 0
 -2 -2 -12 14.66 6.48 0
 -2 -2 -10 22.54 6.2 0
 -2 -2 -6 144.54 8.15 0
 -2 -2 -5 66.17 5.64 0
 -2 -2 -4 275.2 9.89 0
 -2 -2 -2 214.97 8.08 0
 -2 -2 0 803.75 13.81 0
 -2 -1 -15 10.61 7.44 0
 -2 -1 -14 13.68 7.1 0
 -2 -1 -13 4.15 5.87 0
 -2 -1 -12 19.33 7.12 0
 -2 -1 -10 19.94 5.6 0
 -2 -1 -9 6.22 4.38 0
 -2 -1 -7 47.8 6.27 0
 -2 -1 -6 23.45 4.3 0
 -2 -1 -5 17.98 4.44 0
 -2 -1 -2 480.02 10.67 0
 -2 -1 1 279.8 7.54 0
 -2 0 -13 9.27 6.31 0
 -2 0 -10 17.34 5.57 0
 -2 0 -9 92.3 8.23 0
 -2 0 -6 151.68 8.47 0
 -2 0 -5 45.08 5.24 0
 -2 0 -4 385.75 10.72 0
 -2 0 -3 741.89 13.84 0
 -2 0 -2 29.17 3.8 0
 -2 0 0 247.82 6.35 0
 -2 1 -15 8.05 7.79 0
 -2 1 -14 16.02 7.36 0
 -2 1 -13 5.81 6.83 0
 -2 1 -12 16.38 6.83 0
 -2 1 -9 12.65 4.74 0
 -2 1 -2 481.88 10 0
 -2 1 -1 264.79 6.78 0
 -2 1 0 589.49 8.59 0
 -2 2 -13 25.03 8.56 0
 -2 2 -12 19.09 7.63 0
 -2 2 0 802.04 9.7 0
 -2 3 -14 95.13 12.99 0
 -2 3 -13 33.37 9.48 0
 -2 3 1 1007.99 8.95 0
 -1 -6 -10 42.76 6.7 0
 -1 -6 -6 10.91 3.79 0
 -1 -5 -11 10.52 5.35 0
 -1 -5 -6 316.38 11.62 0
 -1 -5 -5 17.8 4.45 0
 -1 -4 -14 33.78 7.95 0
 -1 -4 -13 4.51 5.19 0
 -1 -4 -12 10.39 5.16 0
 -1 -4 -11 31.34 6.4 0
 -1 -4 -10 33.73 5.88 0
 -1 -4 -8 50.21 6.04 0
 -1 -4 -7 443.92 13.37 0
 -1 -4 -6 87.52 6.3 0
 -1 -3 -15 -0.59 5.61 0
 -1 -3 -13 104.57 10.51 0
 -1 -3 -12 1.17 4.47 0
 -1 -3 -11 27.25 6.37 0
 -1 -3 -10 60.3 6.74 0
 -1 -3 -8 30.26 5.48 0
 -1 -3 -7 64.37 5.91 0
 -1 -3 -6 430.59 12.13 0
 -1 -3 -5 19.3 3.52 0
 -1 -3 -4 397.5 10.34 0
 -1 -3 -3 68.53 4.51 0
 -1 -3 -2 99.21 5.17 0
 -1 -3 -1 416.36 9.4 0
 -1 -2 -15 8.6 6.7 0
 -1 -2 -14 34.74 8.43 0
 -1 -2 -13 2.25 5.75 0
 -1 -2 -12 2.45 4.51 0
 -1 -2 -11 19.64 5.82 0
 -1 -2 -10 33.66 6 0
 -1 -2 -8 450.03 14.09 0
 -1 -2 -7 187.19 8.63 0
 -1 -2 -6 460.83 12.21 0
 -1 -2 -4 34.81 3.93 0
 -1 -2 -3 561.15 10.89 0
 -1 -2 -1 1153.62 13.88 0
 -1 -1 -15 7.05 6.64 0
 -1 -1 -13 185.54 12.72 0
 -1 -1 -12 6.35 5.04 0
 -1 -1 -11 35.35 6.36 0
 -1 -1 -10 52.95 7.24 0
 -1 -1 -7 65.1 5.43 0
 -1 -1 -6 154.79 7.32 0
 -1 -1 -5 80.17 5.61 0
 -1 -1 -4 965.59 14.44 0
 -1 -1 -2 267.51 6.73 0
 -1 -1 -1 1248.26 12.46 0
 -1 -1 0 5196.08 23.79 0
 -1 0 -14 40.92 8.54 0
 -1 0 -13 -3.15 4.57 0
 -1 0 -11 -0.76 4.55 0
 -1 0 -2 109 4.25 0
 -1 0 -1 1565.59 12.35 0
 -1 0 0 468.01 6 0
 -1 1 -15 21.19 7.63 0
 -1 1 -14 106.72 11.26 0
 -1 2 -15 5.33 6.88 0
 -1 2 -14 48.4 9.59 0
 0 -6 -9 62.9 5.81 0
 0 -6 -8 20.74 3.74 0
 0 -5 -10 29.54 4.9 0
 0 -5 -9 23.07 4.42 0
 0 -5 -8 80.65 6.17 0
 0 -5 -7 117.37 6.6 0
 0 -5 -5 2.93 2.07 0
 0 -4 -12 5.84 4.11 0
 0 -4 -9 6.68 3.77 0
 0 -4 -8 145.19 7.42 0
 0 -4 -7 101.12 5.86 0
 0 -4 -6 5.46 2.49 0
 0 -4 -5 263.14 7.88 0
 0 -4 -4 45.17 3.74 0
 0 -3 -14 45.15 7.45 0
 0 -3 -13 19.08 5.32 0
 0 -3 -12 52.22 7.2 0
 0 -3 -9 35.89 4.89 0
 0 -3 -8 64.31 5.52 0
 0 -3 -7 21.13 3.67 0
 0 -3 -6 20.05 3.24 0
 0 -3 -5 114.04 5.14 0
 0 -3 -4 86.92 4.16 0
 0 -3 -3 460.42 8.31 0
 0 -3 -2 792.97 10.14 0
 0 -2 -15 66.98 9.59 0
 0 -2 -14 43.37 7.52 0
 0 -2 -13 190.5 12.01 0
 0 -2 -9 9.24 3.48 0
 0 -2 -8 344.25 11 0
 0 -2 -7 266.17 8.98 0
 0 -2 -6 15.14 3.11 0
 0 -2 -5 484.04 9.55 0
 0 -2 -4 542.35 9.04 0
 0 -2 -3 856.26 10.07 0
 0 -2 -2 1994.68 13.49 0
 0 -1 -15 32.37 8.13 0
 0 -1 -12 119.59 9.94 0
 0 -1 -11 130.56 9.15 0
 0 -1 -2 468.33 5.92 0
 0 -1 -1 475.68 4.68 0
 0 0 -15 56.95 9.25 0
 0 0 -14 40.15 8.3 0
 0 0 -13 210.26 13.61 0
 0 1 -15 20.6 7.17 0
 1 -5 -8 85.09 4.57 0
 1 -4 -10 15.1 3.56 0
 1 -4 -9 96.97 5.51 0
 1 -4 -8 7.91 2.46 0
 1 -4 -7 86.02 4.32 0
 1 -4 -6 36.42 2.77 0
 1 -4 -5 18.64 1.9 0
 1 -3 -11 12.8 4.17 0
 1 -3 -9 98.98 5.94 0
 1 -3 -8 113.97 5.56 0
 1 -3 -7 543.45 10.2 0
 1 -3 -6 675.37 10 0
 1 -2 -13 12.83 4.53 0
 1 -2 -12 29.28 5.58 0
 1 -2 -10 9.27 3.24 0
 1 -2 -9 -1.1 2.37 0
 1 -2 -8 100.91 5.66 0
 1 -2 -7 49.25 4.01 0
 1 -2 -6 208.31 6.14 0
 1 -2 -5 159.46 4.53 0
 1 -1 -15 46.23 7.71 0
 1 -1 -13 5.6 4.85 0
 1 0 -16 0.4 5.12 0
 1 1 -16 4.06 5.85 0
 2 -3 -10 19.22 3.05 0
 2 -3 -9 10.18 2.31 0
 2 -3 -8 32.2 2.69 0
 2 -3 -7 63.82 2.77 0
 2 -2 -11 10.24 3.35 0
 2 -1 -14 53.49 7.53 0
 -7 -7 -1 -2.2 6.79 0
 -7 -7 0 8.02 8.09 0
 -7 -7 1 5.68 7.96 0
 -7 -7 3 5.82 8.14 0
 -7 -7 4 0.28 7.11 0
 -7 -6 -2 -2.6 6.63 0
 -7 -6 0 104.04 14.41 0
 -7 -6 1 39.33 9.98 0
 -7 -6 2 9.9 7.77 0
 -7 -6 3 22.16 9.19 0
 -7 -6 5 23.45 9.22 0
 -7 -6 7 16.08 9.17 0
 -7 -5 -4 6.58 6.99 0
 -7 -5 -1 6.02 6.92 0
 -7 -5 1 52.66 10.26 0
 -7 -5 2 28.94 9.21 0
 -7 -5 5 40.4 9.97 0
 -7 -5 7 18.64 8.8 0
 -7 -5 8 36.32 10.12 0
 -7 -4 -6 5.4 6.95 0
 -7 -4 -4 25.72 7.86 0
 -7 -4 -2 29.34 8.29 0
 -7 -4 -1 44.11 8.92 0
 -7 -4 0 145.06 13.05 0
 -7 -4 1 58.23 10.18 0
 -7 -4 2 23.38 7.98 0
 -7 -4 4 54.38 10.36 0
 -7 -4 6 5.15 6.87 0
 -7 -4 7 -3.41 5.68 0
 -7 -4 8 65.49 10.9 0
 -7 -4 9 28.52 9.42 0
 -7 -3 -3 32.72 7.21 0
 -7 -3 -2 1.85 4.64 0
 -7 -3 -1 29.29 6.66 0
 -7 -3 0 2.78 4.56 0
 -7 -3 1 5.27 4.41 0
 -7 -3 2 5.06 5.22 0
 -7 -3 3 31.53 7.69 0
 -7 -3 4 25.23 6.83 0
 -7 -3 6 2.62 4.72 0
 -6 -8 -1 22.24 9.29 0
 -6 -8 0 4.71 8.04 0
 -6 -8 1 -3.6 7.1 0
 -6 -8 3 24.51 10.47 0
 -6 -8 4 14.34 9.02 0
 -6 -8 5 4.86 7.92 0
 -6 -8 6 -3.87 7.47 0
 -6 -7 -5 26.61 9.91 0
 -6 -7 -4 5.07 7.92 0
 -6 -7 -3 16.72 8.87 0
 -6 -7 -2 1.18 7.06 0
 -6 -7 -1 51.28 10.84 0
 -6 -7 0 29.47 9.47 0
 -6 -7 1 34.39 9.46 0
 -6 -7 2 18.13 8.4 0
 -6 -7 3 29.67 9.77 0
 -6 -7 4 0.32 7.84 0
 -6 -7 5 7.52 7.85 0
 -6 -7 6 10.98 8.06 0
 -6 -7 7 103.17 14.96 0
 -6 -7 8 27.3 10.02 0
 -6 -6 -7 0.19 7.86 0
 -6 -6 -6 15.65 8.71 0
 -6 -6 -5 8.15 8.1 0
 -6 -6 -4 6.69 8.22 0
 -6 -6 -3 7.75 7.43 0
 -6 -6 -2 138.54 13.53 0
 -6 -6 -1 -3.52 6.08 0
 -6 -6 0 12.96 8.78 0
 -6 -6 4 17.48 8.36 0
 -6 -6 5 14.78 8.95 0
 -6 -6 6 75.51 12.7 0
 -6 -6 7 14.12 8.53 0
 -6 -5 -7 84.8 12.98 0
 -6 -5 -6 11.27 7.71 0
 -6 -5 -5 21.11 8.37 0
 -6 -5 -3 55.06 10.16 0
 -6 -5 -2 10.7 7.15 0
 -6 -5 -1 24.47 7.75 0
 -6 -5 0 129.55 12.65 0
 -6 -5 1 12.46 7.08 0
 -6 -5 2 -1.25 5.68 0
 -6 -5 3 -1.65 5.5 0
 -6 -5 5 17.5 8.2 0
 -6 -5 6 7.34 7.14 0
 -6 -4 -8 24.06 9.06 0
 -6 -4 -7 3.66 7.17 0
 -6 -4 -6 31.96 8.93 0
 -6 -4 -5 11.9 7.28 0
 -6 -4 -4 24.62 7.86 0
 -6 -4 -3 60.4 9.88 0
 -6 -4 -2 30.7 8.25 0
 -6 -4 -1 4.24 5.7 0
 -6 -4 0 23.97 7.87 0
 -6 -4 3 25.69 7.45 0
 -6 -4 4 26.76 7.7 0
 -6 -4 5 197.62 14.57 0
 -6 -4 6 23.63 7.58 0
 -6 -4 7 31.2 8.68 0
 -6 -3 -8 12.54 7.55 0
 -6 -3 -7 22.3 7.87 0
 -6 -3 -3 29.53 7.49 0
 -6 -3 -2 12.49 5.82 0
 -6 -3 0 27.77 6.29 0
 -6 -3 2 6.73 4.97 0
 -6 -3 5 28.06 7.59 0
 -6 -3 6 41.04 8.35 0
 -6 -2 -6 36.88 7.31 0
 -6 -2 -5 32.58 7.13 0
 -6 -2 -4 23.76 6.17 0
 -6 -2 -3 15.76 5.38 0
 -6 -2 -2 53.83 7.56 0
 -6 -2 5 83.07 8.8 0
 -6 -2 6 19.7 5.73 0
 -6 -1 -6 3.16 4.64 0
 -6 -1 -5 4.96 4.56 0
 -6 -1 -4 16.62 5.12 0
 -6 -1 -1 55.53 6.07 0
 -6 -1 0 10.32 3.65 0
 -6 -1 2 22.21 4.69 0
 -6 -1 3 64.34 6.52 0
 -6 -1 4 53.53 6.22 0
 -5 -10 0 47.8 12.02 0
 -5 -10 1 47.16 12.37 0
 -5 -10 2 21.67 10.49 0
 -5 -9 -4 -0.19 10.06 0
 -5 -9 -3 34.61 11.18 0
 -5 -9 -2 7.22 8.82 0
 -5 -9 -1 76.79 13.12 0
 -5 -9 0 10.99 9.99 0
 -5 -9 1 6.2 9.32 0
 -5 -9 3 13.81 8.62 0
 -5 -9 4 -0.15 6.84 0
 -5 -9 7 91.48 15.45 0
 -5 -8 -6 10.31 9.95 0
 -5 -8 -5 18.84 9.55 0
 -5 -8 -4 2.53 8.14 0
 -5 -8 -3 4.43 7.91 0
 -5 -8 -2 12.28 9.12 0
 -5 -8 -1 40.81 10.45 0
 -5 -8 0 15.44 9.21 0
 -5 -8 1 29.22 9.92 0
 -5 -8 2 6.74 8.03 0
 -5 -8 4 44.24 11.39 0
 -5 -8 5 1.04 7.51 0
 -5 -8 6 69.37 13.05 0
 -5 -7 -8 44.69 12.65 0
 -5 -7 -7 -2.61 7.64 0
 -5 -7 -6 70.35 12.73 0
 -5 -7 -5 12.34 8.51 0
 -5 -7 -4 18.15 8.24 0
 -5 -7 -3 48.09 10.04 0
 -5 -7 -2 27.47 8.75 0
 -5 -7 -1 104.11 13.83 0
 -5 -7 1 75.79 11.45 0
 -5 -7 2 68.77 11.5 0
 -5 -7 4 11.57 8.11 0
 -5 -7 5 5 6.8 0
 -5 -7 6 48.87 10.82 0
 -5 -7 7 37.54 10.28 0
 -5 -6 -9 15.22 8.47 0
 -5 -6 -8 17.62 9.37 0
 -5 -6 -7 54.1 12.28 0
 -5 -6 0 116.77 12.77 0
 -5 -6 1 51.18 9.94 0
 -5 -6 2 7.86 6.93 0
 -5 -6 3 50.68 9.34 0
 -5 -6 4 16.86 7.13 0
 -5 -6 5 25.92 8.28 0
 -5 -6 6 42.56 10.29 0
 -5 -5 -7 27.77 9.31 0
 -5 -5 -6 16.45 7.58 0
 -5 -5 -5 42.06 8.98 0
 -5 -5 -3 85.69 11 0
 -5 -5 -2 37.02 7.97 0
 -5 -5 -1 33.07 7.66 0
 -5 -5 1 124.92 11.33 0
 -5 -5 3 18.93 6.98 0
 -5 -5 4 6.86 5.9 0
 -5 -4 -7 87.89 11.9 0
 -5 -4 -6 -1.13 5.84 0
 -5 -4 -5 26.98 7.56 0
 -5 -4 -4 99.85 11.02 0
 -5 -4 -3 6.89 6.47 0
 -5 -4 -2 7.84 5.44 0
 -5 -4 0 121.84 11.04 0
 -5 -4 2 40.05 7.57 0
 -5 -4 3 108.36 10.2 0
 -5 -4 4 112.92 10.33 0
 -5 -3 -8 60.67 10.02 0
 -5 -3 -7 43.44 8.72 0
 -5 -3 -6 85.92 10.66 0
 -5 -3 -5 7.96 6.17 0
 -5 -3 -3 89.15 9.13 0
 -5 -2 -7 19.29 6.89 0
 -5 -2 -5 31.19 7.22 0
 -5 -2 -1 74.01 7.13 0
 -5 -2 1 32.08 5.57 0
 -5 -2 2 148.77 9.86 0
 -5 -2 3 223.44 11.6 0
 -5 -2 4 23.16 5.35 0
 -5 -1 -6 5.17 5.31 0
 -5 -1 -2 403.17 13.92 0
 -5 -1 0 198.65 9.75 0
 -5 -1 1 12.18 3.86 0
 -5 -1 2 80.7 6.52 0
 -5 -1 3 45.99 5.67 0
 -5 -1 4 31.87 5.29 0
 -5 0 -4 54.04 6.09 0
 -5 0 -3 2.03 2.78 0
 -5 0 0 199.62 8.32 0
 -5 0 1 76.5 5.49 0
 -5 0 2 302.3 10.09 0
 -5 0 3 293.78 10.22 0
 -5 1 -3 24.32 3.61 0
 -5 1 0 202.99 6.88 0
 -5 1 1 10.55 2.07 0
 -5 1 2 80.39 4.49 0
 -5 1 3 42.83 3.7 0
 -4 -10 -4 18.49 9.15 0
 -4 -10 -3 50.79 11.56 0
 -4 -10 -1 2.17 8.14 0
 -4 -10 2 47.67 12.78 0
 -4 -10 3 7.89 8.79 0
 -4 -10 4 15.6 10.59 0
 -4 -10 5 16.37 10.73 0
 -4 -9 -7 6.07 8.85 0
 -4 -9 -5 79.42 13.01 0
 -4 -9 -4 7.54 8.57 0
 -4 -9 -3 41.5 9.97 0
 -4 -9 -2 9.79 7.97 0
 -4 -9 -1 55.99 11.03 0
 -4 -9 0 116.1 15.42 0
 -4 -9 1 6.01 7.75 0
 -4 -9 4 -0.03 7.5 0
 -4 -9 5 26.64 10.45 0
 -4 -9 6 3.56 8.64 0
 -4 -9 7 38.03 10.79 0
 -4 -9 9 4.43 8.79 0
 -4 -8 -8 42.66 11.46 0
 -4 -8 -6 66.37 12.05 0
 -4 -8 -5 32.3 9.33 0
 -4 -8 -4 64.38 10.93 0
 -4 -8 -3 7.26 7.61 0
 -4 -8 0 132.6 13.47 0
 -4 -8 1 8.36 6.84 0
 -4 -8 3 36.76 8.81 0
 -4 -8 4 29.57 8.45 0
 -4 -8 5 10.96 7.55 0
 -4 -8 6 32.69 9.6 0
 -4 -8 7 149.52 16.47 0
 -4 -7 -8 15.41 9.06 0
 -4 -7 -7 33.16 10.39 0
 -4 -7 -6 7.87 7.98 0
 -4 -7 -5 53.99 10.78 0
 -4 -7 -4 39.53 9.25 0
 -4 -7 -3 82.94 11.47 0
 -4 -7 -2 47.05 9.12 0
 -4 -7 -1 -0.72 5.01 0
 -4 -7 2 73.97 10.29 0
 -4 -7 4 -0.38 6.2 0
 -4 -7 6 9.97 7.31 0
 -4 -6 -10 9.11 8.4 0
 -4 -6 -8 27.61 9.28 0
 -4 -6 -7 42.59 9.74 0
 -4 -6 -6 3.69 6.88 0
 -4 -6 -5 0.32 5.06 0
 -4 -6 -4 15.56 6.99 0
 -4 -6 -2 14.21 6.37 0
 -4 -6 -1 -1.41 5.98 0
 -4 -6 0 183.19 13.15 0
 -4 -6 1 6.18 6.66 0
 -4 -6 2 16.78 6.21 0
 -4 -6 3 10.02 5.45 0
 -4 -5 -10 3.98 8.18 0
 -4 -5 -9 24.03 8.99 0
 -4 -5 -8 45.02 9.92 0
 -4 -5 -7 22.79 8.35 0
 -4 -5 -6 9.18 6.49 0
 -4 -5 -5 20.14 7.03 0
 -4 -5 -3 278.22 15.21 0
 -4 -5 -1 93.09 9.31 0
 -4 -5 3 35.41 7.52 0
 -4 -4 -8 23.79 8.72 0
 -4 -4 -7 25.56 8.05 0
 -4 -4 -6 56.03 9.52 0
 -4 -4 -5 14.17 6.85 0
 -4 -4 -4 50.78 8.38 0
 -4 -4 0 176.04 11.27 0
 -4 -3 -6 135.3 11.19 0
 -4 -3 -2 79.51 8.32 0
 -4 -3 0 24.04 5.5 0
 -4 -3 1 283.11 12.8 0
 -4 -3 3 5.5 4.29 0
 -4 -2 -7 8.11 6.23 0
 -4 -2 -2 51.13 6.32 0
 -4 -2 -1 19.81 5 0
 -4 -1 -7 29.5 6.36 0
 -4 -1 -4 350.33 13.26 0
 -4 -1 -2 284.52 10.71 0
 -4 -1 -1 1241.19 21.1 0
 -4 -1 2 97.7 6.61 0
 -4 0 -5 0.13 3.23 0
 -4 0 -4 8.08 3.44 0
 -4 0 -3 69.27 5.91 0
 -4 0 -2 94.12 6.15 0
 -4 0 -1 10.74 2.69 0
 -4 1 -3 228.18 8.33 0
 -4 1 0 18.09 2.43 0
 -4 1 1 29.66 2.78 0
 -4 1 2 99.82 4.6 0
 -4 2 2 8.01 1.12 0
 -4 2 3 50.99 2.75 0
 -3 -11 -3 75.34 13.09 0
 -3 -11 -2 7.38 8.16 0
 -3 -11 0 40.99 11.2 0
 -3 -11 1 11.14 8.62 0
 -3 -11 2 5.18 7.66 0
 -3 -11 3 12.93 9.59 0
 -3 -10 -6 8.2 8.43 0
 -3 -10 -4 1.57 7.31 0
 -3 -10 -3 12.18 8.96 0
 -3 -10 -2 12 8.08 0
 -3 -10 0 11.72 8.01 0
 -3 -10 1 53.63 11.04 0
 -3 -10 2 41.88 10.35 0
 -3 -10 3 39.17 10.09 0
 -3 -10 4 11.11 9.6 0
 -3 -10 5 0.99 7.82 0
 -3 -9 -8 10.69 8.54 0
 -3 -9 -7 25.79 10.4 0
 -3 -9 -5 38.41 10.05 0
 -3 -9 -4 75.92 12.99 0
 -3 -9 -2 15.63 8.5 0
 -3 -9 -1 2.58 6.49 0
 -3 -9 1 11.16 7.99 0
 -3 -9 2 9.05 7.3 0
 -3 -9 7 23.74 9.3 0
 -3 -8 -10 65.57 12.18 0
 -3 -8 -9 0.86 7.93 0
 -3 -8 -8 55.28 11.59 0
 -3 -8 -7 2.46 6.83 0
 -3 -8 -6 27.04 8.95 0
 -3 -8 -5 12.93 7.16 0
 -3 -8 -4 33.09 8.79 0
 -3 -8 -3 3.2 5.6 0
 -3 -8 -2 27.9 8.63 0
 -3 -8 -1 25.34 7.89 0
 -3 -8 0 33.96 8.27 0
 -3 -8 1 5.29 6.23 0
 -3 -8 3 22.15 7.57 0
 -3 -8 4 12.35 6.79 0
 -3 -8 5 4.11 6.61 0
 -3 -7 -10 23.8 9.17 0
 -3 -7 -7 15.17 7.11 0
 -3 -7 -6 7.64 6.55 0
 -3 -7 -5 59.01 10.49 0
 -3 -7 -4 42.33 8.57 0
 -3 -7 -3 51.5 9.63 0
 -3 -7 1 197.84 13.45 0
 -3 -7 2 19.34 6.61 0
 -3 -7 3 152.56 12.26 0
 -3 -7 4 36.22 8.58 0
 -3 -6 -9 10.94 8.66 0
 -3 -6 -7 12.62 8.23 0
 -3 -6 -5 7.98 5.53 0
 -3 -6 -4 26.79 6.67 0
 -3 -6 -3 27.23 6.52 0
 -3 -6 -2 35.89 6.81 0
 -3 -5 -10 68.87 11.88 0
 -3 -5 -7 94.44 10.64 0
 -3 -5 -5 46.17 7.9 0
 -3 -5 2 24.02 5.88 0
 -3 -4 -9 6.16 6.02 0
 -3 -4 -8 129.42 12.61 0
 -3 -4 -6 12.32 6.06 0
 -3 -4 -3 175 10.57 0
 -3 -4 -1 23.57 5.16 0
 -3 -4 0 50.63 6.62 0
 -3 -4 1 24.72 5.47 0
 -3 -4 2 61.96 6.49 0
 -3 -3 -8 31.1 7.98 0
 -3 -3 -5 11.4 5.15 0
 -3 -3 -4 267.25 12.3 0
 -3 -3 -3 88.21 8.12 0
 -3 -3 -2 185.99 9.97 0
 -3 -3 0 181.98 9.24 0
 -3 -3 1 2.16 3.06 0
 -3 -2 -5 105.48 8.36 0
 -3 -2 -4 74.65 7.18 0
 -3 -1 -5 8.2 4.17 0
 -3 -1 1 116.56 6.03 0
 -3 0 -5 441.22 13.67 0
 -3 0 -4 1.26 2.64 0
 -3 0 -2 57.97 4.74 0
 -3 0 0 489.83 9.93 0
 -3 0 1 460.71 9.52 0
 -3 1 -2 75.57 4.3 0
 -3 1 -1 3.76 1.51 0
 -3 1 0 389.78 6.97 0
 -2 -11 -4 12.66 8.01 0
 -2 -11 -3 27.84 9.21 0
 -2 -11 -2 15.38 7.85 0
 -2 -11 -1 27.11 9.54 0
 -2 -11 1 7.52 7.48 0
 -2 -11 3 -8.5 5.96 0
 -2 -11 4 31.85 10.57 0
 -2 -11 5 10.84 8.79 0
 -2 -11 6 7.06 8.34 0
 -2 -10 -8 21.08 9.66 0
 -2 -10 -7 43.85 11.03 0
 -2 -10 -6 22.62 8.63 0
 -2 -10 -5 14.53 8.29 0
 -2 -10 -4 4.11 7.54 0
 -2 -10 -3 14.22 8.2 0
 -2 -10 -2 7.89 6.47 0
 -2 -10 -1 11.12 7.18 0
 -2 -10 1 9.02 7.44 0
 -2 -10 2 13.36 8.12 0
 -2 -10 3 23.35 8.52 0
 -2 -10 4 6.84 7.34 0
 -2 -10 6 -0.53 6.98 0
 -2 -10 7 32.61 9.98 0
 -2 -10 8 22.17 9.07 0
 -2 -9 -9 18.03 8.71 0
 -2 -9 -7 7.81 7.84 0
 -2 -9 -6 13.12 8.74 0
 -2 -9 -5 -5.22 7.28 0
 -2 -9 -3 63.65 10.72 0
 -2 -9 -1 21.01 7.45 0
 -2 -9 0 53.45 9.61 0
 -2 -9 2 5.07 6.28 0
 -2 -9 4 62.58 10.63 0
 -2 -9 5 7.41 7.02 0
 -2 -9 6 3.97 7.67 0
 -2 -8 -9 19.59 9.19 0
 -2 -8 -8 19.61 8.52 0
 -2 -8 -7 19.14 8.04 0
 -2 -8 -6 41.4 9.4 0
 -2 -8 -4 11.5 6.49 0
 -2 -8 -2 18.47 6.61 0
 -2 -8 -1 2.69 5.43 0
 -2 -8 0 153.21 13.04 0
 -2 -8 2 57.24 9.1 0
 -2 -8 3 127.16 11.7 0
 -2 -7 -10 43.93 10.9 0
 -2 -7 -9 18.93 8.74 0
 -2 -7 -8 13.38 7.34 0
 -2 -7 -7 9.81 6.79 0
 -2 -7 -5 8.27 5.58 0
 -2 -7 -4 286.23 15.52 0
 -2 -7 -3 11.42 5.29 0
 -2 -7 -2 25 6.46 0
 -2 -7 3 93.76 9.39 0
 -2 -6 -9 19.11 8.35 0
 -2 -6 -7 64.8 10.11 0
 -2 -6 -6 99.67 10.32 0
 -2 -6 -5 110.87 10.3 0
 -2 -6 -1 70.88 8.67 0
 -2 -6 0 377.26 15.81 0
 -2 -6 1 194.46 11.83 0
 -2 -5 -9 46.43 9.3 0
 -2 -5 -8 13.61 6.14 0
 -2 -5 -7 107.97 10.32 0
 -2 -5 -3 13.11 4.5 0
 -2 -5 0 148.04 9.24 0
 -2 -4 -9 45 8.16 0
 -2 -4 -8 13.63 5.52 0
 -2 -4 -7 149.44 11.38 0
 -2 -4 -5 5.78 4.28 0
 -2 -4 -4 189.97 10.26 0
 -2 -3 -5 33.17 5.69 0
 -2 -3 0 335.84 10.84 0
 -2 -2 -7 218.57 12.14 0
 -2 -2 -6 134.53 8.95 0
 -2 -2 -5 57.69 6.02 0
 -2 -2 -3 81.18 5.9 0
 -2 -2 -1 136.2 7.23 0
 -2 -2 0 815.95 15.04 0
 -2 -1 -6 17.13 4.6 0
 -2 -1 -3 548.12 12.77 0
 -2 -1 0 613.95 11.34 0
 -2 0 -3 724.52 13.3 0
 -2 0 -1 276.08 6.73 0
 -2 0 0 239.88 5.81 0
 -2 1 -2 483.87 8.58 0
 -2 1 -1 274.63 5.43 0
 -1 -12 -2 52.05 10.05 0
 -1 -12 -1 4.5 6.47 0
 -1 -12 0 7.38 6.83 0
 -1 -12 2 36.52 9.62 0
 -1 -12 3 7.19 7.49 0
 -1 -11 -6 4.45 7.26 0
 -1 -11 -4 21.14 7.81 0
 -1 -11 -3 10.95 7.07 0
 -1 -11 -2 10 6.92 0
 -1 -11 0 36.72 8.64 0
 -1 -11 1 1.9 6.21 0
 -1 -11 2 11.72 7.4 0
 -1 -11 3 72.67 11.27 0
 -1 -11 4 40.14 8.81 0
 -1 -11 6 30.84 9.84 0
 -1 -10 -8 14.11 8.02 0
 -1 -10 -7 16.75 7.68 0
 -1 -10 -6 13.69 7.63 0
 -1 -10 -5 33.81 9.3 0
 -1 -10 -4 54.61 10.1 0
 -1 -10 -3 36.77 8.18 0
 -1 -10 -2 56.72 9.12 0
 -1 -10 -1 13.05 6.95 0
 -1 -10 0 109.58 11.95 0
 -1 -10 2 47.5 8.86 0
 -1 -10 3 32.39 9.24 0
 -1 -10 4 20.11 7.92 0
 -1 -10 5 18.69 8.67 0
 -1 -10 7 10.8 8.05 0
 -1 -10 8 42.24 10.28 0
 -1 -9 -9 45.64 10.88 0
 -1 -9 -8 3.63 7.4 0
 -1 -9 -7 23.46 8.07 0
 -1 -9 -6 8 6.63 0
 -1 -9 -4 81.86 10.26 0
 -1 -9 -3 32.71 8.01 0
 -1 -9 -2 4.78 5.39 0
 -1 -9 1 3.27 5.55 0
 -1 -9 4 175.59 14.07 0
 -1 -8 -8 3.55 6.4 0
 -1 -8 -7 250.98 16.23 0
 -1 -8 -6 1.16 5.54 0
 -1 -8 -5 122.63 12.06 0
 -1 -8 -4 157.47 12.23 0
 -1 -8 2 42.9 7.53 0
 -1 -8 3 107.51 10.31 0
 -1 -8 4 124.45 11.14 0
 -1 -7 -9 96.29 12.26 0
 -1 -7 -8 23.32 8.07 0
 -1 -7 -7 13.74 6.41 0
 -1 -7 -6 58.1 8.99 0
 -1 -6 -9 32.02 8.17 0
 -1 -6 -7 244.65 14.41 0
 -1 -6 -4 74.52 8.15 0
 -1 -6 -2 120.24 8.7 0
 -1 -6 2 86.54 7.64 0
 -1 -5 -8 1.34 4.95 0
 -1 -5 -5 14.64 5.45 0
 -1 -5 -4 446.08 15.42 0
 -1 -5 -3 2.3 3.52 0
 -1 -5 -2 72.45 6.69 0
 -1 -5 -1 69.49 6.44 0
 -1 -5 0 30.26 4.91 0
 -1 -5 1 86.54 6.75 0
 -1 -4 -6 97.54 8.58 0
 -1 -4 -5 166.61 9.58 0
 -1 -4 -3 40.33 5.18 0
 -1 -4 -1 520.71 13.54 0
 -1 -4 0 163.33 7.81 0
 -1 -3 -7 60.61 7.42 0
 -1 -3 -6 439.89 14.99 0
 -1 -3 -4 388.56 12.44 0
 -1 -3 -3 71.13 6.17 0
 -1 -3 -2 99.4 6.16 0
 -1 -3 -1 421 10.98 0
 -1 -2 -4 36.51 4.68 0
 -1 -2 -3 558.19 12.75 0
 -1 -1 -4 952.68 16.54 0
 -1 -1 -3 54.63 4.57 0
 -1 -1 -2 264.65 7.31 0
 -1 -1 0 5175.86 24.99 0
 -1 0 -3 1.74 2.29 0
 -1 0 -2 107.05 4.35 0
 -1 0 -1 1606.48 12.04 0
 -1 0 0 473.02 5.57 0
 0 -11 -7 -4.97 5.03 0
 0 -11 -6 28.88 8.33 0
 0 -11 -5 11.25 6.85 0
 0 -11 -4 0.27 5.16 0
 0 -11 -3 52.14 8.77 0
 0 -11 -2 71.3 9.78 0
 0 -11 1 -0.78 6.15 0
 0 -11 2 71.23 9.85 0
 0 -11 3 47.39 9.47 0
 0 -11 4 1.17 5.4 0
 0 -11 5 18.18 7.16 0
 0 -11 6 22.35 7.66 0
 0 -11 7 1.55 6.09 0
 0 -10 -8 29.32 7.62 0
 0 -10 -6 5.78 6.75 0
 0 -10 -5 1.48 5.44 0
 0 -10 -4 211.97 13.94 0
 0 -10 -3 17.15 6.6 0
 0 -10 0 136.51 10.96 0
 0 -10 1 35.1 7.54 0
 0 -10 2 10.87 5.86 0
 0 -10 3 10.76 5.81 0
 0 -10 5 6.2 6.58 0
 0 -10 6 4.82 5.72 0
 0 -10 7 8.63 6.45 0
 0 -9 -8 62.57 9.96 0
 0 -9 -7 41.76 8.38 0
 0 -9 -5 74.67 10.07 0
 0 -9 -4 2.31 5.06 0
 0 -9 -2 11.07 5.2 0
 0 -9 2 10.68 6.38 0
 0 -9 3 171.45 12.03 0
 0 -9 4 0.58 5.09 0
 0 -9 5 71.3 9.79 0
 0 -8 -8 6.06 7.04 0
 0 -8 -7 5.12 6.25 0
 0 -8 -6 8.41 5.29 0
 0 -8 0 7.96 5.19 0
 0 -7 -6 84.87 9.29 0
 0 -7 -4 6.01 4.38 0
 0 -7 -3 71.24 7.57 0
 0 -7 -2 25.42 5.13 0
 0 -7 -1 187.53 10.53 0
 0 -7 2 18.91 4.89 0
 0 -6 -5 37.62 6.46 0
 0 -6 -4 95.03 7.7 0
 0 -6 -3 267.06 11.47 0
 0 -6 -2 52.36 6.02 0
 0 -6 0 46.1 5.98 0
 0 -6 1 492.78 14.54 0
 0 -5 -6 107.32 8.43 0
 0 -5 -2 15.73 4.09 0
 0 -4 -7 99.13 8.23 0
 0 -4 -6 4.81 4.14 0
 0 -4 -5 255.61 10.57 0
 0 -4 -2 443.14 11.4 0
 0 -4 -1 354.15 9.71 0
 0 -3 -6 17.47 4.58 0
 0 -3 -5 116.78 7.07 0
 0 -3 -4 94.1 5.95 0
 0 -3 -3 451.28 11.05 0
 0 -3 -2 804.97 13.19 0
 0 -3 -1 557.32 10.79 0
 0 -2 -5 482.19 12.95 0
 0 -2 -4 539.21 12.25 0
 0 -2 -3 842.34 13.48 0
 0 -2 -2 2031.86 18.28 0
 0 -2 -1 196.15 5.47 0
 0 -2 0 9601.91 33 0
 0 -1 -3 1078.18 14.14 0
 0 -1 -2 473.79 7.94 0
 0 -1 -1 493.91 6.31 0
 1 -10 -5 24.34 6.8 0
 1 -10 -4 20.86 5.65 0
 1 -10 -3 36.02 6.62 0
 1 -10 -1 -1.03 3.81 0
 1 -10 0 97.59 8.87 0
 1 -10 1 15.36 5.14 0
 1 -10 2 50.96 7.33 0
 1 -10 3 41.7 7.24 0
 1 -9 -7 123.42 10.35 0
 1 -9 -5 22.18 6.11 0
 1 -9 4 93.14 9.21 0
 1 -8 -7 47.79 8.02 0
 1 -8 -6 6.83 5.04 0
 1 -8 -4 117.57 9.03 0
 1 -8 -3 113.22 7.98 0
 1 -8 -2 42.12 5.83 0
 1 -8 -1 95.77 7.31 0
 1 -8 0 67.72 6.45 0
 1 -8 2 45.36 6.27 0
 1 -8 3 18.83 4.97 0
 1 -7 -5 20.99 4.91 0
 1 -7 -4 152.9 9.2 0
 1 -7 -2 46.44 5.4 0
 1 -7 -1 5.85 3.35 0
 1 -7 1 61.44 6.03 0
 1 -6 -6 45.7 6.45 0
 1 -6 -5 55.76 6.81 0
 1 -6 -4 74.12 6.72 0
 1 -6 -3 228.4 9.53 0
 1 -6 -2 85.59 6.09 0
 1 -6 -1 62.86 5.36 0
 1 -6 0 13.69 3.8 0
 1 -6 1 172.25 7.94 0
 1 -5 -5 20.36 4.32 0
 1 -5 -3 0.78 2.83 0
 1 -5 -2 235.65 7.97 0
 1 -5 -1 87.62 5.35 0
 1 -5 0 34.04 3.98 0
 1 -5 1 75.3 5.09 0
 1 -4 -4 62.13 5.18 0
 1 -4 -3 418.04 10.03 0
 1 -4 -1 1300.94 15.1 0
 1 -4 0 159.95 5.64 0
 1 -3 -4 605.49 12.36 0
 1 -3 -3 25.01 3.1 0
 1 -3 -2 345.39 7.49 0
 1 -3 -1 356.42 6.61 0
 1 -3 0 271.95 5.66 0
 1 -2 -2 996.26 10.35 0
 1 -2 -1 1911.69 10.82 0
 2 -8 -5 1.5 2.91 0
 2 -8 -4 16.14 3.99 0
 2 -8 -2 59.19 5.05 0
 2 -8 -1 4.29 2.41 0
 2 -8 1 2.64 2.87 0
 2 -8 3 20.97 4.17 0
 2 -8 4 6.81 3.28 0
 2 -7 -3 93.96 5.82 0
 2 -7 -2 16.04 2.89 0
 2 -7 1 120.1 6.13 0
 2 -7 2 22.88 3.62 0
 2 -7 3 12.65 3.42 0
 2 -6 -4 19.9 3.55 0
 2 -6 -3 105.87 5.49 0
 2 -6 -2 5.29 2.22 0
 2 -6 -1 189.86 6.19 0
 2 -6 0 380.68 8.59 0
 2 -5 -3 306.9 7.85 0
 2 -5 -2 113.71 4.48 0
 2 -5 -1 351.57 6.89 0
 2 -5 0 164.57 4.89 0
 2 -5 1 491.1 8.89 0
 2 -4 -2 175.05 4.42 0
 2 -4 -1 66.17 2.39 0
 2 -4 0 716.49 7.22 0
 3 -5 2 143.66 3.66 0
 -7 -2 5 29.41 8.15 0
 -7 -1 5 14.03 6.38 0
 -7 -1 6 23.79 6.72 0
 -7 0 3 63.65 8.29 0
 -7 0 4 -3.35 3.84 0
 -7 0 5 3.49 4.51 0
 -7 1 2 8.6 5.09 0
 -7 1 3 29.14 6.03 0
 -7 1 4 23.84 5.77 0
 -7 1 5 15.34 6.16 0
 -7 1 6 27.57 7.34 0
 -7 2 3 119.3 8.98 0
 -7 2 4 15.92 4.97 0
 -7 2 5 36.19 7.03 0
 -7 2 6 7.38 6.39 0
 -7 3 5 51.09 7.53 0
 -7 3 6 7.66 5.17 0
 -6 -4 6 27.12 7.05 0
 -6 -4 7 36.09 7.82 0
 -6 -3 4 93.89 9.78 0
 -6 -3 6 43.79 7.42 0
 -6 -3 7 61.38 8.5 0
 -6 -3 8 20.72 6.28 0
 -6 -2 3 38.13 7.03 0
 -6 -2 4 15.45 5.41 0
 -6 -2 5 77.62 9.42 0
 -6 -2 6 20.79 5.83 0
 -6 -2 7 10.68 5.61 0
 -6 -2 8 18.83 6.38 0
 -6 -1 2 26.69 5.94 0
 -6 -1 4 48.45 7.13 0
 -6 -1 5 15.49 5.19 0
 -6 -1 7 19.91 6.18 0
 -6 -1 8 37.19 7.77 0
 -6 -1 9 15.63 6.47 0
 -6 0 2 34.41 6.36 0
 -6 0 3 17.64 4.93 0
 -6 0 4 1.7 4.03 0
 -6 0 5 33.66 7 0
 -6 0 6 11.65 5.61 0
 -6 0 7 -2.37 5.48 0
 -6 0 8 2.45 5.06 0
 -6 1 1 0.85 3.03 0
 -6 1 3 67.32 6.95 0
 -6 1 5 14.3 5.31 0
 -6 1 6 48.54 8.34 0
 -6 1 7 28.93 7.15 0
 -6 1 8 39.95 7.74 0
 -6 1 9 15.36 6.44 0
 -6 2 2 -1.38 3.05 0
 -6 2 3 40.3 6.2 0
 -6 2 4 14.84 4.75 0
 -6 2 6 22.62 5.96 0
 -6 2 7 14.77 5.73 0
 -6 2 8 25.4 6.62 0
 -6 3 2 7.88 3.55 0
 -6 3 3 64.05 6.39 0
 -6 3 4 98.21 8.63 0
 -6 3 5 21.56 5.6 0
 -6 3 8 34.12 7.09 0
 -6 4 4 34.76 5.6 0
 -6 4 6 17.29 5.44 0
 -6 4 8 26.31 7.61 0
 -5 -5 7 3.29 5.05 0
 -5 -5 8 21.56 6.5 0
 -5 -5 9 53.71 8.52 0
 -5 -4 6 31.95 6.5 0
 -5 -4 7 11.62 5.33 0
 -5 -4 9 34.73 7.62 0
 -5 -3 4 46.4 6.75 0
 -5 -3 5 68.03 7.2 0
 -5 -3 6 11.5 4.76 0
 -5 -3 7 37.6 6.74 0
 -5 -3 8 78 8.59 0
 -5 -3 9 9.63 5.67 0
 -5 -3 10 13.33 6.01 0
 -5 -2 2 151.55 9.54 0
 -5 -2 3 231.18 11.73 0
 -5 -2 4 17.77 5.38 0
 -5 -2 5 257.99 12.34 0
 -5 -2 6 69.47 8.07 0
 -5 -2 8 2.29 4.7 0
 -5 -2 10 41.71 7.75 0
 -5 -1 1 11.42 4.2 0
 -5 -1 2 83.55 6.84 0
 -5 -1 3 50.99 5.87 0
 -5 -1 5 16.36 5.06 0
 -5 -1 6 13.14 5.73 0
 -5 -1 7 50.16 7.44 0
 -5 -1 8 21.85 6.19 0
 -5 -1 9 14.81 6.36 0
 -5 -1 10 78.48 9.56 0
 -5 -1 11 97.4 11.62 0
 -5 0 2 302.57 11.62 0
 -5 0 3 303.72 12.6 0
 -5 0 4 75.42 7.31 0
 -5 0 5 145.83 9.44 0
 -5 0 7 0.07 4.25 0
 -5 0 8 -2.47 5.29 0
 -5 0 9 67.52 9.25 0
 -5 0 10 98.42 9.73 0
 -5 1 0 194.94 8.59 0
 -5 1 1 8.11 3.17 0
 -5 1 2 82.72 6.7 0
 -5 1 3 40.42 5.94 0
 -5 1 4 26.26 4.95 0
 -5 1 5 14.73 4.84 0
 -5 1 7 49.6 7.13 0
 -5 1 8 23.5 5.93 0
 -5 1 9 10.57 5.19 0
 -5 1 10 86.42 10.56 0
 -5 2 0 95.2 5.81 0
 -5 2 1 30.18 4.31 0
 -5 2 4 24.25 4.81 0
 -5 2 7 5.89 4.34 0
 -5 2 8 6.72 4.73 0
 -5 2 9 19.01 6.13 0
 -5 2 10 34.62 7.45 0
 -5 3 1 18.5 3.58 0
 -5 3 2 14.72 3.9 0
 -5 3 4 44.28 5.75 0
 -5 3 5 67.04 6.87 0
 -5 3 6 2.57 4.33 0
 -5 3 7 32.55 6.32 0
 -5 3 8 72.53 8.92 0
 -5 3 9 8.77 5.42 0
 -5 4 1 128.56 6.61 0
 -5 4 2 30.75 4.22 0
 -5 4 3 102.2 7.26 0
 -5 4 4 100.33 7.74 0
 -5 4 5 9.52 4.91 0
 -5 4 6 24.28 5.91 0
 -5 4 7 20.05 5.98 0
 -5 4 8 78.62 9.5 0
 -5 4 9 23.46 6.64 0
 -5 5 3 17.43 4.01 0
 -5 5 4 7.41 4.16 0
 -5 5 6 80.64 8.42 0
 -5 5 7 3.5 5.32 0
 -5 5 8 14.19 5.77 0
 -5 5 9 46.19 8.26 0
 -5 6 5 18.14 4.75 0
 -5 6 6 39.82 6.58 0
 -5 6 7 24.89 6.16 0
 -5 6 8 157.15 12.47 0
 -4 -5 8 17.82 6.09 0
 -4 -5 10 10.86 4.93 0
 -4 -5 11 18.44 6.39 0
 -4 -4 5 32.43 6.53 0
 -4 -4 6 13.13 5.04 0
 -4 -4 11 21.9 7 0
 -4 -3 5 144.37 9.44 0
 -4 -3 6 51.37 7.2 0
 -4 -3 8 36.31 6.52 0
 -4 -3 9 241.13 13.11 0
 -4 -3 10 28.39 6.87 0
 -4 -3 11 3.48 4.94 0
 -4 -3 12 25.24 7.27 0
 -4 -2 2 10.63 3.6 0
 -4 -2 3 52.76 6.1 0
 -4 -2 4 324.34 12.2 0
 -4 -2 7 152.97 9.81 0
 -4 -2 8 154.53 10.74 0
 -4 -2 9 61.51 8.47 0
 -4 -2 10 132.01 10.63 0
 -4 -2 11 88.36 10.38 0
 -4 -2 12 64.84 9.12 0
 -4 -1 1 30.97 4.64 0
 -4 -1 2 94.78 6.46 0
 -4 -1 3 30.05 5.01 0
 -4 -1 5 84.6 7.54 0
 -4 -1 6 399.63 14.47 0
 -4 -1 7 405.6 15.08 0
 -4 -1 8 10.51 4.74 0
 -4 -1 9 68.31 7.83 0
 -4 -1 11 5.78 4.98 0
 -4 0 0 34.07 4.41 0
 -4 0 1 11.48 3.2 0
 -4 0 2 1.11 2.67 0
 -4 0 3 218.49 9.56 0
 -4 0 5 17.02 4.38 0
 -4 0 7 75.06 7.23 0
 -4 0 8 16.73 4.97 0
 -4 0 9 2.9 4.44 0
 -4 0 12 -2.51 4.88 0
 -4 1 1 32.25 4.01 0
 -4 1 2 91.56 6.43 0
 -4 1 4 448.44 13.55 0
 -4 1 5 98.37 7.24 0
 -4 1 7 427.19 15.66 0
 -4 1 8 10.52 5.12 0
 -4 1 10 18.61 6.18 0
 -4 1 12 159.89 13.16 0
 -4 2 1 56.77 4.71 0
 -4 2 2 9.13 2.82 0
 -4 2 3 48.86 5.69 0
 -4 2 4 314.37 11.58 0
 -4 2 5 6.52 4.17 0
 -4 2 7 140.75 10.18 0
 -4 2 9 48.31 7.57 0
 -4 2 11 89.15 10.88 0
 -4 3 2 137.09 6.73 0
 -4 3 3 10.61 3.3 0
 -4 3 4 214.69 9.77 0
 -4 3 5 131.15 8.82 0
 -4 3 7 130.99 9.34 0
 -4 3 8 38.29 6.81 0
 -4 3 9 229.82 13.13 0
 -4 3 11 5.14 6.09 0
 -4 4 1 4.64 2.3 0
 -4 4 2 9.07 2.96 0
 -4 4 3 7.98 3.11 0
 -4 4 5 31.67 5.81 0
 -4 4 6 18.05 5.24 0
 -4 4 8 238.45 13.64 0
 -4 4 9 14.22 6 0
 -4 4 10 53.76 9.64 0
 -4 5 1 102.65 5.51 0
 -4 5 2 18.06 3.83 0
 -4 5 3 26.79 4.4 0
 -4 5 4 28.36 5.06 0
 -4 5 10 17.03 7.37 0
 -4 6 2 15.68 3.34 0
 -4 6 3 11.78 3.71 0
 -4 6 4 24.23 4.87 0
 -3 -6 9 8.78 5.11 0
 -3 -6 10 7.95 5.28 0
 -3 -6 11 127.68 9.98 0
 -3 -5 7 19.5 5.27 0
 -3 -5 8 0.94 3.96 0
 -3 -5 10 17.3 4.96 0
 -3 -4 5 182.98 9.03 0
 -3 -4 9 47.97 6.66 0
 -3 -4 11 42.52 7.59 0
 -3 -4 12 100.38 9.64 0
 -3 -3 3 56.15 5.54 0
 -3 -3 4 733.62 16.56 0
 -3 -3 5 467.63 14.04 0
 -3 -3 6 243.96 10.8 0
 -3 -3 7 127.29 8.79 0
 -3 -3 8 31.33 5.79 0
 -3 -3 9 3.22 4.53 0
 -3 -3 10 2.73 3.92 0
 -3 -3 11 14.85 5.35 0
 -3 -3 12 96.63 9.43 0
 -3 -2 6 14.87 4.57 0
 -3 -2 7 165.83 9.34 0
 -3 -2 8 122.13 8.78 0
 -3 -2 9 98.76 8.2 0
 -3 -2 10 2.54 4.68 0
 -3 -2 11 21.53 6.19 0
 -3 -2 12 61.07 8.17 0
 -3 -2 13 45.01 7.44 0
 -3 -1 6 199.73 9.3 0
 -3 -1 8 52.87 6.39 0
 -3 -1 9 20.3 5.86 0
 -3 -1 12 125.93 10.59 0
 -3 -1 13 43.35 7.65 0
 -3 0 6 11.05 3.58 0
 -3 0 7 663.21 17.45 0
 -3 0 9 110.57 8.79 0
 -3 0 10 49.98 7.48 0
 -3 0 11 1.96 4.22 0
 -3 0 13 62.7 9.92 0
 -3 1 -1 5.01 1.68 0
 -3 1 0 401.73 9 0
 -3 1 5 55.58 5.53 0
 -3 1 6 199.44 9.48 0
 -3 1 7 217.86 10.44 0
 -3 1 8 44.82 6.36 0
 -3 1 9 26.53 5.83 0
 -3 1 10 7.78 4.85 0
 -3 1 11 4.32 4.81 0
 -3 1 12 107.63 10.18 0
 -3 1 13 34.31 8.38 0
 -3 2 -1 84.23 3.57 0
 -3 2 0 653.27 10.7 0
 -3 2 4 30.86 4.5 0
 -3 2 5 176.08 8.84 0
 -3 2 9 92.79 8.73 0
 -3 2 10 -2.98 3.77 0
 -3 2 11 31.07 7.34 0
 -3 2 12 54.01 8.54 0
 -3 3 -1 18.9 1.97 0
 -3 3 12 91.3 11.63 0
 -3 4 -1 21.14 1.84 0
 -2 -5 6 158.32 8.75 0
 -2 -5 7 26.36 4.87 0
 -2 -5 9 29.6 5.3 0
 -2 -5 11 198.77 10.19 0
 -2 -4 4 63.46 5.58 0
 -2 -4 5 161.87 7.61 0
 -2 -4 6 193.71 8.65 0
 -2 -4 7 53.54 5.34 0
 -2 -4 9 81.09 7.44 0
 -2 -4 12 5.59 4.04 0
 -2 -3 3 87.6 5.22 0
 -2 -3 4 213.36 8.09 0
 -2 -3 5 68.51 5.35 0
 -2 -3 6 175.79 8.4 0
 -2 -3 8 26.8 4.61 0
 -2 -3 10 23.22 4.85 0
 -2 -3 12 31.9 5.86 0
 -2 -3 13 42.81 6.72 0
 -2 -2 5 82.08 5.5 0
 -2 -2 7 145.19 7.73 0
 -2 -2 9 61.87 6.75 0
 -2 -2 10 197.97 10.58 0
 -2 -2 11 11.5 4.4 0
 -2 -2 12 5.92 4.26 0
 -2 -2 13 38.76 6.69 0
 -2 -2 14 8.8 5 0
 -2 -1 0 592.15 10.55 0
 -2 -1 5 45.86 4.51 0
 -2 -1 7 354.4 12.13 0
 -2 -1 8 150.21 8.77 0
 -2 -1 9 109.81 8.36 0
 -2 -1 11 20.55 5.45 0
 -2 -1 12 47.71 7.89 0
 -2 -1 13 80.01 9.29 0
 -2 -1 14 50.58 7.79 0
 -2 0 2 1.49 2.03 0
 -2 0 5 162.63 7.42 0
 -2 0 6 64.73 5.41 0
 -2 0 7 39.43 5.51 0
 -2 0 8 25.05 5.3 0
 -2 0 9 54.04 6.07 0
 -2 0 12 7.31 4.77 0
 -2 0 13 4.76 5.01 0
 -2 0 14 12.58 5.95 0
 -2 1 -1 264.48 5.08 0
 -2 1 12 47.71 7.91 0
 -2 1 13 77.97 9.69 0
 -2 2 -1 129.37 3.34 0
 -2 2 0 808.8 9.8 0
 -2 3 -1 540.65 6.53 0
 -2 5 -2 13.59 1.25 0
 -2 6 -2 317.1 5.44 0
 -1 -5 8 82.45 5.53 0
 -1 -5 9 131.12 6.94 0
 -1 -5 10 5.23 2.86 0
 -1 -4 6 35.24 4.14 0
 -1 -4 8 8.59 2.96 0
 -1 -4 9 104.32 6.98 0
 -1 -4 10 18.69 4.41 0
 -1 -4 11 28.37 5.09 0
 -1 -3 6 676.23 13.44 0
 -1 -3 7 549.92 12.57 0
 -1 -3 8 108.53 6.47 0
 -1 -3 9 100.33 6.72 0
 -1 -3 10 85.27 6.44 0
 -1 -3 11 20.55 4.77 0
 -1 -3 12 4.62 3.76 0
 -1 -2 1 1977.54 16.77 0
 -1 -2 3 488.38 9.31 0
 -1 -2 4 147.24 5.75 0
 -1 -2 7 46.38 4.32 0
 -1 -2 8 103.28 6.48 0
 -1 -2 10 11.21 4.18 0
 -1 -2 12 31.18 5.49 0
 -1 -2 13 10.1 4.22 0
 -1 -1 1 444.86 7.23 0
 -1 -1 2 22.62 2.4 0
 -1 -1 3 1123.79 13.29 0
 -1 -1 4 2267.64 20.83 0
 -1 -1 7 360.9 11.04 0
 -1 -1 8 54.86 5.28 0
 -1 -1 9 15.04 4.08 0
 -1 -1 10 67.74 6.4 0
 -1 -1 11 97.91 8.41 0
 -1 -1 12 39.2 6.79 0
 -1 -1 13 2.4 4.07 0
 -1 0 0 462.66 5.84 0
 -1 0 1 33.35 2.69 0
 -1 0 2 17.08 2.33 0
 -1 0 12 165.51 11.33 0
 -1 0 13 70.85 8.41 0
 -1 0 14 36.88 7.13 0
 -1 1 0 5184.66 17.44 0
 -1 1 14 14.37 5.69 0
 -1 4 -3 41.95 1.68 0
 -1 4 -2 65.21 2.49 0
 -1 5 -3 2.04 0.94 0
 -1 5 -2 70.97 3.23 0
 -1 6 -4 76.2 2.82 0
 -1 6 -3 93.18 3.73 0
 0 -4 5 255.12 6.62 0
 0 -4 6 5.52 1.74 0
 0 -4 9 4.63 2.15 0
 0 -4 10 255.7 8.76 0
 0 -3 4 88.97 3.69 0
 0 -3 5 115.54 4.41 0
 0 -3 6 15.98 2.52 0
 0 -3 8 67.63 4.68 0
 0 -3 9 35.38 4.32 0
 0 -3 10 48.99 4.61 0
 0 -3 11 64.89 5.46 0
 0 -2 3 848.57 9.02 0
 0 -2 4 537.62 8.14 0
 0 -2 5 475.99 8.71 0
 0 -2 6 13.01 2.67 0
 0 -2 9 7.22 3.23 0
 0 -2 10 216.71 9.27 0
 0 -2 11 50.24 5.8 0
 0 -2 12 52.02 6.34 0
 0 -1 2 462.2 5.41 0
 0 -1 11 131.4 8.83 0
 0 -1 12 128.73 8.8 0
 0 0 14 41.58 6.69 0
 0 4 -2 460.6 8.37 0
 0 5 -3 41.49 3.26 0
 1 -4 8 48.94 2.46 0
 1 -3 5 21.88 1.36 0
 1 -3 6 444.23 6.5 0
 1 -3 7 59.49 3.05 0
 1 -3 8 30.21 2.72 0
 1 -3 10 55.42 4.06 0
 1 -2 5 81.13 3.08 0
 1 -2 6 455.02 8.22 0
 1 -2 10 37.37 4.64 0
 1 -2 11 20.91 3.74 0
 1 -1 12 8.16 4.13 0
 1 0 -1 33.01 2.45 0
 1 1 -2 18.12 2.56 0
 1 1 -1 448.37 7.39 0
 1 1 0 5284.01 22.74 0
 1 2 -2 1000.34 12.26 0
 1 2 0 2089.97 17.3 0
 1 3 -3 25.59 3.44 0
 1 3 -1 366.05 8.28 0
 1 4 -2 367.74 9.23 0
 2 -2 5 62.68 2.19 0
 2 -1 1 280.36 5.49 0
 2 -1 3 543.2 7.19 0
 2 0 -2 0.78 2.42 0
 2 0 1 270.54 6.28 0
 2 0 2 31.42 2.46 0
 2 1 -3 199.35 7.3 0
 2 1 -1 290.63 7.42 0
 2 1 1 275.05 6.94 0
 2 2 -2 331.78 9.06 0
 2 2 0 801.11 12.96 0
 3 -2 3 123.89 3.73 0
 3 -2 4 67.94 2.68 0
 3 -2 5 103.96 3.07 0
 3 -2 6 33.84 2.1 0
 3 -1 0 406.99 8.97 0
 3 -1 1 6.96 1.89 0
 3 -1 2 78.41 3.81 0
 3 -1 3 146.48 4.96 0
 3 -1 4 264.88 6.61 0
 3 -1 5 5.48 1.79 0
 3 -1 6 145.72 5.25 0
 3 -1 7 92.24 4.7 0
 3 0 0 506.36 10.32 0
 3 0 2 65.36 4.04 0
 4 -2 4 193.5 5.5 0
 -6 -5 -8 28.81 5.73 0
 -6 -4 -9 5.81 4.39 0
 -6 -4 -8 22.31 5.11 0
 -6 -3 -9 5.17 4.39 0
 -6 -3 -8 20.29 5.12 0
 -6 -3 -7 21.24 4.81 0
 -6 -3 -6 0.59 2.36 0
 -6 -2 -9 3.42 4.23 0
 -6 -2 -8 14.27 4.34 0
 -6 -1 -10 129.6 10.72 0
 -6 -1 -9 18.43 5.57 0
 -6 -1 -7 2.9 3.45 0
 -6 0 -10 10.58 5.4 0
 -6 0 -9 1.38 4.06 0
 -6 0 -7 8.4 3.34 0
 -6 0 -6 0.46 2.41 0
 -6 1 -10 111.81 10.83 0
 -6 1 -9 16.59 5.81 0
 -6 1 -8 127.25 9.85 0
 -6 1 -7 8.21 3.87 0
 -6 2 -9 -1.58 4.62 0
 -6 2 -8 8.51 5.18 0
 -6 2 -7 45.89 6.52 0
 -6 3 -9 9.59 5.89 0
 -6 3 -8 16.12 6.23 0
 -6 3 -7 26.93 5.87 0
 -6 3 -6 -1.28 2.74 0
 -6 4 -9 6.11 5.41 0
 -6 4 -8 23.12 6.37 0
 -6 4 -7 12.43 4.97 0
 -6 5 -8 19.23 6.59 0
 -6 5 -7 101.74 9.49 0
 -5 -6 -9 19.76 6.03 0
 -5 -6 -8 14.74 5.36 0
 -5 -5 -10 -2.91 4.41 0
 -5 -5 -9 33.35 7.05 0
 -5 -5 -8 13.93 5.39 0
 -5 -5 -7 23.13 5.83 0
 -5 -4 -10 17.36 5.58 0
 -5 -4 -9 0.04 4.12 0
 -5 -4 -8 43.54 6.55 0
 -5 -4 -6 3.72 3.5 0
 -5 -4 -5 32.68 4.85 0
 -5 -3 -11 32.21 7.11 0
 -5 -3 -10 93.24 9.35 0
 -5 -3 -9 110.69 9.29 0
 -5 -3 -8 66.04 7.16 0
 -5 -3 -7 33.37 5.53 0
 -5 -3 -6 83.91 6.69 0
 -5 -3 -5 8.34 3.23 0
 -5 -3 -3 77.52 5.19 0
 -5 -2 -11 -2.54 4.95 0
 -5 -2 -10 45.01 7.17 0
 -5 -2 -9 27.66 5.68 0
 -5 -2 -8 30.15 5.52 0
 -5 -2 -7 14.52 4.28 0
 -5 -2 -6 11.35 3.83 0
 -5 -2 -3 69.85 4.79 0
 -5 -2 -2 16.22 2.43 0
 -5 -2 -1 74.57 3.73 0
 -5 -1 -11 22.11 6.24 0
 -5 -1 -10 180.87 11.73 0
 -5 -1 -9 23.58 5.96 0
 -5 -1 -8 16.12 4.72 0
 -5 -1 -7 8.13 4.11 0
 -5 -1 -6 7.38 3.37 0
 -5 -1 -4 15.95 3 0
 -5 -1 -3 33.37 3.59 0
 -5 -1 -2 395.52 8.99 0
 -5 0 -11 2.4 4.53 0
 -5 0 -10 25.99 6.7 0
 -5 0 -9 70.81 7.79 0
 -5 0 -7 10.97 4.01 0
 -5 0 -6 8.29 3.72 0
 -5 0 -4 54.26 4.87 0
 -5 0 -3 1.75 1.88 0
 -5 0 -2 1.64 1.49 0
 -5 0 -1 146.97 5.04 0
 -5 1 -11 16.35 6.4 0
 -5 1 -10 184.2 11.89 0
 -5 1 -9 28.07 5.87 0
 -5 1 -8 19.27 5.77 0
 -5 1 -7 10.87 4.2 0
 -5 1 -6 10.19 3.95 0
 -5 1 -4 15.32 3.51 0
 -5 1 -3 33.98 4.16 0
 -5 1 -1 27.27 2.71 0
 -5 2 -11 2.15 5.38 0
 -5 2 -10 47.95 7.71 0
 -5 2 -9 22.41 6.08 0
 -5 2 -8 26.47 5.8 0
 -5 2 -7 20.95 4.98 0
 -5 2 -6 7.03 3.58 0
 -5 2 -4 29.54 4.47 0
 -5 2 -3 75.84 5.5 0
 -5 2 -2 23.81 3.61 0
 -5 2 -1 75.03 4.49 0
 -5 3 -11 34.14 8.26 0
 -5 3 -10 90.38 10.85 0
 -5 3 -9 111.95 10.85 0
 -5 3 -8 46.39 7.75 0
 -5 3 -7 37.03 6.45 0
 -5 3 -6 93.85 8.3 0
 -5 3 -5 6.46 3.91 0
 -5 3 -3 79.84 6.03 0
 -5 3 -2 139.08 7.13 0
 -5 3 -1 101.9 5.72 0
 -5 4 -10 12.14 7.49 0
 -5 4 -9 -3.13 5.49 0
 -5 4 -8 45.99 7.88 0
 -5 4 -7 94.48 9.02 0
 -5 4 -6 6.55 5.24 0
 -5 4 -5 26.97 5.69 0
 -5 4 -4 91.43 7.64 0
 -5 4 -2 9.81 3.27 0
 -5 5 -10 0.58 6.22 0
 -5 5 -9 36.92 8.51 0
 -5 5 -8 26.1 7.31 0
 -5 5 -7 19.83 6.94 0
 -5 5 -6 16.89 5.73 0
 -5 5 -4 3.5 4.07 0
 -5 5 -3 85.05 7.57 0
 -5 6 -9 20.26 7.73 0
 -5 6 -8 15.49 7.7 0
 -5 6 -7 43.58 7.97 0
 -5 6 -6 3.21 5.79 0
 -5 6 -5 10.07 5.1 0
 -5 6 -4 24.98 5.69 0
 -5 7 -8 30.87 8.75 0
 -5 7 -7 2.96 5.58 0
 -5 7 -6 102.49 10.69 0
 -4 -6 -10 8.05 5.51 0
 -4 -5 -11 112.15 9.84 0
 -4 -5 -10 4.29 5.39 0
 -4 -5 -9 20.01 5.52 0
 -4 -4 -12 10.7 5.53 0
 -4 -4 -11 1.72 4.58 0
 -4 -4 -10 19.42 5.46 0
 -4 -4 -9 111.19 8.93 0
 -4 -3 -12 33.54 6.83 0
 -4 -3 -11 20.59 5.74 0
 -4 -3 -10 20.71 5.46 0
 -4 -3 -9 18.27 5.3 0
 -4 -3 -7 16.22 4.43 0
 -4 -3 -6 135.26 8.12 0
 -4 -2 -13 10.7 5.9 0
 -4 -2 -12 8.4 5.28 0
 -4 -2 -11 13.88 6.11 0
 -4 -2 -10 26.9 5.59 0
 -4 -2 -5 34.47 4.56 0
 -4 -2 -4 190.5 7.59 0
 -4 -2 -3 17.99 2.83 0
 -4 -1 -13 9.33 5.86 0
 -4 -1 -12 19.2 6.3 0
 -4 -1 -10 15.2 4.93 0
 -4 -1 -7 21.96 4.25 0
 -4 -1 -5 44.3 4.36 0
 -4 -1 -4 341.28 9.65 0
 -4 -1 -3 220.81 7.14 0
 -4 -1 -2 291.68 7.28 0
 -4 -1 0 21.09 1.79 0
 -4 -1 1 30.76 1.46 0
 -4 0 -13 29.92 7.51 0
 -4 0 -12 11.8 6.74 0
 -4 0 -11 17.19 6.34 0
 -4 0 -10 50.84 7.34 0
 -4 0 -9 12.46 4.38 0
 -4 0 -8 101.67 8.01 0
 -4 0 -7 20.46 4.55 0
 -4 0 -5 -1.47 2.19 0
 -4 0 -4 7.12 2.44 0
 -4 0 -3 63.13 4.21 0
 -4 0 -2 91.76 4.35 0
 -4 0 0 36.1 2.14 0
 -4 0 1 9.45 0.99 0
 -4 1 -13 12.58 7.14 0
 -4 1 -12 25.28 6.85 0
 -4 1 -11 13.07 5.57 0
 -4 1 -10 16.91 5.49 0
 -4 1 -9 80.52 8.32 0
 -4 1 -8 13.79 5.05 0
 -4 1 -7 27.05 4.76 0
 -4 1 -5 53.5 5.23 0
 -4 1 -4 341.31 10.09 0
 -4 1 -2 287.73 7.79 0
 -4 1 0 19.89 2.08 0
 -4 2 -13 8.66 6.48 0
 -4 2 -12 11.39 5.97 0
 -4 2 -10 34.4 6.84 0
 -4 2 -8 57.66 7.03 0
 -4 2 -7 2.52 3.64 0
 -4 2 -4 194.52 8.39 0
 -4 2 -3 18.97 3.33 0
 -4 2 -2 50.89 4.21 0
 -4 2 -1 21.06 2.8 0
 -4 3 -12 37.88 8.12 0
 -4 3 -11 33.29 7.47 0
 -4 3 -10 18.56 6.28 0
 -4 3 -9 20.46 5.81 0
 -4 3 -8 46.87 7.16 0
 -4 3 -6 150.79 9.19 0
 -4 3 -4 277.47 10.65 0
 -4 3 -1 367.3 9.97 0
 -4 4 -12 9.91 6.95 0
 -4 4 -11 4.06 5.77 0
 -4 4 -10 25.73 7.3 0
 -4 4 -9 105.29 10.39 0
 -4 4 -3 7.08 3.46 0
 -4 4 -1 20.72 3.59 0
 -4 5 -11 109 13.04 0
 -4 5 -10 11.91 7.14 0
 -4 5 -8 44.25 8.13 0
 -4 5 -7 21.18 6.75 0
 -4 5 -6 1.51 4.29 0
 -4 5 -5 20.53 5.69 0
 -4 6 -10 8.01 7.58 0
 -4 6 -9 20.04 7.1 0
 -4 6 -8 35.62 7.72 0
 -4 6 -7 42.57 7.86 0
 -4 6 -6 5.62 5.08 0
 -4 6 -4 21.31 6.04 0
 -4 7 -9 1.98 6.34 0
 -4 7 -8 9.55 6.34 0
 -4 7 -7 25.77 7.9 0
 -4 7 -6 7.29 5.81 0
 -4 8 -8 33.32 7.93 0
 -3 -6 -12 9.2 5.81 0
 -3 -6 -11 16.4 6.37 0
 -3 -5 -12 11.55 5.69 0
 -3 -5 -11 0.6 4.77 0
 -3 -4 -13 32.58 7.75 0
 -3 -4 -11 32.64 6.82 0
 -3 -3 -13 20.68 6.47 0
 -3 -3 -12 12.79 5.25 0
 -3 -3 -11 2.17 4.23 0
 -3 -3 -10 11.81 5.15 0
 -3 -3 -9 10.89 4.33 0
 -3 -2 -14 67.16 9.38 0
 -3 -2 -13 -2.5 4.14 0
 -3 -2 -12 33.83 6.98 0
 -3 -2 -11 14.11 5.21 0
 -3 -2 -9 42.86 6.38 0
 -3 -2 -8 143.06 8.57 0
 -3 -2 -6 34.37 4.79 0
 -3 -1 -14 17.92 7.12 0
 -3 -1 -13 2.07 5.01 0
 -3 -1 -11 74.42 8.44 0
 -3 -1 -10 36.23 5.79 0
 -3 -1 -8 29.68 4.65 0
 -3 -1 -6 141.53 7.3 0
 -3 -1 -5 6.39 2.5 0
 -3 -1 -4 260.3 7.79 0
 -3 0 -14 19.81 6.3 0
 -3 0 -13 42.77 8.28 0
 -3 0 -11 1.13 4.2 0
 -3 0 -10 49.31 6.73 0
 -3 0 -9 0.5 2.86 0
 -3 0 -8 1.05 2.96 0
 -3 0 -6 5.65 2.7 0
 -3 0 -5 422.25 10.77 0
 -3 0 -4 1.15 2.1 0
 -3 0 -2 60.29 3.4 0
 -3 0 -1 578.96 8.1 0
 -3 0 0 504.41 6.26 0
 -3 1 -13 4.77 5.7 0
 -3 1 -12 14.8 5.62 0
 -3 1 -11 72.24 7.95 0
 -3 1 -10 30.4 6.23 0
 -3 1 -8 30.55 4.92 0
 -3 1 -6 139.43 7.42 0
 -3 1 -5 3.65 2.52 0
 -3 1 -1 3.85 1.53 0
 -3 1 0 403.99 6.58 0
 -3 1 1 111.73 2.94 0
 -3 2 -14 64.6 9.65 0
 -3 2 -13 -2.98 5.08 0
 -3 2 -12 32.29 7.77 0
 -3 2 -11 16.24 5.48 0
 -3 2 -10 7.38 4.38 0
 -3 2 -9 45.15 6.18 0
 -3 2 -8 139.6 9.11 0
 -3 2 -6 37.87 4.85 0
 -3 2 -5 108.87 6.28 0
 -3 2 -4 69.91 5.05 0
 -3 2 -3 122.32 5.76 0
 -3 2 0 680.7 10.3 0
 -3 3 -13 12.78 6.6 0
 -3 3 -12 6.45 6.03 0
 -3 3 -11 1.17 4.66 0
 -3 3 -10 10.57 5.38 0
 -3 3 -8 31.91 5.46 0
 -3 3 -7 69.85 7.19 0
 -3 3 -5 15.88 4.18 0
 -3 3 -2 173.85 7.05 0
 -3 4 -13 30.58 8.41 0
 -3 4 -12 16.1 7.11 0
 -3 4 -11 24.91 7.4 0
 -3 4 -10 87.42 9.52 0
 -3 4 -9 7.9 4.8 0
 -3 4 -7 32.41 6.37 0
 -3 4 -4 18.46 4.09 0
 -3 4 -1 24.21 3.79 0
 -3 5 -12 5.28 5.99 0
 -3 5 -11 6.2 6.14 0
 -3 5 -10 68.99 9.99 0
 -3 5 -9 13.02 5.47 0
 -3 5 -7 99.47 9.05 0
 -3 5 -6 77.28 8.22 0
 -3 5 -5 50.88 6.33 0
 -3 5 -2 142.32 8.17 0
 -3 6 -12 14.99 7.68 0
 -3 6 -11 20.6 7.23 0
 -3 6 -9 4.52 6.18 0
 -3 6 -7 10.98 5.45 0
 -3 6 -5 3.23 4.03 0
 -3 7 -11 1.73 6.5 0
 -3 7 -10 26.62 8.1 0
 -3 7 -9 1.1 6.48 0
 -3 7 -8 69.13 9.99 0
 -3 7 -7 13.88 6.33 0
 -3 8 -10 61.57 10.38 0
 -3 8 -9 8.13 7.02 0
 -2 -5 -13 15.97 5.97 0
 -2 -4 -13 -0.96 5.15 0
 -2 -4 -12 31.66 6.63 0
 -2 -4 -11 20.59 5.42 0
 -2 -3 -14 94.79 10.24 0
 -2 -3 -13 27.9 6.7 0
 -2 -3 -11 26.12 5.58 0
 -2 -3 -10 0.39 3.02 0
 -2 -3 -9 18.13 4.34 0
 -2 -2 -14 68.83 9.34 0
 -2 -2 -13 29.24 7.08 0
 -2 -2 -12 8.92 4.76 0
 -2 -2 -10 12.83 3.98 0
 -2 -2 -9 113.76 7.83 0
 -2 -1 -15 12.46 6.49 0
 -2 -1 -14 12.27 5.7 0
 -2 -1 -13 3.42 4.62 0
 -2 -1 -12 7.47 5.19 0
 -2 -1 -11 21.56 5.29 0
 -2 -1 -10 19.68 4.23 0
 -2 -1 -7 45.08 4.98 0
 -2 -1 -6 18.2 3.42 0
 -2 -1 -5 16.83 2.98 0
 -2 0 -14 192.75 12.91 0
 -2 0 -13 7.83 5.74 0
 -2 0 -12 7.85 4.09 0
 -2 0 -10 14.73 4.32 0
 -2 0 -9 89.13 6.92 0
 -2 0 -7 114.99 6.37 0
 -2 0 -4 374.87 8.59 0
 -2 0 -3 737.15 10.79 0
 -2 0 -2 29.88 2.56 0
 -2 0 -1 282.38 4.97 0
 -2 1 -15 8.05 6.8 0
 -2 1 -13 -2.59 4.05 0
 -2 1 -12 13.47 5.12 0
 -2 1 -9 13 3.59 0
 -2 1 -7 42.47 4.94 0
 -2 1 -6 18.1 3.24 0
 -2 1 -3 535.34 9.51 0
 -2 1 -2 497.11 8.48 0
 -2 1 -1 266.77 5.46 0
 -2 1 0 590.7 7.02 0
 -2 2 -14 59.01 9.79 0
 -2 2 -13 22.31 6.67 0
 -2 2 -12 12.72 5.41 0
 -2 2 -11 14.33 5.92 0
 -2 2 -10 22.05 5.09 0
 -2 2 -9 121.06 8.52 0
 -2 2 -7 215.33 9.38 0
 -2 2 -6 136.69 6.96 0
 -2 2 -3 92.31 4.97 0
 -2 2 0 791.48 10.46 0
 -2 3 -14 108.46 11.32 0
 -2 3 -13 32.01 7.7 0
 -2 3 -11 31.77 6.12 0
 -2 3 -10 0.31 3.5 0
 -2 3 -9 12.15 4.43 0
 -2 3 -8 63.69 6.21 0
 -2 3 -4 303.14 9.75 0
 -2 4 -13 -3.85 5.73 0
 -2 4 -10 46.02 7.32 0
 -2 4 -9 49 7.2 0
 -2 4 -8 14.84 4.58 0
 -2 4 -5 7.02 3.31 0
 -2 4 -3 173.38 7.94 0
 -2 5 -13 8.73 7.12 0
 -2 5 -11 4.16 5.28 0
 -2 5 -10 56.08 8.35 0
 -2 5 -9 45.32 7.52 0
 -2 5 -8 24.35 5.68 0
 -2 5 -7 94.09 8.71 0
 -2 5 -6 13.15 4.62 0
 -2 5 -3 14.36 3.76 0
 -2 6 -11 0.77 5.89 0
 -2 6 -10 103.88 11.46 0
 -2 6 -9 21.34 6.24 0
 -2 6 -8 16.74 5.88 0
 -2 6 -7 87.95 9.45 0
 -2 6 -6 104.12 9.05 0
 -2 6 -5 107.46 8.77 0
 -2 7 -12 44.91 9.73 0
 -2 7 -11 18.5 7.9 0
 -2 7 -10 38.78 8.47 0
 -2 7 -9 23.94 7.59 0
 -2 7 -8 19.52 6.88 0
 -2 7 -7 3.81 4.87 0
 -2 7 -6 10.01 5.32 0
 -2 7 -5 5.22 4.46 0
 -2 8 -11 9.92 7.46 0
 -2 8 -10 55.96 9.62 0
 -2 8 -8 24.1 7.02 0
 -1 -6 -13 3.88 5.05 0
 -1 -5 -14 13.55 5.52 0
 -1 -5 -12 13.64 5.21 0
 -1 -4 -14 28.28 6.71 0
 -1 -4 -13 5.89 5 0
 -1 -4 -12 8.76 4.85 0
 -1 -3 -15 4.92 6.02 0
 -1 -3 -14 31.76 6.76 0
 -1 -3 -13 107.2 9.86 0
 -1 -3 -12 -2.64 4.1 0
 -1 -3 -11 21.03 4.87 0
 -1 -3 -10 58.18 6.04 0
 -1 -2 -15 9.44 6.57 0
 -1 -2 -13 8.01 4.76 0
 -1 -2 -12 0.44 4.16 0
 -1 -2 -10 37.42 5.55 0
 -1 -1 -15 11.06 5.71 0
 -1 -1 -14 115.32 9.96 0
 -1 -1 -13 181.48 11.32 0
 -1 -1 -12 6.51 4.07 0
 -1 -1 -11 32.27 5.37 0
 -1 -1 -10 55.95 5.71 0
 -1 -1 -7 68.09 5.04 0
 -1 0 -15 9.15 5.44 0
 -1 0 -13 3.73 5.13 0
 -1 0 -12 11.61 4.57 0
 -1 0 -11 -0.13 3.39 0
 -1 0 -10 144.3 8.27 0
 -1 0 -8 541.17 13.42 0
 -1 0 -7 0.68 2.06 0
 -1 0 -5 1.2 1.81 0
 -1 0 -3 1.16 1.63 0
 -1 0 -2 102.77 3.49 0
 -1 0 -1 1554.42 9.22 0
 -1 1 -15 18.31 6.69 0
 -1 1 -14 108.29 10.87 0
 -1 1 -13 189.38 12.33 0
 -1 1 -12 4.34 3.9 0
 -1 1 -11 44.3 6.28 0
 -1 1 -10 57.33 6.62 0
 -1 1 -8 306.81 10.54 0
 -1 1 -7 70.85 5 0
 -1 1 -5 81.09 4.45 0
 -1 1 -4 964.41 12.87 0
 -1 1 -3 58.62 3.32 0
 -1 1 -2 266.87 5.54 0
 -1 1 -1 1229.79 9.84 0
 -1 1 0 5205.72 17.9 0
 -1 2 -15 5.82 6.13 0
 -1 2 -14 38.52 7.56 0
 -1 2 -13 3.44 4.84 0
 -1 2 -12 -3.29 4.26 0
 -1 2 -11 31.36 5.67 0
 -1 2 -10 36.29 5.6 0
 -1 2 -7 189.11 8.14 0
 -1 2 -3 563.02 10.06 0
 -1 2 -1 1134.5 12.43 0
 -1 2 0 2115.09 15.66 0
 -1 3 -15 0.97 5.39 0
 -1 3 -14 33.21 7.57 0
 -1 3 -13 107.27 10.8 0
 -1 3 -12 0.8 4.21 0
 -1 3 -10 65.96 7.82 0
 -1 3 -9 98.04 7.54 0
 -1 3 -7 67.32 5.53 0
 -1 3 -6 448.6 12.24 0
 -1 3 -2 98.31 5.13 0
 -1 3 -1 411.31 9.3 0
 -1 4 -14 27.48 7.67 0
 -1 4 -13 5.27 6.6 0
 -1 4 -12 5.48 5.84 0
 -1 4 -11 40.15 6.99 0
 -1 4 -10 42.12 6.91 0
 -1 4 -9 59.53 6.98 0
 -1 5 -14 11.79 7.99 0
 -1 5 -13 20.27 7.92 0
 -1 5 -10 191.6 12.41 0
 -1 5 -9 30.94 6.16 0
 -1 5 -8 5.13 4.09 0
 -1 5 -5 20.74 4.46 0
 -1 5 -3 1.1 2.83 0
 -1 6 -13 -0.68 6.49 0
 -1 6 -12 24.63 7.6 0
 -1 6 -11 112 10.93 0
 -1 6 -10 51.19 8.68 0
 -1 6 -9 35.86 7 0
 -1 6 -7 223.46 12.05 0
 -1 7 -12 1.47 6.32 0
 -1 7 -11 3.19 6.4 0
 -1 7 -10 43.7 8.62 0
 -1 7 -9 104.49 11.25 0
 -1 7 -8 22.21 6.31 0
 -1 7 -7 11.95 5.31 0
 -1 7 -6 69.11 7.88 0
 -1 8 -10 24.89 7.42 0
 -1 8 -9 9.2 5.8 0
 0 -6 -13 7.88 5.28 0
 0 -5 -14 117.03 10.06 0
 0 -5 -13 45.93 7.86 0
 0 -4 -14 11.96 5.74 0
 0 -4 -13 32.21 6.39 0
 0 -4 -12 5.34 4.22 0
 0 -3 -15 47.3 7.77 0
 0 -3 -14 36.66 6.9 0
 0 -3 -13 20.82 5.97 0
 0 -3 -12 66.72 7.64 0
 0 -3 -11 60.51 7.31 0
 0 -2 -15 83.23 10.12 0
 0 -2 -14 41.6 6.98 0
 0 -2 -13 191.59 11.42 0
 0 -2 -11 49.69 6.05 0
 0 -1 -15 26.24 6.41 0
 0 -1 -14 58.8 7.89 0
 0 -1 -12 130.37 9.29 0
 0 -1 -11 133.5 8.8 0
 0 -1 -8 131.09 6.73 0
 0 -1 -7 202.24 7.34 0
 0 0 -12 4.31 4.01 0
 0 0 -11 -0.39 3.34 0
 0 0 -9 9.83 3.48 0
 0 0 -8 1054.02 17.36 0
 0 0 -7 105.01 5.49 0
 0 0 -6 13.39 2.52 0
 0 0 -5 297.78 7.12 0
 0 0 -4 245.41 5.98 0
 0 0 -3 28.41 2.05 0
 0 0 -2 2937.71 13.15 0
 0 1 -15 25.51 7.35 0
 0 1 -13 86.92 8.43 0
 0 1 -12 120.64 9.17 0
 0 1 -11 130.21 8.76 0
 0 1 -5 526.77 9.88 0
 0 1 -4 235.21 5.94 0
 0 1 -3 1057.57 10.84 0
 0 1 -2 478.64 6.44 0
 0 2 -14 38.64 7.07 0
 0 2 -13 191.54 12.05 0
 0 2 -12 44.98 7.16 0
 0 2 -11 38.85 5.84 0
 0 2 -10 209.65 10 0
 0 2 -8 351.8 11.09 0
 0 2 -6 12.91 2.8 0
 0 2 -5 479.38 10.14 0
 0 2 -4 575.47 10.4 0
 0 2 -3 855.69 11.52 0
 0 3 -15 56.15 9.07 0
 0 3 -12 50.69 7.66 0
 0 3 -11 65.81 8.16 0
 0 3 -10 57.26 6.4 0
 0 3 -7 23.25 4.13 0
 0 3 -6 15.92 3.33 0
 0 3 -5 120.67 6.28 0
 0 3 -4 94.08 5.23 0
 0 3 -2 801.81 12.89 0
 0 4 -15 40.25 9.24 0
 0 4 -13 35.67 7.63 0
 0 4 -12 -0.75 4.49 0
 0 4 -7 94.38 7.26 0
 0 4 -6 8.77 3.39 0
 0 5 -12 6.44 5.46 0
 0 5 -10 33.23 6.41 0
 0 5 -9 29.3 6.17 0
 0 5 -8 58.09 6.84 0
 0 6 -13 1.68 6.69 0
 0 6 -12 8.02 6.21 0
 0 6 -11 68.52 9.75 0
 0 6 -10 151.21 11.73 0
 0 6 -9 59.24 8.5 0
 0 6 -7 74.07 7.66 0
 0 7 -13 12.15 7.98 0
 0 7 -12 -3.81 5.85 0
 0 7 -10 46.33 8.58 0
 0 7 -9 4.69 5.35 0
 0 7 -8 98.02 9.56 0
 0 7 -7 209.08 12.09 0
 0 8 -12 51.32 9.91 0
 0 8 -11 57.02 10.19 0
 1 -6 -14 26.89 6.26 0
 1 -6 -13 29.32 6.65 0
 1 -4 -15 19.92 5.66 0
 1 -4 -14 85.44 8.97 0
 1 -4 -12 6.65 4.05 0
 1 -3 -15 84.11 8.5 0
 1 -3 -14 91.15 8.33 0
 1 -3 -13 7.1 4.11 0
 1 -3 -12 6.86 4.01 0
 1 -3 -11 17.86 4.77 0
 1 -2 -15 22.85 6.32 0
 1 -2 -14 130.2 9.46 0
 1 -2 -13 12.96 4.66 0
 1 -2 -12 33.32 5.73 0
 1 -2 -11 16.78 4.43 0
 1 -1 -16 4.12 4.82 0
 1 -1 -15 52.8 8.12 0
 1 -1 -14 13.42 5.21 0
 1 -1 -13 4.39 3.9 0
 1 -1 -12 33.16 5.29 0
 1 -1 -11 107.45 7.51 0
 1 -1 -9 20 3.51 0
 1 -1 -8 54.01 4.49 0
 1 -1 -7 368.26 9.07 0
 1 0 -16 2.29 4.58 0
 1 0 -15 12.1 5.17 0
 1 0 -14 44.11 7.15 0
 1 0 -12 162.59 9.26 0
 1 0 -9 87.29 5.89 0
 1 0 -8 3.6 2.26 0
 1 0 -7 -0.73 1.68 0
 1 0 -6 58.88 3.79 0
 1 0 -5 134.71 4.62 0
 1 0 -4 1437.05 11.73 0
 1 0 -3 295.39 4.47 0
 1 0 -2 14.58 0.96 0
 1 1 -16 -1.66 4.71 0
 1 1 -14 16.52 5.72 0
 1 1 -13 5.64 4.09 0
 1 1 -12 34.59 5.61 0
 1 1 -11 101.78 7.39 0
 1 1 -8 55.2 4.49 0
 1 1 -5 22.02 2.58 0
 1 1 -4 2341.3 16.45 0
 1 1 -3 1129.38 9.87 0
 1 1 -2 19.69 1.55 0
 1 2 -15 24.52 7.33 0
 1 2 -14 137.58 10.95 0
 1 2 -13 10.76 4.79 0
 1 2 -12 34.4 6.08 0
 1 2 -9 0.9 2.92 0
 1 2 -8 106.62 6.19 0
 1 2 -7 45.82 4.14 0
 1 2 -6 216.33 7.27 0
 1 2 -5 153.7 5.65 0
 1 2 -4 159.26 5.27 0
 1 2 -3 502.08 8.49 0
 1 2 -2 973 10.85 0
 1 3 -15 80.19 10.25 0
 1 3 -14 89.35 9.34 0
 1 3 -13 9.45 5.71 0
 1 3 -12 8.96 5.21 0
 1 3 -11 17.05 4.96 0
 1 3 -10 93.86 7.87 0
 1 3 -7 557.73 13.47 0
 1 3 -5 33.06 4.1 0
 1 3 -4 603.79 11.64 0
 1 4 -15 10.86 6.6 0
 1 4 -14 89.87 10.65 0
 1 4 -13 46.07 7.55 0
 1 4 -11 24.44 6.16 0
 1 4 -10 15.22 5.18 0
 1 4 -7 98.12 6.76 0
 1 4 -6 34.44 4.84 0
 1 4 -5 19.57 4.12 0
 1 4 -4 63.07 4.97 0
 1 5 -14 48.64 9.01 0
 1 5 -13 19.47 7.16 0
 1 5 -12 27.97 7.28 0
 1 5 -11 12.23 5.53 0
 1 5 -10 3.55 4.36 0
 1 6 -13 29.53 7.28 0
 1 6 -11 50.59 8.04 0
 1 6 -9 20.35 5.71 0
 1 6 -8 10.79 4.76 0
 1 6 -7 105.06 8.31 0
 1 7 -12 21.4 7.01 0
 1 7 -11 76.86 10.45 0
 1 7 -10 4.98 5.44 0
 1 7 -9 41.35 7.86 0
 2 -6 -13 95.1 8.92 0
 2 -5 -13 44.95 6.38 0
 2 -4 -15 -1.71 3.54 0
 2 -4 -14 55.35 7.57 0
 2 -4 -13 152.57 9.3 0
 2 -4 -12 1.23 3.64 0
 2 -3 -15 6.74 4.46 0
 2 -3 -12 31.87 5.12 0
 2 -3 -11 29.33 4.99 0
 2 -2 -14 9.47 4.68 0
 2 -2 -12 6.56 3.33 0
 2 -2 -9 58.98 4.95 0
 2 -1 -15 15.88 4.92 0
 2 -1 -14 44.56 6.78 0
 2 -1 -13 85.82 7.45 0
 2 -1 -12 55.66 5.89 0
 2 -1 -10 4.6 2.63 0
 2 -1 -9 108.61 5.86 0
 2 -1 -8 142.55 5.8 0
 2 -1 -7 356.62 8.04 0
 2 -1 -6 87.12 3.85 0
 2 0 -16 9 5.36 0
 2 0 -15 29.29 6.28 0
 2 0 -14 17.58 5 0
 2 0 -13 0.51 3.5 0
 2 0 -12 12.48 4.04 0
 2 0 -10 69.04 5.24 0
 2 0 -9 55.69 4.54 0
 2 0 -7 39.58 3.25 0
 2 0 -6 57.31 3.14 0
 2 0 -5 160.15 4.16 0
 2 0 -4 642.63 6.48 0
 2 0 -3 1.01 0.52 0
 2 1 -14 46.12 6.81 0
 2 1 -10 3.45 3 0
 2 1 -9 114.73 6.11 0
 2 1 -8 156.18 6.46 0
 2 1 -6 81.17 3.96 0
 2 1 -5 45.23 2.64 0
 2 1 -4 91.97 3.15 0
 2 1 -3 200.91 3.74 0
 2 2 -15 47.91 7.38 0
 2 2 -14 14.54 4.96 0
 2 2 -13 34.38 6.2 0
 2 2 -12 9.46 4.42 0
 2 2 -10 189.43 8.77 0
 2 2 -9 55.17 5.24 0
 2 2 -8 45.32 4.69 0
 2 2 -7 156.98 6.49 0
 2 2 -6 221.15 6.89 0
 2 2 -5 75.86 4.1 0
 2 2 -4 328.09 6.95 0
 2 3 -15 5.82 4.74 0
 2 3 -13 42.8 7.11 0
 2 3 -11 22.63 5.31 0
 2 3 -9 14.95 3.77 0
 2 3 -8 22.99 4.24 0
 2 3 -7 59.9 5.17 0
 2 3 -6 164.41 6.85 0
 2 3 -5 61.07 4.27 0
 2 3 -4 208.11 6.43 0
 2 4 -15 3.83 5.15 0
 2 4 -14 50.52 7.75 0
 2 4 -13 155.53 11.22 0
 2 4 -12 -1.04 3.94 0
 2 4 -10 32.97 5.58 0
 2 4 -8 109.37 7.38 0
 2 4 -7 54.57 5.7 0
 2 4 -6 194.31 8.42 0
 2 5 -14 26.74 6.79 0
 2 5 -13 58.87 8.33 0
 2 5 -12 5.72 4.97 0
 2 5 -11 212.02 12.18 0
 2 5 -10 27.88 5.77 0
 2 5 -9 29.31 5.63 0
 2 5 -7 28.49 4.82 0
 2 6 -12 10.33 5.73 0
 2 6 -10 43.8 7.08 0
 3 -5 -13 68.5 6.87 0
 3 -5 -12 1.65 3.04 0
 3 -4 -12 91.76 6.83 0
 3 -4 -11 39.04 4.9 0
 3 -3 -12 91.94 6.66 0
 3 -3 -10 5.74 2.63 0
 3 -2 -13 50.21 6.05 0
 3 -2 -12 60.77 5.61 0
 3 -2 -10 -1.48 1.99 0
 3 -2 -9 101.79 5.26 0
 3 -2 -8 124.37 5.21 0
 3 -1 -11 2.25 2.86 0
 3 -1 -9 17.68 2.72 0
 3 -1 -7 213.64 5.46 0
 3 -1 -6 197.26 4.51 0
 3 -1 -5 59.93 2.15 0
 3 -1 -4 876.91 5.63 0
 3 0 -13 59.79 5.84 0
 3 0 -11 4.21 2.71 0
 3 0 -10 49.48 4.45 0
 3 0 -8 134.25 5.12 0
 3 0 -7 653.41 9.35 0
 3 0 -6 8.2 1.42 0
 3 0 -5 1.17 0.64 0
 3 1 -13 30.41 5.29 0
 3 1 -11 2.78 3.1 0
 3 1 -10 7.79 2.63 0
 3 1 -9 21.07 3.27 0
 3 1 -8 43.35 3.51 0
 3 1 -7 220.08 6.03 0
 3 1 -6 199.28 5.04 0
 3 1 -5 59.44 2.37 0
 3 2 -13 51.89 6.65 0
 3 2 -12 62.64 6.48 0
 3 2 -10 -0.1 2.24 0
 3 2 -9 88.77 5.64 0
 3 2 -7 149.87 5.74 0
 3 2 -6 10.37 2.14 0
 3 3 -13 129.8 9.11 0
 3 3 -12 96.73 7.67 0
 3 3 -10 1.63 3.22 0
 3 3 -9 0.64 2.51 0
 3 3 -8 22.16 3.48 0
 3 3 -7 124.89 5.98 0
 3 4 -13 12.27 4.54 0
 3 4 -12 85.32 7.82 0
 3 4 -11 39.87 5.65 0
 3 4 -9 54.67 5.65 0
 3 5 -12 0.86 3.55 0
 3 5 -11 24.53 5.18 0
 4 -3 -8 42.77 3.18 0
 4 -2 -7 155.07 3.86 0
 4 -2 -6 13.21 1.22 0
 4 -2 -5 5.31 0.7 0
 -7 -7 -1 1.87 5.83 0
 -7 -7 0 2.15 5.91 0
 -7 -7 1 10.58 5.58 0
 -7 -7 2 21.74 5.83 0
 -7 -6 -3 5.36 6.19 0
 -7 -6 -2 -0.67 4.88 0
 -7 -6 -1 38.66 7.6 0
 -7 -6 0 102.31 10.19 0
 -7 -6 1 31.46 7.05 0
 -7 -6 2 6.32 4.39 0
 -7 -5 -5 1.58 5.33 0
 -7 -5 -4 4.76 5.16 0
 -7 -5 -2 2.93 4.48 0
 -7 -5 -1 -0.35 4.08 0
 -7 -5 0 5.56 4.1 0
 -7 -5 1 61.31 7.35 0
 -7 -4 -6 2.82 6.21 0
 -7 -4 -5 19.84 6.95 0
 -7 -4 -4 33.82 7.29 0
 -7 -4 -2 35.25 6.67 0
 -7 -4 -1 44.75 6.99 0
 -7 -4 0 150.03 9.32 0
 -7 -3 -7 21.77 6.88 0
 -7 -3 -6 10.68 5.58 0
 -7 -3 -5 21.69 6.06 0
 -7 -3 -4 14.71 6.03 0
 -7 -3 -3 33.42 6.31 0
 -7 -3 -2 7.6 4 0
 -7 -3 -1 21.75 4.92 0
 -7 -2 -7 3.45 5.38 0
 -7 -2 -3 28.42 5.65 0
 -7 -2 -2 9.4 3.63 0
 -7 -1 -7 8.34 5.53 0
 -7 -1 -6 13.47 5.48 0
 -7 -1 -5 6.17 5.36 0
 -7 -1 -4 23.59 5.65 0
 -7 -1 -3 3.71 3.54 0
 -7 0 -7 -1.1 4.83 0
 -7 0 -6 -2.85 4.68 0
 -7 0 -5 10.35 4.52 0
 -7 1 -7 5.65 5.23 0
 -7 1 -6 12.82 5.15 0
 -7 2 -7 0.76 5.47 0
 -6 -8 -3 13.01 6.38 0
 -6 -8 -2 10.19 6.49 0
 -6 -8 -1 12.39 6.1 0
 -6 -8 0 11.36 6.11 0
 -6 -7 -5 20.9 6.66 0
 -6 -7 -4 12.21 6.82 0
 -6 -7 -3 10.25 5.91 0
 -6 -7 -2 5.49 5.72 0
 -6 -7 0 24.01 6.81 0
 -6 -6 -7 0.01 5.33 0
 -6 -6 -6 8.86 6.42 0
 -6 -6 -5 13.9 5.91 0
 -6 -6 -3 7.09 6.18 0
 -6 -6 -2 128.38 10.28 0
 -6 -6 -1 1.49 4.88 0
 -6 -6 0 24.65 6.17 0
 -6 -5 -8 21.07 7.07 0
 -6 -5 -7 98.43 11.07 0
 -6 -5 -6 13.03 5.83 0
 -6 -5 -5 30.61 7.26 0
 -6 -5 -4 108.15 10.29 0
 -6 -5 -3 53.02 7.73 0
 -6 -5 -2 13.04 5.92 0
 -6 -5 -1 24.79 5.7 0
 -6 -5 0 147.73 10.39 0
 -6 -4 -9 2.78 5.78 0
 -6 -4 -8 23.99 7.01 0
 -6 -4 -7 2.84 5.78 0
 -6 -4 -6 39.86 7.31 0
 -6 -4 -5 8.4 5.64 0
 -6 -4 -4 18.81 5.6 0
 -6 -4 -2 34.47 5.83 0
 -6 -4 0 23.32 4.85 0
 -6 -4 1 31.71 5.39 0
 -6 -4 2 8.93 3.81 0
 -6 -3 -8 20.65 6.9 0
 -6 -3 -7 19.74 6.27 0
 -6 -3 -6 -2.15 3.75 0
 -6 -3 -4 43.98 7.08 0
 -6 -3 -3 34.14 5.76 0
 -6 -3 -2 18.94 5.29 0
 -6 -3 -1 62.72 6.44 0
 -6 -2 -9 2.59 6.3 0
 -6 -2 -7 36.2 7.53 0
 -6 -2 -6 36.43 7.12 0
 -6 -2 -5 34.64 6.52 0
 -6 -2 -4 22.64 5.22 0
 -6 -2 -3 6.53 4.36 0
 -6 -2 1 78.51 5.58 0
 -6 -1 -10 140.6 12.32 0
 -6 -1 -8 138.42 11.38 0
 -6 -1 -7 -0.84 5.21 0
 -6 -1 -6 17.8 5.55 0
 -6 -1 -5 1.55 3.82 0
 -6 -1 -4 23.59 5.34 0
 -6 -1 -3 -0.89 2.88 0
 -6 -1 0 8.53 2.53 0
 -6 0 -10 10.27 6.57 0
 -6 0 -9 5.02 5.5 0
 -6 0 -8 6.71 5.82 0
 -6 0 -7 9.26 4.9 0
 -6 0 -6 -0.56 3.9 0
 -6 0 -5 6.54 4.13 0
 -6 0 -4 23.54 4.8 0
 -6 0 -3 64.56 6 0
 -6 0 -1 9.37 2.7 0
 -6 1 -10 122.81 12.55 0
 -6 1 -9 10.56 5.95 0
 -6 1 -7 2.02 4.96 0
 -6 1 -6 15.43 5.86 0
 -6 1 -5 1.42 3.53 0
 -6 1 -4 18.17 4.7 0
 -6 1 -3 4.38 3.46 0
 -6 2 -9 2.14 5.57 0
 -6 2 -8 14.6 5.97 0
 -6 2 -6 41.65 7.22 0
 -6 2 -5 34.98 6.16 0
 -6 2 -4 28.02 5.02 0
 -6 3 -9 12.4 6.45 0
 -6 3 -8 23.76 6.78 0
 -6 3 -7 28.08 6.59 0
 -6 3 -6 -1.98 3.68 0
 -6 3 -5 29.29 5.65 0
 -5 -9 -2 5.79 5.77 0
 -5 -8 -6 9.36 7.37 0
 -5 -8 -5 20.21 7.82 0
 -5 -8 -4 4.92 5.97 0
 -5 -8 -3 2.56 5.3 0
 -5 -8 -2 18.13 6.63 0
 -5 -7 -8 35.99 8.14 0
 -5 -7 -7 -4.61 5.4 0
 -5 -7 -6 80.14 10.77 0
 -5 -7 -5 18.43 7.07 0
 -5 -7 -3 46.83 8.49 0
 -5 -7 -2 33.63 7.85 0
 -5 -6 -9 17.42 7.26 0
 -5 -6 -7 46.45 8.88 0
 -5 -6 -6 6.44 5.8 0
 -5 -6 -5 6.77 5.37 0
 -5 -6 -4 28.73 6.67 0
 -5 -6 -2 7.37 4.31 0
 -5 -5 -10 -1.82 5.51 0
 -5 -5 -9 33.86 7.67 0
 -5 -5 -8 16.1 6.09 0
 -5 -5 -7 19.24 6 0
 -5 -5 -6 20.92 5.84 0
 -5 -5 -5 38.25 6.69 0
 -5 -5 -4 8.53 4.82 0
 -5 -5 -2 43.47 6.61 0
 -5 -4 -10 14.76 7.15 0
 -5 -4 -9 -3.05 5.12 0
 -5 -4 -7 95.45 9.16 0
 -5 -4 -6 2.26 4.2 0
 -5 -4 -5 31.16 6.01 0
 -5 -4 -4 98.27 8.2 0
 -5 -4 -3 1.93 3.56 0
 -5 -4 -2 6 3.85 0
 -5 -4 -1 11.62 4.1 0
 -5 -3 -10 103.13 11.39 0
 -5 -3 -7 44.65 6.96 0
 -5 -3 -6 83.41 8.04 0
 -5 -3 -5 5.73 4.34 0
 -5 -2 -10 53.18 9.36 0
 -5 -2 -8 37.8 6.87 0
 -5 -2 -7 20.28 6.08 0
 -5 -2 -6 7.98 4.19 0
 -5 -2 -5 32.39 5.82 0
 -5 -2 -4 31.15 5.09 0
 -5 -2 -1 79.02 6.06 0
 -5 -2 0 107.95 6.42 0
 -5 -2 1 31.97 3.88 0
 -5 -2 2 148.52 6.75 0
 -5 -1 -9 24.54 6.5 0
 -5 -1 -8 14.41 5.43 0
 -5 -1 -6 5.6 4 0
 -5 -1 -5 35.38 5.42 0
 -5 -1 -2 400.32 11.82 0
 -5 -1 -1 23.4 3.46 0
 -5 -1 0 202.26 7.66 0
 -5 -1 1 8.76 2.26 0
 -5 -1 3 49.39 3.34 0
 -5 0 -11 1.69 6.58 0
 -5 0 -10 18.2 6.18 0
 -5 0 -9 79.15 9.42 0
 -5 0 -8 88.89 9.39 0
 -5 0 -6 10.34 4.41 0
 -5 0 -5 36.63 5.47 0
 -5 0 -3 4.02 2.89 0
 -5 0 -2 3.33 2.52 0
 -5 0 -1 154.83 6.82 0
 -5 0 0 193 6.81 0
 -5 0 1 70.19 3.96 0
 -5 0 2 301.7 6.83 0
 -5 1 -11 19.53 7.87 0
 -5 1 -10 167.72 12.39 0
 -5 1 -9 20.77 6.21 0
 -5 1 -6 7.64 4.25 0
 -5 1 -5 47.31 6.46 0
 -5 1 -3 29.38 4.57 0
 -5 1 -2 431.36 11.45 0
 -5 1 -1 22.84 3.26 0
 -5 1 1 11.88 1.79 0
 -5 2 -11 2.1 5.86 0
 -5 2 -10 52.05 9.13 0
 -5 2 -9 17.47 6.33 0
 -5 2 -8 37.33 7.26 0
 -5 2 -6 17.14 4.77 0
 -5 2 -2 19.87 3.37 0
 -5 2 -1 79.9 4.88 0
 -5 2 0 106.72 4.85 0
 -5 3 -11 34.62 8.48 0
 -5 3 -9 127.57 10.9 0
 -5 3 -8 60.29 8.82 0
 -5 3 -7 43.3 7.56 0
 -5 3 -6 90.42 8.47 0
 -5 3 -5 2.12 4.27 0
 -5 3 -3 86.08 6.5 0
 -5 3 -1 103.77 5.49 0
 -5 4 -8 38.18 7.91 0
 -5 4 -7 90.87 9.06 0
 -5 4 -6 -0.36 3.95 0
 -5 4 -5 26.95 5.4 0
 -5 4 -4 102.05 7.51 0
 -4 -10 -4 21.3 8.02 0
 -4 -9 -7 2.68 5.54 0
 -4 -9 -6 39.59 8.79 0
 -4 -9 -4 14.04 6.55 0
 -4 -8 -8 34.55 7.76 0
 -4 -8 -7 8.13 6.26 0
 -4 -8 -6 60.75 8.99 0
 -4 -8 -5 36.43 7.91 0
 -4 -8 -4 64.42 9.44 0
 -4 -7 -9 7.5 6.23 0
 -4 -7 -8 18.07 6.46 0
 -4 -7 -7 29.94 7.71 0
 -4 -7 -6 1.99 4.18 0
 -4 -7 -5 55.17 8.53 0
 -4 -6 -10 15.99 7.19 0
 -4 -6 -9 20.14 6.4 0
 -4 -6 -7 49.37 7.79 0
 -4 -6 -5 2.06 4.03 0
 -4 -6 -4 24.41 5.81 0
 -4 -6 -3 0.52 3.57 0
 -4 -5 -11 100.08 10.4 0
 -4 -5 -10 5.55 5.45 0
 -4 -5 -9 31 7.42 0
 -4 -5 -8 39.3 7.25 0
 -4 -5 -7 25.91 5.93 0
 -4 -5 -6 6.64 4.91 0
 -4 -5 -5 15.9 4.93 0
 -4 -5 -4 123.43 8.73 0
 -4 -5 -3 266.93 12.22 0
 -4 -4 -12 6.4 5.99 0
 -4 -4 -11 1.04 5.19 0
 -4 -4 -10 19.36 6.38 0
 -4 -4 -9 115.54 10.52 0
 -4 -4 -7 35.7 6.2 0
 -4 -4 -6 52.11 6.61 0
 -4 -4 -5 9.51 4.04 0
 -4 -4 -4 44.1 6.18 0
 -4 -3 -12 35.91 7.74 0
 -4 -3 -11 25.87 6.93 0
 -4 -3 -9 21.04 5.97 0
 -4 -3 -8 39.36 6.79 0
 -4 -3 -7 15.99 4.87 0
 -4 -3 -6 141.83 9.04 0
 -4 -3 -5 19.66 4.43 0
 -4 -3 -2 75.29 6.23 0
 -4 -3 -1 369.88 11.53 0
 -4 -2 -12 0.81 6.65 0
 -4 -2 -11 10.88 5.73 0
 -4 -2 -9 39.87 7.02 0
 -4 -2 -7 2.66 4.02 0
 -4 -2 -6 143.31 8.97 0
 -4 -2 -1 22.27 3.8 0
 -4 -2 0 100.72 5.6 0
 -4 -1 -13 1.08 5.76 0
 -4 -1 -12 20.97 7.45 0
 -4 -1 -11 16.67 6.59 0
 -4 -1 -10 21.79 6.02 0
 -4 -1 -9 103.33 8.91 0
 -4 -1 -8 13.8 5.05 0
 -4 -1 -6 168.87 9.1 0
 -4 -1 -4 362.71 11.63 0
 -4 -1 -2 288.16 9.3 0
 -4 -1 -1 1225.54 17.35 0
 -4 -1 0 17.98 2.72 0
 -4 -1 1 34.45 3.23 0
 -4 0 -13 34.62 8.28 0
 -4 0 -12 5.03 5.75 0
 -4 0 -11 11.74 5.66 0
 -4 0 -10 58.76 8.65 0
 -4 0 -9 13.59 5.45 0
 -4 0 -8 102.71 8.82 0
 -4 0 -4 11.86 3.24 0
 -4 0 -3 72.78 5.16 0
 -4 0 -2 91.3 5.21 0
 -4 0 -1 12.76 2.45 0
 -4 0 2 0.09 1.15 0
 -4 0 3 219.99 4.66 0
 -4 0 4 12.18 1.29 0
 -4 1 -13 14.65 7.87 0
 -4 1 -12 20.33 7.02 0
 -4 1 -11 14.01 6.35 0
 -4 1 -7 22.06 4.85 0
 -4 1 -4 350.34 11.17 0
 -4 1 -3 225.04 8.27 0
 -4 1 -2 289.2 8.62 0
 -4 1 -1 1198.03 15.48 0
 -4 1 1 33.87 2.41 0
 -4 1 2 89.76 2.78 0
 -4 2 -12 9.82 6.26 0
 -4 2 -11 9.23 6.07 0
 -4 2 -10 28.03 7.07 0
 -4 2 -9 30.07 6.62 0
 -4 2 -8 58.22 7.19 0
 -4 2 -7 2.14 3.64 0
 -4 2 -6 134.69 8.69 0
 -4 2 -4 201.69 8.82 0
 -4 2 -3 12.44 3.26 0
 -4 2 -2 54.96 4.48 0
 -4 2 -1 20.48 2.71 0
 -4 2 1 60.53 2.91 0
 -4 3 -11 28.67 8.27 0
 -4 3 -10 21.18 6.73 0
 -4 3 -9 17.26 5.83 0
 -4 3 -8 38.15 7.08 0
 -4 3 -7 25.1 5.45 0
 -4 3 -6 142.99 9.14 0
 -4 3 -4 291.44 10.73 0
 -4 3 -3 208.74 8.62 0
 -4 3 -2 71.93 5.12 0
 -4 4 -9 106.79 10.59 0
 -4 4 -8 13.04 5.39 0
 -4 4 -7 32.59 6.51 0
 -3 -9 -8 19.9 6.63 0
 -3 -9 -7 24.53 7.81 0
 -3 -9 -6 7.13 5.6 0
 -3 -9 -5 29.11 7.09 0
 -3 -8 -10 71.26 9.94 0
 -3 -8 -9 4.23 5.73 0
 -3 -8 -8 58.13 8.83 0
 -3 -8 -7 0.21 4.88 0
 -3 -8 -6 20.02 5.95 0
 -3 -8 -5 15.01 5.93 0
 -3 -7 -11 13.38 5.69 0
 -3 -7 -10 40.64 8.64 0
 -3 -7 -9 2.92 5.1 0
 -3 -7 -7 16.81 5.81 0
 -3 -7 -6 6.63 4.69 0
 -3 -6 -12 13.34 6.87 0
 -3 -6 -11 15 6.03 0
 -3 -6 -10 127.22 11.16 0
 -3 -6 -9 4.62 5.36 0
 -3 -6 -8 99.85 9.02 0
 -3 -6 -7 18.53 5.36 0
 -3 -6 -6 67.79 7.44 0
 -3 -6 -5 0.62 3.49 0
 -3 -6 -4 31.45 5.94 0
 -3 -5 -11 -0.46 4.95 0
 -3 -5 -10 68.83 8.7 0
 -3 -5 -9 8.81 4.94 0
 -3 -5 -8 31.93 7.02 0
 -3 -5 -7 91.78 8.33 0
 -3 -5 -6 76.24 7.63 0
 -3 -5 -5 52.16 6.46 0
 -3 -4 -13 39.95 8.46 0
 -3 -4 -10 94.88 9.06 0
 -3 -4 -9 12.45 5.32 0
 -3 -4 -8 129.86 9.16 0
 -3 -4 -7 47.28 6.21 0
 -3 -4 -6 11.64 3.61 0
 -3 -4 -3 163.84 8.63 0
 -3 -3 -13 14.55 6.15 0
 -3 -3 -12 15.02 6.02 0
 -3 -3 -11 0.23 4.58 0
 -3 -3 -10 10.26 4.79 0
 -3 -3 -9 13.6 5.01 0
 -3 -3 -8 29.43 5.62 0
 -3 -3 -7 68.88 6.26 0
 -3 -3 -3 92.57 6.35 0
 -3 -2 -14 56.47 9.94 0
 -3 -2 -13 -2.62 6.5 0
 -3 -2 -12 23.52 6.38 0
 -3 -2 -11 13.01 5.48 0
 -3 -2 -10 6.71 4.41 0
 -3 -2 -9 46.08 6.88 0
 -3 -2 -8 150.85 9.55 0
 -3 -2 -3 120.79 6.52 0
 -3 -1 -13 4.01 6.7 0
 -3 -1 -12 19.5 6.46 0
 -3 -1 -11 69.35 8.57 0
 -3 -1 -10 38.71 6.68 0
 -3 -1 -9 23.53 5.08 0
 -3 -1 -8 26.25 4.96 0
 -3 -1 -5 8.67 2.96 0
 -3 -1 -4 258 8.95 0
 -3 -1 -3 138.77 6.52 0
 -3 -1 -1 6.35 2.09 0
 -3 -1 0 413.65 8.69 0
 -3 0 -13 29.79 7.64 0
 -3 0 -12 4.54 5.15 0
 -3 0 -11 1.97 4.3 0
 -3 0 -10 50.81 7.18 0
 -3 0 -9 3.13 3.63 0
 -3 0 -8 -1.01 2.92 0
 -3 0 -6 10.33 3.13 0
 -3 0 -4 -1.18 1.95 0
 -3 0 0 501.85 8.25 0
 -3 0 1 462.81 7.13 0
 -3 0 2 229.7 4.6 0
 -3 1 -14 26.73 8.73 0
 -3 1 -13 6.12 6.12 0
 -3 1 -11 72.65 9.34 0
 -3 1 -10 34.11 6.12 0
 -3 1 -8 27.62 5.07 0
 -3 1 -5 6.14 2.76 0
 -3 1 -1 5.01 1.69 0
 -3 1 0 403.38 6.97 0
 -3 1 1 116.06 3.2 0
 -3 1 2 234.72 3.19 0
 -3 2 -14 59.28 10.11 0
 -3 2 -13 -0.28 6.03 0
 -3 2 -12 33.14 7.78 0
 -3 2 -8 143.03 9.12 0
 -3 2 -5 107.44 6.48 0
 -3 2 -3 123.6 5.92 0
 -3 2 -1 82.05 4.11 0
 -3 2 0 666.54 9.21 0
 -3 2 1 267.94 4.91 0
 -3 3 -10 5.09 5.18 0
 -3 3 -8 27.81 6.14 0
 -3 3 -7 66.67 7.3 0
 -3 3 -5 11.65 3.66 0
 -3 3 -4 274.55 10.01 0
 -3 3 -3 85.18 5.78 0
 -3 3 -2 183.97 6.8 0
 -3 4 -8 112.32 9.26 0
 -3 4 -7 35.84 6.42 0
 -2 -11 -5 1.26 6.46 0
 -2 -10 -8 28.43 7.28 0
 -2 -10 -6 21.72 6.71 0
 -2 -10 -5 10.78 6.16 0
 -2 -9 -9 18.84 6.4 0
 -2 -9 -8 16.97 6.37 0
 -2 -9 -7 6.2 5.48 0
 -2 -9 -6 21.28 6.3 0
 -2 -8 -11 10.76 5.58 0
 -2 -8 -10 39.09 7.36 0
 -2 -8 -8 12.69 6.24 0
 -2 -8 -7 14.25 5.56 0
 -2 -7 -12 44.08 7.99 0
 -2 -7 -11 4.58 5.05 0
 -2 -7 -10 33.75 6.62 0
 -2 -7 -7 5.08 4.77 0
 -2 -7 -5 7.12 4.35 0
 -2 -6 -12 19.73 5.93 0
 -2 -6 -10 103.98 9.41 0
 -2 -6 -9 18.16 5.28 0
 -2 -6 -8 5.6 4.13 0
 -2 -6 -7 72.9 7.8 0
 -2 -6 -6 96.86 8.13 0
 -2 -6 -5 101.43 7.96 0
 -2 -5 -12 15.25 6.38 0
 -2 -5 -11 5.68 4.92 0
 -2 -5 -10 47.19 7.23 0
 -2 -5 -9 38.31 6.11 0
 -2 -5 -8 16.2 4.77 0
 -2 -4 -14 62.23 9.73 0
 -2 -4 -13 2 4.92 0
 -2 -4 -12 32.54 7.58 0
 -2 -4 -11 20.53 5.66 0
 -2 -4 -10 41.05 7.19 0
 -2 -4 -8 15.28 4.82 0
 -2 -4 -4 196.47 8.48 0
 -2 -3 -13 28.84 7.16 0
 -2 -3 -12 30.56 6.31 0
 -2 -3 -11 27.8 5.95 0
 -2 -3 -10 0.05 4.05 0
 -2 -3 -9 10.6 3.94 0
 -2 -3 -8 54.29 6.59 0
 -2 -3 -5 27.4 3.99 0
 -2 -2 -14 61.79 9.39 0
 -2 -2 -13 33.14 7.27 0
 -2 -2 -12 15.15 5.82 0
 -2 -2 -11 14.5 5.42 0
 -2 -2 -10 14.96 5.23 0
 -2 -2 -9 109.22 8 0
 -2 -2 -7 222.12 9.65 0
 -2 -2 -6 133.97 7.25 0
 -2 -2 -2 211.25 6.95 0
 -2 -1 -15 3.63 7.04 0
 -2 -1 -14 19.4 6.84 0
 -2 -1 -13 -0.1 5.43 0
 -2 -1 -12 13.88 5.33 0
 -2 -1 -11 32.42 6.84 0
 -2 -1 -10 25.53 5.3 0
 -2 -1 -9 11.34 4.2 0
 -2 -1 -7 47.62 5.05 0
 -2 -1 -3 526.24 10.45 0
 -2 0 -15 33.96 8.91 0
 -2 0 -14 189.31 14.06 0
 -2 0 -13 12.22 5.93 0
 -2 0 -12 10.49 5.25 0
 -2 0 -10 18.53 4.76 0
 -2 0 -9 86.35 7.21 0
 -2 0 -7 126.24 7.39 0
 -2 0 -3 729.55 11.6 0
 -2 0 -2 33.16 2.81 0
 -2 0 -1 282.11 5.93 0
 -2 0 0 245.81 4.89 0
 -2 1 -15 7.23 6.89 0
 -2 1 -13 3.17 5.36 0
 -2 1 -11 25.55 5.93 0
 -2 1 -10 18.88 5.1 0
 -2 1 -9 10.3 3.87 0
 -2 1 -7 40.69 5 0
 -2 1 -3 540.89 10.16 0
 -2 1 -2 485.02 8.68 0
 -2 1 -1 263.87 5.62 0
 -2 1 0 595.13 6.83 0
 -2 1 1 289.93 3.53 0
 -2 2 -13 34.92 7.82 0
 -2 2 -12 16.82 6.29 0
 -2 2 -11 15.31 5.94 0
 -2 2 -10 19.19 5.51 0
 -2 2 -9 115.01 8.55 0
 -2 2 -3 81.33 4.57 0
 -2 2 -2 219.95 6.52 0
 -2 2 -1 140.23 4.85 0
 -2 2 0 803.79 9.08 0
 -2 3 -11 30.77 6.88 0
 -2 3 -10 3.42 4.62 0
 -2 3 -9 17.26 5.05 0
 -2 3 -8 54.66 6.82 0
 -2 3 -6 11.61 3.49 0
 -2 3 -5 31.21 4.31 0
 -1 -11 -6 4.82 5.53 0
 -1 -10 -7 16.85 6.42 0
 -1 -9 -10 14.1 5.25 0
 -1 -9 -9 40.57 7.15 0
 -1 -9 -7 18 5.51 0
 -1 -9 -6 10.98 5.68 0
 -1 -8 -11 1.97 4.43 0
 -1 -8 -9 14.91 5.3 0
 -1 -8 -8 4.56 4.62 0
 -1 -8 -7 251.26 13.08 0
 -1 -8 -6 4.33 4.96 0
 -1 -7 -11 2.33 5.14 0
 -1 -7 -9 85.5 8.68 0
 -1 -7 -8 16.94 5.59 0
 -1 -7 -7 14.93 5.04 0
 -1 -6 -13 -0.56 4.11 0
 -1 -6 -11 109.5 9.4 0
 -1 -6 -10 50.77 7.18 0
 -1 -6 -8 19.67 4.86 0
 -1 -5 -13 19.95 6.39 0
 -1 -5 -12 18.25 5.86 0
 -1 -5 -11 6.37 5.1 0
 -1 -5 -9 33.19 5.43 0
 -1 -5 -8 2.76 3.26 0
 -1 -5 -5 16.08 3.91 0
 -1 -4 -13 2.11 5.23 0
 -1 -4 -12 4.55 4.27 0
 -1 -4 -9 64.51 6.21 0
 -1 -4 -6 85.8 5.99 0
 -1 -4 -5 167.76 7.81 0
 -1 -3 -15 -0.15 4.83 0
 -1 -3 -14 32.28 7.23 0
 -1 -3 -13 104.08 9.73 0
 -1 -3 -12 -4.41 3.59 0
 -1 -3 -11 29.42 6.1 0
 -1 -3 -10 54.78 6.09 0
 -1 -3 -7 67.17 5.38 0
 -1 -3 -5 23.92 3.38 0
 -1 -3 -4 397.31 9.87 0
 -1 -2 -13 5.83 4.84 0
 -1 -2 -12 1.3 4.57 0
 -1 -2 -10 33.39 5.55 0
 -1 -2 -7 192.74 8.04 0
 -1 -2 -6 446.7 11.04 0
 -1 -2 -5 78.12 5.01 0
 -1 -2 -3 556.09 10.09 0
 -1 -1 -15 8.36 5.8 0
 -1 -1 -13 187.26 11.76 0
 -1 -1 -12 11.12 5.36 0
 -1 -1 -11 30.33 5.51 0
 -1 -1 -10 57.89 6.8 0
 -1 -1 -8 313.37 10.82 0
 -1 -1 -7 63.02 5.16 0
 -1 -1 -6 158.62 6.62 0
 -1 -1 -4 946.07 13.03 0
 -1 -1 -3 56.54 3.82 0
 -1 0 -15 14.18 6.39 0
 -1 0 -14 38.86 7.81 0
 -1 0 -13 -0.49 4.92 0
 -1 0 -11 3.62 4.23 0
 -1 0 -10 137.37 9.05 0
 -1 0 -6 450.44 10.94 0
 -1 0 -5 2.25 1.89 0
 -1 0 -4 350.73 8.04 0
 -1 0 -3 0.25 1.51 0
 -1 0 -1 1573.29 10.45 0
 -1 0 0 473.13 4.6 0
 -1 1 -14 121.07 11.91 0
 -1 1 -10 54.75 6.86 0
 -1 1 -8 325.84 11.37 0
 -1 1 -7 67.34 5.35 0
 -1 1 -4 912.15 13.16 0
 -1 1 -3 55.89 3.79 0
 -1 1 -2 267.71 5.66 0
 -1 1 -1 1233.18 9.81 0
 -1 1 0 5218.98 15.59 0
 -1 2 -13 10.56 5.91 0
 -1 2 -12 3.22 4.93 0
 -1 2 -11 27.38 5.92 0
 -1 2 -10 36.69 5.99 0
 -1 2 -7 182.81 8.43 0
 -1 2 -4 33.12 3.38 0
 -1 2 -3 568.32 10.39 0
 -1 2 -2 14.82 2.53 0
 -1 3 -9 103.95 8.74 0
 -1 3 -6 439.27 12.61 0
 0 -11 -7 3.87 4.67 0
 0 -11 -6 30.88 6.94 0
 0 -10 -9 23.38 5.4 0
 0 -10 -8 23.25 5.46 0
 0 -10 -7 17.02 5.21 0
 0 -10 -6 10.37 4.69 0
 0 -9 -9 10.63 4.63 0
 0 -9 -7 60.78 8 0
 0 -9 -6 15.49 4.99 0
 0 -8 -11 56.66 7.1 0
 0 -8 -10 31.31 5.49 0
 0 -8 -9 26.64 5.73 0
 0 -8 -8 4.01 3.88 0
 0 -8 -7 1.97 3.59 0
 0 -8 -6 6.13 4.1 0
 0 -7 -12 -1.63 3.84 0
 0 -7 -11 12.79 4.99 0
 0 -6 -13 10 4.63 0
 0 -6 -12 -0.27 3.81 0
 0 -6 -11 68.85 6.93 0
 0 -6 -10 152.55 9.18 0
 0 -6 -9 68.43 6.28 0
 0 -5 -14 102.2 8.82 0
 0 -5 -13 46.67 6.83 0
 0 -5 -12 9.84 4.46 0
 0 -5 -11 2 3.68 0
 0 -5 -7 126.37 7.15 0
 0 -5 -6 114.85 6.75 0
 0 -4 -14 10.03 4.62 0
 0 -4 -13 28.01 5.96 0
 0 -4 -12 -2.14 3.88 0
 0 -4 -11 110.2 8.22 0
 0 -4 -8 141.1 7.32 0
 0 -4 -7 96.52 5.97 0
 0 -4 -6 4.99 2.45 0
 0 -3 -14 42.99 7.39 0
 0 -3 -11 65.87 6.63 0
 0 -3 -9 33.28 4.77 0
 0 -3 -8 67.46 5.41 0
 0 -3 -7 19.54 3.58 0
 0 -3 -6 14.32 3.11 0
 0 -3 -5 120.01 5.27 0
 0 -3 -4 91.08 4.6 0
 0 -2 -14 37.25 7.23 0
 0 -2 -13 187.56 11.28 0
 0 -2 -12 44.47 6.72 0
 0 -2 -9 9.27 3.29 0
 0 -2 -8 340.57 10.26 0
 0 -2 -7 263.55 8.25 0
 0 -2 -6 14.65 2.64 0
 0 -2 -5 476.48 9.28 0
 0 -2 -4 545.63 9.11 0
 0 -2 -3 855.67 10.49 0
 0 -1 -15 24.75 6.61 0
 0 -1 -14 52.29 8.4 0
 0 -1 -13 97.79 9.11 0
 0 -1 -12 126.41 9.02 0
 0 -1 -11 136.29 8.99 0
 0 -1 -9 1.58 3.01 0
 0 -1 -7 207.26 7.42 0
 0 -1 -5 541.79 9.63 0
 0 -1 -4 240.54 5.76 0
 0 -1 -3 1060.3 10.22 0
 0 -1 -2 470.79 5.98 0
 0 0 -14 54.19 8.32 0
 0 0 -13 203.67 12.13 0
 0 0 -12 0.55 3.9 0
 0 0 -11 2.19 4.49 0
 0 0 -9 10.3 3.35 0
 0 0 -8 1078.6 18.29 0
 0 0 -6 13.13 3.03 0
 0 0 -5 300.21 7.31 0
 0 0 -4 253.05 6.16 0
 0 0 -3 30.94 2.21 0
 0 0 -2 2939.84 13.38 0
 0 1 -12 135.36 9.78 0
 0 1 -9 1.54 3.07 0
 0 1 -8 130.08 7.29 0
 0 1 -7 196.59 7.82 0
 0 1 -6 126.38 5.9 0
 0 1 -5 537.88 10.47 0
 0 1 -4 227.87 6.42 0
 0 1 -3 1051.65 11.41 0
 0 1 -2 476.92 6.83 0
 0 2 -8 351.3 12.08 0
 0 2 -7 257.25 9.67 0
 0 2 -5 489.89 10.98 0
 1 -10 -6 1.63 3.67 0
 1 -9 -8 -3.19 3.2 0
 1 -9 -7 115.56 8.16 0
 1 -9 -6 39.26 6.15 0
 1 -8 -9 15.75 4.21 0
 1 -8 -8 32.31 5.11 0
 1 -8 -7 38.46 5.05 0
 1 -7 -10 5.97 3.21 0
 1 -7 -9 48.33 5.47 0
 1 -6 -11 52.9 5.72 0
 1 -6 -10 29.87 4.35 0
 1 -6 -8 12.29 3.52 0
 1 -6 -7 105.19 6.26 0
 1 -6 -6 53.02 4.55 0
 1 -5 -12 26.28 4.99 0
 1 -5 -8 88.13 5.75 0
 1 -5 -7 114 6.02 0
 1 -4 -13 39.57 5.92 0
 1 -4 -12 4.23 3.15 0
 1 -4 -10 22.03 4 0
 1 -4 -9 98.57 5.92 0
 1 -4 -8 9.98 2.77 0
 1 -4 -7 89.18 5.04 0
 1 -4 -6 36.87 3.67 0
 1 -4 -5 19.3 2.66 0
 1 -3 -13 5.62 3.85 0
 1 -3 -12 10.04 4.09 0
 1 -3 -10 100.32 6.3 0
 1 -3 -9 92.46 5.79 0
 1 -3 -8 115.9 5.84 0
 1 -3 -6 680.32 10.85 0
 1 -3 -5 38.74 2.97 0
 1 -3 -4 610.56 8.89 0
 1 -2 -14 139.12 9.4 0
 1 -2 -12 28.47 5.41 0
 1 -2 -9 0.11 2.16 0
 1 -2 -7 48.69 3.74 0
 1 -2 -6 211.17 5.83 0
 1 -2 -5 162.22 4.68 0
 1 -2 -4 156.18 4.08 0
 1 -2 -3 506.72 6.16 0
 1 -1 -14 16.7 5.14 0
 1 -1 -13 5.26 4.08 0
 1 -1 -12 38.89 5.69 0
 1 -1 -10 72.34 5.67 0
 1 -1 -9 16.45 3.3 0
 1 -1 -8 51.82 4.18 0
 1 -1 -7 357.66 8.56 0
 1 -1 -6 686.82 10.41 0
 1 -1 -5 19.59 2.38 0
 1 -1 -4 2307.62 13.86 0
 1 -1 -3 1134.32 7.56 0
 1 0 -12 169.74 10.05 0
 1 0 -10 72.31 5.98 0
 1 0 -8 4.61 2.99 0
 1 0 -7 0.81 2.02 0
 1 0 -6 61.56 4.03 0
 1 0 -5 130.6 4.5 0
 1 0 -4 1421.04 12.1 0
 1 0 -3 305.85 4.85 0
 1 1 -9 18.78 3.95 0
 1 1 -7 342.17 9.61 0
 2 -8 -6 20.04 3.62 0
 2 -7 -7 16.92 3.03 0
 2 -7 -6 40.92 4.18 0
 2 -6 -8 117.46 5.47 0
 2 -6 -7 19.13 2.93 0
 2 -6 -6 22.55 3 0
 2 -5 -9 33.54 3.5 0
 2 -5 -8 171.88 5.95 0
 2 -5 -6 151.24 5.21 0
 2 -5 -5 116.57 4.66 0
 2 -4 -10 35.61 3.67 0
 2 -4 -9 84.35 4.52 0
 2 -4 -8 112.67 4.69 0
 2 -4 -7 49.04 3.09 0
 2 -4 -5 164.7 4.51 0
 2 -3 -11 23.56 3.57 0
 2 -3 -9 9.9 2.36 0
 2 -3 -8 32.69 2.93 0
 2 -3 -7 65.14 3.2 0
 2 -3 -6 172.41 4.31 0
 2 -3 -5 64.38 2.44 0
 2 -3 -4 217.12 3.73 0
 2 -2 -10 192.55 7.35 0
 2 -2 -9 57.94 4.15 0
 2 -2 -8 49.34 3.52 0
 2 -2 -5 76.81 2.33 0
 2 -1 -10 10.75 2.95 0
 2 -1 -9 116.63 5.84 0
 2 -1 -8 139.02 5.6 0
 2 -1 -7 345.54 7.46 0
 -6 4 6 21.84 4.51 0
 -6 5 6 7.98 3.81 0
 -6 5 8 112.17 9.71 0
 -6 6 7 11.45 5.32 0
 -6 6 10 60.21 9.49 0
 -6 7 8 28.54 6.99 0
 -5 3 2 16.79 2.68 0
 -5 3 3 -1.18 2.08 0
 -5 3 7 33.09 5.41 0
 -5 3 8 64.4 7.15 0
 -5 4 3 110.09 6.6 0
 -5 4 6 31.85 5.45 0
 -5 4 7 14.45 5.54 0
 -5 4 8 89.68 8.45 0
 -5 5 2 20.89 3.44 0
 -5 5 5 52.23 6.35 0
 -5 5 6 77.2 8.04 0
 -5 5 8 16.7 5.82 0
 -5 5 10 33.81 8.1 0
 -5 5 11 9.57 6.12 0
 -5 6 3 43.03 5.63 0
 -5 6 4 14.45 4.28 0
 -5 6 5 21.8 5.28 0
 -5 6 6 47.13 7.23 0
 -5 6 7 30.56 6.97 0
 -5 6 8 173.4 12.2 0
 -5 6 9 40.33 8.42 0
 -5 6 10 7.8 6.85 0
 -5 6 11 12.41 7.52 0
 -5 7 3 26.52 5.49 0
 -5 7 4 12.26 4.71 0
 -5 7 5 3.95 4.31 0
 -5 7 8 2.85 5.34 0
 -5 7 9 27.35 7.33 0
 -5 7 10 23.03 7.35 0
 -5 8 4 38.23 7.15 0
 -5 8 5 -3.31 4.45 0
 -5 8 8 26 7.37 0
 -5 8 9 19.97 7.29 0
 -5 9 4 0.45 5.23 0
 -5 9 5 3.46 6.18 0
 -5 9 7 104.08 11.49 0
 -4 2 -1 21.46 1.44 0
 -4 2 2 7.07 2.2 0
 -4 2 3 47.59 3.86 0
 -4 2 5 6.67 3.47 0
 -4 2 6 11.65 3.94 0
 -4 3 0 23.9 2.51 0
 -4 3 1 276.58 7.48 0
 -4 3 2 126.48 5.8 0
 -4 3 3 9.28 2.69 0
 -4 3 4 212.31 8.69 0
 -4 3 8 39.36 6.38 0
 -4 3 9 231.15 12.07 0
 -4 3 10 26.51 6.42 0
 -4 4 -1 23.84 2.9 0
 -4 4 0 176.11 6.56 0
 -4 4 1 2.99 2.41 0
 -4 4 2 8.92 2.95 0
 -4 4 3 7.89 3.01 0
 -4 4 7 61.59 7.54 0
 -4 4 8 236.61 11.96 0
 -4 4 9 23.54 5.95 0
 -4 4 10 62.39 8.3 0
 -4 4 11 19.59 6.57 0
 -4 5 -2 65.97 4.57 0
 -4 5 1 110.87 6.59 0
 -4 5 2 18.31 3.76 0
 -4 5 3 31.6 4.66 0
 -4 5 6 57.07 6.58 0
 -4 5 8 12.12 5.11 0
 -4 5 11 20.97 7.07 0
 -4 5 12 2.41 5.66 0
 -4 6 0 189.19 9.02 0
 -4 6 1 8.95 3.79 0
 -4 6 5 20.48 5.24 0
 -4 6 7 31.83 6.5 0
 -4 6 8 32.41 7.77 0
 -4 6 9 8.93 5.52 0
 -4 6 10 24.72 7.69 0
 -4 6 11 -0.68 5.57 0
 -4 7 1 39.12 5.96 0
 -4 7 2 74.8 7.69 0
 -4 7 3 8.19 4.38 0
 -4 7 4 2.11 4.29 0
 -4 7 5 35.83 7.07 0
 -4 7 6 12.88 5.43 0
 -4 7 7 43.62 8.2 0
 -4 7 8 49.12 8.15 0
 -4 7 9 78.8 10.72 0
 -4 7 11 4.55 7.13 0
 -4 8 -1 31.33 5.71 0
 -4 8 0 137.41 9.64 0
 -4 8 1 2.66 4.03 0
 -4 8 2 47.73 7.98 0
 -4 8 3 31.7 6.29 0
 -4 8 4 25.98 6.7 0
 -4 8 5 15.4 5.92 0
 -4 8 6 22.21 7.46 0
 -4 8 7 170.79 12.23 0
 -4 8 8 35.05 8.64 0
 -4 8 9 18.39 6.79 0
 -4 8 10 33.46 9.32 0
 -4 9 0 115.83 9.84 0
 -4 9 1 3.09 4.89 0
 -4 9 2 149.19 11.52 0
 -4 9 4 -2.08 4.82 0
 -4 9 5 23.84 7.38 0
 -4 9 6 4.64 5.48 0
 -4 9 7 32.76 7.96 0
 -4 9 8 58.49 10.1 0
 -4 9 9 -5.66 5.23 0
 -4 10 0 3.44 5.45 0
 -4 10 1 13.32 6.1 0
 -4 10 2 36.3 7.82 0
 -4 10 4 20.52 7.11 0
 -4 10 5 13.54 7.46 0
 -4 10 6 8.58 6.58 0
 -3 1 0 413.2 5.54 0
 -3 1 1 116.91 3.84 0
 -3 1 2 232.38 6.13 0
 -3 2 -3 120.89 3.16 0
 -3 2 -2 7.56 1.15 0
 -3 2 -1 83.38 2.93 0
 -3 2 0 663.18 8.74 0
 -3 2 1 268.66 6.39 0
 -3 2 5 178.14 7.67 0
 -3 2 6 14.97 3.71 0
 -3 2 7 147.54 8.4 0
 -3 2 9 101.53 8.48 0
 -3 3 -2 184.43 5.52 0
 -3 3 -1 16.91 2.45 0
 -3 3 4 727.37 14.66 0
 -3 3 6 223.37 9.55 0
 -3 3 8 27.03 5.2 0
 -3 3 9 0.62 4.19 0
 -3 3 10 4.15 4.2 0
 -3 4 -3 167.14 6.46 0
 -3 4 -2 107.14 5.43 0
 -3 4 -1 24.08 3.38 0
 -3 4 0 50.75 4.36 0
 -3 4 1 28.39 3.7 0
 -3 4 2 67.08 5.15 0
 -3 4 3 252.86 9.14 0
 -3 4 4 58.82 5.26 0
 -3 4 5 182.31 9.02 0
 -3 4 8 58.66 6.84 0
 -3 4 9 46.38 7.32 0
 -3 4 10 52.03 7.81 0
 -3 4 11 48.29 7.72 0
 -3 5 -2 140.59 7.14 0
 -3 5 -1 20.96 4.18 0
 -3 5 1 409.9 11.84 0
 -3 5 2 24.05 4.6 0
 -3 5 3 151.39 8.41 0
 -3 5 7 23.42 5.58 0
 -3 5 8 -0.85 3.64 0
 -3 5 9 160.35 11.08 0
 -3 5 11 19.47 6.42 0
 -3 5 12 0.62 5.23 0
 -3 5 13 65.12 10.47 0
 -3 6 -3 22.47 4.48 0
 -3 6 -2 35.96 4.98 0
 -3 6 -1 17.63 3.94 0
 -3 6 0 44.21 5.2 0
 -3 6 5 65.28 6.88 0
 -3 6 8 130.48 10.47 0
 -3 6 9 9.09 6.07 0
 -3 6 10 6.4 5.77 0
 -3 6 11 137.88 12.19 0
 -3 6 12 4.81 5.88 0
 -3 7 2 21.08 4.94 0
 -3 7 3 160.81 10.36 0
 -3 7 4 33.02 6.5 0
 -3 7 5 22.17 5.57 0
 -3 7 6 82.82 8.47 0
 -3 7 7 1.48 4.39 0
 -3 7 11 37.17 8.36 0
 -3 7 12 0.86 5.9 0
 -3 8 -5 19.44 5.27 0
 -3 8 -4 26.83 5.62 0
 -3 8 -3 -1.65 3.75 0
 -3 8 -2 30.12 6.01 0
 -3 8 -1 21.99 5.73 0
 -3 8 0 43.71 7.1 0
 -3 8 2 48.47 7.9 0
 -3 8 4 8.14 5.28 0
 -3 8 5 4.37 4.92 0
 -3 8 6 7.89 5.33 0
 -3 8 7 33.75 7.39 0
 -3 8 9 0.58 6.07 0
 -3 8 10 17.76 8.09 0
 -3 8 11 16.48 8.11 0
 -3 9 -4 73.43 9 0
 -3 9 -3 4.99 5.18 0
 -3 9 -2 11.72 5.82 0
 -3 9 -1 0.08 5.26 0
 -3 9 0 35.24 6.81 0
 -3 9 3 75.72 9.25 0
 -3 9 4 101.02 10.58 0
 -3 9 6 97.58 11.09 0
 -3 9 7 14.71 6.69 0
 -3 9 9 3.32 6.06 0
 -3 9 10 19.83 8.36 0
 -3 10 -4 8.86 5.18 0
 -3 10 -3 5.03 5.78 0
 -3 10 -2 2.12 5.26 0
 -3 10 -1 17.29 6.45 0
 -3 10 0 14.17 6.29 0
 -3 10 1 35.3 7.77 0
 -3 10 2 29.94 7.92 0
 -3 10 3 57.34 9.44 0
 -3 10 4 24.85 7.86 0
 -3 10 5 1.93 5.9 0
 -3 10 6 -1.09 6.74 0
 -3 10 7 10.52 6.62 0
 -3 10 8 15.12 7.05 0
 -3 11 -3 59.01 9.6 0
 -3 11 -2 0.11 6.01 0
 -3 11 -1 6.24 6.38 0
 -3 11 0 22.27 7.33 0
 -3 11 1 3.23 6.02 0
 -3 11 2 2.49 6.04 0
 -3 11 3 7.7 6.54 0
 -3 11 4 16.21 7.68 0
 -3 11 5 10.82 7.06 0
 -2 1 -1 273.89 3.53 0
 -2 1 0 589.04 6.2 0
 -2 1 1 298.14 5.55 0
 -2 1 3 204.57 6.12 0
 -2 1 7 359.24 11.24 0
 -2 1 8 149.55 8.13 0
 -2 2 -1 143.65 4.27 0
 -2 2 0 773.57 9.75 0
 -2 2 1 480.66 8.37 0
 -2 2 2 324.96 7.58 0
 -2 2 3 115.33 5.44 0
 -2 2 7 151.17 7.89 0
 -2 2 10 194.4 10.59 0
 -2 3 -1 536.43 10.01 0
 -2 3 1 1021.53 14.32 0
 -2 3 2 116.7 5.7 0
 -2 3 6 161.45 8.12 0
 -2 3 7 61.07 5.69 0
 -2 3 9 15.88 4.85 0
 -2 3 10 25.09 5.73 0
 -2 3 11 26.2 5.82 0
 -2 4 8 112.89 8.03 0
 -2 4 9 88.72 8.14 0
 -2 4 11 30.68 6.81 0
 -2 4 12 2.15 5.31 0
 -2 5 -1 503.61 13.17 0
 -2 5 0 165.39 7.85 0
 -2 5 1 344.28 11.15 0
 -2 5 2 105.53 7.02 0
 -2 5 4 17.1 4.23 0
 -2 5 5 105.35 7.37 0
 -2 5 7 29.07 5.25 0
 -2 5 8 185.73 10.84 0
 -2 5 10 29.73 7.07 0
 -2 6 -1 65.44 6.27 0
 -2 6 1 191.35 9.54 0
 -2 6 2 5.78 3.41 0
 -2 6 3 95.68 7.96 0
 -2 6 7 23.2 5.25 0
 -2 6 8 139.79 10.52 0
 -2 6 10 37.92 7.73 0
 -2 6 11 76.35 10.4 0
 -2 6 12 6.35 5.88 0
 -2 6 13 93.57 11.56 0
 -2 7 4 184.1 11.1 0
 -2 7 5 24.94 6.08 0
 -2 7 6 51.29 7.34 0
 -2 7 7 22.17 5.8 0
 -2 7 9 15.97 5.97 0
 -2 7 10 -2.07 5.02 0
 -2 7 11 108.18 11.63 0
 -2 7 12 29.1 8.7 0
 -2 8 -1 7.58 4.7 0
 -2 8 0 153.69 10.83 0
 -2 8 1 2.48 4.7 0
 -2 8 4 11.12 5.28 0
 -2 8 7 12.53 5.9 0
 -2 8 9 7.34 6.05 0
 -2 8 11 65.01 10.34 0
 -2 8 12 0.57 6.07 0
 -2 9 -3 52.63 8.32 0
 -2 9 -2 24.8 6.6 0
 -2 9 1 3.29 4.99 0
 -2 9 2 5.33 5.28 0
 -2 9 3 6.51 5.68 0
 -2 9 5 3.42 5.43 0
 -2 9 7 1.15 5.64 0
 -2 9 8 10.23 6.52 0
 -2 9 9 31.95 8.85 0
 -2 9 10 -5.93 5.66 0
 -2 10 -5 -1.88 6 0
 -2 10 -4 4.58 6.46 0
 -2 10 -3 18.17 7.19 0
 -2 10 -2 14.11 6.74 0
 -2 10 -1 6.3 6.3 0
 -2 10 0 31.03 8.02 0
 -2 10 3 28.9 8.23 0
 -2 10 4 5.43 6.7 0
 -2 10 5 20.53 7.79 0
 -2 10 6 0.38 6.13 0
 -2 10 7 28.89 8.22 0
 -2 10 8 15.02 7.53 0
 -2 10 9 1.93 7.04 0
 -2 11 -5 4.17 7.09 0
 -2 11 -4 19.01 8.49 0
 -2 11 -2 13.94 7.87 0
 -2 11 -1 14.29 6.98 0
 -2 11 1 9.89 7.62 0
 -2 11 2 17.26 7.44 0
 -2 11 3 1.8 6.44 0
 -2 11 4 32.46 8.35 0
 -2 11 5 18.24 8.26 0
 -2 11 6 4.34 7.17 0
 -1 0 2 15.65 2.05 0
 -1 0 3 310.42 6.68 0
 -1 0 4 1417.93 15.21 0
 -1 1 0 5139.7 17.17 0
 -1 1 1 452.44 6.29 0
 -1 1 2 18.42 2.46 0
 -1 1 4 2325.94 20.22 0
 -1 1 5 21.57 3.15 0
 -1 1 7 350.84 10.57 0
 -1 2 0 2107.09 15.9 0
 -1 2 1 2013.31 16.32 0
 -1 2 3 492.48 9.53 0
 -1 2 4 150.35 5.91 0
 -1 2 8 100.34 6.8 0
 -1 3 2 354.6 8.88 0
 -1 3 3 29.17 4.02 0
 -1 3 4 606.55 12.59 0
 -1 3 6 680.25 14.85 0
 -1 3 7 543.79 14.12 0
 -1 3 10 92.68 7.83 0
 -1 4 1 1319.52 18.67 0
 -1 4 2 385.86 10.58 0
 -1 4 7 89.39 6.63 0
 -1 4 10 25.26 5.6 0
 -1 4 11 22.03 5.65 0
 -1 4 12 4.48 5.94 0
 -1 4 13 56.68 8.6 0
 -1 5 4 395.69 12.56 0
 -1 5 5 24.9 4.46 0
 -1 5 9 133.21 9.36 0
 -1 5 10 3.87 4.51 0
 -1 5 11 10.94 5.19 0
 -1 5 12 34.18 7.56 0
 -1 5 13 18.52 6.62 0
 -1 6 1 75.4 6.51 0
 -1 6 2 81.41 7.05 0
 -1 6 6 49.89 6.56 0
 -1 6 7 96.92 8.44 0
 -1 6 8 13.42 5.1 0
 -1 6 9 28.06 6.26 0
 -1 6 10 22.74 6.87 0
 -1 6 12 23.19 7 0
 -1 6 13 37.38 8.1 0
 -1 6 14 26.93 8.6 0
 -1 7 5 28.2 5.58 0
 -1 7 6 33.52 6.64 0
 -1 7 7 50.98 7.59 0
 -1 7 8 4.26 5.51 0
 -1 7 9 33.25 7.47 0
 -1 7 10 4.51 5.4 0
 -1 7 11 86.8 10.6 0
 -1 7 12 27.9 7.82 0
 -1 7 13 0.38 5.84 0
 -1 8 -1 54.4 7.59 0
 -1 8 1 106.72 9.11 0
 -1 8 2 38.95 6.72 0
 -1 8 5 22.6 5.95 0
 -1 8 6 7.37 4.81 0
 -1 8 7 40.7 7.97 0
 -1 8 9 18.14 6.47 0
 -1 8 12 22.83 7.79 0
 -1 9 -1 4.41 5.13 0
 -1 9 0 35.67 7.56 0
 -1 9 1 4.1 5.2 0
 -1 9 2 7.29 6.24 0
 -1 9 3 9.18 5.32 0
 -1 9 4 196.2 13.48 0
 -1 9 5 20.36 6.37 0
 -1 9 6 45.98 8.56 0
 -1 9 7 135.7 11.93 0
 -1 9 9 2.94 6.14 0
 -1 9 10 15.49 7.27 0
 -1 10 -2 46.56 8.72 0
 -1 10 -1 7.19 6.24 0
 -1 10 0 87.02 10.35 0
 -1 10 1 3.92 6.52 0
 -1 10 2 53.15 9.58 0
 -1 10 3 39.15 9.06 0
 -1 10 5 13.63 6.75 0
 -1 10 8 55.84 9.72 0
 -1 10 9 33.48 9.19 0
 -1 11 -4 14.45 7.66 0
 -1 11 -3 18.49 7.96 0
 -1 11 -1 3.43 7.79 0
 -1 11 0 43.44 9.26 0
 -1 11 1 7.47 6.89 0
 -1 11 2 9.14 6.8 0
 -1 11 3 65.69 11.16 0
 -1 11 4 50.29 10.21 0
 -1 11 6 32.22 9.16 0
 -1 11 7 20.28 8.53 0
 -1 12 -2 40.31 10.05 0
 -1 12 0 10.75 7.5 0
 -1 12 1 1.35 6.37 0
 -1 12 2 29.69 9.23 0
 -1 12 3 6.03 7.19 0
 0 0 2 2906.12 13.66 0
 0 0 3 30.68 2.71 0
 0 0 4 251.89 6.07 0
 0 1 1 480.4 5.96 0
 0 1 2 466.46 6.66 0
 0 1 3 1040.81 11.01 0
 0 1 4 233.21 6.12 0
 0 1 5 521.87 10.21 0
 0 1 8 124.99 6.95 0
 0 2 1 189.91 5.42 0
 0 2 2 2036.26 16.96 0
 0 2 3 855.56 11.88 0
 0 2 4 565.33 10.48 0
 0 2 5 488.41 10.56 0
 0 2 7 263.62 9.26 0
 0 2 8 362.05 11.53 0
 0 2 9 8.24 3.8 0
 0 3 2 817.24 12.91 0
 0 3 3 453.38 10.05 0
 0 3 4 97.6 5.71 0
 0 3 5 117.37 6.03 0
 0 3 6 17.7 3.44 0
 0 3 11 64.64 7.58 0
 0 4 3 796.94 15.32 0
 0 4 4 47.23 4.6 0
 0 4 5 260.68 9.67 0
 0 4 7 100.77 7 0
 0 4 9 3.34 4.09 0
 0 4 10 236.01 12 0
 0 4 11 100.86 9.41 0
 0 4 12 -0.32 4.29 0
 0 5 3 40.36 4.79 0
 0 5 5 4.63 3.46 0
 0 5 6 122.31 7.85 0
 0 5 8 64.62 7.15 0
 0 5 9 28.48 5.74 0
 0 5 10 29.5 6.08 0
 0 5 11 7.54 4.96 0
 0 5 12 6.36 5.11 0
 0 5 13 58.64 8.84 0
 0 6 2 52.22 6.46 0
 0 6 3 259.07 11.09 0
 0 6 7 67.33 7.29 0
 0 6 8 28.71 5.8 0
 0 6 9 54.78 7.75 0
 0 6 10 142.09 10.68 0
 0 6 11 70.26 8.96 0
 0 6 12 4.82 5.29 0
 0 6 13 -0.08 6.38 0
 0 7 5 22.69 5.54 0
 0 7 6 80.37 7.87 0
 0 7 7 216.4 12.54 0
 0 7 8 93.46 8.81 0
 0 7 9 1.5 4.79 0
 0 7 11 13.77 6.54 0
 0 7 12 3.91 5.93 0
 0 7 13 12.58 6.34 0
 0 8 0 11.24 4.9 0
 0 8 1 108.16 8.92 0
 0 8 2 10.97 5.04 0
 0 8 3 135.45 10.54 0
 0 8 4 199.47 12.36 0
 0 8 5 12.44 5.38 0
 0 8 6 4.49 5.27 0
 0 8 7 -3.43 4.83 0
 0 8 8 -0.5 4.41 0
 0 8 9 32.77 7.35 0
 0 8 10 32.11 7.4 0
 0 8 12 39.84 9.11 0
 0 9 -1 52.4 8.22 0
 0 9 2 7.5 4.84 0
 0 9 3 154.46 11.48 0
 0 9 4 0.16 4.87 0
 0 9 5 68.9 9.75 0
 0 9 6 16.7 7.2 0
 0 9 7 57.46 9.9 0
 0 9 8 63.8 9.95 0
 0 9 10 1.06 5.82 0
 0 10 -2 7.26 6.45 0
 0 10 1 49.59 9.02 0
 0 10 3 16.47 6.69 0
 0 10 5 1.6 6.05 0
 0 10 6 13.99 6.84 0
 0 10 7 10.91 6.88 0
 0 10 9 28.81 8.21 0
 0 11 -3 49.14 9.96 0
 0 11 -2 73.44 10.77 0
 0 11 -1 5.36 7.01 0
 0 11 1 8.22 6.94 0
 0 11 2 74.81 10.79 0
 0 11 4 -1.67 5.8 0
 0 11 5 7.59 6.88 0
 0 11 6 20.39 8.6 0
 0 11 7 4.89 6.51 0
 0 12 -3 21.6 9.02 0
 0 12 -2 1.73 7.06 0
 0 12 0 112.89 12.7 0
 0 12 1 36.83 9.4 0
 0 12 2 6.87 7.33 0
 1 1 2 267.86 4.63 0
 1 1 3 56.37 2.68 0
 1 1 4 916.82 10.79 0
 1 1 5 86.78 4.03 0
 1 1 6 155.97 5.92 0
 1 2 2 15.13 2.34 0
 1 2 4 35.16 3.34 0
 1 2 5 83.76 4.37 0
 1 2 6 450.17 10.27 0
 1 2 8 444.91 11.95 0
 1 2 9 99.08 6.97 0
 1 3 2 106.16 5.09 0
 1 3 4 398.79 9.53 0
 1 3 5 23.02 3.59 0
 1 3 6 431 10.97 0
 1 3 7 61.46 5.26 0
 1 3 8 35.03 4.65 0
 1 4 2 65.96 5.34 0
 1 4 4 45.22 4.31 0
 1 4 5 161.84 7.43 0
 1 4 6 88.73 5.97 0
 1 4 7 424.52 12.42 0
 1 4 10 47.48 6.33 0
 1 4 11 40.77 6.65 0
 1 4 12 5.74 4.65 0
 1 5 2 74.14 6.09 0
 1 5 3 0.94 2.73 0
 1 5 4 436.16 12.72 0
 1 5 5 16.36 4.03 0
 1 5 11 3.76 4.99 0
 1 5 12 14.96 5.23 0
 1 5 13 23.15 5.95 0
 1 6 2 113.13 7.8 0
 1 6 3 95.91 7.73 0
 1 6 4 66.96 6.97 0
 1 6 7 238.18 11.33 0
 1 6 8 16.96 5.2 0
 1 6 9 35.06 6.3 0
 1 6 10 53.63 7.73 0
 1 6 11 105.68 9.27 0
 1 6 12 32.14 7.13 0
 1 6 13 1.6 5.57 0
 1 7 4 98.12 8.76 0
 1 7 5 30.33 5.93 0
 1 7 7 12.4 4.96 0
 1 7 8 15.05 5.48 0
 1 7 9 95.36 9.56 0
 1 7 11 7.02 5.63 0
 1 7 12 -1.24 5.64 0
 1 8 1 54.88 7.71 0
 1 8 2 55.21 7.86 0
 1 8 4 159.18 10.96 0
 1 8 5 140.09 10.94 0
 1 8 6 6.61 5.44 0
 1 8 7 261.14 13.72 0
 1 8 8 1.34 5.81 0
 1 8 9 16.77 6.09 0
 1 8 10 30 7.68 0
 1 8 11 2.51 6.27 0
 1 9 2 5.93 5.28 0
 1 9 3 34.75 7.38 0
 1 9 4 93.69 9.77 0
 1 9 5 4.11 5.78 0
 1 9 7 16.84 6.36 0
 1 9 8 8.8 5.51 0
 1 9 9 42.79 8.1 0
 1 9 10 16.54 7.38 0
 1 10 -1 0.6 5.78 0
 1 10 0 90.23 10.38 0
 1 10 1 6.2 6.09 0
 1 10 3 38.29 8.29 0
 1 10 4 43.77 8.85 0
 1 10 5 40.39 9.43 0
 1 10 6 10.36 6.8 0
 1 10 7 27.79 7.84 0
 1 10 8 14.13 6.88 0
 1 11 -1 4.53 6.5 0
 1 11 1 0.32 6.43 0
 1 11 2 6.39 6.79 0
 1 11 3 15.28 7.57 0
 1 11 4 21.36 7.97 0
 1 11 5 40.96 8.92 0
 1 11 6 1.15 6.54 0
 1 12 -3 2.74 7.6 0
 1 12 -2 26.7 9.78 0
 1 12 -1 9.06 7.89 0
 1 12 0 4.19 7.31 0
 2 1 2 484.71 5.15 0
 2 1 3 535.3 6.05 0
 2 1 4 115.48 3.47 0
 2 1 5 21.97 2.21 0
 2 1 6 23.67 2.82 0
 2 2 2 225.28 5.43 0
 2 2 3 80.61 3.57 0
 2 2 5 62.25 3.77 0
 2 2 7 231.24 7.52 0
 2 2 8 25.95 3.84 0
 2 3 2 64 4.34 0
 2 3 3 438.51 9.33 0
 2 3 4 311.51 8.18 0
 2 3 5 32.91 3.39 0
 2 3 7 220.45 7.94 0
 2 3 8 67.15 5.43 0
 2 3 9 13.68 3.58 0
 2 4 2 477.47 11.53 0
 2 4 3 174.68 7.43 0
 2 4 5 9.17 3.33 0
 2 4 6 445.71 11.7 0
 2 4 7 169.68 7.81 0
 2 4 11 21.93 5.14 0
 2 5 2 13.89 4.02 0
 2 5 3 12.59 3.76 0
 2 5 4 16.11 4.17 0
 2 5 5 8.8 3.47 0
 2 5 9 46.42 6.03 0
 2 5 10 45.24 6.19 0
 2 5 11 9.99 4.49 0
 2 5 12 13.34 5.05 0
 2 6 2 319.5 12.32 0
 2 6 3 1.42 3.98 0
 2 6 7 74.07 6.88 0
 2 6 8 17.44 4.89 0
 2 6 9 19.69 5.23 0
 2 6 10 106.18 8.74 0
 2 6 11 7.48 4.51 0
 2 6 12 20.23 5.6 0
 2 7 4 266.9 12.32 0
 2 7 5 6.2 4.28 0
 2 7 6 7.79 4.76 0
 2 7 7 4.58 4.33 0
 2 7 8 11.5 4.96 0
 2 7 9 18.06 5.68 0
 2 7 11 10.41 5.08 0
 2 7 12 52.17 7.6 0
 2 8 1 2.89 4.64 0
 2 8 2 23.17 6.16 0
 2 8 3 24.76 6.61 0
 2 8 4 7.15 5.48 0
 2 8 5 48.43 7.63 0
 2 8 6 45.09 7.49 0
 2 8 7 8.37 5.12 0
 2 8 8 13.33 5.95 0
 2 8 9 28.56 7.13 0
 2 8 10 46.9 7.76 0
 2 8 11 15.54 5.43 0
 2 9 2 27.33 7.04 0
 2 9 3 64.49 9.5 0
 2 9 5 -0.52 4.92 0
 2 9 6 12.04 5.73 0
 2 9 7 9.54 6.52 0
 2 9 8 19.63 6.36 0
 2 9 9 10.09 6.21 0
 2 10 0 22.45 7.73 0
 2 10 2 4.68 6.24 0
 2 10 3 16.37 7.91 0
 2 10 4 4.09 6.64 0
 2 10 6 29.36 7.89 0
 2 10 7 40.08 8.33 0
 2 10 8 15.08 6.3 0
 2 11 -2 28.51 9.01 0
 2 11 0 5.94 7.46 0
 2 11 1 16.71 8.58 0
 2 11 2 9.95 7.74 0
 2 11 3 33.07 8.3 0
 2 11 4 12.85 7.99 0
 2 11 5 0.76 6.34 0
 3 2 5 104.26 3.71 0
 3 2 6 35.8 2.79 0
 3 3 2 184.71 6.21 0
 3 3 3 95.38 4.63 0
 3 3 4 271.55 6.97 0
 3 3 5 12.44 2.4 0
 3 3 6 53.35 3.84 0
 3 3 7 67.75 4.37 0
 3 3 8 27.77 3.68 0
 3 4 2 101.5 5.64 0
 3 4 3 166.59 6.93 0
 3 4 5 13.63 3 0
 3 4 6 10.63 2.78 0
 3 4 7 45.66 4.52 0
 3 4 8 119.11 6.43 0
 3 5 2 146.53 7.86 0
 3 5 4 59.45 5.65 0
 3 5 5 50.86 5.14 0
 3 5 7 86.8 6.31 0
 3 5 9 6.99 3.72 0
 3 6 2 34.24 6 0
 3 6 3 23.57 5.2 0
 3 6 7 9.7 3.92 0
 3 6 9 6.92 4.28 0
 3 7 4 36.07 6.42 0
 3 7 5 70.33 7.72 0
 3 7 6 6.55 4.25 0
 3 7 7 14.28 4.92 0
 3 7 8 59.2 7.28 0
 3 7 9 -0.67 3.53 0
 3 8 2 31.08 6.74 0
 3 8 3 -0.87 5.18 0
 3 8 4 29.04 6.23 0
 3 8 5 23.34 6.4 0
 3 8 6 27.48 5.96 0
 3 8 7 1.52 4.43 0
 3 8 9 6.34 4.57 0
 3 9 0 35.3 8.44 0
 3 9 1 -2.32 5.53 0
 3 9 2 10.88 6.12 0
 3 9 3 8.1 5.75 0
 3 9 5 32.82 6.99 0
 3 9 7 29.68 6.66 0
 3 9 8 13.02 5.65 0
 3 10 0 8.38 6.36 0
 3 10 1 16.77 8.05 0
 3 10 2 3.49 6.34 0
 3 10 3 3.82 6.71 0
 3 10 4 7.97 6.62 0
 3 11 -2 0.08 7.02 0
 3 11 -1 6.73 7.02 0
 3 11 0 30.29 8.97 0
 3 11 1 11.55 7.42 0
 3 11 2 6.79 6.95 0
 4 2 2 52.84 2.07 0
 4 3 2 76.93 4.01 0
 4 3 3 214.39 5.48 0
 4 3 4 284.96 5.77 0
 4 4 2 6.92 2.66 0
 4 4 3 4.34 2.39 0
 4 4 4 47.86 3.73 0
 4 4 5 7.93 2.15 0
 4 5 3 270.23 9.38 0
 4 5 4 135.6 6.74 0
 4 5 5 15.7 3.03 0
 4 6 2 17.4 4.59 0
 4 6 3 1.62 3.27 0
 4 6 4 19.54 4.22 0
 4 7 1 0.49 4.9 0
 4 7 2 42.66 6.9 0
 4 7 6 3.3 3.95 0
 4 8 1 21.5 6.39 0
 4 8 2 11.71 5.88 0
 4 8 3 5.1 4.85 0
 4 8 5 29.77 6.06 0
 4 9 0 121.99 11.19 0
 4 9 2 15.44 5.92 0
 4 9 3 44.93 7.58 0
 4 9 4 8.65 5.11 0
 4 10 -1 14.58 7.52 0
 4 10 1 12.01 7.14 0
 4 10 2 5.72 6.64 0
 4 10 4 21.78 7.02 0
 5 3 1 96.78 4.24 0
 5 4 1 8.48 2.67 0
 5 5 1 41.29 5.22 0
 5 5 2 36.51 4.29 0
 5 7 1 97.13 8.25 0
 5 7 2 27.03 5.65 0
 5 8 0 27.52 6.5 0
 5 8 1 36.21 7.07 0
 5 8 2 12.3 4.74 0
 5 9 -1 8.32 6.1 0
 5 9 0 8.44 5.8 0
 5 9 1 99.6 9.66 0
 5 10 -1 55.52 9.16 0
 5 10 0 31.2 7.38 0
 -7 3 -7 19.66 5.62 0
 -7 3 -6 10.12 5.01 0
 -7 4 -6 5.69 4.72 0
 -7 4 -4 21.92 5.5 0
 -7 4 -3 39.76 6.48 0
 -7 5 -5 7.85 6.19 0
 -7 5 -2 1.84 3.94 0
 -7 5 -1 2.74 3.88 0
 -7 5 0 1.07 3.79 0
 -7 6 -3 0.55 5.41 0
 -7 6 -2 -0.19 4.78 0
 -7 6 -1 40.96 7.65 0
 -7 7 -1 2.46 4.98 0
 -6 0 -10 6.95 4.54 0
 -6 0 -9 4.61 3.96 0
 -6 0 -8 6.24 3.65 0
 -6 0 -7 15.37 4.27 0
 -6 0 -6 0.39 2.79 0
 -6 1 -10 115.96 10.44 0
 -6 1 -9 15.26 5.23 0
 -6 1 -8 139.13 9.99 0
 -6 1 -7 6.06 3.99 0
 -6 1 -6 17.47 4.6 0
 -6 1 -5 2.56 2.95 0
 -6 1 -4 23.63 4.29 0
 -6 2 -9 1.77 5.04 0
 -6 2 -8 18.7 6.12 0
 -6 2 -7 44.66 6.77 0
 -6 2 -5 33.62 5.41 0
 -6 2 -4 28.74 4.98 0
 -6 2 -3 13.68 3.96 0
 -6 2 0 58.31 4.9 0
 -6 3 -9 11.67 6.22 0
 -6 3 -8 20.91 6.65 0
 -6 3 -7 26.04 5.81 0
 -6 3 -5 34.69 5.89 0
 -6 3 -4 48.97 6.27 0
 -6 3 -3 38.49 5.5 0
 -6 3 -2 20.88 4.74 0
 -6 4 -9 8.5 6.13 0
 -6 4 -4 17.55 5.36 0
 -6 4 -3 62.77 7.62 0
 -6 4 -1 0.86 3.27 0
 -6 4 0 21.89 4.97 0
 -6 4 1 40.64 5.72 0
 -6 5 -7 81.72 10.09 0
 -6 5 -6 9.19 5.22 0
 -6 5 -4 99.71 9.48 0
 -6 5 -3 71.69 8.1 0
 -6 5 -2 17.75 5.88 0
 -6 5 -1 22.49 5.32 0
 -6 5 1 18.93 4.83 0
 -6 6 -7 4.16 6.4 0
 -6 6 -6 8.88 5.96 0
 -6 6 -5 11.26 6.38 0
 -6 6 -3 8.54 5.53 0
 -6 6 -2 130.21 9.96 0
 -6 6 -1 3.99 4.53 0
 -6 6 0 24.76 5.78 0
 -6 7 -4 7.91 5.72 0
 -6 7 -3 20.57 6.33 0
 -6 7 -2 7.72 5.59 0
 -6 7 -1 51.6 7.77 0
 -6 7 0 21.96 6.01 0
 -6 8 -1 16.42 6.19 0
 -5 -3 -11 24.57 5.55 0
 -5 -3 -9 111.42 8.21 0
 -5 -2 -11 -4.45 3.64 0
 -5 -2 -9 31.12 5.65 0
 -5 -2 -8 31.24 5.33 0
 -5 -2 -7 17.25 3.83 0
 -5 -1 -11 27.02 6.54 0
 -5 -1 -10 177 10.78 0
 -5 -1 -8 19.29 4.43 0
 -5 -1 -7 13.75 4.14 0
 -5 -1 -6 8.27 3.05 0
 -5 -1 -3 30.2 3.3 0
 -5 -1 -1 26.68 2.36 0
 -5 0 -11 -3.27 4 0
 -5 0 -10 31.52 6.5 0
 -5 0 -9 70.35 7.83 0
 -5 0 -8 84.09 7.24 0
 -5 0 -7 15.79 4.21 0
 -5 0 -6 4.22 3.07 0
 -5 0 -3 2.98 2.44 0
 -5 0 -2 1.37 1.63 0
 -5 0 -1 161.01 5.79 0
 -5 0 0 192.97 5.86 0
 -5 0 1 75.42 3.54 0
 -5 1 -11 27.66 5.93 0
 -5 1 -10 178.41 11.33 0
 -5 1 -9 26.2 5.52 0
 -5 1 -8 19.84 5.4 0
 -5 1 -7 9.45 4.05 0
 -5 1 -3 24.12 3.86 0
 -5 1 -1 25.88 3.42 0
 -5 1 0 199.61 6.88 0
 -5 1 1 8.42 1.97 0
 -5 2 -11 2.51 4.96 0
 -5 2 -10 51.82 7.5 0
 -5 2 -8 30.79 6.06 0
 -5 2 -7 11.77 4.94 0
 -5 2 -6 14.38 4.85 0
 -5 2 -5 35.79 5.19 0
 -5 2 -2 16.1 3.51 0
 -5 2 -1 78.98 5.3 0
 -5 2 0 115.24 6.14 0
 -5 3 -11 24.37 7.03 0
 -5 3 -10 98.59 10.26 0
 -5 3 -9 121.16 9.71 0
 -5 3 -8 59.14 7.94 0
 -5 3 -7 43.69 6.78 0
 -5 3 -6 83.28 7.9 0
 -5 3 -5 6.36 3.71 0
 -5 3 -4 -0.67 3.07 0
 -5 3 1 18.86 3.43 0
 -5 3 2 16.48 3.52 0
 -5 4 -10 6.63 5.23 0
 -5 4 -9 -1.19 4.66 0
 -5 4 -7 91.45 8.68 0
 -5 4 -6 4.57 3.88 0
 -5 4 -4 97.37 7.57 0
 -5 4 -3 4.31 3.44 0
 -5 4 -2 6.49 3.84 0
 -5 4 -1 8.91 4.26 0
 -5 5 -10 -2.98 5.07 0
 -5 5 -8 27.88 7.25 0
 -5 5 -5 43.06 7.25 0
 -5 5 -4 4.16 4.61 0
 -5 5 -3 89.92 7.7 0
 -5 5 -2 31.82 5.24 0
 -5 5 0 51.48 6.05 0
 -5 6 -9 20.63 6.63 0
 -5 6 -8 16.03 6.33 0
 -5 6 -5 14.4 5.41 0
 -5 6 -4 26.61 6.35 0
 -5 6 -2 4.37 4.34 0
 -5 6 -1 33.01 6.09 0
 -5 6 1 52.75 6.83 0
 -5 7 -7 7.64 6.35 0
 -5 7 -6 89.16 10.25 0
 -5 7 -5 24.03 7.08 0
 -5 7 -4 16.4 6.09 0
 -5 7 -3 51.8 8.46 0
 -5 7 -1 97.5 9.31 0
 -5 8 -6 7.04 5.89 0
 -5 8 -5 28.49 7.33 0
 -5 8 -4 7.66 6.19 0
 -5 8 -3 0.87 6.09 0
 -5 8 -2 11.36 5.63 0
 -5 8 0 25.76 6.33 0
 -5 9 -3 40.04 8.29 0
 -5 9 -2 -0.59 5.22 0
 -5 9 -1 95.04 10.07 0
 -4 -3 -12 32.26 6.63 0
 -4 -3 -2 78.79 3.48 0
 -4 -2 -13 14.37 6.08 0
 -4 -2 -11 9.37 4.95 0
 -4 -2 -9 41.04 6.37 0
 -4 -2 -5 41.49 4.26 0
 -4 -2 -4 198.45 6.95 0
 -4 -2 -3 15.63 2.27 0
 -4 -2 -2 53.83 2.99 0
 -4 -2 0 95.66 2.41 0
 -4 -1 -13 7.98 5.73 0
 -4 -1 -12 22.42 5.88 0
 -4 -1 -11 18.33 6.16 0
 -4 -1 -10 16.81 5.53 0
 -4 -1 -9 92.73 7.47 0
 -4 -1 -8 11.92 4.38 0
 -4 -1 -7 26.15 4.58 0
 -4 -1 -4 357.1 9.31 0
 -4 -1 -2 289.49 6.85 0
 -4 -1 0 16.89 1.62 0
 -4 -1 1 33.33 1.72 0
 -4 0 -13 31.21 7.13 0
 -4 0 -12 10.02 5.62 0
 -4 0 -11 17.58 5.41 0
 -4 0 -10 58.78 6.79 0
 -4 0 -9 14.7 4.62 0
 -4 0 -8 106.35 7.73 0
 -4 0 -7 22.24 4.31 0
 -4 0 -5 0.87 2.83 0
 -4 0 -4 7 2.68 0
 -4 0 -3 70.91 4.29 0
 -4 0 -2 97.26 4.74 0
 -4 0 1 10.29 1.64 0
 -4 1 -11 19.66 5.44 0
 -4 1 -10 18.99 5.33 0
 -4 1 -9 85.7 7.81 0
 -4 1 -5 42.92 4.73 0
 -4 1 -4 354.8 10.22 0
 -4 1 -3 233.8 7.98 0
 -4 1 -2 291.27 8.19 0
 -4 1 -1 1208.33 15.38 0
 -4 2 -13 15.41 6.64 0
 -4 2 -12 4.68 5.31 0
 -4 2 -11 12.33 5.32 0
 -4 2 -10 33.39 6.27 0
 -4 2 -9 32.78 5.78 0
 -4 2 -8 59.55 7.24 0
 -4 2 -7 3.3 3.34 0
 -4 2 -6 132.2 7.99 0
 -4 2 -4 193.34 8.45 0
 -4 2 -3 16.99 3.39 0
 -4 2 -1 18.17 2.9 0
 -4 2 0 99.7 5.29 0
 -4 2 1 61.42 4.28 0
 -4 2 2 7.64 2.32 0
 -4 3 -12 37.85 7.23 0
 -4 3 -11 35.44 7.09 0
 -4 3 -10 15.69 5.5 0
 -4 3 -9 15.67 5.03 0
 -4 3 -8 45.6 6.28 0
 -4 3 -7 20.71 5.09 0
 -4 3 -6 152.32 8.81 0
 -4 3 0 23.19 3.63 0
 -4 3 2 139.7 6.77 0
 -4 4 -12 12.92 6.1 0
 -4 4 -10 20.91 5.94 0
 -4 4 -7 36.95 6.13 0
 -4 4 -6 51.08 5.99 0
 -4 4 -5 5.59 3.7 0
 -4 4 -4 48.43 5.33 0
 -4 4 1 3.55 2.79 0
 -4 4 2 12.53 3.86 0
 -4 5 -11 90.19 10.31 0
 -4 5 -10 5.62 5.42 0
 -4 5 -9 17.41 6.04 0
 -4 5 -8 46.11 7.05 0
 -4 5 -7 20.13 5.47 0
 -4 5 -6 4.46 4.74 0
 -4 5 -5 19.9 4.75 0
 -4 5 -4 141.69 9.06 0
 -4 5 -3 257.47 11.12 0
 -4 5 -2 65.73 6.61 0
 -4 6 -10 13.52 6.06 0
 -4 6 -9 18.66 6.48 0
 -4 6 -7 50.59 7.35 0
 -4 6 -6 8.24 4.64 0
 -4 6 -5 4.75 4.42 0
 -4 6 -2 21.13 4.81 0
 -4 6 -1 -1.35 3.36 0
 -4 6 0 181.85 9.67 0
 -4 7 -9 -4.17 4.75 0
 -4 7 -8 17.86 6.69 0
 -4 7 -7 28.5 6.62 0
 -4 7 -6 9.23 4.95 0
 -4 7 -4 39.79 7.13 0
 -4 7 -3 96.3 8.75 0
 -4 7 -2 41.48 7.01 0
 -4 7 0 63.95 7.36 0
 -4 7 1 38.28 6.06 0
 -4 8 -7 13.34 6.22 0
 -4 8 -6 50.54 8.08 0
 -4 8 -5 24.45 7.22 0
 -4 8 -4 67.98 8.9 0
 -4 8 -3 7.19 5.04 0
 -4 8 -2 17.85 5.4 0
 -4 8 -1 29.64 6.42 0
 -4 9 -7 -2.27 5.56 0
 -4 9 -6 32.37 7.71 0
 -4 9 -5 92.23 11.52 0
 -4 9 -4 8.13 5.28 0
 -4 9 -3 41.06 7.58 0
 -4 9 -2 16.23 5.76 0
 -4 9 -1 44.89 8.33 0
 -4 10 -4 21.99 7.54 0
 -4 10 -2 7.99 5.96 0
 -3 -2 -14 60.33 8.91 0
 -3 -2 0 680.09 5.51 0
 -3 -1 -14 27.52 7.01 0
 -3 -1 -12 14.34 5.11 0
 -3 -1 -2 75.83 3.49 0
 -3 -1 -1 4.6 1.12 0
 -3 -1 1 114.49 2.3 0
 -3 0 -14 21.32 6.98 0
 -3 0 -13 41.19 7.44 0
 -3 0 -12 2.83 4.8 0
 -3 0 -11 3.46 4.18 0
 -3 0 -10 40.2 5.98 0
 -3 0 -9 3.87 3.26 0
 -3 0 -8 -1.33 2.55 0
 -3 0 -6 5.52 2.67 0
 -3 0 -5 447.17 10.96 0
 -3 0 -4 3.42 2.01 0
 -3 0 -1 573.26 8.6 0
 -3 0 0 495.72 7.09 0
 -3 0 1 469.4 6.57 0
 -3 1 -14 20.75 6.32 0
 -3 1 -13 -0.9 4.66 0
 -3 1 -12 22.74 5.95 0
 -3 1 -11 62.62 7.08 0
 -3 1 -10 33.2 5.61 0
 -3 1 -9 18.86 4.36 0
 -3 1 -8 28.1 4.48 0
 -3 1 -6 137.08 7.05 0
 -3 1 -5 6.77 2.62 0
 -3 1 -4 252.62 7.85 0
 -3 1 -3 135.27 5.67 0
 -3 2 -14 63.95 9.04 0
 -3 2 -12 24.96 6.04 0
 -3 2 -11 9.9 4.58 0
 -3 2 -10 3.38 3.62 0
 -3 2 -9 39.32 5.64 0
 -3 2 -8 152.02 8.47 0
 -3 2 -5 108.73 6.28 0
 -3 2 -4 71.42 4.77 0
 -3 2 -3 127.56 6.15 0
 -3 3 -13 11.77 5.84 0
 -3 3 -12 11.16 5.35 0
 -3 3 -11 8.19 4.97 0
 -3 3 -10 12.3 5.11 0
 -3 3 -9 6.06 3.99 0
 -3 3 -7 66.62 5.93 0
 -3 3 -5 9.86 3.43 0
 -3 3 -4 269.8 9.32 0
 -3 3 -3 91.34 5.44 0
 -3 3 -2 185.08 7.15 0
 -3 3 -1 18.57 3 0
 -3 3 0 180.89 6.87 0
 -3 3 2 15.73 3.04 0
 -3 4 -12 6.22 5.41 0
 -3 4 -11 31.97 6.35 0
 -3 4 -10 95.67 9.04 0
 -3 4 -9 8.8 4.2 0
 -3 4 -8 108 8.35 0
 -3 4 -7 41.47 5.77 0
 -3 4 -3 166.78 7.91 0
 -3 4 -2 102.46 5.98 0
 -3 4 -1 25.01 3.84 0
 -3 4 0 56.48 5.03 0
 -3 4 1 26.38 3.97 0
 -3 4 2 71.49 5.44 0
 -3 5 -12 4.05 5.26 0
 -3 5 -11 2.18 5.05 0
 -3 5 -10 66.65 8.31 0
 -3 5 -9 4.75 4.41 0
 -3 5 -8 28.32 5.52 0
 -3 5 -7 101.87 8.34 0
 -3 5 -6 74.56 6.84 0
 -3 5 -5 45.86 5.8 0
 -3 5 -1 20.9 3.75 0
 -3 5 1 412.8 12.05 0
 -3 5 2 20.76 3.79 0
 -3 6 -12 16.59 6.6 0
 -3 6 -11 19.85 6.79 0
 -3 6 -9 10.27 5.73 0
 -3 6 -8 98.6 8.49 0
 -3 6 -7 11.55 4.98 0
 -3 6 -6 77.29 7.11 0
 -3 6 -5 6.09 3.93 0
 -3 6 -3 26.44 4.8 0
 -3 7 -11 8.89 5.97 0
 -3 7 -9 6.42 5.74 0
 -3 7 -8 66.7 8.81 0
 -3 7 -7 11.27 5.26 0
 -3 7 -6 2.21 4.36 0
 -3 7 -5 67.61 7.72 0
 -3 7 -4 38.16 6.52 0
 -3 7 -3 54.48 6.46 0
 -3 7 -2 9.7 4.05 0
 -3 7 0 372.82 13.47 0
 -3 7 1 192.57 10.04 0
 -3 8 -10 66.77 9.22 0
 -3 8 -8 57.19 8.87 0
 -3 8 -7 -1.21 4.44 0
 -3 8 -6 28.5 6.65 0
 -3 8 -5 23.02 5.82 0
 -3 8 -4 33.32 6.28 0
 -3 8 -3 2.62 3.83 0
 -3 8 -2 32.26 5.89 0
 -3 8 -1 16.62 4.98 0
 -3 8 0 40.61 6.42 0
 -3 9 -8 14.55 6.34 0
 -3 9 -7 34.71 8 0
 -3 9 -6 5.47 5.6 0
 -3 9 -5 30.21 6.91 0
 -3 9 -4 72.8 8.26 0
 -3 9 -2 18.28 6.43 0
 -3 9 -1 -3.01 4.3 0
 -3 10 -6 12.23 6.34 0
 -3 10 -5 49.14 8.74 0
 -3 10 -4 5.4 5.38 0
 -3 10 -2 1.9 5.14 0
 -3 11 -3 75.69 10.64 0
 -2 -1 -15 13.62 6.72 0
 -2 -1 0 581.29 4.74 0
 -2 0 -15 33.53 8.14 0
 -2 0 -14 191.4 13.12 0
 -2 0 -13 11.2 5.56 0
 -2 0 -2 32.21 2.43 0
 -2 0 1 357.65 4.63 0
 -2 1 -15 11.42 6.07 0
 -2 1 -14 22.23 6.46 0
 -2 1 -13 0.07 4.6 0
 -2 1 -12 20.79 5.45 0
 -2 1 -11 23.13 5.23 0
 -2 1 -10 19.92 4.77 0
 -2 1 -9 10.74 3.77 0
 -2 1 -7 45.21 4.72 0
 -2 1 -6 22.08 3.41 0
 -2 1 -3 533.59 9.45 0
 -2 1 0 585.46 7.85 0
 -2 2 -14 67.64 8.88 0
 -2 2 -13 25.71 6.89 0
 -2 2 -12 11.41 4.81 0
 -2 2 -11 13.95 4.68 0
 -2 2 -10 18.91 5.05 0
 -2 2 -9 124.54 8.06 0
 -2 2 -6 143.14 6.85 0
 -2 2 -3 86.7 4.62 0
 -2 2 0 787.52 10.71 0
 -2 3 -13 40.01 7.06 0
 -2 3 -12 35.56 6.41 0
 -2 3 -11 24.88 5.46 0
 -2 3 -8 63.36 6.09 0
 -2 3 -6 16.65 3.24 0
 -2 3 -5 34.49 3.92 0
 -2 3 -2 65.26 4.05 0
 -2 3 -1 554.78 10.51 0
 -2 3 0 334.72 8.2 0
 -2 4 -14 62.35 9.15 0
 -2 4 -11 17.84 5.42 0
 -2 4 -8 10.06 3.69 0
 -2 4 -5 2.84 2.35 0
 -2 4 -4 195.64 7.84 0
 -2 5 -13 16.72 6.07 0
 -2 5 -12 17.71 6.7 0
 -2 5 -11 7.89 5.66 0
 -2 5 -10 51.82 7.08 0
 -2 5 -9 40.04 6.53 0
 -2 5 -8 16.88 4.43 0
 -2 5 -7 105.51 7.99 0
 -2 5 -6 11.26 3.47 0
 -2 5 -3 14.14 3.24 0
 -2 5 -2 13.88 3.14 0
 -2 5 -1 501.03 12.32 0
 -2 6 -12 18.14 6.88 0
 -2 6 -11 7.64 5.82 0
 -2 6 -10 100.85 9 0
 -2 6 -9 25.16 5.74 0
 -2 6 -7 81.23 7.54 0
 -2 6 -6 106.15 7.72 0
 -2 6 -5 108.53 7.25 0
 -2 6 -1 59.96 5.48 0
 -2 6 0 392.56 12 0
 -2 6 1 187.75 8.65 0
 -2 7 -12 52.25 8.95 0
 -2 7 -11 17.62 6.55 0
 -2 7 -10 32.71 7.69 0
 -2 7 -9 12.19 5.44 0
 -2 7 -8 18.24 5.6 0
 -2 7 -7 2.84 3.84 0
 -2 7 -6 5.81 3.98 0
 -2 7 -5 7.76 3.89 0
 -2 7 -4 279.08 11.57 0
 -2 7 -3 19.74 4.27 0
 -2 7 -2 26.21 5.1 0
 -2 8 -11 8.82 5.64 0
 -2 8 -10 41.48 8.62 0
 -2 8 -9 28.2 7.35 0
 -2 8 -8 23.16 5.97 0
 -2 8 -7 17.34 5.4 0
 -2 8 -6 38.55 6.84 0
 -2 8 -5 45.38 6.7 0
 -2 8 -4 11.25 5.13 0
 -2 8 -2 17.47 5.33 0
 -2 8 -1 5.74 3.75 0
 -2 9 -9 8.66 5.65 0
 -2 9 -8 13.66 5.85 0
 -2 9 -7 12.17 5.55 0
 -2 9 -6 14.27 5.69 0
 -2 9 -5 4.7 4.54 0
 -2 9 -4 99 8.78 0
 -2 9 -3 64.08 8.79 0
 -2 9 -2 21.81 5.85 0
 -2 9 -1 27.95 6.55 0
 -2 10 -8 23.06 7.06 0
 -2 10 -7 35.9 7.42 0
 -2 10 -6 33.6 7.37 0
 -2 10 -5 0.66 5.79 0
 -2 10 -4 10.11 6.11 0
 -2 10 -3 14.81 6.37 0
 -2 10 -2 8.69 5 0
 -2 11 -4 13.98 6.87 0
 -1 0 -15 11.32 6.3 0
 -1 0 0 461.92 3.85 0
 -1 1 -15 14.79 5.83 0
 -1 1 -14 121.15 10.23 0
 -1 1 -13 204.84 11.75 0
 -1 1 -3 55.67 3.1 0
 -1 1 -2 273.49 5.61 0
 -1 1 -1 1209.2 9.73 0
 -1 1 0 5249.28 18.65 0
 -1 1 1 456.14 5.85 0
 -1 2 -15 11.55 5.6 0
 -1 2 -14 41.11 7.1 0
 -1 2 -12 4.36 3.94 0
 -1 2 -11 32.87 5.43 0
 -1 2 -7 192.8 7.89 0
 -1 2 -4 31.84 2.83 0
 -1 2 -3 574.62 9.47 0
 -1 2 -2 15.9 2.23 0
 -1 2 0 2069.01 14.87 0
 -1 2 1 1954.42 14.82 0
 -1 3 -15 -1.63 4.7 0
 -1 3 -14 32.24 7.02 0
 -1 3 -13 115.64 10.01 0
 -1 3 -12 2.96 3.99 0
 -1 3 -11 27.41 5.71 0
 -1 3 -10 62.03 6.13 0
 -1 3 -9 109.86 7.18 0
 -1 3 -7 69.71 5.09 0
 -1 3 -6 448.33 11.1 0
 -1 3 -5 20.09 2.95 0
 -1 3 -4 388.69 9.08 0
 -1 3 -2 98.25 4.67 0
 -1 3 -1 395.25 7.98 0
 -1 4 -14 30.71 7.29 0
 -1 4 -13 0.48 5 0
 -1 4 -12 3.77 4.16 0
 -1 4 -11 36.64 6.16 0
 -1 4 -10 38.46 5.72 0
 -1 4 -9 51.57 5.54 0
 -1 4 -6 90.76 5.7 0
 -1 4 -4 47.57 3.97 0
 -1 4 -2 61.15 4.37 0
 -1 4 -1 512.31 10.36 0
 -1 4 0 164.55 5.99 0
 -1 4 1 1299.38 16.39 0
 -1 5 -13 19.61 6.63 0
 -1 5 -12 14.34 5.33 0
 -1 5 -11 5.86 4.31 0
 -1 5 -10 186.88 10.91 0
 -1 5 -9 30.8 5.32 0
 -1 5 -8 2.78 3.63 0
 -1 5 -4 441.79 11.64 0
 -1 5 -3 1.99 2.15 0
 -1 5 -2 68.62 4.91 0
 -1 5 -1 67.35 4.68 0
 -1 5 0 29.79 3.78 0
 -1 5 1 88.34 5.29 0
 -1 6 -13 12.74 5.83 0
 -1 6 -12 14.01 5.77 0
 -1 6 -11 106.24 8.99 0
 -1 6 -10 52.43 7.55 0
 -1 6 -9 28.48 5.95 0
 -1 6 -8 10.72 3.89 0
 -1 6 -7 233.87 10.57 0
 -1 6 -3 93.75 5.98 0
 -1 6 0 10.1 3.16 0
 -1 7 -12 2.35 5.07 0
 -1 7 -11 13.07 6.27 0
 -1 7 -10 41.37 7.35 0
 -1 7 -8 19.86 5.09 0
 -1 7 -7 13.32 4.73 0
 -1 7 -5 32.33 5.33 0
 -1 8 -11 0.91 4.85 0
 -1 8 -10 33.71 6.56 0
 -1 8 -9 14.58 5.54 0
 -1 8 -8 4.29 4.41 0
 -1 8 -7 271.35 12.65 0
 -1 8 -6 2.2 3.91 0
 -1 8 -4 148 8.97 0
 -1 8 -3 23.12 4.99 0
 -1 8 -2 60.32 6.48 0
 -1 9 -10 11.11 6.15 0
 -1 9 -8 8.5 5.84 0
 -1 9 -7 25.02 6.23 0
 -1 9 -6 7.12 4.77 0
 -1 9 -5 3.4 4.32 0
 -1 9 -2 9.84 4.47 0
 -1 10 -8 12.74 5.86 0
 -1 10 -7 32.08 6.94 0
 -1 10 -6 7.86 5.6 0
 -1 10 -5 46.91 7.4 0
 -1 10 -4 50.03 7.66 0
 -1 10 -3 32.7 6.25 0
 -1 11 -6 7.01 5.77 0
 -1 11 -5 32.05 6.7 0
 -1 11 -4 19.29 6.09 0
 0 1 -15 26.78 6.71 0
 0 1 -14 44.74 7.49 0
 0 1 -2 471.13 5.71 0
 0 1 -1 475.71 4.57 0
 0 2 -15 77.49 9.65 0
 0 2 -14 36.38 6.75 0
 0 2 -13 195.77 11.49 0
 0 2 -12 39.5 5.96 0
 0 2 -11 41.51 5.82 0
 0 2 -10 202.68 9.27 0
 0 2 -6 14.48 2.53 0
 0 2 -5 493.25 9.48 0
 0 2 -4 567.91 9.21 0
 0 2 -3 848.24 9.98 0
 0 2 -2 2024.25 13.62 0
 0 2 -1 194.3 4.09 0
 0 2 0 9875.24 27.38 0
 0 3 -15 47.33 7.37 0
 0 3 -14 41.12 7.06 0
 0 3 -13 14.75 5.19 0
 0 3 -12 56.1 7.18 0
 0 3 -11 70.68 7.23 0
 0 3 -10 56.23 5.75 0
 0 3 -8 66.94 5.67 0
 0 3 -7 16.61 3.39 0
 0 3 -6 20.51 3.11 0
 0 3 -5 116.77 5.06 0
 0 3 -4 89.84 4.42 0
 0 3 -2 821.69 10.4 0
 0 3 -1 562.05 8.38 0
 0 4 -15 34.52 6.96 0
 0 4 -14 15.66 6.33 0
 0 4 -13 32.62 6.67 0
 0 4 -12 3.84 4.37 0
 0 4 -11 111.84 8.3 0
 0 4 -10 231.98 10.25 0
 0 4 -7 94.75 5.93 0
 0 4 -5 255.89 8.04 0
 0 4 -4 53.45 4.06 0
 0 4 -2 447.15 8.8 0
 0 4 -1 378.05 8.04 0
 0 4 0 558.3 9.79 0
 0 5 -14 104.35 9.81 0
 0 5 -13 47.55 7.58 0
 0 5 -12 11.31 4.72 0
 0 5 -11 -1.86 3.39 0
 0 5 -10 35.09 5.6 0
 0 5 -9 28.52 4.68 0
 0 5 -7 114.45 6.75 0
 0 5 -6 123.72 6.63 0
 0 5 -5 2.51 2.61 0
 0 5 -4 63.08 4.49 0
 0 5 -3 37.48 3.45 0
 0 5 -2 17.61 2.86 0
 0 5 -1 162.07 6.31 0
 0 6 -13 -1.49 4.35 0
 0 6 -12 9.62 4.89 0
 0 6 -10 149.07 9.18 0
 0 6 -9 50.96 6.39 0
 0 6 -8 17.56 4.15 0
 0 6 -5 33.98 4.37 0
 0 6 -4 88.77 5.99 0
 0 6 -3 260.77 8.97 0
 0 7 -13 14.75 5.91 0
 0 7 -12 2.62 4.75 0
 0 7 -10 46.11 6.83 0
 0 7 -9 1.33 3.65 0
 0 7 -8 99.41 7.37 0
 0 7 -7 220.32 10.22 0
 0 7 -3 72.97 5.73 0
 0 7 -2 22.35 3.81 0
 0 7 -1 175.32 8 0
 0 8 -12 38.57 7.06 0
 0 8 -11 65.48 7.97 0
 0 8 -10 28.71 5.67 0
 0 8 -9 33.11 6.29 0
 0 8 -8 8.03 4.57 0
 0 8 -7 4.65 3.59 0
 0 8 -6 5.25 3.63 0
 0 8 -5 17.64 4.36 0
 0 8 -4 196.29 9.51 0
 0 9 -10 1.35 4.19 0
 0 9 -9 14.72 5.64 0
 0 9 -8 61.68 8.22 0
 0 9 -7 52.38 6.87 0
 0 9 -6 22.18 5.35 0
 0 9 -5 71.32 7.62 0
 0 9 -4 -2.26 3.35 0
 0 10 -8 30.46 6.58 0
 0 10 -7 20.85 5.42 0
 0 10 -6 13.95 5.51 0
 0 10 -5 3.56 4.99 0
 0 10 -4 208.96 10.99 0
 0 11 -7 6.26 4.84 0
 0 11 -6 23.01 6.14 0
 1 1 -16 -3.91 4.23 0
 1 1 -15 43.73 7.63 0
 1 2 -15 21.8 5.94 0
 1 2 -12 31.49 5.63 0
 1 2 -3 510.51 6.35 0
 1 2 -2 990.86 7.49 0
 1 2 -1 1956.29 9.32 0
 1 3 -15 84.49 9.04 0
 1 3 -14 92.6 8.6 0
 1 3 -13 10.62 4.46 0
 1 3 -12 10.74 4.22 0
 1 3 -11 18.43 4.44 0
 1 3 -9 98.61 6.08 0
 1 3 -8 123.31 6.35 0
 1 3 -6 685.75 11.4 0
 1 3 -5 37.89 3.06 0
 1 3 -4 609.08 8.91 0
 1 3 -1 362.23 5.7 0
 1 4 -15 16.31 5.56 0
 1 4 -14 101.92 8.94 0
 1 4 -13 47.61 6.82 0
 1 4 -12 2.96 3.55 0
 1 4 -11 21.04 4.67 0
 1 4 -10 20.56 4.61 0
 1 4 -8 9.28 3.04 0
 1 4 -7 84.02 5.3 0
 1 4 -5 19.24 2.9 0
 1 4 -4 62.92 3.46 0
 1 4 -3 418.01 7.68 0
 1 4 -2 373.5 7.2 0
 1 4 -1 1345.07 13.12 0
 1 5 -13 13.75 4.83 0
 1 5 -12 26.67 5.25 0
 1 5 -11 15.28 4.31 0
 1 5 -10 3.36 3.71 0
 1 5 -8 77.97 6.02 0
 1 5 -7 115.16 6.37 0
 1 5 -6 62 4.69 0
 1 5 -5 23 3.1 0
 1 5 -4 379.99 8.7 0
 1 5 -3 2.56 1.82 0
 1 5 -2 246.22 6.86 0
 1 5 -1 90.59 4.38 0
 1 6 -14 17.38 5.53 0
 1 6 -13 31.13 5.96 0
 1 6 -12 28.18 5.62 0
 1 6 -11 48.53 6.55 0
 1 6 -10 28.63 4.93 0
 1 6 -9 26.91 4.62 0
 1 6 -6 44.68 4.65 0
 1 6 -5 56.37 4.63 0
 1 6 -4 69.41 4.53 0
 1 6 -3 243.28 7.88 0
 1 6 -2 75.37 4.83 0
 1 7 -13 6.62 5.24 0
 1 7 -12 31.43 5.84 0
 1 7 -10 7.49 4.37 0
 1 7 -9 39.68 5.78 0
 1 7 -8 1.35 2.93 0
 1 7 -5 24.74 3.9 0
 1 7 -4 155.62 7.32 0
 1 7 -3 98.14 5.66 0
 1 8 -12 23.34 5.94 0
 1 8 -11 25.73 5.58 0
 1 8 -10 9.83 4.41 0
 1 8 -8 36.69 5.31 0
 1 8 -6 9.88 3.64 0
 1 9 -9 3.73 4.22 0
 1 9 -8 2.12 3.58 0
 1 9 -7 125.56 8.4 0
 1 9 -6 44.28 5.85 0
 1 9 -5 14.64 4.01 0
 1 9 -4 187.86 9.31 0
 1 10 -7 22.11 4.86 0
 1 10 -6 10.3 3.97 0
 2 2 -14 7.57 4.53 0
 2 2 -13 39.07 5.76 0
 2 2 -4 333.21 5.09 0
 2 2 -3 109.82 2.27 0
 2 3 -13 35.42 5.47 0
 2 3 -12 33.88 5.3 0
 2 3 -11 29.12 4.74 0
 2 3 -9 11.03 2.85 0
 2 3 -6 167.66 5.18 0
 2 3 -5 56.84 2.89 0
 2 3 -4 218.95 4.6 0
 2 3 -3 86.93 2.42 0
 2 4 -15 -1.21 3.52 0
 2 4 -14 62.11 7.67 0
 2 4 -13 160.29 9.31 0
 2 4 -12 0.34 3.58 0
 2 4 -11 34.7 4.95 0
 2 4 -9 85.24 5.52 0
 2 4 -8 114.91 5.71 0
 2 4 -7 49.89 3.85 0
 2 4 -6 194.42 5.92 0
 2 4 -5 175.82 5.11 0
 2 4 -4 56.69 2.79 0
 2 4 -3 15.31 1.71 0
 2 5 -14 25.63 5.8 0
 2 5 -12 3.04 4.02 0
 2 5 -11 217.33 9.45 0
 2 5 -8 189.06 7.32 0
 2 5 -6 152.72 5.62 0
 2 5 -5 117.96 4.7 0
 2 5 -4 14.48 2.18 0
 2 5 -3 308.33 6.46 0
 2 6 -12 5.22 4.1 0
 2 6 -11 63.97 6.18 0
 2 6 -10 36.6 4.91 0
 2 6 -8 131.13 6.49 0
 2 6 -7 18.94 3.31 0
 2 6 -6 23.34 3.16 0
 2 6 -5 7.14 2.17 0
 2 6 -4 18.73 2.81 0
 2 6 -3 98.3 4.5 0
 2 7 -10 3.38 3.15 0
 2 7 -9 13.96 3.64 0
 2 7 -6 43.76 4.35 0
 2 7 -5 24.68 3.41 0
 2 7 -4 168.76 6.46 0
 2 8 -5 2.55 2.22 0
 3 2 -14 20.57 4.59 0
 3 2 -13 58.36 6.25 0
 3 2 -4 31.53 1.09 0
 3 3 -13 136.98 8.12 0
 3 3 -12 101.01 6.73 0
 3 3 -10 6.49 2.46 0
 3 3 -9 4.14 2.33 0
 3 3 -7 132.87 4.49 0
 3 3 -6 230.86 4.9 0
 3 3 -5 476.1 5.39 0
 3 4 -10 49.09 4.35 0
 3 4 -9 49.69 3.93 0
 3 4 -8 51.51 3.53 0
 3 4 -7 18.57 2.32 0
 3 4 -6 91.68 3.29 0
 3 5 -8 -0.83 1.58 0
 3 5 -7 20.29 2.35 0
 3 5 -6 53.42 2.78 0
 3 5 -5 139.82 3.48 0
 4 2 -6 12.05 1.21 0
 -4 4 -3 5.48 2.05 0
 -4 4 -2 7.82 2.18 0
 -4 5 -3 257.92 9.76 0
 -4 5 -2 67.66 5.33 0
 -4 6 -2 16.71 3.63 0
 -3 -3 -5 16.21 2.29 0
 -3 -2 -6 36.21 2.81 0
 -3 -2 -5 111.11 3.96 0
 -3 -2 -4 68.79 2.7 0
 -3 -1 -5 6.71 1.15 0
 -3 -1 -4 269.5 3.83 0
 -3 1 -2 75.82 2.44 0
 -3 2 -3 122.44 4.75 0
 -3 2 -2 6.42 1.47 0
 -3 3 -3 90.34 4.87 0
 -3 4 -5 15.86 3.81 0
 -3 4 -4 20.29 3.57 0
 -3 4 -3 165.51 7.38 0
 -3 4 -2 108.96 6.04 0
 -3 4 -1 21.79 3.32 0
 -3 4 0 58.15 4.89 0
 -3 5 -6 77.02 6.41 0
 -3 5 -4 57.92 5.41 0
 -3 5 -3 60.31 5.36 0
 -3 5 -2 142.91 7.51 0
 -3 5 -1 17.32 3.54 0
 -3 5 0 311.72 10.44 0
 -3 6 -4 27.72 5.23 0
 -3 6 -3 24.52 4.7 0
 -3 6 -2 35 5.46 0
 -3 6 -1 18.54 4.77 0
 -3 6 0 48.92 5.32 0
 -2 -5 -8 17.06 3.86 0
 -2 -5 -7 100.89 7.26 0
 -2 -5 -6 13.13 3.36 0
 -2 -4 -9 52.8 5.26 0
 -2 -4 -8 13.06 3.69 0
 -2 -4 -6 470.73 12.3 0
 -2 -4 -5 7.5 2.52 0
 -2 -3 -9 15.51 3.47 0
 -2 -3 -8 52.54 4.64 0
 -2 -3 -7 225.75 8.23 0
 -2 -3 -6 13.96 3.09 0
 -2 -3 -5 35.08 3.43 0
 -2 -3 -4 306.89 8.04 0
 -2 -3 -3 442.44 9.06 0
 -2 -2 -5 64.47 3.57 0
 -2 2 -2 223.32 6.31 0
 -2 2 -1 136.22 4.7 0
 -2 2 0 798.65 10.79 0
 -2 3 0 344.91 8.66 0
 -2 4 -3 181.83 7.89 0
 -2 4 -2 473.94 11.97 0
 -2 5 -4 23.19 4.9 0
 -2 5 -2 12.94 4.01 0
 -2 5 0 147.14 7.47 0
 -2 5 1 347.58 10.95 0
 -2 6 -4 63.72 6.27 0
 -2 6 -3 3.44 3.85 0
 -2 6 -1 59.49 5.69 0
 -2 6 0 395.17 12.92 0
 -2 6 1 192.92 9.08 0
 -1 -6 -6 9.41 3.83 0
 -1 -6 -4 70.83 6.46 0
 -1 -5 -7 18.13 4.12 0
 -1 -5 -5 13.15 3.7 0
 -1 -5 -3 3.76 2.76 0
 -1 -4 -8 44.96 5.98 0
 -1 -4 -7 437.71 13.28 0
 -1 -4 -6 97.66 6.7 0
 -1 -4 -5 171.22 7.88 0
 -1 -4 -4 43.74 4.29 0
 -1 -4 -3 37.07 3.86 0
 -1 -4 -2 60.14 5.04 0
 -1 -3 -6 444.41 11.14 0
 -1 -3 -5 22.03 3.09 0
 -1 -3 -4 383.18 9.51 0
 -1 -3 -2 104.77 4.84 0
 -1 -2 -3 575.09 9.29 0
 -1 -2 -2 13.73 1.94 0
 -1 -2 -1 1108.03 11.69 0
 -1 1 0 5232.23 19.65 0
 -1 2 0 2154.03 17.27 0
 -1 2 1 2011.41 16.51 0
 -1 3 -1 400.14 9.39 0
 -1 3 0 270.57 7.58 0
 -1 3 1 361.66 8.68 0
 -1 4 -1 489.61 11.89 0
 -1 4 0 168.55 7 0
 -1 4 1 1361.3 19.1 0
 -1 4 2 365.32 9.77 0
 -1 5 -3 0.77 2.88 0
 -1 6 -4 71.19 7.42 0
 -1 6 -3 87.67 6.99 0
 -1 6 -2 114.72 8.09 0
 -1 6 -1 172.36 8.98 0
 -1 6 0 8.18 4.05 0
 -1 6 2 73.17 5.76 0
 -1 7 -1 71.49 7.8 0
 -1 7 1 11.48 4.35 0
 0 -6 -5 33.31 6.36 0
 0 -6 -4 83.22 7.23 0
 0 -5 -6 116.53 8.13 0
 0 -5 -5 5.31 3.24 0
 0 -5 -4 55.3 6.11 0
 0 -5 -3 41.41 4.67 0
 0 -4 -8 139.67 8.76 0
 0 -4 -7 96.13 6.86 0
 0 -4 -6 5.39 3.11 0
 0 -4 -5 265.76 9.64 0
 0 -4 -4 49.48 4.56 0
 0 -4 -3 760.63 15.27 0
 0 -4 -2 456.77 11.43 0
 0 -4 -1 366.24 10.38 0
 0 -3 -4 91.3 5.39 0
 0 -3 -1 564.84 10.86 0
 0 -2 -2 1960.29 16.84 0
 0 -2 -1 198.07 5.42 0
 0 -1 -1 474.79 5.83 0
 0 2 0 9999.99 35.54 0
 0 2 1 187.26 5.08 0
 0 3 1 572.18 10.41 0
 0 3 2 808.45 12.47 0
 0 4 -1 365.48 10.24 0
 0 4 0 567.81 12.28 0
 0 4 1 375.52 9.89 0
 0 5 2 22.05 3.71 0
 0 6 -2 50.65 5.33 0
 0 6 -1 472.32 13.97 0
 0 6 0 40.53 5.54 0
 0 6 2 54.21 5.34 0
 0 7 -1 184.42 9.88 0
 0 7 1 176.66 9.36 0
 0 7 2 25.85 4.88 0
 1 -6 -4 69.47 6.74 0
 1 -6 -3 238.39 11.4 0
 1 -5 -6 71.51 6.44 0
 1 -5 -5 17.36 4.64 0
 1 -5 -3 2.31 2.75 0
 1 -4 -6 33.53 5.36 0
 1 -4 -5 20.68 3.91 0
 1 -4 -2 367.78 10.97 0
 1 -4 -1 1353.18 19.9 0
 1 -3 -3 25.87 3.74 0
 1 -3 -2 331.61 9.05 0
 1 -3 -1 364.97 9.09 0
 1 -2 -2 983.03 12.71 0
 1 -2 -1 1961.04 17.06 0
 1 -1 0 5206.22 20.34 0
 1 2 1 1149.87 11.23 0
 1 3 0 265.53 7.33 0
 1 3 1 402.61 8.7 0
 1 3 2 101.45 4.44 0
 1 4 2 66.38 4.55 0
 1 5 -1 95.06 6.41 0
 1 5 1 70.37 5.13 0
 1 5 2 74.61 5.38 0
 1 6 -2 71.34 6.39 0
 1 6 -1 64.52 6.03 0
 1 6 0 11.22 4.03 0
 1 6 1 174.31 8.32 0
 1 7 -1 8.02 3.86 0
 1 7 0 30.92 5.15 0
 1 7 1 72.98 7.11 0
 1 7 2 5.29 3.46 0
 2 -6 -3 109.29 8.59 0
 2 -5 -3 300.45 11.48 0
 2 -4 -7 53.19 5.96 0
 2 -4 -4 59.35 5.16 0
 2 -4 -3 18.96 3.9 0
 2 -4 -2 166.29 8.17 0
 2 -4 -1 57.55 4.95 0
 2 -3 -3 80.99 5.49 0
 2 -3 -2 115.91 5.83 0
 2 -3 -1 1026.44 15.83 0
 2 -2 -2 321.25 8.01 0
 2 -1 -1 268.29 5.68 0
 2 -1 0 590.07 7.82 0
 2 0 0 241.49 3.3 0
 2 3 0 346.47 7.98 0
 2 4 0 705.33 12.98 0
 2 4 2 481.35 10.24 0
 2 5 -1 343.1 11.01 0
 2 5 0 152.93 7.48 0
 2 5 1 500.61 12.17 0
 2 5 2 10.16 2.71 0
 2 6 -1 198.69 9.6 0
 2 6 0 394.46 12.42 0
 2 6 1 63.83 6.01 0
 2 6 2 311.84 10.47 0
 2 7 -1 2.37 3.26 0
 2 7 0 21.65 4.34 0
 2 7 1 117.86 7.56 0
 2 7 2 28.18 4.64 0
 3 -5 -3 172.54 9.65 0
 3 -5 -2 23.17 4.94 0
 3 -4 -5 195.18 9.9 0
 3 -4 -4 65.7 5.86 0
 3 -4 -3 242.5 10.06 0
 3 -4 -2 70.23 5.71 0
 3 -3 -5 462.4 12.83 0
 3 -3 -4 769.02 15.87 0
 3 -3 -3 53.7 4.66 0
 3 -3 -1 3.05 2.19 0
 3 -2 -3 209.98 7.39 0
 3 -2 -1 274.22 7.67 0
 3 0 0 496.48 5.42 0
 3 2 1 86.25 2.24 0
 3 3 0 178.68 5.58 0
 3 3 1 18.95 2.12 0
 3 4 0 60.56 4.41 0
 3 4 1 21.94 2.74 0
 3 5 -1 415.51 11.82 0
 3 5 0 315.05 10 0
 3 5 1 15.78 3.09 0
 3 5 2 145.31 6.27 0
 3 6 -2 74.36 6.84 0
 3 6 -1 2.78 2.83 0
 3 6 1 18.41 3.66 0
 3 6 2 40.17 4.12 0
 3 7 0 348.78 12.28 0
 3 7 1 9.95 3.87 0
 3 7 2 7.66 3.45 0
 4 -5 -3 35.32 5.47 0
 4 -4 -3 4.3 3.11 0
 4 -4 -2 7.51 3.13 0
 4 -4 -1 2.58 2.81 0
 4 -3 -5 144.9 7.96 0
 4 -3 -4 227.39 9.58 0
 4 -3 -3 8.55 3 0
 4 -3 -2 137.13 7.28 0
 4 -3 -1 279.16 9.14 0
 4 -2 -4 336.52 10.36 0
 4 -2 -2 7.26 2.57 0
 4 -2 -1 57.48 4.04 0
 4 -1 -2 99.23 4.64 0
 4 -1 -1 29.13 2.45 0
 4 3 0 26.56 2.37 0
 4 4 -1 4.55 2.33 0
 4 4 0 172.93 6.04 0
 4 4 1 23.2 2.36 0
 4 5 -1 103.19 5.99 0
 4 5 0 9.2 2.69 0
 4 5 1 98.95 5.07 0
 4 6 -2 17.07 3.9 0
 4 6 -1 10.53 3.2 0
 4 6 1 -2.11 2.1 0
 5 -4 -4 106.25 8.11 0
 5 -4 -3 104.81 7.66 0
 5 -4 -2 32.31 5.19 0
 5 -3 -5 67.14 6.13 0
 5 -3 -4 49.76 5.08 0
 5 -3 -3 1.9 2.92 0
 5 -2 -5 242.02 9.75 0
 5 -2 -4 27.2 4.21 0
 5 -2 -3 219.8 8.23 0
 5 -2 -1 31.23 3.28 0
 5 -1 -3 47.88 4.17 0
 5 -1 -2 76.79 4.22 0
 5 -1 -1 7.73 1.66 0
 5 0 -2 299.4 7.09 0
 5 2 -1 32.31 1.99 0
 5 3 -1 22.88 2.25 0
 5 4 -1 136.63 5.44 0
 -8 -4 -2 3.34 4.99 0
 -8 -4 -1 5.24 4.56 0
 -8 -3 -3 17.61 6.1 0
 -8 -1 -3 13.4 5.82 0
 -8 0 -4 44.5 8.36 0
 -8 1 -4 21.07 6.19 0
 -7 -7 -1 2.3 6.13 0
 -7 -7 3 4.16 5.01 0
 -7 -6 -3 1.68 5.42 0
 -7 -6 -2 -1.64 5.25 0
 -7 -6 -1 41.14 8.04 0
 -7 -6 0 89.58 10.95 0
 -7 -6 1 27.5 6.66 0
 -7 -6 2 0.38 4.2 0
 -7 -5 -5 5.3 6.47 0
 -7 -5 -4 2.4 5.54 0
 -7 -5 -2 7.96 5.54 0
 -7 -5 -1 2.04 5.67 0
 -7 -5 0 1.83 4.9 0
 -7 -5 1 59.73 7.96 0
 -7 -5 2 24.74 5.5 0
 -7 -4 -6 -0.53 6.08 0
 -7 -4 -5 9.94 6.32 0
 -7 -4 -4 30.15 7.51 0
 -7 -4 -3 37.6 7.6 0
 -7 -4 -2 38.09 8.1 0
 -7 -4 -1 39.83 7.09 0
 -7 -4 0 135.7 9.94 0
 -7 -4 1 49.46 7.07 0
 -7 -3 -7 16.48 6.99 0
 -7 -3 -6 17.39 7.15 0
 -7 -3 -5 28.2 7.63 0
 -7 -3 -4 13.1 6.32 0
 -7 -3 -3 40.42 7.7 0
 -7 -3 -2 1.43 4.76 0
 -7 -3 -1 24.31 6.14 0
 -7 -3 0 7.28 4.33 0
 -7 -3 1 4.92 3.66 0
 -7 -2 -7 -0.87 5.43 0
 -7 -2 -6 9.03 6.3 0
 -7 -2 -4 2.2 4.87 0
 -7 -2 -3 24.86 6.13 0
 -7 -2 -2 16.59 5.42 0
 -7 -2 -1 83.31 8.32 0
 -7 -2 0 34.49 5.54 0
 -7 -1 -7 8.15 6.58 0
 -7 -1 -5 2.71 5 0
 -7 -1 -3 6.77 5.52 0
 -7 -1 -2 3.99 4.18 0
 -7 -1 -1 78.69 7.52 0
 -7 0 -7 -4.81 5.18 0
 -7 0 -6 3.3 5.67 0
 -7 0 -5 10.03 6.68 0
 -7 0 -4 20.8 5.93 0
 -7 0 -2 53.78 7.02 0
 -7 0 -1 16.78 4.38 0
 -7 1 -5 12.74 6.45 0
 -7 1 -4 12.39 5.71 0
 -7 1 -2 2.91 3.69 0
 -7 2 -7 -0.19 5.88 0
 -7 2 -5 23.88 6.98 0
 -7 2 -4 -1.95 4.45 0
 -7 2 -3 33.92 6.25 0
 -7 3 -7 14.14 7.49 0
 -7 3 -6 8.78 6.08 0
 -7 3 -5 24.51 7.09 0
 -7 4 -6 -0.61 6.26 0
 -7 4 -5 21.39 7.36 0
 -6 -8 -3 7.34 7.41 0
 -6 -8 -2 4.46 6.84 0
 -6 -8 -1 20.63 7.35 0
 -6 -8 0 -1.58 5.21 0
 -6 -7 -4 5.21 5.61 0
 -6 -7 -3 12.49 6.06 0
 -6 -7 -2 1.43 5.64 0
 -6 -7 -1 50.41 8.79 0
 -6 -6 -7 -1.97 5.44 0
 -6 -6 -6 11.67 7.58 0
 -6 -6 -5 6.86 6.09 0
 -6 -6 -4 15.25 6.6 0
 -6 -6 -3 5.71 5.55 0
 -6 -6 -2 136.24 11.9 0
 -6 -6 -1 3.04 5.29 0
 -6 -6 0 19.98 5.76 0
 -6 -6 1 79.72 8.57 0
 -6 -5 -7 100.71 12.58 0
 -6 -5 -6 20.05 7.28 0
 -6 -5 -5 26.07 6.87 0
 -6 -5 -4 99.9 10.72 0
 -6 -5 -3 65.02 9.78 0
 -6 -5 -1 30.21 6.83 0
 -6 -5 0 144.45 10.8 0
 -6 -5 1 13.75 4.96 0
 -6 -5 2 1.77 4.06 0
 -6 -4 -9 9.84 6.92 0
 -6 -4 -7 4.77 6.52 0
 -6 -4 -6 27.42 7.38 0
 -6 -4 -5 10.24 5.68 0
 -6 -4 -4 18.66 5.8 0
 -6 -4 -3 56.7 7.8 0
 -6 -4 -2 37.78 6.59 0
 -6 -4 -1 -0.88 3.75 0
 -6 -4 0 20.01 5.68 0
 -6 -4 1 31.89 5.57 0
 -6 -4 2 11.65 4.26 0
 -6 -3 -9 7.2 6.53 0
 -6 -3 -8 19.61 7.17 0
 -6 -3 -7 31.28 7.73 0
 -6 -3 -6 -2.01 4.86 0
 -6 -3 -4 44.88 7.34 0
 -6 -3 -3 46.96 7.31 0
 -6 -3 0 24.18 5.48 0
 -6 -3 1 1.39 3.07 0
 -6 -2 -9 0.09 6.03 0
 -6 -2 -8 10.57 6.23 0
 -6 -2 -7 42.12 8.21 0
 -6 -2 -6 37.22 7.76 0
 -6 -2 -3 10.42 5.41 0
 -6 -2 -2 41.1 6.27 0
 -6 -2 -1 11.32 4.18 0
 -6 -2 0 58.8 6.52 0
 -6 -1 -10 120.35 12.27 0
 -6 -1 -9 9.78 6.91 0
 -6 -1 -8 133.42 12.83 0
 -6 -1 -7 3.85 5.3 0
 -6 -1 -6 11.22 6.31 0
 -6 -1 -5 0.65 4.07 0
 -6 -1 -4 19.83 5.46 0
 -6 -1 -3 -1.28 3.97 0
 -6 -1 -2 13.53 4.47 0
 -6 -1 -1 53.74 5.93 0
 -6 -1 1 4.05 2.57 0
 -6 0 -8 9.56 7.43 0
 -6 0 -7 9.8 5.84 0
 -6 0 -6 2.94 5.06 0
 -6 0 -5 6.19 4.8 0
 -6 0 -4 24.38 5.89 0
 -6 0 -3 67.66 8.33 0
 -6 0 -2 31.69 5.36 0
 -6 0 1 101.06 6.17 0
 -6 1 -10 114.86 13.95 0
 -6 1 -9 18.92 7.76 0
 -6 1 -8 131.15 12.53 0
 -6 1 -6 13.74 5.82 0
 -6 1 -5 4.72 5.53 0
 -6 1 -4 22.57 5.98 0
 -6 1 -2 8.24 4.57 0
 -6 1 0 2.82 2.99 0
 -6 2 -9 2.35 6.13 0
 -6 2 -8 12.81 7.24 0
 -6 2 -7 43.33 8.46 0
 -6 2 -4 33.58 7.1 0
 -6 2 -3 12.52 4.84 0
 -6 2 0 48.51 4.99 0
 -6 3 -9 15.2 7.89 0
 -6 3 -8 13.41 7.16 0
 -6 3 -7 20.85 7.27 0
 -6 3 -6 0.64 5.13 0
 -6 3 -5 27.57 7.51 0
 -6 3 -4 41.88 7.45 0
 -6 3 -3 41.71 7.23 0
 -6 3 -2 18.58 4.92 0
 -6 4 -8 17.53 8.03 0
 -6 4 -7 3.47 6.71 0
 -6 4 -6 32.11 8.19 0
 -6 4 -5 14.29 7.21 0
 -6 4 -4 17.83 6.3 0
 -6 4 -3 63.48 8.89 0
 -6 4 -2 32.8 6.22 0
 -6 4 -1 2 3.16 0
 -5 -9 -4 4.88 6.27 0
 -5 -9 -3 31.15 8.72 0
 -5 -8 -6 2.67 6.12 0
 -5 -8 -5 19.91 6.98 0
 -5 -8 -4 5.09 6.54 0
 -5 -7 -8 38.01 8.49 0
 -5 -7 -7 -2.34 5.3 0
 -5 -7 -5 14.51 6.91 0
 -5 -7 -4 12.25 6.15 0
 -5 -7 -3 52.95 8.64 0
 -5 -6 -8 16.02 7.06 0
 -5 -6 -7 47.07 8.57 0
 -5 -6 -6 0.16 4.86 0
 -5 -6 -5 12.39 5.99 0
 -5 -6 -4 32.71 7.66 0
 -5 -6 -3 50.23 7.76 0
 -5 -6 -2 5.28 4.6 0
 -5 -5 -10 0.6 5.77 0
 -5 -5 -9 34.32 7.93 0
 -5 -5 -7 22.82 7.46 0
 -5 -5 -5 42.12 7.35 0
 -5 -5 -4 4.91 4.55 0
 -5 -5 -3 92.1 9.32 0
 -5 -5 -2 32.83 6.06 0
 -5 -4 -10 14.98 6.75 0
 -5 -4 -9 -2.09 5.43 0
 -5 -4 -8 41.59 9.02 0
 -5 -4 -7 93.61 10.29 0
 -5 -4 -5 31.53 7.22 0
 -5 -4 -4 90.88 8.77 0
 -5 -4 -3 6.96 4.25 0
 -5 -4 -2 5.04 4.25 0
 -5 -4 -1 6.67 3.93 0
 -5 -3 -10 88.78 11.3 0
 -5 -3 -9 115.6 12 0
 -5 -3 -8 65.13 9.21 0
 -5 -3 -7 45 8.15 0
 -5 -3 -6 83.75 8.64 0
 -5 -3 -5 8.39 4.74 0
 -5 -3 -4 0.13 3.74 0
 -5 -3 -3 96.2 7.89 0
 -5 -3 -2 144.16 9.34 0
 -5 -3 1 24.29 4.25 0
 -5 -2 -11 -3.11 5.99 0
 -5 -2 -10 54.38 9.43 0
 -5 -2 -9 22.89 6.75 0
 -5 -2 -8 33.64 7.87 0
 -5 -2 -7 17.57 5.89 0
 -5 -2 -6 13.28 4.8 0
 -5 -2 -5 44.04 6.61 0
 -5 -2 -3 69.91 7.16 0
 -5 -2 0 105.6 7.19 0
 -5 -2 1 34.03 4.87 0
 -5 -2 4 18.77 3.04 0
 -5 -1 -11 27.49 8.92 0
 -5 -1 -10 187.55 14.51 0
 -5 -1 -9 24.14 7.39 0
 -5 -1 -8 13.62 6.5 0
 -5 -1 -7 13.68 5.79 0
 -5 -1 -6 5.75 4.78 0
 -5 -1 -4 16.6 4.67 0
 -5 -1 -1 22.62 4.48 0
 -5 -1 1 10.49 2.8 0
 -5 -1 2 78.86 4.93 0
 -5 -1 3 49.05 3.77 0
 -5 -1 4 28.53 2.71 0
 -5 0 -11 -0.63 5.94 0
 -5 0 -10 26.05 7.65 0
 -5 0 -8 89.38 10.02 0
 -5 0 -7 14.61 5.56 0
 -5 0 -6 5.56 4.15 0
 -5 0 -4 56.52 6.87 0
 -5 0 -2 2.46 3.24 0
 -5 0 0 189.15 8.11 0
 -5 0 1 76.07 5.13 0
 -5 0 2 303.49 8.44 0
 -5 0 3 303.82 7.58 0
 -5 1 -10 185.31 14.16 0
 -5 1 -8 19.93 7.26 0
 -5 1 -7 16.04 6.2 0
 -5 1 -6 11.52 5.51 0
 -5 1 -5 42.17 6.91 0
 -5 1 -4 16.01 4.7 0
 -5 1 -1 23.72 3.9 0
 -5 1 0 194.84 8 0
 -5 1 1 9.5 2.33 0
 -5 1 2 80.56 4.45 0
 -5 2 -11 -0.05 6.61 0
 -5 2 -10 40.97 9.67 0
 -5 2 -9 20.01 7.39 0
 -5 2 -7 21.14 6.26 0
 -5 2 -6 13.41 5.57 0
 -5 2 -4 30.41 5.59 0
 -5 2 -1 76.59 6.05 0
 -5 2 0 102.21 6.37 0
 -5 2 1 36.34 3.81 0
 -5 2 2 145.29 5.64 0
 -5 3 -11 32.97 9.47 0
 -5 3 -10 80.07 11.67 0
 -5 3 -9 120.14 12.39 0
 -5 3 -8 47.8 8.77 0
 -5 3 -6 92.35 10.19 0
 -5 3 -5 8.81 4.88 0
 -5 3 -4 0.06 4.84 0
 -5 3 -1 103.47 6.76 0
 -5 4 -10 10.37 9.48 0
 -5 4 -9 -5.16 5.94 0
 -5 4 -8 29.42 8.29 0
 -5 4 -6 1.41 6.1 0
 -5 4 -5 25.33 6.83 0
 -5 4 -4 91.4 9.41 0
 -5 4 -3 4.45 4.99 0
 -5 4 -1 9.68 4.22 0
 -5 5 -7 13.02 6.81 0
 -4 -9 -7 -4.65 5.61 0
 -4 -9 -5 85.99 10.63 0
 -4 -8 -8 35.22 8.57 0
 -4 -8 -7 13.47 6.61 0
 -4 -8 -5 40.41 9.11 0
 -4 -7 -8 10.08 7.31 0
 -4 -7 -7 29.37 7.19 0
 -4 -7 -6 3.14 4.8 0
 -4 -7 -4 38.63 7.52 0
 -4 -6 -10 12.56 6.36 0
 -4 -6 -9 17.74 6.65 0
 -4 -6 -8 24.38 7.76 0
 -4 -6 -7 43.79 7.55 0
 -4 -6 -5 -2.23 4.44 0
 -4 -6 -4 20.29 5.52 0
 -4 -5 -11 97.55 10.83 0
 -4 -5 -10 5.53 5.7 0
 -4 -5 -9 24.57 7.71 0
 -4 -5 -8 49.58 8.43 0
 -4 -5 -7 22.03 5.88 0
 -4 -5 -6 5.54 4.67 0
 -4 -5 -5 21.02 5.67 0
 -4 -5 -3 274.62 12.64 0
 -4 -4 -12 9.38 6.34 0
 -4 -4 -11 -3.91 5.06 0
 -4 -4 -10 24.14 6.78 0
 -4 -4 -9 100.33 10.79 0
 -4 -4 -8 15.82 6.14 0
 -4 -4 -7 29.76 6.58 0
 -4 -4 -6 55.03 7.54 0
 -4 -4 -5 5.35 3.53 0
 -4 -4 -4 47.96 6.28 0
 -4 -3 -12 29.96 8.52 0
 -4 -3 -10 18.51 7.47 0
 -4 -3 -9 11.97 5.91 0
 -4 -3 -8 43.46 7.21 0
 -4 -3 -6 148.64 9.71 0
 -4 -3 -5 22.74 4.7 0
 -4 -3 -1 362.92 11.85 0
 -4 -2 -13 13.32 7.57 0
 -4 -2 -12 5.58 5.83 0
 -4 -2 -11 12.23 6.61 0
 -4 -2 -10 31.41 7.05 0
 -4 -2 -9 35.84 7.04 0
 -4 -2 -8 58.19 8.45 0
 -4 -2 -7 3.64 4.05 0
 -4 -2 -6 142.62 9.44 0
 -4 -2 -3 20.24 4.02 0
 -4 -2 -2 59.14 5.48 0
 -4 -2 -1 18.23 3.64 0
 -4 -2 0 102.61 6.2 0
 -4 -1 -12 18.71 7.34 0
 -4 -1 -10 14.17 7 0
 -4 -1 -9 108.08 9.95 0
 -4 -1 -8 18.73 5.51 0
 -4 -1 -1 1194.41 18.81 0
 -4 -1 0 22.44 3.33 0
 -4 -1 1 34.9 3.63 0
 -4 -1 2 94.8 4.58 0
 -4 0 -13 21.44 7.99 0
 -4 0 -12 10 6.79 0
 -4 0 -10 55.55 8.97 0
 -4 0 -9 12.74 5.66 0
 -4 0 -7 21.33 5.19 0
 -4 0 -6 135.36 9.34 0
 -4 0 -4 9.13 3.45 0
 -4 0 -3 69.71 6.18 0
 -4 0 -2 91.06 5.99 0
 -4 0 0 33.5 3.88 0
 -4 0 4 11.42 1.45 0
 -4 0 5 17.4 1.16 0
 -4 1 -13 13.54 8.22 0
 -4 1 -12 15.7 8.44 0
 -4 1 -11 14.39 6.71 0
 -4 1 -9 88.28 10.34 0
 -4 1 -8 16.84 5.43 0
 -4 1 -6 178.98 10.23 0
 -4 1 -2 290.21 9.79 0
 -4 1 -1 1210.27 18.23 0
 -4 1 3 30.3 2.1 0
 -4 2 -12 11.88 8.63 0
 -4 2 -11 16.22 7.27 0
 -4 2 -10 24.48 7.13 0
 -4 2 -8 57.81 8.04 0
 -4 2 -7 7.21 4.48 0
 -4 2 -6 123.39 9.71 0
 -4 2 -3 13.87 4.16 0
 -4 2 -2 49.87 5.33 0
 -4 2 -1 21.64 3.69 0
 -4 2 1 57.96 3.87 0
 -4 3 -11 23.06 8.54 0
 -4 3 -9 14.32 6 0
 -4 3 -7 21.44 5.89 0
 -4 3 -6 144.19 10.12 0
 -4 3 -5 13.68 5.09 0
 -4 3 -3 206.41 10.02 0
 -4 3 -2 70.88 6.26 0
 -4 3 -1 372.18 11.26 0
 -4 3 0 20.9 3.39 0
 -4 3 1 275.69 8.31 0
 -4 4 -11 -2.05 6.8 0
 -4 4 -10 15.55 9.2 0
 -4 4 -7 36.31 7.83 0
 -4 4 -6 48.49 7.45 0
 -4 4 -2 7.24 3.71 0
 -4 4 -1 23.93 4.49 0
 -3 -10 -6 14.05 7.12 0
 -3 -9 -8 15.24 7.84 0
 -3 -9 -7 22.7 6.99 0
 -3 -9 -6 6.86 6.23 0
 -3 -8 -10 69.66 9.56 0
 -3 -8 -8 64.26 9.65 0
 -3 -8 -7 4.86 6.4 0
 -3 -7 -11 13.57 7.06 0
 -3 -7 -10 38.47 8.66 0
 -3 -7 -9 10.56 6.8 0
 -3 -7 -8 61.56 8.96 0
 -3 -7 -7 22.44 6.17 0
 -3 -7 -6 4.54 4.71 0
 -3 -6 -12 21.2 7.19 0
 -3 -6 -11 12.54 6.42 0
 -3 -6 -10 124.63 11.85 0
 -3 -6 -9 10.54 5.64 0
 -3 -6 -8 104.56 9.64 0
 -3 -6 -7 10.48 5.08 0
 -3 -6 -5 7.75 4.35 0
 -3 -5 -12 10.36 6.54 0
 -3 -5 -9 5.73 5.59 0
 -3 -5 -7 101.82 8.47 0
 -3 -5 -6 84.63 7.83 0
 -3 -5 -5 44.7 6.1 0
 -3 -4 -13 35.77 8.21 0
 -3 -4 -12 15.16 6.4 0
 -3 -4 -11 23.35 6.75 0
 -3 -4 -9 11.36 5.05 0
 -3 -4 -8 116.54 9.51 0
 -3 -4 -7 42.29 6.5 0
 -3 -4 -6 10.15 3.86 0
 -3 -3 -13 14.56 7.06 0
 -3 -3 -12 15.7 6.47 0
 -3 -3 -10 9.58 5.2 0
 -3 -3 -8 29.24 5.73 0
 -3 -3 -7 68.99 7.4 0
 -3 -3 -3 95.97 6.28 0
 -3 -2 -14 68.64 10.45 0
 -3 -2 -13 -3.89 5.79 0
 -3 -2 -12 26.91 7.95 0
 -3 -2 -11 16.38 6.71 0
 -3 -2 -10 2.53 5.14 0
 -3 -2 -9 46.85 7.28 0
 -3 -2 -4 66.53 5.4 0
 -3 -2 -3 119.35 6.55 0
 -3 -1 -14 20.9 7.85 0
 -3 -1 -13 2.6 6.02 0
 -3 -1 -12 21.97 6.77 0
 -3 -1 -10 42.53 7.27 0
 -3 -1 -9 19.65 5.36 0
 -3 -1 -8 32.28 5.83 0
 -3 -1 -5 2.78 2.53 0
 -3 -1 0 398.1 8.92 0
 -3 0 -14 17.56 8.07 0
 -3 0 -13 31.85 8.25 0
 -3 0 -12 4.73 5.51 0
 -3 0 -11 -2.33 5.07 0
 -3 0 -10 45.53 7.87 0
 -3 0 -9 -1.59 3.38 0
 -3 0 -8 1.43 3.45 0
 -3 0 -6 6.5 3.41 0
 -3 0 -5 451.63 13.05 0
 -3 0 -4 -0.62 2.08 0
 -3 0 -1 556.11 10.86 0
 -3 0 0 506.9 9.37 0
 -3 0 2 233 5.22 0
 -3 0 4 6.39 0.91 0
 -3 1 -14 27.22 8.77 0
 -3 1 -13 8.82 6.66 0
 -3 1 -12 12.65 6.85 0
 -3 1 -11 83.35 10.44 0
 -3 1 -10 42.31 8.16 0
 -3 1 -9 21.73 5.6 0
 -3 1 -3 144.26 7.09 0
 -3 1 -1 3.12 1.96 0
 -3 1 0 403.71 8.31 0
 -3 1 2 235.16 4.73 0
 -3 1 3 2.01 0.61 0
 -3 2 -14 76.56 12.04 0
 -3 2 -13 2.98 6.77 0
 -3 2 -12 23.8 8.01 0
 -3 2 -11 15.01 6.43 0
 -3 2 -10 8.77 5.96 0
 -3 2 -8 139.62 10.35 0
 -3 2 -7 200.45 11.01 0
 -3 2 -5 104.13 7.21 0
 -3 2 -3 119.84 6.92 0
 -3 2 0 662.88 11.44 0
 -3 2 1 262.08 6.35 0
 -3 2 2 62.08 2.87 0
 -3 3 -13 7.48 7.47 0
 -3 3 -12 11.8 7.47 0
 -3 3 -10 13.43 6.52 0
 -3 3 -9 12.39 5.45 0
 -3 3 -4 277.76 10.92 0
 -3 3 -2 175 7.76 0
 -3 3 -1 14.95 3.07 0
 -3 4 -11 30.6 8.9 0
 -3 4 -10 93.21 11.71 0
 -3 4 -9 2.68 6.09 0
 -3 4 -8 121.41 11.53 0
 -3 4 -7 34.03 6.69 0
 -3 4 -6 16.03 5.64 0
 -3 4 -4 12.38 4.67 0
 -3 4 -2 110.32 7.42 0
 -2 -10 -7 35.16 7.57 0
 -2 -9 -9 18.06 6.86 0
 -2 -9 -8 13.69 6.24 0
 -2 -8 -10 48 7.89 0
 -2 -8 -9 23.97 7.12 0
 -2 -8 -8 19.71 6.13 0
 -2 -8 -7 17.31 6.04 0
 -2 -7 -11 5.78 5.31 0
 -2 -7 -10 34.23 7.24 0
 -2 -7 -9 18.22 5.66 0
 -2 -7 -8 16.7 6.38 0
 -2 -7 -7 0.98 4.18 0
 -2 -6 -12 22.85 6.72 0
 -2 -6 -11 9.47 5.11 0
 -2 -6 -10 107.56 10.04 0
 -2 -6 -9 17.38 5.62 0
 -2 -6 -8 4.31 4.24 0
 -2 -6 -7 78.64 8.11 0
 -2 -6 -6 108.21 8.51 0
 -2 -5 -13 12.36 6.14 0
 -2 -5 -12 13.13 5.84 0
 -2 -5 -11 0.95 4.43 0
 -2 -5 -10 39.82 6.67 0
 -2 -5 -9 38.27 6.85 0
 -2 -5 -8 19.6 5.08 0
 -2 -5 -7 104.01 8.42 0
 -2 -4 -14 64.33 9.5 0
 -2 -4 -13 -2.45 5.73 0
 -2 -4 -12 33.48 7.24 0
 -2 -4 -11 20.27 5.93 0
 -2 -4 -10 33.9 6.36 0
 -2 -4 -8 11.89 4.51 0
 -2 -4 -5 8.15 3.48 0
 -2 -3 -14 90.2 10.81 0
 -2 -3 -12 39.49 7.18 0
 -2 -3 -11 27.82 6.22 0
 -2 -3 -10 1.98 3.98 0
 -2 -3 -9 19.74 5.61 0
 -2 -3 -6 14.84 3.63 0
 -2 -3 -5 32.04 4.34 0
 -2 -2 -14 54.52 8.98 0
 -2 -2 -13 36.51 7.76 0
 -2 -2 -12 13.54 5.55 0
 -2 -2 -11 9.17 4.97 0
 -2 -2 -9 111.7 8.54 0
 -2 -2 -7 224.75 9.84 0
 -2 -2 -6 143.23 7.58 0
 -2 -2 -5 60.12 5.27 0
 -2 -2 -3 81.38 5.05 0
 -2 -1 -14 19.74 6.48 0
 -2 -1 -13 0.8 4.83 0
 -2 -1 -12 9.55 5.49 0
 -2 -1 -11 31.51 6.79 0
 -2 -1 -10 18.58 5.8 0
 -2 -1 -7 40.04 5.14 0
 -2 -1 -5 20.39 3.57 0
 -2 -1 -3 534.91 11.18 0
 -2 -1 -1 272.62 6.73 0
 -2 0 -15 27.35 7.72 0
 -2 0 -14 184.48 13.92 0
 -2 0 -13 7.85 5.6 0
 -2 0 -12 15.44 6.71 0
 -2 0 -11 85.93 8.73 0
 -2 0 -10 13.93 4.8 0
 -2 0 -7 129.38 7.49 0
 -2 0 -6 150.25 7.78 0
 -2 0 -3 725.7 12.53 0
 -2 0 -2 33.38 3.2 0
 -2 0 1 353.34 5.53 0
 -2 1 -15 1.79 6.36 0
 -2 1 -14 21.02 7.19 0
 -2 1 -13 2.02 5.39 0
 -2 1 -12 14.07 5.81 0
 -2 1 -11 28.9 6.4 0
 -2 1 -10 17.79 5.48 0
 -2 1 -9 13.23 5.27 0
 -2 1 -7 51.06 6.22 0
 -2 1 -1 275.78 6.71 0
 -2 1 0 593.69 8.19 0
 -2 1 1 290.05 4.83 0
 -2 1 2 24.3 1.19 0
 -2 2 -14 60.9 10.13 0
 -2 2 -13 36.84 8.13 0
 -2 2 -12 16.36 7.21 0
 -2 2 -11 13.52 5.71 0
 -2 2 -10 18.01 5.68 0
 -2 2 -9 120.71 9.58 0
 -2 2 -2 220.91 7.46 0
 -2 2 -1 135.51 5.3 0
 -2 3 -11 23.39 6.95 0
 -2 3 -10 3.5 4.92 0
 -2 3 -9 11.91 5.53 0
 -2 3 -8 59.27 7.75 0
 -2 3 -4 304.85 10.65 0
 -2 4 -8 10.93 5.61 0
 -2 4 -5 5.49 3.81 0
 -2 4 -4 194.63 9.48 0
 -1 -10 -8 7.61 4.9 0
 -1 -10 -7 26.88 6.54 0
 -1 -9 -10 15.02 5.47 0
 -1 -9 -8 10.08 5.25 0
 -1 -9 -7 17.29 5.5 0
 -1 -8 -11 2.92 4.31 0
 -1 -8 -10 27.29 6.53 0
 -1 -8 -8 0.49 4.99 0
 -1 -8 -7 249.58 12.77 0
 -1 -7 -12 5.32 4.77 0
 -1 -7 -11 7.18 5.54 0
 -1 -7 -10 45.17 7.17 0
 -1 -7 -8 22.9 5.39 0
 -1 -7 -7 13.25 4.54 0
 -1 -6 -12 25.91 5.73 0
 -1 -6 -11 107.13 9.1 0
 -1 -6 -10 54.06 6.96 0
 -1 -6 -9 34.5 5.69 0
 -1 -5 -13 15.03 5.02 0
 -1 -5 -12 11.23 5.23 0
 -1 -5 -11 9.84 5.17 0
 -1 -5 -10 174.96 10.47 0
 -1 -5 -9 27.57 5.31 0
 -1 -5 -6 318.39 11.19 0
 -1 -4 -14 24.6 6.14 0
 -1 -4 -13 2.02 4.92 0
 -1 -4 -12 8.39 4.57 0
 -1 -4 -11 37.92 6.11 0
 -1 -4 -10 39.46 5.89 0
 -1 -4 -7 436.47 12.8 0
 -1 -4 -6 92.04 6.19 0
 -1 -3 -14 34.37 7.22 0
 -1 -3 -13 115.41 9.69 0
 -1 -3 -12 -3.87 3.72 0
 -1 -3 -11 20.54 5.23 0
 -1 -3 -7 67.94 5.81 0
 -1 -2 -15 5.81 5.16 0
 -1 -2 -14 39.14 7.44 0
 -1 -2 -13 2.36 4.83 0
 -1 -2 -12 -2.02 3.86 0
 -1 -2 -11 25.32 5.46 0
 -1 -2 -9 99.4 7 0
 -1 -2 -8 447.39 12.92 0
 -1 -2 -7 196.8 8.44 0
 -1 -2 -6 429.29 11.13 0
 -1 -2 -5 79.26 4.87 0
 -1 -2 -4 37.23 3.42 0
 -1 -1 -15 12.32 6.05 0
 -1 -1 -14 119.5 10.75 0
 -1 -1 -13 192.9 12.28 0
 -1 -1 -11 32.92 6.06 0
 -1 -1 -9 64.44 6.07 0
 -1 -1 -8 315.31 10.81 0
 -1 -1 -6 155.21 7.03 0
 -1 -1 -5 89.73 5.1 0
 -1 -1 -4 930.46 13.31 0
 -1 -1 -3 59.18 3.6 0
 -1 -1 -2 254.98 5.98 0
 -1 0 -15 15.12 6.92 0
 -1 0 -14 30.46 7.11 0
 -1 0 -13 3.01 5.17 0
 -1 0 -12 10.29 5.14 0
 -1 0 -9 122.34 7.97 0
 -1 0 -7 -0.69 2.44 0
 -1 0 -6 437.9 11.04 0
 -1 0 -5 2.93 2.12 0
 -1 0 -4 350.72 8.51 0
 -1 0 -3 -0.89 1.7 0
 -1 0 -2 105.7 3.96 0
 -1 0 -1 1564.89 11.28 0
 -1 0 0 475.55 5.17 0
 -1 1 -14 110.61 11.59 0
 -1 1 -13 178.57 13.19 0
 -1 1 -12 13.62 6.21 0
 -1 1 -11 36.52 6.37 0
 -1 1 -8 331.47 11.85 0
 -1 1 -7 62.11 5.29 0
 -1 1 -6 148.11 7.12 0
 -1 1 -5 86.24 5.09 0
 -1 1 -4 917.61 14.07 0
 -1 1 -3 57.09 3.72 0
 -1 1 -2 272.08 6.26 0
 -1 1 0 5174.52 18.3 0
 -1 2 -13 7.35 6.11 0
 -1 2 -11 28.54 6.48 0
 -1 2 -7 193.41 9.3 0
 -1 2 -6 439.8 12.52 0
 -1 2 -4 32.18 4.26 0
 -1 2 -3 571.9 11.18 0
 -1 2 -2 16.4 2.75 0
 -1 2 -1 1135.87 13.04 0
 -1 3 -7 68.42 6.58 0
 -1 3 -6 437.1 13.53 0
 0 -10 -8 26.67 6.25 0
 0 -9 -9 10.63 4.52 0
 0 -9 -8 70.45 8.32 0
 0 -8 -8 6.41 4.02 0
 0 -7 -10 60.56 6.74 0
 0 -7 -9 2.11 3.34 0
 0 -7 -8 107.64 8.06 0
 0 -6 -11 68.53 6.9 0
 0 -6 -10 150.69 8.94 0
 0 -5 -12 8.19 3.88 0
 0 -5 -11 4.99 3.72 0
 0 -5 -8 75.08 6.05 0
 0 -5 -7 120.18 7.09 0
 0 -4 -12 2.02 3.55 0
 0 -4 -9 2.19 2.94 0
 0 -4 -8 136.02 7.09 0
 0 -4 -6 6.92 2.56 0
 0 -3 -12 61.14 6.78 0
 0 -3 -9 39.89 5.03 0
 0 -3 -8 64.31 5.01 0
 0 -3 -6 20.88 3.3 0
 0 -3 -5 117.11 5.09 0
 0 -2 -14 37.82 6.47 0
 0 -2 -13 185.7 10.5 0
 0 -2 -12 53.65 6.58 0
 0 -2 -10 209.48 9.41 0
 0 -2 -9 11.44 3.37 0
 0 -2 -8 338.65 9.97 0
 0 -2 -7 262.25 8.2 0
 0 -2 -6 13.04 2.65 0
 0 -2 -5 475.97 9.16 0
 0 -2 -4 546.2 8.87 0
 0 -1 -14 49.88 7.69 0
 0 -1 -13 93.44 8.11 0
 0 -1 -12 133.03 8.64 0
 0 -1 -10 23.54 4.17 0
 0 -1 -9 2.52 2.6 0
 0 -1 -7 213.61 7.33 0
 0 -1 -6 130.45 5.3 0
 0 -1 -5 525.03 9.19 0
 0 -1 -3 1058.61 10 0
 0 0 -14 46.69 7.34 0
 0 0 -13 196.16 11.83 0
 0 0 -12 5.16 4.05 0
 0 0 -10 171.62 9.19 0
 0 0 -9 8.21 3.81 0
 0 0 -8 1098.2 18.42 0
 0 0 -6 11.4 2.66 0
 0 0 -5 288.52 7.2 0
 0 0 -4 240.61 5.74 0
 0 0 -2 2969.87 13.48 0
 0 1 -13 86.81 9.01 0
 0 1 -12 133.69 9.69 0
 0 1 -9 1.94 3.45 0
 0 1 -8 140.12 7.38 0
 0 1 -7 208.48 8.39 0
 0 1 -6 130.83 6.21 0
 0 1 -3 1031.62 11.59 0
 0 1 -2 480.96 7.12 0
 0 2 -9 7.31 4.55 0
 0 2 -8 347.21 12.54 0
 0 2 -6 11.31 3.21 0
 0 2 -4 560.96 11.56 0
 1 -8 -8 34.1 5 0
 1 -6 -9 23.01 3.77 0
 1 -6 -8 14.72 3.23 0
 1 -6 -7 97.63 5.96 0
 1 -5 -10 5.74 2.71 0
 1 -5 -9 139.57 6.6 0
 1 -5 -8 91.58 5.38 0
 1 -4 -10 18.06 3.18 0
 1 -4 -9 99.03 5.47 0
 1 -3 -10 78.12 5.14 0
 1 -3 -9 90.22 5.18 0
 1 -3 -8 116.07 5.2 0
 1 -3 -7 547.06 9.93 0
 1 -3 -6 693.86 10.23 0
 1 -3 -5 35.78 2.62 0
 1 -2 -12 35.14 4.68 0
 1 -2 -11 9.39 3.21 0
 1 -2 -10 10.65 3.08 0
 1 -2 -9 -0.18 1.99 0
 1 -2 -8 99.49 4.81 0
 1 -2 -7 49.45 3.4 0
 1 -2 -5 158.38 4.18 0
 1 -1 -12 36.94 5.02 0
 1 -1 -11 101.99 6.62 0
 1 -1 -9 15.53 3.07 0
 1 -1 -8 54.12 4.23 0
 1 -1 -7 367.09 8.06 0
 1 -1 -6 678.84 9.57 0
 1 -1 -5 17.73 1.85 0
 1 -1 -4 2270.96 11.97 0
 1 0 -11 7.09 3.56 0
 1 0 -10 76.72 6.15 0
 1 0 -9 93.51 5.97 0
 1 0 -7 0.42 1.82 0
 1 0 -5 129.83 4.38 0
 1 0 -4 1439.03 11.35 0
 2 -6 -7 17.57 2.82 0
 2 -5 -7 29.04 2.71 0
 2 -4 -8 125.71 3.98 0
 2 -4 -7 49.02 2.65 0
 2 -4 -6 195.56 4.7 0
 2 -3 -8 27.17 2 0
 2 -3 -7 63.14 2.35 0
 2 -3 -6 171.61 3.34 0
 2 -3 -5 61.34 2.01 0
 -4 3 -2 77.92 4.5 0
 -4 3 1 282.27 9.98 0
 -4 4 -3 5.21 1.97 0
 -4 4 -2 6.58 2.5 0
 -4 4 -1 23.88 3.64 0
 -4 4 0 173.91 8.13 0
 -4 4 1 2.13 2.8 0
 -4 4 2 12.18 3.68 0
 -4 4 3 7.27 3.51 0
 -4 5 -2 65.79 5.47 0
 -4 5 -1 100.28 6.4 0
 -4 5 0 12.33 3.5 0
 -4 6 -2 13.97 3.88 0
 -4 6 -1 2.85 3.28 0
 -3 2 -3 117.47 3.83 0
 -3 2 -1 82.64 4 0
 -3 3 1 6.26 2.46 0
 -3 3 3 54.3 4.83 0
 -3 3 4 738.08 16.12 0
 -3 3 5 479.37 13.62 0
 -3 4 -5 16.3 2.26 0
 -3 4 -4 15.04 2.44 0
 -3 4 -3 172.82 6.78 0
 -3 4 -2 101.28 5.55 0
 -3 4 -1 19.28 3.15 0
 -3 4 0 60.14 5.26 0
 -3 4 1 22.34 4.08 0
 -3 4 2 68.41 5.85 0
 -3 4 4 59.36 5.58 0
 -3 4 5 182.95 9.07 0
 -3 5 -4 64.43 4.75 0
 -3 5 -3 63.72 4.94 0
 -3 5 -2 148.59 7.35 0
 -3 5 -1 15.05 3.4 0
 -3 5 0 306 10.94 0
 -3 5 1 415.83 12.76 0
 -3 5 2 16.84 4.03 0
 -3 5 3 162.3 8.83 0
 -3 5 4 79.41 7.29 0
 -3 6 -4 31.8 4.31 0
 -3 6 -3 22.75 3.97 0
 -3 6 -2 35.45 5.13 0
 -3 6 1 5.83 3.98 0
 -2 1 -2 487 5.89 0
 -2 1 -1 272.2 5.41 0
 -2 1 2 22.68 2.96 0
 -2 2 -2 225.71 5.44 0
 -2 2 -1 132.18 4.78 0
 -2 2 0 795.49 11.71 0
 -2 2 1 489.57 9.92 0
 -2 3 0 331.23 8.6 0
 -2 3 1 1005.35 15.55 0
 -2 3 2 110.73 5.95 0
 -2 3 6 164.26 8.01 0
 -2 3 7 65.88 6.63 0
 -2 4 6 192.33 9.13 0
 -2 5 1 348.87 11.47 0
 -2 5 2 106.1 6.8 0
 -2 5 3 303.51 11.3 0
 -2 5 4 13.03 3.58 0
 -2 5 5 113.08 7.54 0
 -2 5 6 160.14 9.59 0
 -2 6 2 4.88 3.35 0
 -1 0 -7 1.37 1 0
 -1 0 -6 438.36 6.65 0
 -1 0 -5 1.54 0.81 0
 -1 1 -9 70.26 3.61 0
 -1 1 -8 316.59 6.89 0
 -1 1 -7 67.84 3.13 0
 -1 1 -6 154.63 4.21 0
 -1 1 0 5184.4 20.75 0
 -1 1 1 456.57 7.1 0
 -1 1 2 17.54 2.55 0
 -1 1 4 2344.76 21.32 0
 -1 2 -9 94.2 4.42 0
 -1 2 1 1982.36 17.64 0
 -1 2 2 985.77 13.07 0
 -1 2 3 507.51 10.32 0
 -1 2 4 150.09 6.07 0
 -1 2 6 220.69 7.94 0
 -1 3 2 348.1 9.14 0
 -1 3 4 608.67 12.9 0
 -1 3 5 37 4.03 0
 -1 3 6 692.78 14.5 0
 -1 3 8 117.2 7.51 0
 -1 4 4 58.18 5.4 0
 -1 4 5 20.09 4.18 0
 -1 4 6 32.89 5.02 0
 -1 4 7 93.88 6.62 0
 -1 4 8 8.69 3.41 0
 -1 4 9 95.97 7.7 0
 -1 5 4 404.01 12.48 0
 -1 5 5 20.82 4.88 0
 -1 5 7 109.86 8.13 0
 -1 6 4 71.67 6.58 0
 -1 6 5 48.99 6.36 0
 0 -1 -8 128.74 5.91 0
 0 -1 -6 130.57 5.19 0
 0 -1 -5 529.98 9.5 0
 0 -1 -4 241.44 6.05 0
 0 -1 -3 1044.94 10.9 0
 0 0 -10 165.59 7.26 0
 0 0 -9 11.33 2.72 0
 0 0 -8 1117.13 16.23 0
 0 0 -6 13.14 2.14 0
 0 0 -3 27.87 1.9 0
 0 0 -2 2932.72 13.03 0
 0 1 -10 32.8 3.99 0
 0 1 -8 133.74 5.73 0
 0 1 2 484.95 6.74 0
 0 1 3 1076.61 10.83 0
 0 1 4 237.1 5.67 0
 0 2 -10 200.12 7.92 0
 0 2 3 852.84 11.79 0
 0 2 4 581.56 10.37 0
 0 2 6 14.33 2.5 0
 0 3 4 94.47 5.32 0
 0 3 5 116.38 5.64 0
 0 3 6 13.85 2.85 0
 0 3 8 65.01 4.95 0
 0 4 6 8.94 3.17 0
 0 4 8 129.84 7.51 0
 0 4 9 4.44 3.11 0
 0 5 8 62.94 6.25 0
 0 6 5 39.43 5.63 0
 0 6 6 8.36 3.82 0
 1 -2 -8 97.14 6.96 0
 1 -2 -7 50.39 5.44 0
 1 -2 -6 211.99 7.95 0
 1 -2 -5 168.2 7.11 0
 1 -2 -4 149.17 6.18 0
 1 -1 -11 94.78 7.04 0
 1 -1 -9 14.19 3.46 0
 1 -1 -7 351.99 10.33 0
 1 -1 -6 661.84 13.04 0
 1 -1 -5 21.53 3.03 0
 1 -1 -4 2314.93 21.1 0
 1 -1 -3 1129.85 13.62 0
 1 -1 -2 22.93 2.55 0
 1 -1 -1 447.43 7.38 0
 1 0 -11 7.32 3.33 0
 1 0 -10 71.85 6.33 0
 1 0 -9 86.69 6.16 0
 1 0 -8 6.14 2.64 0
 1 0 -7 -0.85 1.92 0
 1 0 -5 134.49 5.8 0
 1 0 -4 1437.26 16.08 0
 1 1 -10 66.76 5.56 0
 1 1 -9 16.87 3.8 0
 1 1 -8 50.36 4.72 0
 1 1 3 55.26 2.3 0
 1 1 4 946.34 8.77 0
 1 2 -11 15.91 4.21 0
 1 2 -10 14.11 3.52 0
 1 2 5 85.07 3.78 0
 1 3 6 429.58 9.86 0
 1 3 7 68.65 4.57 0
 1 3 8 26.37 3.57 0
 1 4 6 92.1 5.69 0
 1 4 7 429.14 11.36 0
 1 4 8 44.7 4.7 0
 1 4 9 48.54 4.62 0
 1 5 6 306.67 10.66 0
 1 5 7 18.14 3.81 0
 1 5 8 5.29 3.27 0
 1 5 9 29.12 4.63 0
 1 6 6 14.29 3.94 0
 2 -2 -9 59.68 7.01 0
 2 -2 -8 48.86 5.57 0
 2 -2 -7 146.73 7.89 0
 2 -2 -6 223.02 9.36 0
 2 -2 -5 79.77 6.17 0
 2 -2 -4 312.89 9.52 0
 2 -1 -9 113.28 7.67 0
 2 -1 -8 152.93 8.75 0
 2 -1 -6 83.02 5.66 0
 2 -1 -5 42.65 4.13 0
 2 -1 -3 205.96 7.19 0
 2 -1 -2 33.18 3.23 0
 2 -1 -1 286.12 7.14 0
 2 -1 0 613.09 9.24 0
 2 0 -9 60.18 6.19 0
 2 0 -5 156.93 6.92 0
 2 0 -3 1.93 1.95 0
 2 0 -2 0.6 1.84 0
 2 0 0 240.27 5.48 0
 2 0 1 275.59 4.92 0
 2 0 2 33.27 1.55 0
 2 1 -9 113.94 7.33 0
 2 1 -8 143.39 7.9 0
 2 2 5 58.9 2.85 0
 2 2 6 139.52 3.93 0
 2 3 6 12.72 2.41 0
 2 3 7 219.34 6.3 0
 2 4 6 451.4 10.85 0
 2 4 7 155.34 6.58 0
 2 4 8 12.54 2.62 0
 2 5 7 98.8 6.1 0
 2 5 8 18.26 3.84 0
 2 6 7 71.95 6.13 0
 3 -3 -5 471.41 14.33 0
 3 -2 -6 17.75 4.29 0
 3 -2 -5 169.82 8.35 0
 3 -2 -3 203.83 8.33 0
 3 -2 -2 66.76 5.35 0
 3 -2 -1 266.62 8.58 0
 3 -1 -8 54.89 6.33 0
 3 -1 -6 199.58 9.37 0
 3 -1 -5 64.17 5.89 0
 3 -1 -2 239.29 7.99 0
 3 -1 -1 110.61 5.45 0
 3 -1 0 406.57 8.88 0
 3 -1 1 3.95 1.37 0
 3 0 -8 127.49 8.49 0
 3 0 -7 660.55 16.67 0
 3 0 -3 824.89 15.13 0
 3 0 -2 231.41 7.69 0
 3 0 -1 459.06 9.79 0
 3 0 0 508.57 9.4 0
 3 0 1 565.43 9.01 0
 3 0 2 61.9 2.82 0
 3 1 -8 41.45 6.06 0
 3 1 -7 225 10.4 0
 3 2 5 105.61 2.88 0
 3 3 6 51.87 3.06 0
 3 3 7 65.1 2.61 0
 4 -3 -5 140.53 8.86 0
 4 -2 -5 3.09 3.46 0
 4 -2 -4 340.92 12.19 0
 4 -2 -3 47.22 5.76 0
 4 -2 -2 7.17 3.85 0
 4 -2 -1 58.67 4.85 0
 4 -1 -6 394.92 14.22 0
 4 -1 -4 443.55 13.29 0
 4 -1 -3 28.05 4.85 0
 4 -1 -2 89.01 5.85 0
 4 -1 -1 29.8 4.08 0
 4 -1 0 17.66 2.87 0
 4 -1 1 1188.3 15.82 0
 4 0 -6 38.13 5.41 0
 4 0 -5 14.4 3.96 0
 4 0 -4 12.55 3.6 0
 4 0 -2 -1.3 2.16 0
 4 0 0 39.68 3.48 0
 4 0 1 9.03 2.1 0
 4 0 2 91.83 4.1 0
 4 1 1 1236.97 16.37 0
 5 -2 -3 220.04 10.34 0
 5 -2 -1 35.51 4.73 0
 5 -1 -4 25.35 4.96 0
 5 -1 -3 47.15 5.39 0
 5 -1 -1 9.5 3.31 0
 5 -1 0 192.58 8.11 0
 5 -1 1 24.52 3.48 0
 5 0 -4 73.38 7.36 0
 5 0 -3 304.79 11.42 0
 5 0 -2 310.74 11.11 0
 5 0 1 153.7 6.6 0
 5 0 2 2.46 1.68 0
 5 1 -3 41.69 5.36 0
 5 1 -2 83.92 6.2 0
 5 1 -1 8.43 2.73 0
 5 1 1 29.62 3.66 0
 5 1 2 405.98 9.39 0
 5 1 3 31.7 2.73 0
 5 2 2 19.62 3.12 0
 5 2 3 74.85 4.15 0
 6 -1 -1 3.37 2.79 0
 6 0 -1 105.73 6.87 0
 6 1 -1 2.2 2.36 0
 6 2 -1 72.82 6.25 0
 -7 5 0 -1.19 3.31 0
 -7 5 2 35.41 7 0
 -7 5 3 8.28 5.81 0
 -7 6 1 27.45 6.92 0
 -7 6 2 7.08 5.37 0
 -7 7 -1 0.65 5.99 0
 -7 7 0 3.61 5.54 0
 -7 7 1 11.14 6 0
 -7 7 3 0.88 5.41 0
 -7 7 4 -4.62 5.57 0
 -6 3 2 4.94 3.62 0
 -6 3 3 64.95 6.75 0
 -6 4 -2 39.38 5.72 0
 -6 4 -1 -1.36 3.48 0
 -6 4 0 19.01 4.79 0
 -6 4 1 39.57 6 0
 -6 4 2 8.53 4.37 0
 -6 4 3 17.95 5.49 0
 -6 4 4 24.65 5.9 0
 -6 5 -2 20.81 5.34 0
 -6 5 -1 30.63 6.18 0
 -6 5 0 125.17 9.9 0
 -6 5 1 17.11 6.08 0
 -6 5 2 1.32 4.36 0
 -6 5 3 -0.82 4.17 0
 -6 5 5 22.48 6.12 0
 -6 6 -5 3.73 4.57 0
 -6 6 -4 4.78 5.21 0
 -6 6 -3 7.27 5.1 0
 -6 6 -2 132.61 10.28 0
 -6 6 -1 2.45 4.82 0
 -6 6 1 97.75 9.53 0
 -6 6 2 23.9 6.96 0
 -6 6 3 3.27 5 0
 -6 6 4 27 6.93 0
 -6 6 5 18.92 6.69 0
 -6 7 -5 39.68 7.87 0
 -6 7 -4 6.21 5.52 0
 -6 7 -2 3.81 5.23 0
 -6 7 -1 41.18 7.71 0
 -6 7 0 31.6 7.34 0
 -6 7 1 28.21 7.28 0
 -6 7 2 18.69 7.1 0
 -6 7 4 1.35 5.49 0
 -6 7 5 10.44 7.42 0
 -6 8 -3 7.35 6.26 0
 -6 8 -2 31.15 8.3 0
 -6 8 -1 13.72 6.91 0
 -6 8 0 7.97 6.29 0
 -6 8 1 3.7 6.13 0
 -6 8 2 35.88 9.16 0
 -6 8 3 25.1 7.41 0
 -6 8 4 11.81 7.63 0
 -6 8 5 14.21 7.2 0
 -6 8 6 7.34 6.7 0
 -5 0 -1 150.68 4.95 0
 -5 1 -2 421.78 9.66 0
 -5 1 -1 26.47 3.16 0
 -5 1 0 193.98 7.08 0
 -5 1 1 7.49 2.5 0
 -5 2 -3 73.97 5.13 0
 -5 2 -1 86.8 5.66 0
 -5 2 0 105.47 6.32 0
 -5 2 1 36.77 4.52 0
 -5 2 3 231.05 9.67 0
 -5 3 -4 2.25 2.95 0
 -5 3 -3 81.88 6.18 0
 -5 3 -2 133.1 7.65 0
 -5 3 1 21.25 4.59 0
 -5 4 -6 3.27 3.51 0
 -5 4 -5 28.46 5.32 0
 -5 4 -4 102.15 7.94 0
 -5 4 3 118.14 8.79 0
 -5 4 4 103.32 8.23 0
 -5 4 5 11.58 4.93 0
 -5 5 -7 17.28 4.84 0
 -5 5 -6 22.69 5.54 0
 -5 5 -5 53.58 7.68 0
 -5 5 -4 9.47 4.71 0
 -5 5 -3 88.08 8.49 0
 -5 5 -2 37.29 6.08 0
 -5 5 0 52.52 6.93 0
 -5 5 1 129.92 9.64 0
 -5 5 3 13.31 5.3 0
 -5 5 4 11.92 4.95 0
 -5 5 6 71.87 8.83 0
 -5 6 -8 23.52 6.35 0
 -5 6 -7 41.49 7.53 0
 -5 6 -6 2.13 4.83 0
 -5 6 -5 10.95 5.24 0
 -5 6 -4 26.38 6.53 0
 -5 6 -3 48.39 7.63 0
 -5 6 -2 10.22 5.27 0
 -5 6 -1 31.96 6.83 0
 -5 6 0 105.79 9.64 0
 -5 6 1 54.55 8.35 0
 -5 6 2 5.97 5.3 0
 -5 6 3 48.97 7.62 0
 -5 6 4 13.61 5.61 0
 -5 6 6 42.67 7.73 0
 -5 7 -7 0.66 5.37 0
 -5 7 -6 93.39 11.57 0
 -5 7 -5 20.85 7.41 0
 -5 7 -4 15.35 6.17 0
 -5 7 -3 51.27 8.85 0
 -5 7 -2 28.55 7.3 0
 -5 7 -1 95.95 9.36 0
 -5 7 0 17.51 6.64 0
 -5 7 2 52.71 8.32 0
 -5 7 3 31.08 7.27 0
 -5 7 4 14.96 6.18 0
 -5 7 5 3.77 6.15 0
 -5 7 6 36.14 8.08 0
 -5 7 7 34.18 7.17 0
 -5 8 -5 21.18 7.61 0
 -5 8 -3 4.52 5.76 0
 -5 8 -2 19.12 6.76 0
 -5 8 -1 40.6 7.96 0
 -5 8 0 30.34 7.49 0
 -5 8 1 35.76 8.42 0
 -5 8 2 9.08 6.11 0
 -5 8 4 37.93 7.78 0
 -5 8 5 2.75 5.67 0
 -5 8 6 73.9 10.24 0
 -5 8 7 34.69 8.82 0
 -5 9 -4 4.39 7.15 0
 -5 9 -3 37.2 8.38 0
 -5 9 -2 -3.75 5.81 0
 -5 9 -1 82.16 10.89 0
 -5 9 0 5.42 6.33 0
 -5 9 1 2.07 7.35 0
 -5 9 2 30.06 8.12 0
 -5 9 3 14.85 7.48 0
 -5 9 5 1.94 6.29 0
 -5 9 6 12.89 7.04 0
 -5 9 7 115.75 12.25 0
 -5 10 0 39.37 8.97 0
 -5 10 1 58.45 10.06 0
 -5 10 3 30 9.02 0
 -4 1 -6 179.71 6.86 0
 -4 1 -5 47.89 3.82 0
 -4 1 -4 362.98 8.88 0
 -4 1 -3 227.74 6.96 0
 -4 1 -2 299.75 7.72 0
 -4 1 -1 1199.72 15.33 0
 -4 1 0 20.5 2.89 0
 -4 1 1 34.42 3.3 0
 -4 1 2 97.11 5.64 0
 -4 2 -7 3.75 2.44 0
 -4 2 -6 127.45 6.79 0
 -4 2 -5 48.25 4.58 0
 -4 2 -4 197.21 7.82 0
 -4 2 -3 17.14 3.15 0
 -4 2 -2 51.48 4.47 0
 -4 2 1 56.94 5 0
 -4 2 3 50.94 5.09 0
 -4 2 4 317.75 10.56 0
 -4 3 -8 46.63 5.62 0
 -4 3 -5 18.79 3.98 0
 -4 3 -4 269.18 10.15 0
 -4 3 -2 73.22 5.85 0
 -4 3 -1 374.21 11.29 0
 -4 3 2 133.7 7.69 0
 -4 3 3 12.94 3.93 0
 -4 3 4 215.72 9.68 0
 -4 4 -9 96.71 8.72 0
 -4 4 -8 14.49 4.72 0
 -4 4 -6 54.9 6.21 0
 -4 4 -3 4.27 3.61 0
 -4 4 -2 7.29 3.96 0
 -4 4 0 181.98 9.14 0
 -4 4 2 13.57 3.94 0
 -4 4 6 22.08 5.01 0
 -4 5 -10 1.87 4.76 0
 -4 5 -9 23.84 5.91 0
 -4 5 -7 24.53 6.19 0
 -4 5 -5 20.23 5.72 0
 -4 5 -4 146.53 9.59 0
 -4 5 3 30.53 5.39 0
 -4 5 6 63.07 8.07 0
 -4 6 -10 17.31 6.47 0
 -4 6 -8 35.23 7.9 0
 -4 6 -7 50.87 7.61 0
 -4 6 -5 3.74 5.24 0
 -4 6 -4 24.39 6.35 0
 -4 6 -3 1.27 4.24 0
 -4 6 -2 16.06 5.44 0
 -4 6 -1 -0.86 4.4 0
 -4 6 0 191.37 10.81 0
 -4 6 1 13.03 5.27 0
 -4 6 3 11.96 5.08 0
 -4 6 4 22.36 6.02 0
 -4 6 5 24.92 6.13 0
 -4 6 6 35 6.9 0
 -4 6 7 30.34 6.2 0
 -4 7 -9 1.19 5.82 0
 -4 7 -8 18.76 7.04 0
 -4 7 -7 24.8 7.46 0
 -4 7 -5 54.65 8.75 0
 -4 7 -4 30.13 7.09 0
 -4 7 -3 87.37 9.7 0
 -4 7 0 62.24 8.25 0
 -4 7 1 40.74 7.13 0
 -4 7 2 66.17 8.19 0
 -4 7 3 12.91 5.24 0
 -4 7 4 6.86 5.73 0
 -4 7 7 42.09 7.52 0
 -4 8 -7 15.72 7.85 0
 -4 8 -6 53.6 9.06 0
 -4 8 -5 29.23 7.75 0
 -4 8 -4 65.59 10.1 0
 -4 8 -3 -1.77 5.79 0
 -4 8 -2 12.99 6.84 0
 -4 8 0 142.5 11.8 0
 -4 8 2 46.42 8.14 0
 -4 8 3 27.62 6.67 0
 -4 8 4 33.18 7.97 0
 -4 8 5 14.8 5.86 0
 -4 8 6 24.02 7.62 0
 -4 8 7 168.49 13.1 0
 -4 9 -7 -3.5 6.94 0
 -4 9 -5 69.74 10.39 0
 -4 9 -4 9.78 6.75 0
 -4 9 -3 43.74 9.03 0
 -4 9 -2 13.31 7.32 0
 -4 9 0 117.51 11.35 0
 -4 9 1 4.74 5.56 0
 -4 9 2 153.63 12.56 0
 -4 9 3 52.78 8.62 0
 -4 9 4 5.61 5.86 0
 -4 9 5 35.66 8.44 0
 -4 10 -3 39.59 9.73 0
 -4 10 -2 4.2 6.21 0
 -4 10 -1 4.45 6.34 0
 -4 10 0 3.07 6.04 0
 -4 10 1 10.82 7.58 0
 -4 10 2 34.67 8.51 0
 -4 10 3 2.85 5.92 0
 -4 10 4 14.02 7.02 0
 -4 10 5 20.36 7.55 0
 -4 10 6 6.35 7.11 0
 -3 -1 -5 6.78 1.36 0
 -3 -1 -4 261.01 4.4 0
 -3 -1 -3 139.6 2.52 0
 -3 0 -4 2.3 1.35 0
 -3 0 -3 17.43 1.96 0
 -3 0 -2 61.62 2.8 0
 -3 0 -1 584.07 7.89 0
 -3 0 1 480.73 8.42 0
 -3 1 -5 7.37 2.22 0
 -3 1 -1 6.81 2.02 0
 -3 1 1 113.96 4.97 0
 -3 1 2 238.18 7.09 0
 -3 2 -5 104.79 5.93 0
 -3 2 -4 71.65 4.93 0
 -3 2 4 32.46 4.43 0
 -3 3 -6 55.03 5.74 0
 -3 3 -5 11.42 3.49 0
 -3 3 -4 289.74 10.03 0
 -3 3 -3 93.9 6.18 0
 -3 3 -2 176.81 7.42 0
 -3 3 -1 19.21 3.35 0
 -3 3 1 3.9 2.8 0
 -3 3 2 16.46 3.36 0
 -3 3 3 57.39 5.38 0
 -3 3 4 724.49 15.62 0
 -3 3 5 470.67 13.43 0
 -3 4 -12 8.97 5.66 0
 -3 4 -11 27.54 6.59 0
 -3 4 -10 95.73 9.62 0
 -3 4 -9 2.66 4.32 0
 -3 4 -8 108.86 8.66 0
 -3 4 -5 13.92 4.55 0
 -3 4 -4 17.26 4.22 0
 -3 4 -3 169.81 8.27 0
 -3 4 -2 103.72 7.03 0
 -3 4 0 53.27 5.1 0
 -3 4 1 23.09 4.18 0
 -3 4 2 65.24 5.92 0
 -3 4 3 247.19 9.95 0
 -3 5 -12 3.55 5.73 0
 -3 5 -11 2.54 6.42 0
 -3 5 -10 79.23 9.38 0
 -3 5 -9 8.39 5.61 0
 -3 5 -8 38.27 7.25 0
 -3 5 -7 93.98 8.57 0
 -3 5 -6 74.11 8.04 0
 -3 5 -1 24.18 4.65 0
 -3 5 0 314.74 11.83 0
 -3 5 1 411.3 13.3 0
 -3 6 -11 18.22 6.56 0
 -3 6 -10 126.74 11.77 0
 -3 6 -9 6.85 5.53 0
 -3 6 -8 103.13 9.62 0
 -3 6 -7 9.74 5.65 0
 -3 6 -6 82.99 8.72 0
 -3 6 -5 2.97 4.43 0
 -3 6 -4 29.33 6.15 0
 -3 6 4 6.25 4.17 0
 -3 6 5 57.99 6.72 0
 -3 6 6 38.49 6.57 0
 -3 6 7 44.08 7.07 0
 -3 7 -10 22.89 7.36 0
 -3 7 -9 4.18 6.83 0
 -3 7 -8 67.34 9.99 0
 -3 7 -7 12.98 6 0
 -3 7 -6 2.2 4.65 0
 -3 7 -5 65.06 9.09 0
 -3 7 -4 39.79 6.92 0
 -3 7 -3 56.29 8.32 0
 -3 7 -1 6.93 4.73 0
 -3 7 0 365.87 14.64 0
 -3 7 1 203.09 11.1 0
 -3 7 2 21.18 5.04 0
 -3 7 3 159.91 10.49 0
 -3 7 5 21.42 5.49 0
 -3 7 6 92.23 9.36 0
 -3 8 -9 1.72 6.05 0
 -3 8 -8 59.33 9.57 0
 -3 8 -7 -4.82 6.01 0
 -3 8 -5 24.34 7.27 0
 -3 8 -3 -4.94 4.35 0
 -3 8 -1 20.74 6.36 0
 -3 8 0 38.6 6.8 0
 -3 8 1 2.63 4.55 0
 -3 8 3 20.77 5.91 0
 -3 8 5 3.01 4.73 0
 -3 8 7 24.17 6.72 0
 -3 9 -8 15.07 7.36 0
 -3 9 -7 31.32 8.49 0
 -3 9 -6 1.64 5.86 0
 -3 9 -5 32.91 7.79 0
 -3 9 -2 12.07 6.61 0
 -3 9 0 36.44 7.46 0
 -3 9 1 11.24 5.73 0
 -3 9 2 11.31 6.03 0
 -3 9 4 89.58 10.4 0
 -3 9 5 1.89 5.05 0
 -3 9 6 92.6 11.12 0
 -3 9 7 11.85 6.8 0
 -3 10 -6 7.94 8.24 0
 -3 10 -5 52.6 10.68 0
 -3 10 -4 7.12 6.38 0
 -3 10 -3 0.7 6.61 0
 -3 10 -2 4.29 6.67 0
 -3 10 -1 13.2 7.37 0
 -3 10 0 16.41 6.61 0
 -3 10 1 42.59 8.1 0
 -3 10 2 34.15 8.02 0
 -3 10 3 62.54 9.76 0
 -3 10 4 24.39 7.84 0
 -3 10 5 7.43 6.24 0
 -3 10 6 -0.8 5.41 0
 -3 10 7 19.23 8.5 0
 -3 11 -3 66.73 10.6 0
 -3 11 -2 -1.8 6.78 0
 -3 11 -1 0.29 7.29 0
 -3 11 0 36.89 8.9 0
 -3 11 2 6.07 6.64 0
 -3 11 3 2.28 6.45 0
 -3 11 4 16.64 7.62 0
 -2 0 -2 32.1 2.05 0
 -2 0 -1 280.96 4.6 0
 -2 0 0 244.03 4.64 0
 -2 0 1 359.75 6.28 0
 -2 1 -2 490.28 8.16 0
 -2 1 -1 280.28 6.13 0
 -2 1 1 298.33 6.64 0
 -2 1 2 26.8 2.75 0
 -2 1 3 202.48 6.68 0
 -2 2 -3 89.29 4.7 0
 -2 2 -2 218.59 6.72 0
 -2 2 -1 141.29 5.64 0
 -2 2 0 800.78 11.95 0
 -2 2 1 472.03 9.41 0
 -2 2 2 329.9 8.19 0
 -2 2 3 105.42 5.19 0
 -2 2 4 328.92 9.37 0
 -2 3 -4 311.97 9.98 0
 -2 3 -1 558.9 11.47 0
 -2 3 2 122.62 6.04 0
 -2 4 -5 8.83 3.57 0
 -2 4 -4 189.38 8.46 0
 -2 4 -3 172.1 7.86 0
 -2 4 -2 469.29 12.08 0
 -2 4 4 64.53 5.31 0
 -2 4 5 184.65 8.75 0
 -2 5 -4 19.2 4.41 0
 -2 5 -3 13.49 4.16 0
 -2 5 -2 15.33 3.8 0
 -2 5 -1 521.13 13.91 0
 -2 5 2 105.55 6.88 0
 -2 5 3 301.27 10.7 0
 -2 5 5 114.17 7.45 0
 -2 6 -12 27.42 8.82 0
 -2 6 -11 7.06 7.13 0
 -2 6 -10 97.33 11.12 0
 -2 6 -9 17.15 6.09 0
 -2 6 -8 13.7 5.82 0
 -2 6 -7 78.08 7.93 0
 -2 6 -6 98.15 8.47 0
 -2 6 -5 107.41 8.62 0
 -2 6 1 185.38 9.44 0
 -2 6 2 7.84 3.5 0
 -2 6 6 22.06 5.24 0
 -2 7 -12 56.17 9.99 0
 -2 7 -10 40.11 8.02 0
 -2 7 -8 12.58 5.9 0
 -2 7 -5 6.8 4.67 0
 -2 7 -4 277 12.96 0
 -2 7 -3 13.67 5.27 0
 -2 7 -2 31.32 6.08 0
 -2 7 -1 115.48 8.64 0
 -2 7 4 182.76 10.27 0
 -2 7 5 21.34 5.08 0
 -2 7 6 47.2 7.14 0
 -2 7 7 23.51 5.72 0
 -2 8 -11 15.69 7.17 0
 -2 8 -10 48.98 9.35 0
 -2 8 -9 22.86 7.49 0
 -2 8 -8 20.97 7.04 0
 -2 8 -7 6.8 6.75 0
 -2 8 -5 53.7 8.02 0
 -2 8 -4 9.47 5.17 0
 -2 8 -3 20.26 5.71 0
 -2 8 -2 20.9 5.73 0
 -2 8 -1 4.52 4.37 0
 -2 8 1 2.86 4.39 0
 -2 8 2 61.79 7.31 0
 -2 8 3 117.72 9.76 0
 -2 8 5 -2.48 3.77 0
 -2 8 6 19.8 5.89 0
 -2 8 7 15.35 5.83 0
 -2 9 -9 12.87 7.05 0
 -2 9 -7 4 6.24 0
 -2 9 -6 17.88 8 0
 -2 9 -5 3.01 5.42 0
 -2 9 -4 95.07 10.62 0
 -2 9 -3 61.87 9.49 0
 -2 9 -2 23.53 6.44 0
 -2 9 -1 24.65 6.54 0
 -2 9 0 66.86 8.71 0
 -2 9 1 0.67 4.61 0
 -2 9 2 3.65 5.45 0
 -2 9 3 3.98 5.19 0
 -2 9 5 7.6 4.97 0
 -2 9 6 5.07 6.2 0
 -2 9 7 0.24 4.9 0
 -2 10 -8 30.66 9.72 0
 -2 10 -7 37.18 8.5 0
 -2 10 -6 29.75 8.52 0
 -2 10 -5 2.48 5.78 0
 -2 10 -4 5.4 6.31 0
 -2 10 -1 9.93 6.2 0
 -2 10 0 26.93 6.99 0
 -2 10 2 6.44 6.1 0
 -2 10 3 28.87 7.91 0
 -2 10 4 8.58 6.21 0
 -2 10 5 21.35 6.9 0
 -2 10 7 29.36 8.32 0
 -2 11 -5 4.07 6.7 0
 -2 11 -4 10.4 7.21 0
 -2 11 -3 31.63 7.99 0
 -2 11 -2 9.84 6.75 0
 -2 11 -1 9.64 7.18 0
 -2 11 1 8.99 6.09 0
 -2 11 2 31.49 7.92 0
 -2 11 4 20.44 7.07 0
 -2 11 5 7.88 6.11 0
 -2 11 6 4.23 5.63 0
 -1 0 -1 1580.74 7.98 0
 -1 0 0 462.63 4.27 0
 -1 1 -1 1230.6 10.33 0
 -1 1 0 5159.84 20.38 0
 -1 1 1 444.45 6.62 0
 -1 2 -1 1158.89 12.85 0
 -1 2 0 2089.95 16.51 0
 -1 2 1 1967.75 16.19 0
 -1 2 2 993.19 12.17 0
 -1 2 3 503.98 9.41 0
 -1 2 4 153.85 5.71 0
 -1 3 -2 102.75 5.28 0
 -1 3 -1 401.63 9.2 0
 -1 3 1 365.89 8.52 0
 -1 3 2 344.61 8.5 0
 -1 3 3 29.92 3.41 0
 -1 3 4 598.69 11.77 0
 -1 4 -1 496.93 11.28 0
 -1 4 0 165.19 6.69 0
 -1 4 1 1334.54 17.94 0
 -1 4 2 376.9 9.72 0
 -1 4 3 420.03 10.4 0
 -1 4 5 20.89 3.73 0
 -1 5 0 34.1 4.44 0
 -1 5 2 251.64 9.13 0
 -1 5 5 21.91 4.03 0
 -1 5 6 64.7 6.46 0
 -1 6 -3 86.09 7.16 0
 -1 6 -2 114.58 7.78 0
 -1 6 -1 177.73 8.99 0
 -1 6 0 13.59 3.75 0
 -1 6 1 68.75 5.78 0
 -1 6 2 75.03 6.24 0
 -1 6 3 234.57 9.76 0
 -1 7 -8 17.03 6.83 0
 -1 7 -7 12.9 5.39 0
 -1 7 -6 55.9 7.36 0
 -1 7 -5 28.77 5.46 0
 -1 7 6 40.43 6.06 0
 -1 7 7 44.88 6.52 0
 -1 8 -11 2.62 6.64 0
 -1 8 -9 16.62 7.12 0
 -1 8 -8 4.64 6.54 0
 -1 8 -7 251.94 14.11 0
 -1 8 -6 2.8 4.63 0
 -1 8 -3 18.52 5.39 0
 -1 8 -2 60.1 7.97 0
 -1 8 2 41.97 6.1 0
 -1 8 3 122.53 8.83 0
 -1 8 4 106.19 8.6 0
 -1 8 7 48.91 7.42 0
 -1 9 -10 5.21 7.84 0
 -1 9 -9 35.49 8.44 0
 -1 9 -8 9.56 6.75 0
 -1 9 -7 22.99 7.42 0
 -1 9 -6 14.3 6.25 0
 -1 9 -5 3.95 5.38 0
 -1 9 -3 35.25 7.5 0
 -1 9 -2 6.14 5.39 0
 -1 9 -1 10.77 5.99 0
 -1 9 0 37.1 7.31 0
 -1 9 2 5.67 4.55 0
 -1 9 3 7.09 5.24 0
 -1 9 4 201.47 12.04 0
 -1 9 5 21.84 6.15 0
 -1 9 6 41.46 7.5 0
 -1 9 7 125.52 10.39 0
 -1 10 -8 17.66 7.77 0
 -1 10 -6 7.28 7.39 0
 -1 10 -4 43.4 9.45 0
 -1 10 -3 35.64 7.8 0
 -1 10 -2 64.75 9.72 0
 -1 10 -1 12.79 5.85 0
 -1 10 1 -1.41 4.83 0
 -1 10 2 61.35 8.72 0
 -1 10 3 34.68 7.46 0
 -1 10 4 17.09 5.96 0
 -1 10 5 15.98 6.06 0
 -1 10 6 13.74 5.86 0
 -1 10 7 12.35 5.74 0
 -1 11 -6 1.74 6.68 0
 -1 11 -5 38.28 9.41 0
 -1 11 -4 19.5 7.21 0
 -1 11 -3 21.86 7.31 0
 -1 11 -2 3.76 6.31 0
 -1 11 -1 -0.13 5.42 0
 -1 11 0 43.72 8.26 0
 -1 11 1 5.87 6.28 0
 -1 11 3 62.69 8.75 0
 -1 11 5 10.18 6.35 0
 -1 11 7 11.56 5.99 0
 -1 12 -2 37.78 8.86 0
 -1 12 -1 0.82 5.55 0
 -1 12 0 13.54 6.69 0
 -1 12 1 0.86 5.72 0
 -1 12 2 38.1 8.29 0
 -1 12 3 8.65 5.66 0
 0 1 1 472.92 4.9 0
 0 2 0 9926.22 30.15 0
 0 2 1 191.39 4.49 0
 0 2 2 2027.63 14.29 0
 0 2 3 840.13 10.28 0
 0 3 1 576.33 9.32 0
 0 3 2 781.53 10.66 0
 0 3 3 449.57 8.47 0
 0 3 4 96.07 4.74 0
 0 4 -1 361.75 8.91 0
 0 4 0 568.57 10.88 0
 0 4 1 375.36 8.75 0
 0 4 3 777.06 12.59 0
 0 4 4 52.8 4.22 0
 0 4 5 257.26 8.22 0
 0 5 -1 165.64 7.09 0
 0 5 2 22.78 3.64 0
 0 5 3 38.41 3.9 0
 0 5 4 58.3 4.54 0
 0 5 5 4.79 3 0
 0 6 -3 251.98 10.46 0
 0 6 -2 53.82 5.47 0
 0 6 0 36.73 4.68 0
 0 6 1 471.17 12.53 0
 0 6 2 54.01 5.39 0
 0 6 3 269.57 9.58 0
 0 6 5 41.25 4.88 0
 0 6 6 8.98 3.91 0
 0 7 -1 181.88 9.14 0
 0 7 1 190.33 9.17 0
 0 7 3 65.03 6.34 0
 0 7 4 9.96 3.99 0
 0 8 -8 -0.59 4.6 0
 0 8 -7 3.62 5.41 0
 0 8 -6 1.68 5.25 0
 0 8 -4 189.53 11.6 0
 0 8 -3 133.46 9.78 0
 0 8 -2 14.4 4.47 0
 0 8 6 5.98 4.12 0
 0 9 -10 -3.68 6.08 0
 0 9 -8 60.92 9.58 0
 0 9 -6 13.67 6.13 0
 0 9 -5 67.64 9.47 0
 0 9 -4 2.34 5.45 0
 0 9 -3 152.11 11.2 0
 0 9 -2 4.84 5.38 0
 0 9 -1 46.35 7.3 0
 0 9 1 53.71 7.32 0
 0 9 2 6.23 4.68 0
 0 9 4 4.11 4.02 0
 0 9 5 69.18 7.41 0
 0 9 6 22.28 5.74 0
 0 10 -9 26.75 8.39 0
 0 10 -8 39.81 9.82 0
 0 10 -7 19.9 7.24 0
 0 10 -5 6.14 6.33 0
 0 10 -4 203.94 13.9 0
 0 10 -2 4.39 5.14 0
 0 10 -1 51.36 8.53 0
 0 10 0 142.35 10.79 0
 0 10 1 35.23 6.93 0
 0 10 2 2.37 4.6 0
 0 10 4 204.98 11.67 0
 0 10 5 2.16 4.06 0
 0 10 6 11.2 5.41 0
 0 11 -6 22.7 8.42 0
 0 11 -5 14.43 6.64 0
 0 11 -4 1.94 7 0
 0 11 -1 3.92 5.68 0
 0 11 1 3.8 5.05 0
 0 11 2 70.93 9.49 0
 0 11 3 40.28 6.92 0
 0 11 4 0.22 4.49 0
 0 11 5 7.46 4.67 0
 0 12 -2 6.36 5.84 0
 0 12 -1 34.45 7.52 0
 0 12 1 35.64 7.23 0
 0 12 2 5.07 5.2 0
 0 12 3 25.14 6.73 0
 1 2 1 1136.64 7.48 0
 1 2 2 16.89 1.4 0
 1 3 0 264.94 5.59 0
 1 3 2 95.99 3.37 0
 1 3 3 69.33 3.14 0
 1 4 0 165.84 5.69 0
 1 4 1 505.85 8.77 0
 1 4 2 62.33 3.34 0
 1 4 3 35.52 2.98 0
 1 4 4 47.02 3.49 0
 1 5 -1 85.25 4.95 0
 1 5 0 37.69 3.98 0
 1 5 2 67.84 4.29 0
 1 5 3 1.31 1.83 0
 1 5 4 458.23 9.72 0
 1 6 -1 66.25 5.48 0
 1 6 0 9.72 3.01 0
 1 6 1 173.97 7.2 0
 1 6 3 96.08 5.48 0
 1 6 4 76.5 5.05 0
 1 6 5 182.97 7.25 0
 1 7 -2 42.76 5.46 0
 1 7 -1 9.87 3.99 0
 1 7 0 32.46 4.63 0
 1 7 1 69.27 5.92 0
 1 7 2 3.97 2.85 0
 1 7 4 94.37 5.74 0
 1 8 -6 5.27 4.97 0
 1 8 -5 16.17 5.35 0
 1 8 -4 112.52 9.09 0
 1 8 -3 120.04 9.16 0
 1 8 1 53.87 6.04 0
 1 8 2 58.29 5.93 0
 1 8 3 25.8 4.42 0
 1 8 4 148.31 7.92 0
 1 9 -10 11.8 7.26 0
 1 9 -7 125.87 11.63 0
 1 9 -6 46.42 7.83 0
 1 9 -5 23.65 6.59 0
 1 9 -4 182.62 11.6 0
 1 9 -1 7.08 4.38 0
 1 9 0 31.9 6.03 0
 1 9 1 4.77 3.88 0
 1 9 2 7.29 3.97 0
 1 9 3 24.47 4.83 0
 1 9 5 0.49 3.7 0
 1 10 -9 32.11 9.33 0
 1 10 -8 60.07 9.88 0
 1 10 -7 18.9 8.24 0
 1 10 -6 8.18 6.22 0
 1 10 -5 16.71 7.15 0
 1 10 -4 23.69 6.67 0
 1 10 -3 44.2 8.08 0
 1 10 -2 64.39 7.91 0
 1 10 -1 5.84 4.52 0
 1 10 1 10.02 5.17 0
 1 10 2 67.61 7.35 0
 1 10 3 32.59 5.68 0
 1 11 -5 10.25 6.56 0
 1 11 -4 44.54 8.02 0
 1 11 -2 14.39 5.93 0
 1 11 -1 5.76 5.76 0
 1 11 0 41.28 7.2 0
 1 11 1 0.68 4.65 0
 1 11 2 0.83 4.76 0
 1 12 -3 10.39 6.31 0
 1 12 -1 2.73 5.64 0
 1 12 0 7.79 5.55 0
 2 3 1 549.18 5.35 0
 2 4 0 710.8 9.63 0
 2 4 1 22.77 2.1 0
 2 4 2 465.95 6.22 0
 2 5 -1 346.05 8.66 0
 2 5 3 13.08 1.95 0
 2 6 -2 7.05 2.94 0
 2 6 -1 178.86 7.37 0
 2 6 0 397.49 9.76 0
 2 6 2 308.7 7.67 0
 2 6 3 2.55 1.71 0
 2 7 -1 4.04 2.82 0
 2 7 0 17.21 3.61 0
 2 7 1 110.1 5.98 0
 2 7 2 28.13 3.69 0
 2 7 3 17.9 2.99 0
 2 7 4 268.71 7.75 0
 2 8 -5 4.13 4.93 0
 2 8 -4 16.01 4.89 0
 2 8 -1 2.67 3.68 0
 2 8 0 156.28 8.12 0
 2 8 1 7.56 3.32 0
 2 8 2 19.5 3.68 0
 2 8 3 20.59 3.52 0
 2 9 -8 14.97 7 0
 2 9 -6 5.76 4.9 0
 2 9 -5 8.53 5.09 0
 2 9 -4 72.76 8.4 0
 2 9 -3 7.43 4.75 0
 2 10 -9 7.08 7.89 0
 2 10 -6 3.68 5.72 0
 2 10 -5 16.86 6.37 0
 2 10 -4 10.47 5.23 0
 2 10 -3 18.87 5.98 0
 2 10 -2 10.99 5.26 0
 2 10 -1 10.54 4.48 0
 2 10 0 30.11 5.64 0
 2 11 -6 0.69 6.26 0
 2 11 -5 8.08 6.38 0
 2 11 -4 28.76 6.72 0
 2 11 -3 3.59 4.61 0
 2 11 -2 23.12 5.94 0
 2 11 -1 4.91 4.44 0
 3 4 0 59.06 2.6 0
 3 5 -1 429.39 8.9 0
 3 5 0 311.6 6.58 0
 3 5 1 18.15 1.66 0
 3 6 -2 75.31 5.3 0
 3 6 -1 3.85 2.28 0
 3 6 0 39.25 3.27 0
 3 7 -2 22.46 4.2 0
 3 7 1 12.38 2.39 0
 3 8 -4 11.05 4.27 0
 3 8 -1 6.97 2.99 0
 3 9 -6 101.58 9.77 0
 3 9 -5 3.4 4.68 0
 3 9 -4 96.46 8.36 0
 3 9 -3 69.94 7.12 0
 3 9 -2 16.49 4.69 0
 3 10 -8 18.19 7.18 0
 3 10 -7 10.6 6.54 0
 3 10 -6 4.35 5.41 0
 3 10 -5 -1.6 4.35 0
 3 10 -4 18.72 5.55 0
 3 10 -3 58.3 7.14 0
 4 5 -1 101.98 3.92 0
 4 6 -2 12.25 2.83 0
 4 7 -3 9.29 3.21 0
 4 8 -4 26.8 5.26 0
 4 9 -7 24.06 6.56 0
 4 9 -6 -1.51 4.13 0
 -6 -7 -5 30.73 8.45 0
 -6 -7 -4 12.38 5.89 0
 -6 -6 -7 -0.76 5.34 0
 -6 -6 -6 11.49 6.08 0
 -6 -6 -5 8.78 5.44 0
 -6 -6 -4 5.46 4.77 0
 -6 -6 -3 6.22 4.34 0
 -6 -5 -8 30.03 7.81 0
 -6 -5 -7 97.15 10.96 0
 -6 -5 -5 22.74 6.3 0
 -6 -5 -4 100.91 9.6 0
 -6 -5 -3 59.94 7.94 0
 -6 -4 -8 30.91 8.01 0
 -6 -4 -7 3.33 4.91 0
 -6 -4 -6 36.04 7.39 0
 -6 -4 -5 10.83 5.75 0
 -6 -4 -4 25.01 5.49 0
 -6 -3 -9 9.95 6.96 0
 -6 -3 -8 23.35 6.96 0
 -6 -3 -7 30 7.24 0
 -6 -3 -6 4.73 4.7 0
 -6 -3 -5 37.39 6.5 0
 -6 -3 -4 43.28 6.33 0
 -6 -2 -9 1.47 5.48 0
 -6 -2 -7 41.1 8.02 0
 -6 -2 -6 38.52 7.15 0
 -6 -2 -4 31.18 5.49 0
 -6 -1 -10 122.92 12.75 0
 -6 -1 -8 136.43 11.32 0
 -6 -1 -6 5.86 4.44 0
 -6 -1 -5 1 3.59 0
 -6 0 -10 8.11 6.49 0
 -6 0 -9 3.42 5.93 0
 -6 0 -7 17.49 6.33 0
 -6 0 -6 6.37 4.32 0
 -6 1 -10 132.81 13.03 0
 -6 1 -9 19.57 6.93 0
 -6 1 -8 141.68 11.62 0
 -6 1 -7 3.86 4.94 0
 -6 1 -6 15.21 4.92 0
 -6 1 -5 3.25 3.33 0
 -6 2 -8 16.93 6.93 0
 -6 2 -7 42.21 7.64 0
 -6 2 -6 44.21 7.01 0
 -6 3 -9 5.04 6.13 0
 -6 3 -8 24.12 7.2 0
 -6 3 -7 27.48 6.69 0
 -6 3 -6 -2.81 3.3 0
 -6 4 -9 1.72 5.84 0
 -6 4 -8 25.04 7.94 0
 -6 4 -7 7.74 4.88 0
 -6 5 -8 13.55 6.72 0
 -5 -7 -7 -2.5 5.76 0
 -5 -6 -9 15.44 8.05 0
 -5 -6 -7 52.94 10.27 0
 -5 -5 -10 -1.44 6.89 0
 -5 -5 -9 28.23 8.18 0
 -5 -5 -8 19.54 6.9 0
 -5 -5 -5 47.52 8.09 0
 -5 -4 -10 6.28 6.51 0
 -5 -4 -9 0.04 5.77 0
 -5 -4 -8 39.01 8.38 0
 -5 -4 -7 95.78 10.54 0
 -5 -4 -6 7.82 4.96 0
 -5 -4 -5 32.9 6.34 0
 -5 -4 -4 106.2 8.86 0
 -5 -4 -3 4.4 3.99 0
 -5 -3 -11 30.34 9.36 0
 -5 -3 -10 81.54 11.44 0
 -5 -3 -7 35 6.94 0
 -5 -3 -6 84.88 8.49 0
 -5 -3 -5 8.07 4.51 0
 -5 -3 -4 0.27 3.28 0
 -5 -3 -2 135.09 7.59 0
 -5 -2 -11 0.42 6.21 0
 -5 -2 -10 58.27 9.48 0
 -5 -2 -9 27.63 8.21 0
 -5 -2 -8 25.22 6.35 0
 -5 -2 -7 19.24 6.33 0
 -5 -2 -5 33.19 6.17 0
 -5 -2 -3 71.97 6 0
 -5 -2 -2 15.43 3.63 0
 -5 -2 -1 79.19 5.35 0
 -5 -2 0 97.1 5.2 0
 -5 -2 1 31.39 2.83 0
 -5 -1 -11 18.71 7.98 0
 -5 -1 -10 179.64 13.82 0
 -5 -1 -9 23.34 7.23 0
 -5 -1 -8 22.38 7.24 0
 -5 -1 -6 6.46 4.85 0
 -5 -1 -3 29.5 4.43 0
 -5 -1 -2 402.02 11.22 0
 -5 -1 -1 20.25 3 0
 -5 -1 0 192.08 6.3 0
 -5 0 -11 5.62 6.5 0
 -5 0 -10 29.18 7.78 0
 -5 0 -8 88.67 10.31 0
 -5 0 -7 16.38 5.45 0
 -5 0 -6 3.87 4.2 0
 -5 0 -4 55.91 6.07 0
 -5 0 -3 0.35 2.5 0
 -5 0 -2 1.34 2.12 0
 -5 1 -11 25.3 9.34 0
 -5 1 -10 169.82 13.51 0
 -5 1 -9 18.43 6.88 0
 -5 1 -8 22.27 6.56 0
 -5 1 -7 16.09 5.73 0
 -5 1 -6 7.23 4.57 0
 -5 1 -4 17.73 4.28 0
 -5 1 -3 33.38 4.56 0
 -5 1 -2 420.32 11.4 0
 -5 1 -1 28.23 3.52 0
 -5 1 0 191.29 5.95 0
 -5 2 -9 27.29 7.5 0
 -5 2 -8 33.28 7.24 0
 -5 2 -7 17.16 6.49 0
 -5 2 -6 11.02 5.67 0
 -5 2 -3 66.15 5.98 0
 -5 2 -2 19.12 3.72 0
 -5 2 -1 80.8 5 0
 -5 3 -11 28.27 8.43 0
 -5 3 -10 97.47 12.27 0
 -5 3 -8 45.63 8.15 0
 -5 3 -7 46.47 8.08 0
 -5 3 -6 87.79 9.58 0
 -5 3 -5 4.07 4.27 0
 -5 3 -3 84.54 6.98 0
 -5 4 -10 7.72 7.26 0
 -5 4 -9 -3.38 6.15 0
 -5 4 -8 32.86 8.74 0
 -5 4 -7 94.64 9.94 0
 -5 4 -6 6.03 4.87 0
 -5 4 -5 28.75 6.14 0
 -5 5 -10 0.58 6.8 0
 -5 5 -9 32.88 8.43 0
 -5 5 -8 18.08 7.38 0
 -5 5 -5 43.05 8.19 0
 -5 6 -9 12.48 7.28 0
 -5 6 -8 18.51 7.81 0
 -4 -8 -8 28.82 8.4 0
 -4 -7 -9 2.54 6.39 0
 -4 -7 -8 14.2 7.17 0
 -4 -6 -10 8.06 6.73 0
 -4 -6 -9 13.54 7.41 0
 -4 -6 -8 34.16 8.8 0
 -4 -6 -7 48.34 8.96 0
 -4 -5 -10 6.77 6.19 0
 -4 -5 -9 25.14 7.49 0
 -4 -5 -8 42.59 8.78 0
 -4 -4 -12 16.29 7.53 0
 -4 -4 -11 -1.08 5.81 0
 -4 -4 -10 17.07 7.11 0
 -4 -4 -8 21.67 6.39 0
 -4 -4 -7 30.64 7.3 0
 -4 -4 -6 50.46 7.08 0
 -4 -3 -11 22.47 8.46 0
 -4 -3 -10 17.71 6.78 0
 -4 -3 -8 42.21 7.47 0
 -4 -3 -7 24.26 6.21 0
 -4 -3 -6 138.81 9.53 0
 -4 -2 -13 19.34 8.24 0
 -4 -2 -12 0.97 6.03 0
 -4 -2 -10 29.67 7.52 0
 -4 -2 -8 46.07 7.06 0
 -4 -2 -7 4.77 4.06 0
 -4 -2 -6 135.36 8.92 0
 -4 -2 -4 194.53 9.26 0
 -4 -2 -3 17.41 4.03 0
 -4 -2 -2 55.88 4.75 0
 -4 -1 -13 6.94 7.21 0
 -4 -1 -12 28.17 8.53 0
 -4 -1 -11 16.81 7.39 0
 -4 -1 -10 17.05 6.34 0
 -4 -1 -7 23.23 5.64 0
 -4 -1 -4 362.01 12.02 0
 -4 -1 -3 220.24 8.94 0
 -4 -1 -2 281.48 8.95 0
 -4 -1 1 34.62 2.5 0
 -4 -1 2 96.08 2.95 0
 -4 0 -13 33.6 9.6 0
 -4 0 -12 6.47 6.45 0
 -4 0 -10 58.21 9.31 0
 -4 0 -9 16.78 6.46 0
 -4 0 -7 18.66 5.24 0
 -4 0 -5 1.11 2.98 0
 -4 0 -4 8.86 3.69 0
 -4 0 -3 73.23 5.5 0
 -4 0 -2 93.3 5.43 0
 -4 0 0 40.25 2.77 0
 -4 0 1 8.7 1.33 0
 -4 1 -12 23.56 8.53 0
 -4 1 -11 19.93 8.06 0
 -4 1 -10 22.17 7.06 0
 -4 1 -9 81.84 9.18 0
 -4 1 -8 14.36 5.7 0
 -4 1 -7 24.84 5.96 0
 -4 1 -5 44.19 5.78 0
 -4 1 -3 230.92 8.82 0
 -4 1 -2 288.06 8.87 0
 -4 1 0 20.53 2.43 0
 -4 1 1 32.79 1.99 0
 -4 2 -13 9.08 7.94 0
 -4 2 -12 11.02 7.35 0
 -4 2 -10 29.47 7.57 0
 -4 2 -9 29.97 7.07 0
 -4 2 -8 63.87 8.48 0
 -4 2 -7 0.5 3.92 0
 -4 2 -4 204.19 9.82 0
 -4 2 -3 15.98 3.75 0
 -4 2 -2 48.79 4.55 0
 -4 2 -1 20.79 2.96 0
 -4 3 -12 46.05 10.38 0
 -4 3 -11 20.48 8.09 0
 -4 3 -10 18.2 7.28 0
 -4 3 -9 11.43 6.58 0
 -4 3 -7 18.27 6.29 0
 -4 3 -6 148.62 10.67 0
 -4 3 -4 293.14 12.16 0
 -4 3 -3 218.23 9.84 0
 -4 3 -2 77.45 5.7 0
 -4 3 -1 358.78 10.25 0
 -4 4 -12 7.93 7.31 0
 -4 4 -11 2.21 6.66 0
 -4 4 -10 24.23 8.32 0
 -4 4 -9 96.46 11.86 0
 -4 4 -8 15.08 6.32 0
 -4 4 -7 35.45 7.91 0
 -4 4 -3 4.71 3.68 0
 -4 4 -2 8.28 3.44 0
 -4 5 -10 5.08 6.82 0
 -4 5 -9 17.14 7.19 0
 -4 5 -8 38.48 8.22 0
 -4 5 -7 17.39 6.43 0
 -4 5 -5 18.44 6.01 0
 -4 6 -9 13.25 7.45 0
 -4 6 -7 49.51 8.97 0
 -3 -8 -9 2.32 7.15 0
 -3 -7 -11 13.4 7.33 0
 -3 -7 -10 41.52 9.23 0
 -3 -7 -9 12.93 6.73 0
 -3 -6 -12 15.7 8.02 0
 -3 -6 -9 5.4 5.39 0
 -3 -5 -12 8.84 6.46 0
 -3 -5 -11 -4 5.63 0
 -3 -5 -10 75.78 10.39 0
 -3 -5 -9 5.42 5.5 0
 -3 -5 -8 35.55 6.78 0
 -3 -4 -13 35.57 8.98 0
 -3 -4 -12 12.7 6.83 0
 -3 -4 -10 96.88 10.74 0
 -3 -4 -9 11.26 5.29 0
 -3 -3 -13 17.04 8.33 0
 -3 -3 -12 10.44 7.03 0
 -3 -3 -10 6.83 4.86 0
 -3 -3 -9 13.97 5.57 0
 -3 -3 -8 28.07 6.4 0
 -3 -2 -13 -7.01 5.16 0
 -3 -2 -12 25.94 7.43 0
 -3 -2 -11 17.26 6.47 0
 -3 -2 -10 8.17 5.13 0
 -3 -2 -9 39.3 7.28 0
 -3 -2 -5 114.45 7.39 0
 -3 -2 -4 76.16 5.88 0
 -3 -1 -14 22.61 8.08 0
 -3 -1 -12 9.5 6.38 0
 -3 -1 -10 41.63 7.52 0
 -3 -1 -6 149.29 8.58 0
 -3 -1 -5 3.22 2.83 0
 -3 -1 -1 3.52 1.75 0
 -3 0 -14 9.54 7.8 0
 -3 0 -13 35.54 9.52 0
 -3 0 -12 -1.91 5.65 0
 -3 0 -11 -2.52 5.18 0
 -3 0 -10 45.64 7.87 0
 -3 0 -9 0.38 4.1 0
 -3 0 -8 -2.57 2.74 0
 -3 0 -6 3.99 3.83 0
 -3 0 -5 436.47 13.02 0
 -3 0 -4 1.95 2.47 0
 -3 0 -2 60.5 4.19 0
 -3 0 -1 583.45 9.67 0
 -3 0 0 502.19 7.66 0
 -3 0 1 461.37 5.61 0
 -3 1 -14 20.03 8.15 0
 -3 1 -12 22.56 8.72 0
 -3 1 -10 42.49 8.18 0
 -3 1 -9 24.03 6.01 0
 -3 1 -8 22.39 5.37 0
 -3 1 -6 141.42 8.5 0
 -3 1 -5 3.99 2.82 0
 -3 1 -4 248.69 9.23 0
 -3 1 -1 4.96 1.71 0
 -3 1 1 109.44 2.93 0
 -3 2 -13 -4.11 6.37 0
 -3 2 -11 16.13 7.35 0
 -3 2 -10 9.64 5.61 0
 -3 2 -9 32.99 6.75 0
 -3 2 -6 35.21 5.78 0
 -3 2 -3 120.57 6.6 0
 -3 2 -1 86.9 4.56 0
 -3 2 0 673.83 10.48 0
 -3 3 -13 10.64 8.28 0
 -3 3 -11 5.14 6.13 0
 -3 3 -10 8.89 6.1 0
 -3 3 -8 24.01 6.46 0
 -3 3 -7 70.63 8.42 0
 -3 3 -5 14.97 4.48 0
 -3 3 -2 176.79 7.79 0
 -3 4 -13 28.26 9.27 0
 -3 4 -12 15.03 8.05 0
 -3 4 -9 10.39 5.7 0
 -3 4 -8 114.03 10.24 0
 -3 4 -4 15.2 4.22 0
 -3 4 -3 171.16 8.89 0
 -3 4 -2 105.14 6.88 0
 -3 5 -12 6.29 7.14 0
 -3 5 -11 -0.85 6.36 0
 -3 5 -10 71.78 10.61 0
 -3 5 -9 8.73 6.02 0
 -3 5 -8 39.35 8.13 0
 -3 5 -6 81.01 9.5 0
 -3 6 -12 19.17 8.72 0
 -3 6 -9 10.91 7.5 0
 -3 6 -7 5.95 5.75 0
 -3 6 -6 72.11 8.57 0
 -2 -8 -10 49.11 9.66 0
 -2 -7 -12 41.04 10.15 0
 -2 -7 -11 9.06 7.12 0
 -2 -7 -10 46.29 9.15 0
 -2 -6 -11 10.19 6.96 0
 -2 -6 -10 112.95 11.18 0
 -2 -5 -13 9.71 7.72 0
 -2 -5 -12 8.04 6.68 0
 -2 -5 -10 44.06 7.91 0
 -2 -5 -9 39.02 7.81 0
 -2 -4 -14 75.25 11.78 0
 -2 -4 -13 -0.12 5.93 0
 -2 -4 -12 33.66 7.99 0
 -2 -4 -10 40.23 7.23 0
 -2 -4 -8 8.49 4.09 0
 -2 -3 -14 88.99 11.82 0
 -2 -3 -13 31.03 8.71 0
 -2 -3 -12 44.89 8.53 0
 -2 -3 -11 34.31 7.2 0
 -2 -3 -9 11.79 4.41 0
 -2 -2 -14 54.02 9.78 0
 -2 -2 -13 32.48 8.17 0
 -2 -2 -11 10.24 5.31 0
 -2 -2 -10 15.63 5.54 0
 -2 -2 -6 138.53 7.86 0
 -2 -2 -5 61.19 5.6 0
 -2 -1 -15 11.36 7.51 0
 -2 -1 -14 19.42 8.92 0
 -2 -1 -12 11.93 7.13 0
 -2 -1 -11 23.58 6.45 0
 -2 -1 -9 7.19 4.41 0
 -2 -1 -7 42.47 5.29 0
 -2 0 -15 29.07 8.69 0
 -2 0 -14 198.84 16.1 0
 -2 0 -13 13.18 7.52 0
 -2 0 -6 133.85 7.45 0
 -2 0 -4 382.36 10.1 0
 -2 0 -3 733.41 12.58 0
 -2 0 -2 35.34 3.56 0
 -2 0 -1 272.55 5.97 0
 -2 0 0 241.35 4.5 0
 -2 1 -15 12.61 7.79 0
 -2 1 -14 20.29 9.06 0
 -2 1 -13 -3.43 5.71 0
 -2 1 -11 28.92 7.21 0
 -2 1 -10 19.93 6.08 0
 -2 1 -9 13.1 4.46 0
 -2 1 -3 544.19 11.06 0
 -2 1 -2 493.62 9.47 0
 -2 1 -1 265.94 6.17 0
 -2 1 0 596.73 7.52 0
 -2 2 -14 60.1 10.85 0
 -2 2 -13 29.11 8.79 0
 -2 2 -12 14.41 6.57 0
 -2 2 -10 12.23 5.31 0
 -2 2 -9 129.15 10.18 0
 -2 2 -7 223.84 10.72 0
 -2 2 -3 86.11 5.22 0
 -2 2 -2 220.69 7.15 0
 -2 2 -1 135.37 5.41 0
 -2 2 0 798.39 10.74 0
 -2 3 -12 42.88 8.71 0
 -2 3 -11 30.01 8.2 0
 -2 3 -10 -1.81 4.58 0
 -2 3 -9 19.59 5.71 0
 -2 3 -8 60.74 7.85 0
 -2 3 -6 14.1 4.35 0
 -2 3 -5 28.93 4.94 0
 -2 3 -4 316.68 11.02 0
 -2 3 -1 564.57 11.75 0
 -2 4 -13 1.06 6.55 0
 -2 4 -12 35.5 8.12 0
 -2 4 -10 41.72 8.13 0
 -2 4 -5 4.24 3.97 0
 -2 4 -4 203.52 10 0
 -2 4 -3 176.84 8.8 0
 -2 5 -13 12.54 7.97 0
 -2 5 -12 13.72 7.29 0
 -2 5 -9 49.37 8.77 0
 -2 5 -8 24.26 6.17 0
 -2 5 -7 95.82 8.72 0
 -2 5 -4 21.22 5.15 0
 -2 6 -12 20.01 8.36 0
 -2 6 -9 15.17 6.22 0
 -2 6 -8 16.19 6.39 0
 -2 6 -7 82.04 9.47 0
 -1 -8 -11 5.56 7.62 0
 -1 -7 -12 6.35 5.84 0
 -1 -7 -11 2.71 5.62 0
 -1 -7 -10 50.93 9.72 0
 -1 -6 -12 17.65 6.96 0
 -1 -6 -11 111.3 11.95 0
 -1 -5 -14 18.31 7.8 0
 -1 -5 -13 11.07 6.85 0
 -1 -5 -12 16.45 6.78 0
 -1 -5 -11 9.08 6.63 0
 -1 -5 -10 178.99 12.09 0
 -1 -5 -9 34.09 6.48 0
 -1 -4 -13 5.32 6.09 0
 -1 -4 -12 2.92 5.78 0
 -1 -4 -10 35.26 6.66 0
 -1 -3 -15 0.73 6.8 0
 -1 -3 -14 27.53 8.66 0
 -1 -3 -13 114.47 11.26 0
 -1 -3 -12 3.76 5.37 0
 -1 -3 -11 19.61 5.87 0
 -1 -3 -9 107.61 9.05 0
 -1 -3 -7 65.83 6.17 0
 -1 -2 -15 13.63 7.9 0
 -1 -2 -14 31.64 8.18 0
 -1 -2 -13 4.96 5.86 0
 -1 -2 -12 -0.57 4.68 0
 -1 -2 -11 27.9 6.48 0
 -1 -2 -10 33.47 6.5 0
 -1 -1 -15 15.81 7.23 0
 -1 -1 -14 101.84 12.45 0
 -1 -1 -13 192.39 14.32 0
 -1 -1 -11 29.16 6.19 0
 -1 -1 -10 49.29 6.75 0
 -1 -1 -8 303.96 11.78 0
 -1 -1 -7 75.13 6.21 0
 -1 -1 -5 86.77 5.55 0
 -1 -1 -4 936.8 14.5 0
 -1 0 -15 17.39 8.9 0
 -1 0 -14 30.68 8.39 0
 -1 0 -13 1.36 4.8 0
 -1 0 -12 9.36 5.4 0
 -1 0 -11 1.62 4.99 0
 -1 0 -10 147.14 10.14 0
 -1 0 -8 530.45 15.49 0
 -1 0 -7 -0.14 2.12 0
 -1 0 -5 0.45 2.01 0
 -1 0 -3 1.03 2.09 0
 -1 0 -2 108.39 3.99 0
 -1 0 -1 1563.53 10.94 0
 -1 1 -14 106.77 11.63 0
 -1 1 -13 191.23 14.4 0
 -1 1 -11 40.96 7.23 0
 -1 1 -10 49.43 7.06 0
 -1 1 -3 58.77 3.75 0
 -1 1 -1 1245.88 11 0
 -1 1 0 5169.57 18.24 0
 -1 2 -13 1.94 6.05 0
 -1 2 -12 5.18 5.89 0
 -1 2 -11 34.51 6.99 0
 -1 2 -10 40.52 7.43 0
 -1 2 -7 181.08 9.12 0
 -1 2 -4 36.62 4.54 0
 -1 2 -3 558.92 11.34 0
 -1 2 -2 15.31 3.24 0
 -1 2 -1 1168.35 13.32 0
 -1 3 -15 -4.11 6.35 0
 -1 3 -11 26.36 6.82 0
 -1 3 -10 60.79 8.48 0
 -1 3 -6 441.48 13.89 0
 -1 3 -3 67.55 5.55 0
 -1 3 -2 101.63 5.98 0
 -1 4 -14 35.36 9.49 0
 -1 4 -12 8.83 6.4 0
 -1 4 -10 42.99 7.76 0
 -1 4 -6 98.79 7.52 0
 -1 4 -5 163.02 8.95 0
 -1 5 -13 25.93 8.91 0
 -1 5 -11 9.38 6.4 0
 -1 5 -10 179.42 13.05 0
 -1 5 -8 -0.34 3.73 0
 -1 5 -7 14.98 4.8 0
 -1 6 -12 15.35 8.73 0
 -1 6 -10 47.5 9.63 0
 -1 6 -9 28.17 6.83 0
 -1 6 -8 14.06 6 0
 0 -8 -12 56.26 10.23 0
 0 -6 -12 0.73 6.23 0
 0 -6 -10 141.15 11.41 0
 0 -5 -14 111.88 11.31 0
 0 -5 -13 43.48 8.54 0
 0 -5 -12 7.23 5.59 0
 0 -5 -11 0.84 4.65 0
 0 -5 -10 29.24 6.37 0
 0 -4 -15 20.71 8.28 0
 0 -4 -14 16.36 7.21 0
 0 -4 -13 34.37 7.39 0
 0 -4 -12 -0.99 4.61 0
 0 -4 -11 118.47 9.68 0
 0 -4 -10 259.04 13.21 0
 0 -3 -15 47.02 9.09 0
 0 -3 -14 52.86 9.14 0
 0 -3 -13 13.04 6.37 0
 0 -3 -12 56.71 8.41 0
 0 -3 -11 65.91 8.04 0
 0 -3 -10 49 6.69 0
 0 -3 -8 68.43 6.36 0
 0 -2 -15 87.19 11.91 0
 0 -2 -13 182.34 13.1 0
 0 -2 -12 48.91 7.99 0
 0 -2 -11 42.08 6.79 0
 0 -2 -8 344.33 12.17 0
 0 -2 -7 266.86 9.9 0
 0 -2 -6 12.6 3.11 0
 0 -1 -15 20.65 7.06 0
 0 -1 -14 48.96 8.65 0
 0 -1 -13 94.79 10.23 0
 0 -1 -9 4.79 3.86 0
 0 -1 -8 135.89 7.67 0
 0 -1 -5 546.01 11.1 0
 0 -1 -4 232.11 6.67 0
 0 0 -15 47.93 9.3 0
 0 0 -13 207.02 13.99 0
 0 0 -12 -1.79 4.11 0
 0 0 -11 -3.81 3.55 0
 0 0 -9 7.83 3.65 0
 0 0 -7 105.36 6.46 0
 0 0 -3 28.1 2.9 0
 0 0 -2 2948.78 15.04 0
 0 1 -14 53.88 9.47 0
 0 1 -11 126.59 10.17 0
 0 1 -9 1.12 3.32 0
 0 1 -7 203.38 8.79 0
 0 1 -5 515.46 11.08 0
 0 1 -4 239.67 6.99 0
 0 1 -3 1075.75 12.54 0
 0 2 -15 73.71 11.36 0
 0 2 -14 42.67 9.18 0
 0 2 -13 182.27 13.87 0
 0 2 -12 48.16 8.04 0
 0 2 -10 201.94 11.71 0
 0 2 -7 259.35 10.2 0
 0 2 -6 14 3.48 0
 0 2 -4 568.16 11.73 0
 0 2 -3 848.27 12.95 0
 0 2 -2 2006.47 17.88 0
 0 3 -15 47.76 9.77 0
 0 3 -14 52.82 10.27 0
 0 3 -13 16.15 6.9 0
 0 3 -12 63.67 9.71 0
 0 3 -11 77.09 10.13 0
 0 3 -10 47.52 7.35 0
 0 3 -8 64.89 6.95 0
 0 3 -7 23.49 4.56 0
 0 3 -5 120.62 7.24 0
 0 3 -3 451.58 11.14 0
 0 4 -15 37.94 9.98 0
 0 4 -14 13.09 7.61 0
 0 4 -13 31.34 8.21 0
 0 4 -9 4.73 4.99 0
 0 4 -7 98.48 8.22 0
 0 4 -5 256.4 10.53 0
 0 5 -13 39.07 9.73 0
 0 5 -12 13.89 7.23 0
 0 5 -11 2.88 5.49 0
 0 5 -10 35.45 7.5 0
 0 5 -9 22.38 6.53 0
 0 5 -8 65.13 8.2 0
 1 -8 -12 17.24 6.38 0
 1 -8 -11 27.89 7.15 0
 1 -7 -13 1.69 4.61 0
 1 -6 -12 20.17 6.68 0
 1 -5 -14 46.56 8.03 0
 1 -5 -13 8.15 5.1 0
 1 -5 -12 25.16 6.35 0
 1 -5 -11 18.21 5.5 0
 1 -5 -10 7.34 4.96 0
 1 -4 -15 21.05 6.55 0
 1 -4 -14 93.49 11.07 0
 1 -4 -13 50.81 7.71 0
 1 -4 -10 19.4 5.44 0
 1 -3 -15 85.03 10.52 0
 1 -3 -14 97.93 9.97 0
 1 -3 -13 11.77 5.44 0
 1 -3 -12 4.05 4.87 0
 1 -3 -11 16.11 4.68 0
 1 -3 -8 115.67 7.05 0
 1 -2 -14 147.9 11.8 0
 1 -2 -11 14.21 5.27 0
 1 -2 -9 -1.77 2.7 0
 1 -2 -8 95.08 6.5 0
 1 -2 -7 46.23 4.59 0
 1 -2 -6 207.43 7.2 0
 1 -1 -16 2.57 5.58 0
 1 -1 -15 44.57 8.65 0
 1 -1 -14 16.68 6.01 0
 1 -1 -13 2.29 4.77 0
 1 -1 -12 32.53 6.53 0
 1 -1 -9 20.13 4.04 0
 1 -1 -8 49.53 5.19 0
 1 -1 -7 369.28 10.15 0
 1 -1 -6 675.91 12.31 0
 1 -1 -5 20.48 2.91 0
 1 -1 -4 2320.84 17.11 0
 1 0 -16 -1.48 6.68 0
 1 0 -15 13.99 7.33 0
 1 0 -14 37.62 7.66 0
 1 0 -13 75.07 9.11 0
 1 0 -12 169.48 11.37 0
 1 0 -9 83.58 6.66 0
 1 0 -7 -0.81 2.38 0
 1 0 -5 136.18 5.39 0
 1 0 -4 1445.47 13.38 0
 1 0 -3 304.48 5.16 0
 1 1 -16 2.21 6.33 0
 1 1 -15 47.55 8.89 0
 1 1 -14 8.28 6.46 0
 1 1 -12 30.1 6.89 0
 1 1 -11 106.52 9.11 0
 1 1 -9 18.81 4.34 0
 1 1 -6 676.6 12.99 0
 1 1 -5 21.17 3.03 0
 1 1 -4 2325.85 18.97 0
 1 1 -3 1136.21 11.61 0
 1 1 -2 18.77 2.32 0
 1 2 -15 14.44 7.86 0
 1 2 -14 120.36 12.38 0
 1 2 -13 8.36 5.47 0
 1 2 -11 12.18 4.99 0
 1 2 -9 0.26 3.41 0
 1 2 -7 52.34 5.08 0
 1 2 -6 214.47 8.22 0
 1 2 -5 168.64 7.03 0
 1 2 -4 149.74 6.22 0
 1 2 -3 518.11 9.75 0
 1 3 -15 89.15 11.47 0
 1 3 -13 8.02 5.78 0
 1 3 -11 13.8 5.42 0
 1 3 -7 533.68 14.63 0
 1 3 -5 31.89 4.5 0
 1 4 -15 17.2 8.55 0
 1 4 -14 104.49 12.74 0
 1 4 -12 4.52 6.38 0
 1 4 -11 31.55 6.79 0
 1 4 -10 15.25 5.7 0
 1 4 -7 91.98 8.11 0
 1 5 -12 28.47 8.01 0
 1 5 -11 18.06 6.75 0
 1 5 -10 0.77 4.66 0
 2 -8 -11 45.75 7.88 0
 2 -7 -12 26.36 6.64 0
 2 -6 -12 1.71 4.51 0
 2 -6 -10 26.67 5.46 0
 2 -5 -13 53.45 7.84 0
 2 -5 -12 5.56 4.43 0
 2 -5 -10 24.06 5.04 0
 2 -4 -14 56.51 7.86 0
 2 -4 -13 170.17 10.67 0
 2 -4 -12 2.1 4.01 0
 2 -4 -11 35.37 5.68 0
 2 -4 -8 125.65 7.3 0
 2 -3 -14 57.74 8.05 0
 2 -3 -13 47.09 7.36 0
 2 -3 -12 22.66 5.14 0
 2 -3 -10 22.24 4.34 0
 2 -3 -9 12.78 3.77 0
 2 -3 -8 28.07 3.99 0
 2 -3 -7 64.85 4.75 0
 2 -2 -13 39.02 6.59 0
 2 -2 -10 204.98 9.3 0
 2 -2 -9 59.01 5.34 0
 2 -2 -7 147.85 6.03 0
 2 -2 -6 222.21 6.64 0
 2 -2 -5 79.4 3.87 0
 2 -1 -15 14.09 5.97 0
 2 -1 -14 57.82 8.26 0
 2 -1 -13 88.81 8.67 0
 2 -1 -12 47.93 6.69 0
 2 -1 -10 10.43 3.69 0
 2 -1 -9 117.24 6.67 0
 2 -1 -8 140.07 6.5 0
 2 -1 -6 85.45 4.16 0
 2 -1 -5 44.87 2.64 0
 2 -1 -4 96.8 2.92 0
 2 0 -14 13.95 6.22 0
 2 0 -9 58.39 5.51 0
 2 0 -7 41.98 3.58 0
 2 0 -6 61.45 3.76 0
 2 0 -4 630.22 7.25 0
 2 1 -15 18.28 6.59 0
 2 1 -14 40.83 7.99 0
 2 1 -13 82.37 8.94 0
 2 1 -12 46.05 6.69 0
 2 1 -10 6.9 3.57 0
 2 1 -9 109.35 7.29 0
 2 1 -7 359.1 9.87 0
 2 1 -5 47.63 3.34 0
 2 1 -4 91.73 3.79 0
 2 2 -14 17.98 6.86 0
 2 2 -13 32.31 6.56 0
 2 2 -12 8.87 4.59 0
 2 2 -9 61.79 6.31 0
 2 2 -8 49.59 5.03 0
 2 2 -7 145.1 7.18 0
 2 2 -6 228.07 8.06 0
 2 3 -15 12.83 6.37 0
 2 3 -14 53.7 9.15 0
 2 3 -13 37.39 7.62 0
 2 3 -12 26.7 6.29 0
 2 3 -11 22.44 6.11 0
 2 3 -9 12.83 4.4 0
 2 3 -8 27.71 5.12 0
 2 3 -7 67.69 6.35 0
 3 -5 -9 144.05 7.75 0
 3 -5 -8 -0.63 2.38 0
 3 -4 -10 37.96 4.87 0
 3 -4 -9 48.21 4.66 0
 3 -4 -7 15.61 3.07 0
 3 -3 -11 14.15 3.54 0
 3 -3 -10 5.21 3.04 0
 3 -3 -8 30.78 3.38 0
 3 -3 -7 131.03 5.23 0
 3 -3 -6 239.45 6.27 0
 3 -2 -11 27.77 4.4 0
 3 -2 -10 2.93 2.65 0
 3 -2 -9 96.27 5.34 0
 3 -2 -8 115.37 5.13 0
 3 -2 -7 153.98 5.04 0
 3 -2 -6 14.1 1.73 0
 3 -2 -5 176.72 3.7 0
 3 -2 -4 31.98 1.38 0
 3 -1 -11 3.4 3.13 0
 3 -1 -10 7.48 2.95 0
 3 -1 -8 51.92 3.68 0
 3 -1 -7 211.26 5.57 0
 3 -1 -6 203.4 4.39 0
 3 0 -11 5.08 2.86 0
 3 0 -10 50.73 5.02 0
 3 0 -9 103.68 5.74 0
 3 0 -8 127.55 5.55 0
 3 0 -7 654.32 10.12 0
 3 1 -11 1.98 3.05 0
 3 1 -10 11.07 3.66 0
 3 1 -8 46.2 4.07 0
 3 2 -13 51.7 7.39 0
 3 2 -12 63.34 7.72 0
 -7 -1 6 21.46 5.08 0
 -7 0 5 10.52 3.85 0
 -7 0 6 92.36 8.78 0
 -7 0 7 -1.74 4.55 0
 -7 0 8 21.04 6.88 0
 -7 0 9 11.23 6.25 0
 -7 0 10 15.2 7.28 0
 -7 0 11 43.11 9.19 0
 -7 1 5 9.8 4.58 0
 -7 1 6 22.73 6.05 0
 -7 1 7 56.02 8.72 0
 -7 1 8 2.6 4.82 0
 -7 1 9 13.55 6.66 0
 -7 1 10 5.11 6.36 0
 -7 1 11 10.52 7.21 0
 -7 2 5 32.09 6 0
 -7 2 6 10.59 5.32 0
 -7 2 7 25.48 7.74 0
 -7 3 6 17.08 6.08 0
 -7 3 8 72.33 10.95 0
 -7 3 9 5.72 6.89 0
 -7 3 10 2.75 7.63 0
 -7 4 4 53.25 7.98 0
 -7 4 5 33.28 6.6 0
 -7 4 6 4.82 5.56 0
 -7 5 4 8.48 5.6 0
 -7 5 5 32.92 7.48 0
 -7 5 6 16.18 6.96 0
 -7 5 7 20.73 7.47 0
 -7 5 8 33.31 8.34 0
 -7 6 4 19.08 6.46 0
 -7 6 6 9.59 6.45 0
 -7 6 7 26.88 8.53 0
 -7 7 4 -1.72 5.32 0
 -6 0 5 24.12 4.85 0
 -6 1 2 22.66 3.72 0
 -6 1 5 16.04 5.29 0
 -6 1 6 55.96 7.5 0
 -6 1 7 23.07 6.72 0
 -6 1 9 16.75 6.74 0
 -6 1 10 14.08 6.86 0
 -6 1 11 59.99 9.87 0
 -6 1 12 5.75 7.96 0
 -6 2 2 0.84 2.33 0
 -6 2 4 16.47 4.95 0
 -6 2 5 75.33 7.75 0
 -6 2 6 21.47 5.68 0
 -6 2 7 19.54 6.04 0
 -6 2 8 21.56 6.54 0
 -6 2 9 7.78 5.8 0
 -6 2 10 -0.71 5.56 0
 -6 2 11 3.06 6.52 0
 -6 2 12 19.26 8.89 0
 -6 3 3 69.61 7.06 0
 -6 3 4 88.18 8.33 0
 -6 3 6 40.3 7.26 0
 -6 3 7 81.63 10.06 0
 -6 3 9 47.77 9.2 0
 -6 3 10 3.22 6.58 0
 -6 3 12 81.08 11.84 0
 -6 4 2 5.88 3.65 0
 -6 4 3 24.4 5.21 0
 -6 4 4 24.36 5.95 0
 -6 4 5 197.94 12.73 0
 -6 4 6 15.12 6.25 0
 -6 4 7 44.59 8.46 0
 -6 4 8 26.4 8.45 0
 -6 4 9 29.72 8.64 0
 -6 4 11 0.83 6.48 0
 -6 5 1 15.49 4.84 0
 -6 5 2 7.55 4.12 0
 -6 5 3 -0.67 4.13 0
 -6 5 4 96.01 9.97 0
 -6 5 5 27.06 7.56 0
 -6 5 6 5.74 6.65 0
 -6 5 7 37.34 8.51 0
 -6 5 8 121.79 13.19 0
 -6 5 10 2.96 7.28 0
 -6 5 11 15.54 8.4 0
 -6 6 1 96.75 8.9 0
 -6 6 2 34.66 6.83 0
 -6 6 3 0.14 4.52 0
 -6 6 4 26.65 6.88 0
 -6 6 5 22.58 7.43 0
 -6 6 7 9.65 6.62 0
 -6 6 8 1.12 6.29 0
 -6 6 9 73.52 11.35 0
 -6 7 2 17.17 6.06 0
 -6 7 3 24.72 7.24 0
 -6 7 5 10.06 6.71 0
 -6 7 7 116.4 13.68 0
 -6 7 8 22.04 8.26 0
 -6 8 4 8.16 7.07 0
 -6 8 5 11.19 7.81 0
 -6 8 6 8.45 8.28 0
 -5 0 0 186.38 5.32 0
 -5 1 0 187.38 6.02 0
 -5 1 2 78.84 5.44 0
 -5 1 3 48.73 5.39 0
 -5 1 4 33.7 5.63 0
 -5 1 13 13.97 7.77 0
 -5 2 -1 77.83 4.08 0
 -5 2 2 144.01 7.35 0
 -5 2 3 240.14 10.1 0
 -5 2 7 3.5 4.26 0
 -5 2 9 19.05 6.53 0
 -5 2 10 39.4 8.15 0
 -5 2 11 69.13 10.9 0
 -5 2 12 4.94 6.46 0
 -5 2 13 169.51 15.25 0
 -5 2 14 11.13 8.73 0
 -5 3 0 251.93 9.1 0
 -5 3 1 18.47 3.94 0
 -5 3 2 16.57 4.02 0
 -5 3 6 5.53 4.62 0
 -5 3 7 34.24 7.21 0
 -5 3 8 76.86 9.16 0
 -5 3 10 14.65 6.59 0
 -5 3 11 -2.71 5.94 0
 -5 3 12 1.12 6.79 0
 -5 3 13 37.35 10.67 0
 -5 4 4 112.72 9.17 0
 -5 4 5 7.74 4.79 0
 -5 4 6 28.91 7.02 0
 -5 4 7 13.27 5.86 0
 -5 4 8 89.24 10.04 0
 -5 4 9 25.67 7.38 0
 -5 4 10 6 6.59 0
 -5 4 13 59.53 11.62 0
 -5 5 1 117.07 8.6 0
 -5 5 2 18.06 5.01 0
 -5 5 3 14.09 5.34 0
 -5 5 4 9.7 5.36 0
 -5 5 5 48.7 7.72 0
 -5 5 6 64.86 9.23 0
 -5 5 8 8.66 6.35 0
 -5 5 9 39.92 9.01 0
 -5 5 10 24.47 8.86 0
 -5 5 11 -5.07 6.58 0
 -5 6 0 108.55 8.39 0
 -5 6 3 43.52 7.94 0
 -5 6 4 16.48 6.76 0
 -5 6 6 48.5 9.15 0
 -5 6 8 160.41 14.56 0
 -5 6 10 6.65 8.14 0
 -5 6 11 15.68 8.49 0
 -5 7 1 80.13 9.99 0
 -5 7 2 51.13 8.64 0
 -5 7 4 9.14 5.97 0
 -5 7 5 6.79 5.88 0
 -5 7 8 7.92 7.52 0
 -5 7 10 25.76 9.29 0
 -5 8 2 4.19 5.41 0
 -5 8 5 -0.53 7.6 0
 -5 8 7 23.87 8.34 0
 -5 8 8 27.77 9.08 0
 -5 8 9 27.1 9.37 0
 -5 9 4 -1.77 6.37 0
 -5 9 5 2.34 6.5 0
 -5 9 6 7.34 8.53 0
 -4 0 -1 11.86 1.18 0
 -4 0 0 36.87 2.53 0
 -4 1 1 35.69 3.52 0
 -4 1 2 93.15 5.43 0
 -4 1 3 29.14 4.11 0
 -4 1 14 98.65 13.18 0
 -4 2 0 99.15 5.08 0
 -4 2 1 59.64 4.67 0
 -4 2 2 4.87 3.01 0
 -4 2 3 47.67 5.39 0
 -4 2 5 6.05 3.64 0
 -4 2 7 142.41 9.66 0
 -4 2 8 139.89 10.39 0
 -4 2 10 129.92 11.02 0
 -4 2 13 18.6 7.81 0
 -4 2 14 12.98 8.06 0
 -4 3 -1 362.66 9.86 0
 -4 3 0 22.19 3.6 0
 -4 3 1 281.34 9.93 0
 -4 3 2 138.16 7.62 0
 -4 3 3 8.3 3.63 0
 -4 3 4 224 10.7 0
 -4 3 6 47.2 6.38 0
 -4 3 7 136.24 9.69 0
 -4 3 8 45.31 7.25 0
 -4 3 9 236.06 14.25 0
 -4 3 11 5.98 6 0
 -4 3 12 27.86 8.9 0
 -4 3 14 28.06 9.42 0
 -4 4 1 5.29 3.66 0
 -4 4 6 17 5.74 0
 -4 4 7 60.87 8.61 0
 -4 4 8 227.1 13.88 0
 -4 4 9 19.57 7.11 0
 -4 4 10 52.68 9.15 0
 -4 4 11 18.34 7.46 0
 -4 4 14 -5.69 7.16 0
 -4 5 -1 97.62 7.15 0
 -4 5 4 33.8 5.93 0
 -4 5 5 107.11 9.8 0
 -4 5 6 56.7 8.1 0
 -4 5 7 115.87 10.83 0
 -4 5 8 12.65 6 0
 -4 5 9 124.79 11.68 0
 -4 5 10 12.33 7.58 0
 -4 5 11 21.84 8.69 0
 -4 6 0 179.07 10.74 0
 -4 6 2 15.28 5.32 0
 -4 6 3 14.94 5.92 0
 -4 6 4 21.93 6.49 0
 -4 6 5 26.15 6.27 0
 -4 6 6 33.19 8.01 0
 -4 6 7 27.83 7.43 0
 -4 6 8 29.5 7.62 0
 -4 6 9 6.69 7.09 0
 -4 6 10 20.55 7.75 0
 -4 7 1 42.89 7.89 0
 -4 7 4 6.51 6.49 0
 -4 7 5 44.86 9.24 0
 -4 7 6 10.99 5.95 0
 -4 7 7 49.52 9.31 0
 -4 7 8 39.77 8.77 0
 -4 7 9 79.96 11.54 0
 -4 7 10 22.22 8.48 0
 -4 7 11 6.66 9.29 0
 -4 8 1 0.45 4.72 0
 -4 8 2 45.77 8.85 0
 -4 8 3 42.88 9.12 0
 -4 8 4 26.29 7.4 0
 -4 8 5 10.42 6.45 0
 -4 8 7 170.84 15.21 0
 -4 8 8 28.09 8.52 0
 -4 9 3 48.74 9.97 0
 -4 9 5 23.68 8.48 0
 -4 9 6 1.15 7.48 0
 -4 9 7 28.44 9.82 0
 -4 9 9 -4.43 8.28 0
 -4 10 4 18.99 9.12 0
 -4 10 5 19.69 8.61 0
 -4 10 6 13.36 8.52 0
 -3 0 -1 571.93 5.68 0
 -3 1 -1 3.51 1.18 0
 -3 1 1 115.34 4.85 0
 -3 1 2 245.79 7.61 0
 -3 1 15 88.05 12.16 0
 -3 2 -1 86.06 4.2 0
 -3 2 0 671.99 11.34 0
 -3 2 1 267.97 8.04 0
 -3 2 2 63.56 4.54 0
 -3 2 4 29.56 4.31 0
 -3 2 5 167.13 8.36 0
 -3 2 11 28.5 6.68 0
 -3 2 13 49.29 9.92 0
 -3 3 -1 15.22 2.78 0
 -3 3 0 180.77 7.23 0
 -3 3 2 13.34 3.26 0
 -3 3 3 53.3 5.39 0
 -3 3 4 760.04 16.99 0
 -3 3 5 473.8 14.28 0
 -3 3 9 7.18 4.24 0
 -3 3 10 7.29 4.72 0
 -3 3 11 12.66 6.93 0
 -3 3 12 102.16 12.57 0
 -3 3 14 67.9 11.02 0
 -3 3 15 46.95 10.25 0
 -3 4 -1 18.46 3.68 0
 -3 4 0 57.1 5.79 0
 -3 4 1 22.33 4.16 0
 -3 4 2 67.93 5.99 0
 -3 4 3 254.36 10.94 0
 -3 4 4 56.47 6.27 0
 -3 4 7 21.93 5.54 0
 -3 4 8 49.21 7.03 0
 -3 4 10 53.19 8.61 0
 -3 4 11 41.35 8.49 0
 -3 4 12 78.64 10.74 0
 -3 4 13 20.28 7.85 0
 -3 5 -1 22.78 4.49 0
 -3 5 0 321.65 12.2 0
 -3 5 6 57.5 7.7 0
 -3 5 8 -1.51 4.1 0
 -3 5 9 159.27 12.73 0
 -3 5 10 15.1 6.34 0
 -3 5 11 28.92 8.09 0
 -3 5 12 0.45 6.23 0
 -3 6 3 267.59 12.82 0
 -3 6 4 3.68 3.91 0
 -3 6 5 54.88 7.76 0
 -3 6 6 32.31 6.88 0
 -3 6 8 132.51 12.06 0
 -3 6 9 13.99 6.26 0
 -3 6 11 132.89 13.76 0
 -3 6 12 4.18 7.78 0
 -3 6 13 3.02 7 0
 -3 7 1 189.15 11.62 0
 -3 7 2 21.13 5.84 0
 -3 7 3 152.7 11.08 0
 -3 7 4 37.94 7.59 0
 -3 7 7 4.39 5.87 0
 -3 7 9 56.38 9.92 0
 -3 7 10 23.23 7.91 0
 -3 7 12 4.33 8.91 0
 -3 8 2 53.82 8.54 0
 -3 8 3 27.25 7.56 0
 -3 8 4 11.64 6 0
 -3 8 5 4.52 5.27 0
 -3 8 6 5.36 6.07 0
 -3 8 7 26.78 8.05 0
 -3 8 8 48 9.47 0
 -3 8 9 4.53 6.76 0
 -3 8 10 23.18 8.53 0
 -3 9 2 15.36 6.41 0
 -3 9 3 76.69 11.15 0
 -3 9 5 -0.83 6.04 0
 -3 9 7 14.6 8.84 0
 -3 9 8 36.07 9.26 0
 -3 9 10 30.04 9.36 0
 -3 10 4 13.51 8.56 0
 -3 10 5 5.2 7.28 0
 -3 10 6 3.16 6.52 0
 -3 10 7 14.56 8.07 0
 -3 10 8 23.5 10.37 0
 -2 1 0 576.64 7.99 0
 -2 1 15 16.02 7.57 0
 -2 2 -1 137.61 4.86 0
 -2 2 0 778.55 11.5 0
 -2 2 2 329.55 8.54 0
 -2 2 4 327.87 9.81 0
 -2 2 5 76.29 5.8 0
 -2 2 11 12.73 5.36 0
 -2 2 12 9.72 6.32 0
 -2 2 13 39.95 8.52 0
 -2 2 14 18.45 7.58 0
 -2 2 15 47.7 10.42 0
 -2 3 -1 537.34 11.07 0
 -2 3 0 347.7 9.12 0
 -2 3 1 1017.23 16.03 0
 -2 3 2 115.16 6.08 0
 -2 3 3 85.26 5.97 0
 -2 3 4 209.44 8.65 0
 -2 3 5 65.31 6.09 0
 -2 3 9 12.98 5.33 0
 -2 3 10 24.74 6.27 0
 -2 3 11 27.35 7.31 0
 -2 3 12 33.89 8.1 0
 -2 3 13 43.46 8.34 0
 -2 3 14 48.71 10.14 0
 -2 3 15 14.06 8.41 0
 -2 4 -1 21.36 4 0
 -2 4 3 12.68 3.57 0
 -2 4 5 176.97 9.19 0
 -2 4 8 119.76 9.09 0
 -2 4 9 86.66 9.15 0
 -2 4 10 36.1 7.31 0
 -2 4 11 35.49 8.07 0
 -2 4 12 4.19 5.97 0
 -2 4 13 158.89 14.05 0
 -2 4 15 0.33 6.81 0
 -2 5 2 109.72 7.32 0
 -2 5 4 16.35 4.17 0
 -2 5 7 31.01 6.28 0
 -2 5 8 170.7 11.34 0
 -2 5 9 30.95 6.7 0
 -2 5 10 29.84 7.83 0
 -2 5 11 208.4 14.65 0
 -2 5 13 46.76 9.62 0
 -2 6 5 6.51 4.63 0
 -2 6 7 14.47 5.17 0
 -2 6 8 132.52 11 0
 -2 6 9 84.11 10.55 0
 -2 6 11 64.11 10.62 0
 -2 6 13 82.2 11.82 0
 -2 7 1 1.62 3.85 0
 -2 7 6 53.31 8.66 0
 -2 7 7 19.8 7 0
 -2 7 8 67.15 9.67 0
 -2 7 10 3.01 6.18 0
 -2 7 11 110.96 12.12 0
 -2 7 13 19.76 8.84 0
 -2 8 2 58.33 8.91 0
 -2 8 4 12.83 5.68 0
 -2 8 5 -0.05 5.61 0
 -2 8 7 16.01 6.83 0
 -2 8 8 74.46 11.43 0
 -2 8 9 1.55 6.34 0
 -2 8 10 71.74 11.62 0
 -2 8 11 56.15 10.75 0
 -2 8 12 -2.27 6.49 0
 -2 9 3 7.3 5.29 0
 -2 9 4 66.83 9.86 0
 -2 9 5 4.52 5.86 0
 -2 9 7 2.32 6.23 0
 -2 9 9 32.99 9.08 0
 -2 9 10 3.32 8.01 0
 -2 10 4 4.02 6.57 0
 -2 10 5 12.76 7.35 0
 -2 10 6 -3.11 6.01 0
 -2 10 7 38.22 10.19 0
 -2 10 8 17.98 8.4 0
 -2 10 9 2.56 7.11 0
 -1 0 16 -0.63 6.14 0
 -1 1 0 5215.74 19.8 0
 -1 1 1 439.69 6.77 0
 -1 1 14 9.77 6.59 0
 -1 1 16 -4.57 5.26 0
 -1 2 -1 1183.94 12.57 0
 -1 2 0 2109.28 16.96 0
 -1 2 1 1957.9 17.09 0
 -1 2 2 995.83 13.33 0
 -1 2 5 157.48 7.05 0
 -1 2 10 12.72 4.72 0
 -1 2 12 37.95 7.35 0
 -1 2 15 12.39 6.3 0
 -1 3 -1 392.41 8.82 0
 -1 3 0 263.67 7.93 0
 -1 3 1 365.06 9.11 0
 -1 3 2 350.65 9.35 0
 -1 3 3 26.97 4.03 0
 -1 3 5 35.66 4.39 0
 -1 3 6 692.08 16.08 0
 -1 3 7 534.34 14.86 0
 -1 3 10 86.47 8.44 0
 -1 3 11 14.26 5.54 0
 -1 3 12 8 5.41 0
 -1 3 13 2.29 6.21 0
 -1 3 14 102.46 12.19 0
 -1 3 15 93.75 12.27 0
 -1 4 0 168.76 7.53 0
 -1 4 1 1327.56 19.71 0
 -1 4 2 374.49 10.73 0
 -1 4 3 406.02 11.68 0
 -1 4 4 63.22 6.04 0
 -1 4 5 18.3 4.32 0
 -1 4 9 98.43 9.03 0
 -1 4 10 22.34 6.17 0
 -1 4 11 21.71 6.44 0
 -1 4 12 3.12 5.82 0
 -1 4 13 38.79 8.75 0
 -1 4 14 101.16 11.05 0
 -1 5 1 96.25 6.96 0
 -1 5 2 245.76 10.22 0
 -1 5 3 0.78 2.67 0
 -1 5 4 403.23 13.27 0
 -1 5 8 80.84 8.68 0
 -1 5 9 143.71 10.98 0
 -1 5 10 9 5.53 0
 -1 5 11 19.5 6.26 0
 -1 5 12 20.6 7.45 0
 -1 5 14 51.94 10.12 0
 -1 6 2 70.44 7.03 0
 -1 6 6 51.15 6.86 0
 -1 6 8 11.28 5.13 0
 -1 6 12 24.98 7.83 0
 -1 6 13 32.85 8.58 0
 -1 6 14 26.57 7.87 0
 -1 7 2 41.5 7.17 0
 -1 7 4 152.61 11.17 0
 -1 7 5 28.47 6.14 0
 -1 7 6 39.5 7.71 0
 -1 7 7 45.4 8.04 0
 -1 7 8 4.5 5.34 0
 -1 7 9 40.35 8.81 0
 -1 7 10 9.11 6.15 0
 -1 7 12 29.94 8.89 0
 -1 7 13 2.59 6.66 0
 -1 8 2 49.87 7.73 0
 -1 8 3 123.36 10.97 0
 -1 8 4 112.08 10.11 0
 -1 8 7 42.95 8.51 0
 -1 8 9 13.22 6.77 0
 -1 8 10 10.6 6.79 0
 -1 8 11 18.18 7.37 0
 -1 9 4 194.79 14.09 0
 -1 10 5 17.36 7.16 0
 -1 10 6 4.51 6.64 0
 -1 10 7 16.38 7.98 0
 -1 10 9 39.39 9.65 0
 0 1 1 496.58 5.94 0
 0 1 2 480.65 6.92 0
 0 1 14 47.82 8.08 0
 0 1 15 21.86 6.9 0
 0 2 0 9876.25 34.41 0
 0 2 1 191.67 5.18 0
 0 2 2 2006.37 16.8 0
 0 2 3 831.44 11.64 0
 0 2 4 571.07 10.83 0
 0 2 6 15.77 3.62 0
 0 2 7 276.51 9.95 0
 0 2 11 46.15 6.61 0
 0 2 12 48.94 7.05 0
 0 2 14 30.42 6.98 0
 0 2 15 90.7 10.15 0
 0 3 1 569.68 10.91 0
 0 3 2 794.97 12.8 0
 0 3 3 444.69 10.2 0
 0 3 4 97.21 5.44 0
 0 3 5 122.83 6.24 0
 0 3 6 19.05 3.74 0
 0 3 8 66.4 6.08 0
 0 3 11 66.53 8.34 0
 0 3 12 64 8.33 0
 0 3 13 24.51 6.61 0
 0 3 14 38.7 7.74 0
 0 3 15 43.82 8.72 0
 0 4 2 448.39 11.29 0
 0 4 5 256.63 9.68 0
 0 4 6 5.1 3.52 0
 0 4 10 244.7 12.78 0
 0 4 12 2.41 5.3 0
 0 4 14 11.97 6.27 0
 0 4 15 28.89 8.05 0
 0 5 1 170.77 8.1 0
 0 5 4 57.63 5.96 0
 0 5 5 5.79 3.9 0
 0 5 6 125.02 8.25 0
 0 5 9 25.36 5.75 0
 0 5 12 11.15 5.85 0
 0 5 14 102.5 10.59 0
 0 6 2 56.43 6.57 0
 0 6 3 267.82 11.68 0
 0 6 7 68.78 7.89 0
 0 6 8 19.44 6.07 0
 0 6 9 57.28 8.16 0
 0 6 10 131.98 11.26 0
 0 6 12 1.82 5.5 0
 0 6 13 0.05 5.58 0
 0 7 4 9.02 4.24 0
 0 7 5 26.98 5.97 0
 0 7 7 221.92 12.79 0
 0 7 8 96.85 10 0
 0 7 9 4.21 5.24 0
 0 7 10 47.95 8.99 0
 0 7 11 7.11 5.74 0
 0 7 12 3.44 6.03 0
 0 7 13 14.02 6.44 0
 0 8 3 133.6 9.94 0
 0 8 4 204.47 12.91 0
 0 8 5 14.21 5.75 0
 0 8 6 3.06 5.09 0
 0 8 7 0.56 4.78 0
 0 8 8 5.63 6.81 0
 0 8 10 37.86 8.44 0
 0 8 12 51.76 10.16 0
 0 9 5 70.3 9.43 0
 0 9 6 13.58 6.58 0
 0 9 8 54.13 10.29 0
 0 9 9 16.25 7.51 0
 0 9 10 5.9 6.62 0
 0 10 8 28.19 8.13 0
 0 10 9 27.01 8.22 0
 1 0 14 33.61 6.39 0
 1 1 3 54.15 2.44 0
 1 1 12 4.7 3.7 0
 1 2 1 1130.18 10.8 0
 1 2 2 14.21 2.06 0
 1 2 3 568.32 8.61 0
 1 2 4 33.62 2.99 0
 1 2 6 445 10.12 0
 1 2 7 199.03 7.83 0
 1 2 8 470.14 12.31 0
 1 2 9 99.07 6.77 0
 1 2 10 32.52 5.37 0
 1 2 12 2.16 4.3 0
 1 2 13 1.27 3.7 0
 1 3 2 101.44 4.68 0
 1 3 3 70.16 4.12 0
 1 3 4 398.92 9.21 0
 1 3 5 23.03 3.28 0
 1 3 7 68.43 5.56 0
 1 3 9 104.11 7.43 0
 1 3 11 22.97 4.74 0
 1 3 12 -3.3 3.06 0
 1 3 13 116.21 9.48 0
 1 4 2 68.9 4.99 0
 1 4 4 44.63 4.62 0
 1 4 5 161.72 7.18 0
 1 4 6 98.22 6.27 0
 1 4 8 53.63 5.67 0
 1 4 11 38.82 6.74 0
 1 4 12 8.38 4.6 0
 1 5 2 70.82 5.49 0
 1 5 3 -0.75 2.64 0
 1 5 4 453.3 13 0
 1 5 5 19.45 4.21 0
 1 5 6 300.57 11.34 0
 1 5 7 18.34 4.92 0
 1 5 11 3.05 3.85 0
 1 5 12 20.39 6.01 0
 1 6 3 88.39 7.24 0
 1 6 5 175.54 9.88 0
 1 6 8 13.63 5.32 0
 1 6 10 46.89 7.7 0
 1 6 11 106.45 9.84 0
 1 6 12 21.42 6.34 0
 1 7 6 58.33 7.53 0
 1 7 7 11.67 4.89 0
 1 7 8 18.04 5.68 0
 1 7 9 87.44 8.79 0
 1 7 10 39.5 7.25 0
 1 7 11 11.74 5.45 0
 1 8 6 -1.03 4.53 0
 1 8 7 250.09 14 0
 1 8 8 1.03 4.8 0
 1 8 9 16.64 5.93 0
 1 8 10 28.42 7.43 0
 1 8 11 -0.79 4.77 0
 1 9 8 10.51 6.43 0
 1 9 9 43.69 8.45 0
 1 9 10 16.2 6.68 0
 2 1 4 111.24 2.72 0
 2 1 5 21.05 1.89 0
 2 1 6 24.51 2.48 0
 2 1 7 44.12 3.38 0
 2 1 8 60.03 4.24 0
 2 1 10 23.92 3.85 0
 2 1 11 25.23 4.31 0
 2 2 4 299.17 5.73 0
 2 2 5 57.65 3.13 0
 2 2 7 231.49 7.08 0
 2 2 8 21.82 3.14 0
 2 2 9 118.06 6.22 0
 2 2 10 15.38 3.52 0
 2 3 4 301.8 7.24 0
 2 3 6 15.96 2.58 0
 2 3 8 61.45 4.79 0
 2 3 9 10.29 3.17 0
 2 3 10 -2.21 2.49 0
 2 4 4 200.52 7.15 0
 2 4 6 446.8 11.08 0
 2 4 9 48.18 5.21 0
 2 4 10 42.21 5.39 0
 2 5 5 4.8 3.34 0
 2 5 7 101.96 6.99 0
 2 5 8 16.46 4.01 0
 2 6 6 107.68 7.48 0
 2 6 9 24.34 4.78 0
 2 7 7 6.38 4.1 0
 2 7 8 9.31 4.21 0
 2 7 9 14.08 4.56 0
 -8 -5 2 12.62 8.15 0
 -8 -4 -1 6.91 8.09 0
 -8 -4 0 27 9.82 0
 -8 -4 1 32.94 10.22 0
 -8 -4 2 4.21 6.93 0
 -8 -4 3 42.74 9.29 0
 -8 -3 -3 10.37 7.26 0
 -8 -3 -2 1.34 6.15 0
 -8 -3 1 19.17 7.44 0
 -8 -3 2 25.15 7.56 0
 -7 -7 -1 5.73 8.36 0
 -7 -7 0 -0.8 7.96 0
 -7 -7 1 7.6 8.55 0
 -7 -7 2 19.86 9.22 0
 -7 -7 4 -3.4 7.17 0
 -7 -6 -3 -0.09 7.41 0
 -7 -6 -2 -2.11 7.48 0
 -7 -6 1 32.06 9.55 0
 -7 -6 2 -0.6 6.93 0
 -7 -6 3 27.89 10.28 0
 -7 -6 4 17.95 9.06 0
 -7 -6 5 23.35 9.17 0
 -7 -6 6 -2.3 6.97 0
 -7 -5 -5 6.31 7.94 0
 -7 -5 -4 6.57 7.7 0
 -7 -5 -3 10.41 7.73 0
 -7 -5 -2 7.29 7.77 0
 -7 -5 -1 6.31 7.51 0
 -7 -5 0 2.35 6.89 0
 -7 -5 1 63.97 11.03 0
 -7 -5 2 25.17 8.49 0
 -7 -5 4 8.81 8.03 0
 -7 -5 6 15.07 7.91 0
 -7 -5 7 20.31 8.26 0
 -7 -5 8 32.62 9.81 0
 -7 -4 -6 3.62 9.06 0
 -7 -4 -4 26.39 8.9 0
 -7 -4 -3 38.42 9.8 0
 -7 -4 0 141.59 12.81 0
 -7 -4 2 18.11 7.71 0
 -7 -4 3 65.44 10.55 0
 -7 -4 4 50.06 9.69 0
 -7 -4 6 1.35 6.28 0
 -7 -4 7 3.23 6.58 0
 -7 -4 8 65.54 11.88 0
 -7 -4 9 23.71 8.57 0
 -7 -3 -7 17.07 8.58 0
 -7 -3 -5 26.23 9.34 0
 -7 -3 -4 10.74 6.87 0
 -7 -3 -3 31.19 9.05 0
 -7 -3 -2 10 6.61 0
 -7 -3 -1 30.29 8.28 0
 -7 -3 0 0.57 5.97 0
 -7 -3 1 7.56 5.74 0
 -7 -3 2 -1.06 5.59 0
 -7 -3 3 26.6 7.64 0
 -7 -3 4 30.67 7.61 0
 -7 -3 5 49.09 8.84 0
 -7 -3 6 7.04 5.94 0
 -7 -3 7 38.53 8.4 0
 -7 -3 8 68.26 10.32 0
 -7 -3 9 1.04 5.68 0
 -7 -2 -7 1.96 7.2 0
 -7 -2 -5 17 7.53 0
 -7 -2 -4 -1 5.67 0
 -7 -2 -3 30.78 7.66 0
 -7 -2 -2 12.75 6.1 0
 -7 -2 -1 86.45 10.31 0
 -7 -2 0 27 7.4 0
 -7 -2 1 20 6.77 0
 -7 -2 3 138.22 10.72 0
 -7 -2 4 17.01 6.08 0
 -7 -2 5 25.07 6.13 0
 -7 -2 6 11.57 5.25 0
 -7 -1 -7 7.45 7.09 0
 -7 -1 -5 3.79 5.49 0
 -7 -1 -4 16.84 7.18 0
 -7 -1 -3 12.33 5.48 0
 -7 -1 -2 0.93 4.39 0
 -6 -8 -3 10.23 8.9 0
 -6 -8 -2 17.22 9.2 0
 -6 -8 0 5.14 9.45 0
 -6 -8 1 0.49 8.36 0
 -6 -8 2 28.73 9.56 0
 -6 -8 4 17.69 9.27 0
 -6 -8 5 10.67 8.4 0
 -6 -7 -5 30.45 9.94 0
 -6 -7 -4 10.55 9.18 0
 -6 -7 -3 9.85 8.06 0
 -6 -7 -2 4.64 7.47 0
 -6 -7 -1 55.12 11.81 0
 -6 -7 0 34.52 9.57 0
 -6 -7 1 38.63 9.89 0
 -6 -7 2 23.44 8.71 0
 -6 -7 3 19.42 9.09 0
 -6 -7 5 15.96 9.61 0
 -6 -7 6 9.14 8.76 0
 -6 -7 8 29.16 10.57 0
 -6 -6 -7 -1.39 7.69 0
 -6 -6 -2 126.25 14.52 0
 -6 -6 -1 3.3 6.78 0
 -6 -6 0 22.55 8.57 0
 -6 -6 1 94.21 12.46 0
 -6 -6 3 5.23 6.5 0
 -6 -6 5 8.89 8.03 0
 -6 -6 8 2.07 7.36 0
 -6 -5 -8 25.92 11.09 0
 -6 -5 -6 16.54 9.94 0
 -6 -5 -5 19.64 8.33 0
 -6 -5 -3 61.72 11.84 0
 -6 -5 -1 36.45 8.42 0
 -6 -5 0 152 13.9 0
 -6 -5 1 18.77 7.59 0
 -6 -5 3 -0.31 5.54 0
 -6 -5 4 101.9 11.88 0
 -6 -5 5 25.32 8.23 0
 -6 -5 6 5.68 6.93 0
 -6 -5 7 56.09 10.72 0
 -6 -4 -8 31.98 9.87 0
 -6 -4 -6 31.13 8.8 0
 -6 -4 -5 14.6 8.58 0
 -6 -4 -4 26.05 8.07 0
 -6 -4 -3 51.15 9.15 0
 -6 -4 -2 38.36 8.5 0
 -6 -4 -1 5.46 5.78 0
 -6 -4 1 32.17 7.69 0
 -6 -4 2 3.04 5.59 0
 -6 -4 3 21.92 7.57 0
 -6 -4 4 27.71 7.35 0
 -6 -4 5 211.74 14.39 0
 -6 -4 6 32.16 8.64 0
 -6 -3 -9 5.65 7.77 0
 -6 -3 -7 23.97 8.12 0
 -6 -3 -6 -2.39 6.99 0
 -6 -3 -5 32.5 8.45 0
 -6 -3 -2 13.05 6.01 0
 -6 -3 -1 59.01 9.54 0
 -6 -3 1 4.9 5.18 0
 -6 -3 2 0.89 4.75 0
 -6 -3 3 66.72 9.16 0
 -6 -3 4 78.05 9.21 0
 -6 -2 -8 12.78 8.92 0
 -6 -2 -7 45.98 9.9 0
 -6 -2 -5 27.22 7.72 0
 -6 -2 -4 25.35 7.23 0
 -6 -2 -3 12.9 6.03 0
 -6 -2 -2 52.06 8.38 0
 -6 -2 -1 11.63 5.82 0
 -6 -2 0 53.99 7.81 0
 -6 -2 1 74.82 8.55 0
 -6 -2 4 14.2 5.39 0
 -6 -2 5 71.82 8.6 0
 -6 -1 -8 136.35 14.18 0
 -6 -1 -7 0.07 5.88 0
 -6 -1 -6 11.15 6.52 0
 -6 -1 -5 0.66 5.51 0
 -6 -1 -4 22.8 7.26 0
 -6 -1 -3 2.35 5.11 0
 -6 -1 -2 13.47 5.06 0
 -6 -1 6 41.67 6.98 0
 -6 0 -6 3.78 5.58 0
 -6 0 -5 7.95 5.54 0
 -6 0 -4 24.54 6.06 0
 -6 0 -3 76.24 7.95 0
 -6 0 0 103.78 7.88 0
 -6 0 1 105.4 7.46 0
 -6 0 2 28.42 4.69 0
 -6 0 3 14.92 3.64 0
 -6 1 -5 5.12 4.53 0
 -6 1 -4 20.35 5.45 0
 -5 -10 1 44.04 11.03 0
 -5 -10 2 22.35 10.1 0
 -5 -10 3 35.77 10.68 0
 -5 -9 -4 2.49 7.91 0
 -5 -9 -3 35.87 10.09 0
 -5 -9 -2 5.78 8.93 0
 -5 -9 0 5.13 7.65 0
 -5 -9 1 5.02 7.78 0
 -5 -9 2 38.35 11.11 0
 -5 -9 4 -0.35 7.74 0
 -5 -9 5 2.67 7.82 0
 -5 -9 6 13.46 10.01 0
 -5 -8 -6 12.93 8.76 0
 -5 -8 -5 14.46 8.85 0
 -5 -8 -4 12.76 7.99 0
 -5 -8 -2 18.63 8.34 0
 -5 -8 -1 35.34 9.3 0
 -5 -8 0 25.41 8.62 0
 -5 -8 2 4.23 6.92 0
 -5 -8 3 37.69 9.71 0
 -5 -8 4 38.21 10.07 0
 -5 -8 5 2.99 7.47 0
 -5 -8 6 70.1 11.87 0
 -5 -8 7 22.27 9.9 0
 -5 -7 -8 37.59 10.61 0
 -5 -7 -7 -7.82 8.2 0
 -5 -7 -6 75.85 12.15 0
 -5 -7 -5 23.71 8.76 0
 -5 -7 -4 19.37 8.85 0
 -5 -7 -3 54.15 10.36 0
 -5 -7 -2 36.1 8.89 0
 -5 -7 -1 98.28 12.36 0
 -5 -7 0 25.66 8.83 0
 -5 -7 3 33.76 10.04 0
 -5 -7 4 7.18 6.31 0
 -5 -7 5 5.6 7.32 0
 -5 -7 6 48.72 10.4 0
 -5 -6 -8 13.69 9.61 0
 -5 -6 -6 3.79 6.38 0
 -5 -6 -4 27.31 8.59 0
 -5 -6 -3 58.14 10.54 0
 -5 -6 -2 3.85 6.35 0
 -5 -6 -1 18.38 7.53 0
 -5 -6 0 119.82 12.93 0
 -5 -6 1 44.9 9.58 0
 -5 -6 2 8.04 5.97 0
 -5 -6 4 9.84 6.97 0
 -5 -6 5 22.45 8.02 0
 -5 -5 -10 -5.68 9.19 0
 -5 -5 -9 33.39 10.09 0
 -5 -5 -8 18.85 10.39 0
 -5 -5 -7 15.59 7.95 0
 -5 -5 -5 36.07 8.19 0
 -5 -5 -4 9.61 6.03 0
 -5 -5 -3 78.44 10.33 0
 -5 -5 -2 37.36 8.45 0
 -5 -5 -1 45.66 8.16 0
 -5 -5 0 59.95 9.05 0
 -5 -5 3 17.39 6.22 0
 -5 -5 5 59.57 9.86 0
 -5 -4 -9 0.46 7.05 0
 -5 -4 -8 31.22 9.52 0
 -5 -4 -7 92.18 13.08 0
 -5 -4 -6 1.01 5.65 0
 -5 -4 -5 27.74 8.18 0
 -5 -4 -4 96.89 11.19 0
 -5 -4 -3 2.26 5.02 0
 -5 -4 0 129.97 10.64 0
 -5 -4 1 143.46 11.83 0
 -5 -4 2 36.44 6.97 0
 -5 -4 3 117.11 10.18 0
 -5 -4 4 111.58 10.45 0
 -5 -3 -10 80.66 13.42 0
 -5 -3 -9 121.52 14.73 0
 -5 -3 -8 68.42 11.79 0
 -5 -3 -7 38.44 9.04 0
 -5 -3 -6 82.14 10.71 0
 -5 -3 -5 3.7 5.17 0
 -5 -3 -4 -2.22 4.92 0
 -5 -3 -2 146.77 11.02 0
 -5 -2 -9 27.48 8.48 0
 -5 -2 -8 34.39 8.5 0
 -5 -2 -7 25.14 7.59 0
 -5 -2 -6 13.06 6.34 0
 -5 -2 -5 36.32 7.68 0
 -5 -2 -4 32.36 7 0
 -5 -2 0 99.41 8.92 0
 -5 -2 2 158.24 10.15 0
 -5 -1 -8 20.45 7.42 0
 -5 -1 -6 9.43 5.85 0
 -5 -1 -5 45.15 7.6 0
 -5 -1 -2 400.89 15.04 0
 -5 -1 -1 26.68 5.23 0
 -5 -1 1 7.79 3.68 0
 -5 -1 2 81.38 7.31 0
 -5 0 -6 4.29 4.99 0
 -5 0 -2 1.14 3.05 0
 -5 0 -1 154.46 8.68 0
 -5 0 1 74.97 6.05 0
 -5 0 2 305.25 10.93 0
 -5 0 3 294.25 10.68 0
 -5 1 -4 14.44 4.41 0
 -5 1 -3 32.11 5.09 0
 -5 1 -2 419.02 13.01 0
 -5 1 1 9.76 2.72 0
 -5 1 2 78.73 5.13 0
 -5 1 3 45.6 4.38 0
 -5 1 4 34.08 4.12 0
 -5 2 -3 66.04 5.8 0
 -5 2 -2 20.53 3.69 0
 -5 2 -1 84.46 5.3 0
 -5 2 0 108.87 5.28 0
 -4 -10 -3 45.74 11.14 0
 -4 -10 -2 9.32 7.59 0
 -4 -10 -1 10.59 7.9 0
 -4 -10 0 3.39 7.86 0
 -4 -10 1 11.29 8.12 0
 -4 -10 2 41.83 10.89 0
 -4 -10 3 11.89 8.66 0
 -4 -10 5 10.67 8.34 0
 -4 -10 6 1.5 8.19 0
 -4 -9 -7 1.26 8.7 0
 -4 -9 -6 34.59 9.86 0
 -4 -9 -5 86.99 12.85 0
 -4 -9 -4 5.17 7.46 0
 -4 -9 -3 31.44 10.38 0
 -4 -9 -2 5.11 7.24 0
 -4 -9 -1 50.51 10.12 0
 -4 -9 2 165.76 14.85 0
 -4 -9 4 3.87 8.38 0
 -4 -9 5 25.27 9.04 0
 -4 -9 6 7.36 7.92 0
 -4 -9 7 41.19 11.17 0
 -4 -8 -8 36.46 10.68 0
 -4 -8 -7 22.87 10.09 0
 -4 -8 -5 33.37 8.79 0
 -4 -8 0 115.83 12.68 0
 -4 -8 1 6.07 7.73 0
 -4 -8 2 34.73 8.63 0
 -4 -8 4 26.6 8.32 0
 -4 -8 5 15.9 8.84 0
 -4 -7 -9 8.23 8.27 0
 -4 -7 -8 19.15 8.44 0
 -4 -7 -7 22.32 8.82 0
 -4 -7 -6 4.63 6.81 0
 -4 -7 -4 33.47 8.59 0
 -4 -7 -2 34.21 7.94 0
 -4 -7 -1 3.15 6.34 0
 -4 -7 0 74.45 10.16 0
 -4 -7 1 50.32 8.91 0
 -4 -7 2 74.07 11.06 0
 -4 -7 3 7.65 6.01 0
 -4 -7 4 7.79 6.18 0
 -4 -6 -10 8.34 8.14 0
 -4 -6 -8 33.54 10.64 0
 -4 -6 -7 41.27 9.36 0
 -4 -6 -6 8.63 7.56 0
 -4 -6 -5 -2.72 4.89 0
 -4 -6 -4 16.26 6.47 0
 -4 -6 -3 3.88 5.6 0
 -4 -6 -2 14.15 6.07 0
 -4 -6 -1 0.64 4.23 0
 -4 -6 0 168.51 12.69 0
 -4 -6 4 22.89 6.09 0
 -4 -5 -11 103.76 15.41 0
 -4 -5 -10 5.44 7.94 0
 -4 -5 -8 44.83 9.59 0
 -4 -5 -6 5.53 6.42 0
 -4 -5 -4 127.84 11.38 0
 -4 -5 -3 260.77 14.39 0
 -4 -5 -2 72.93 8.55 0
 -4 -5 -1 100.42 9.01 0
 -4 -5 0 9.85 4.55 0
 -4 -5 2 16.21 5.35 0
 -4 -5 3 38.27 6.78 0
 -4 -4 -10 21.26 8.34 0
 -4 -4 -8 21.09 8.25 0
 -4 -4 -7 22.96 7.18 0
 -4 -4 -4 45.31 7.43 0
 -4 -3 -7 23.75 6.93 0
 -4 -3 -6 149.87 11.56 0
 -4 -3 -5 24.23 5.85 0
 -4 -3 -1 374.99 14.56 0
 -4 -3 2 123.97 8.69 0
 -4 -2 -9 44.68 8.87 0
 -4 -2 -8 47.82 9.01 0
 -4 -2 -7 -0.15 5.35 0
 -4 -2 -6 146.38 11.17 0
 -4 -2 -3 17.62 4.93 0
 -4 -2 -1 24.08 4.81 0
 -4 -2 2 7.39 3.74 0
 -4 -1 -8 11.54 6.69 0
 -4 -1 -7 23.38 6.53 0
 -4 -1 -4 340.31 13.65 0
 -4 -1 -3 218.9 10.92 0
 -4 -1 -2 291.17 11.4 0
 -4 -1 0 18.66 4.01 0
 -4 -1 1 34.42 4.84 0
 -4 -1 2 89.61 6.19 0
 -4 0 -7 21.51 5.91 0
 -4 0 -5 1.18 3.55 0
 -4 0 -4 7.68 3.99 0
 -4 0 -3 72.16 6.08 0
 -4 0 -1 11.76 3.14 0
 -4 0 0 37.02 4.1 0
 -4 0 1 10.91 2.86 0
 -4 0 2 1.33 2.46 0
 -4 0 3 213.11 8.29 0
 -4 1 -4 356.06 12.75 0
 -4 1 -3 217.85 9.49 0
 -4 1 -1 1238.1 18.47 0
 -4 2 -3 14.59 3.32 0
 -4 2 -2 49.11 4.39 0
 -4 2 1 61.61 3.34 0
 -4 2 2 7.43 1.6 0
 -4 2 3 48.3 3.07 0
 -3 -11 -3 72.99 12.06 0
 -3 -11 -2 7.73 7.51 0
 -3 -11 -1 -4.61 5.83 0
 -3 -11 0 29.1 9.14 0
 -3 -11 2 1.56 7.75 0
 -3 -11 3 10.15 9.36 0
 -3 -11 4 9.12 7.49 0
 -3 -11 5 19.24 8.63 0
 -3 -10 -6 10.11 7.28 0
 -3 -10 -5 49.63 10.58 0
 -3 -10 -4 5.86 7.88 0
 -3 -10 -2 7.65 7.88 0
 -3 -10 -1 7.39 6.82 0
 -3 -10 0 13.27 7.55 0
 -3 -10 2 44.64 10.02 0
 -3 -10 4 10.95 8.51 0
 -3 -10 5 -0.47 6.42 0
 -3 -10 6 -0.8 7.2 0
 -3 -10 7 13.28 9.32 0
 -3 -9 -6 7.9 8.2 0
 -3 -9 -5 27.32 9.2 0
 -3 -9 -4 67.29 11.51 0
 -3 -9 -2 12.28 6.61 0
 -3 -9 -1 4.71 6.37 0
 -3 -9 0 43.18 8.99 0
 -3 -9 1 13.09 7.04 0
 -3 -9 2 11.4 7.41 0
 -3 -9 3 67.97 10.5 0
 -3 -9 4 96.16 12.77 0
 -3 -8 -9 1.99 7.65 0
 -3 -8 -8 70.05 12.57 0
 -3 -8 -6 16.09 8.37 0
 -3 -8 -5 16.91 7.27 0
 -3 -8 -3 4.81 6.43 0
 -3 -8 -2 27.91 7.39 0
 -3 -8 -1 23.26 7.5 0
 -3 -8 1 4.17 5.73 0
 -3 -8 2 43.73 8.16 0
 -3 -8 4 20.16 7.05 0
 -3 -7 -11 6.49 8.04 0
 -3 -7 -9 3.37 7.57 0
 -3 -7 -8 60.75 11.51 0
 -3 -7 -6 2.53 5.66 0
 -3 -7 -4 40.76 8.02 0
 -3 -7 -3 50.64 8.36 0
 -3 -7 -2 7.87 5.48 0
 -3 -7 -1 11.03 5.46 0
 -3 -7 0 363.35 17.16 0
 -3 -7 1 183.88 12.45 0
 -3 -7 2 22.25 7.04 0
 -3 -6 -11 20.72 9.53 0
 -3 -6 -10 127.07 14.99 0
 -3 -6 -9 13.23 7.3 0
 -3 -6 -8 99.46 11.51 0
 -3 -6 -7 14.29 6.99 0
 -3 -6 -6 71.23 10.04 0
 -3 -6 -4 34.97 7.42 0
 -3 -6 -3 26.98 6.94 0
 -3 -5 -9 7.44 6.34 0
 -3 -5 -7 95.07 10.25 0
 -3 -5 -6 80.22 9.68 0
 -3 -5 0 298.53 13.28 0
 -3 -5 1 420.25 15.51 0
 -3 -5 2 16.74 4.96 0
 -3 -4 -10 86.49 12.22 0
 -3 -4 -9 3.35 5.78 0
 -3 -4 -8 122.73 11.44 0
 -3 -4 -7 50.43 8.47 0
 -3 -4 -3 166.62 9.88 0
 -3 -4 -2 104.99 8.46 0
 -3 -4 0 58.31 6.23 0
 -3 -3 -10 5.52 6.49 0
 -3 -3 -9 9.8 6.27 0
 -3 -3 -8 32.37 7 0
 -3 -3 -4 285.06 12.5 0
 -3 -3 -3 93.28 7.48 0
 -3 -2 -9 49.23 8.3 0
 -3 -2 -5 107.35 8.18 0
 -3 -2 -3 114.01 7.52 0
 -3 -1 -6 139.27 9.41 0
 -3 -1 -5 3.25 3.53 0
 -3 -1 -3 144.96 8.24 0
 -3 -1 0 406.6 11.09 0
 -3 -1 1 113.23 6.11 0
 -3 0 -6 5.68 4.1 0
 -3 0 -5 427.61 14.15 0
 -3 0 -4 3.61 3.17 0
 -3 0 -1 574.15 12.05 0
 -3 0 0 488.92 10.62 0
 -3 0 1 455.05 10.08 0
 -3 1 -5 8.94 3.94 0
 -3 1 -4 256.08 9.87 0
 -3 1 1 115.91 4.46 0
 -3 2 -2 8.93 2.4 0
 -3 2 -1 83.23 3.92 0
 -3 2 0 661.85 8.69 0
 -3 2 1 260.18 4.67 0
 -3 2 2 62.17 2.42 0
 -2 -11 -5 2.93 6.06 0
 -2 -11 -4 14.53 6.99 0
 -2 -11 -3 33.74 8.11 0
 -2 -11 -2 20.39 7.52 0
 -2 -11 -1 19.5 7.45 0
 -2 -11 0 2.44 5.86 0
 -2 -11 1 8.54 6.44 0
 -2 -11 2 16.76 8.03 0
 -2 -11 3 -9.5 5.53 0
 -2 -11 4 31.31 9.48 0
 -2 -11 5 12.17 7.34 0
 -2 -11 6 12.09 7.97 0
 -2 -10 -8 25.95 8.59 0
 -2 -10 -5 10.09 6.92 0
 -2 -10 -4 6.14 5.84 0
 -2 -10 -3 8.72 6.79 0
 -2 -10 -2 12.88 6.57 0
 -2 -10 1 10.53 7.25 0
 -2 -10 2 11.02 6.65 0
 -2 -10 5 23.78 8.1 0
 -2 -9 -9 15.49 7.82 0
 -2 -9 -8 14.21 7.65 0
 -2 -9 -7 5.76 6.53 0
 -2 -9 -6 15.3 7.15 0
 -2 -9 -5 -3.84 5.12 0
 -2 -9 -4 92.51 11.48 0
 -2 -9 -3 58.21 9.01 0
 -2 -9 -2 18.98 6.54 0
 -2 -9 -1 18.44 7.18 0
 -2 -9 1 9.55 6.67 0
 -2 -9 2 8.94 6.59 0
 -2 -9 4 59.16 9.65 0
 -2 -8 -10 44.17 9.79 0
 -2 -8 -9 19.8 8.5 0
 -2 -8 -8 16.27 7.56 0
 -2 -8 -7 14.11 6.66 0
 -2 -8 -5 47.26 8.39 0
 -2 -8 -4 14.29 6.12 0
 -2 -8 -3 22.07 6.38 0
 -2 -8 -1 4.59 5.84 0
 -2 -8 2 66.43 9 0
 -2 -7 -10 46.34 9.7 0
 -2 -7 -9 21.74 8.12 0
 -2 -7 -7 4.06 5.72 0
 -2 -7 -6 7.34 5.13 0
 -2 -7 -5 6.09 5.27 0
 -2 -7 -4 279.13 14.19 0
 -2 -6 -10 115.04 13.7 0
 -2 -6 -8 1.92 5.64 0
 -2 -6 -6 106.98 10.35 0
 -2 -6 -1 68.03 7.23 0
 -2 -6 0 388.6 14.66 0
 -2 -6 1 185.97 10.47 0
 -2 -5 -7 102.85 9.97 0
 -2 -5 -3 15.72 4.54 0
 -2 -5 -2 16.23 4.46 0
 -2 -5 -1 487.02 15.15 0
 -2 -5 0 164.87 9.59 0
 -2 -4 -9 47.97 8.25 0
 -2 -4 -5 10.61 4.34 0
 -2 -4 -3 191.69 9.62 0
 -2 -4 -1 20.46 4.54 0
 -2 -4 0 748.12 16.9 0
 -2 -3 -8 59.86 8.19 0
 -2 -3 -5 28.11 5.13 0
 -2 -3 -1 544.3 13.49 0
 -2 -2 -3 74.56 5.59 0
 -2 -2 -1 140.72 6.62 0
 -2 -1 -6 18.12 4.49 0
 -2 -1 -2 494.23 11.17 0
 -2 -1 -1 264.35 8.2 0
 -2 0 -6 143.4 8.49 0
 -2 0 -4 380.75 11.32 0
 -2 0 -3 720.6 13.64 0
 -2 0 -2 28.62 3.55 0
 -2 0 -1 283.78 7.19 0
 -2 0 0 237.89 6.3 0
 -2 1 -2 497.94 10.01 0
 -2 1 -1 270.94 6.22 0
 -2 1 0 584.41 7.45 0
 -1 -11 -3 13.13 5.93 0
 -1 -11 -2 6.41 5.89 0
 -1 -11 -1 1.36 5.1 0
 -1 -11 0 40.58 8.08 0
 -1 -11 1 6.87 5.52 0
 -1 -11 2 17.66 6.53 0
 -1 -11 3 70.48 10.22 0
 -1 -11 4 47.69 8.67 0
 -1 -11 5 13.43 7 0
 -1 -11 6 30.32 8.12 0
 -1 -11 7 9.99 6.8 0
 -1 -10 -8 7.6 6.63 0
 -1 -10 -7 21.06 6.81 0
 -1 -10 -6 9.06 5.67 0
 -1 -10 -4 42.03 7.98 0
 -1 -10 -2 51.21 8.33 0
 -1 -10 -1 17.55 7 0
 -1 -10 1 -0.86 4.98 0
 -1 -10 2 46.36 8.65 0
 -1 -10 4 20.21 6.92 0
 -1 -10 5 20.24 6.83 0
 -1 -9 -7 16.29 7.15 0
 -1 -9 -6 8.39 5.31 0
 -1 -9 -5 -0.79 4.42 0
 -1 -9 -4 81.62 9.51 0
 -1 -9 -3 31.25 7.2 0
 -1 -9 -2 12.38 5.12 0
 -1 -9 -1 5.36 5.14 0
 -1 -9 1 6.63 4.95 0
 -1 -9 2 5.42 5.73 0
 -1 -8 -9 13.65 6.3 0
 -1 -8 -7 255.43 14.85 0
 -1 -8 -6 -3.48 4.66 0
 -1 -8 -5 133.25 10.7 0
 -1 -7 -10 50.46 9.64 0
 -1 -7 -9 85.78 10.34 0
 -1 -7 -8 15.47 6.19 0
 -1 -7 -6 53.39 7.5 0
 -1 -7 -1 59.09 7.26 0
 -1 -7 0 33.15 6.14 0
 -1 -7 1 8.73 4.23 0
 -1 -6 -9 29.86 7.89 0
 -1 -6 -7 243.56 13.37 0
 -1 -6 -1 172.31 9.36 0
 -1 -5 -9 28.58 6.86 0
 -1 -5 -8 0.77 4.54 0
 -1 -5 -6 299.2 12.88 0
 -1 -5 -4 441.62 14.22 0
 -1 -5 -3 1.95 3.02 0
 -1 -5 -2 75.59 6.06 0
 -1 -5 -1 74.68 6.01 0
 -1 -5 0 32.39 4.69 0
 -1 -4 -6 92.51 7.92 0
 -1 -4 -5 167.46 9 0
 -1 -4 -4 45.72 5.34 0
 -1 -4 -3 37.53 4.82 0
 -1 -4 -1 522.55 12.57 0
 -1 -3 -7 70.6 7.56 0
 -1 -3 -4 404.79 11.75 0
 -1 -3 0 277.11 8.43 0
 -1 -2 -4 32.48 4.2 0
 -1 -2 -3 565.27 12.08 0
 -1 -2 -2 12.1 3 0
 -1 -2 -1 1141.14 14.62 0
 -1 -2 0 2145.55 18.95 0
 -1 -1 -4 926.94 15.97 0
 -1 -1 -1 1239.02 13.09 0
 -1 -1 0 5223.6 24.9 0
 -1 0 -4 349.17 9.63 0
 -1 0 -1 1576 12.43 0
 -1 0 0 468.2 5.78 0
 -1 1 -1 1236.9 9.8 0
 0 -10 -2 7.54 4.74 0
 0 -10 -1 33.18 6.23 0
 0 -10 0 129.79 9.72 0
 0 -10 1 37.68 6.27 0
 0 -10 3 13.72 5.46 0
 0 -9 -7 56.06 7.97 0
 0 -9 -6 14.2 4.94 0
 0 -9 -5 80.14 8.08 0
 0 -9 3 159.82 10.86 0
 0 -8 -8 7.65 4.97 0
 0 -8 -7 6.77 5.21 0
 0 -8 -4 178.97 9.77 0
 0 -8 -3 127.8 8.56 0
 0 -8 -2 9.01 3.85 0
 0 -8 0 7.89 4.37 0
 0 -8 1 99.33 8.01 0
 0 -8 2 9.77 4.12 0
 0 -7 -8 92.82 8.59 0
 0 -7 -4 3.53 3.37 0
 0 -7 -3 75.15 6.48 0
 0 -7 -2 18.97 4.04 0
 0 -7 -1 177.93 9.07 0
 0 -7 1 178.72 9.1 0
 0 -6 -6 4.91 3.83 0
 0 -6 -5 31.83 5.05 0
 0 -6 -4 92.8 6.8 0
 0 -6 -2 48.11 5.12 0
 0 -6 0 43.53 4.81 0
 0 -5 -7 121.2 8.47 0
 0 -5 -3 35.88 4.24 0
 0 -5 -2 13.71 3 0
 0 -5 -1 162.5 7.14 0
 0 -4 -7 99.65 7.39 0
 0 -4 -6 8.12 3.64 0
 0 -4 -5 247.3 9.63 0
 0 -4 -4 47.23 4.47 0
 0 -4 -3 790.98 14.17 0
 0 -4 -2 449.08 10.01 0
 0 -4 -1 364.85 9.01 0
 0 -3 -6 16.68 4.04 0
 0 -3 -3 458.52 10.04 0
 0 -3 -2 817.84 12.11 0
 0 -2 -5 484.71 12.14 0
 0 -2 -4 565.75 11.92 0
 0 -2 -3 835.95 12.3 0
 0 -2 -2 2018.64 16.5 0
 0 -2 -1 192.56 4.96 0
 0 -1 -4 232.58 7.73 0
 0 -1 -3 1062.63 13.08 0
 0 -1 -1 486.77 5.69 0
 1 -9 0 26.66 4.42 0
 1 -9 2 4.09 3.27 0
 1 -8 -5 17.43 3.7 0
 1 -8 -4 109.43 6.56 0
 1 -8 -3 107.16 6.34 0
 1 -8 -2 48.42 4.8 0
 1 -8 -1 101.09 6.14 0
 1 -8 0 76.24 5.9 0
 1 -8 1 62.21 5.64 0
 1 -8 2 39.99 5.42 0
 1 -7 -6 40.16 5.42 0
 1 -7 -5 17.81 3.76 0
 1 -7 -4 143.44 6.98 0
 1 -7 -2 47.65 4.35 0
 1 -7 1 66.96 5.4 0
 1 -6 -5 55.52 4.91 0
 1 -6 -4 74.6 5.07 0
 1 -6 -3 231.42 7.61 0
 1 -6 -1 69.31 4.49 0
 1 -6 0 10.04 2.67 0
 1 -5 -5 22.71 3.6 0
 1 -5 -3 0.53 1.77 0
 1 -5 -2 252.29 6.75 0
 1 -5 -1 85.7 4.22 0
 1 -5 0 34.67 3.26 0
 1 -4 -5 16.92 3.46 0
 1 -4 -4 60.33 4.27 0
 1 -4 -3 430.15 8.45 0
 1 -4 -2 380.68 7.2 0
 1 -4 -1 1295.79 12.36 0
 1 -3 -3 30.02 2.6 0
 1 -3 -2 341.15 5.66 0
 1 -3 -1 358.84 5.14 0
 2 -7 0 20.59 2.51 0
 2 -7 1 118.45 5.09 0
 2 -6 -1 191.82 3.67 0
 2 -6 0 391.13 6.76 0
 2 -5 0 153.97 3.57 0
 -5 -1 -3 29.91 3.18 0
 -5 -1 -2 410.86 9.24 0
 -5 0 -5 50.74 5.07 0
 -5 0 -4 58.79 4.93 0
 -5 0 -3 4.37 2.23 0
 -5 1 -4 15.34 3.37 0
 -5 1 -3 26.27 4.05 0
 -4 -3 -3 208.77 5.98 0
 -4 -3 -1 365.15 5.17 0
 -4 -2 -5 38.59 3.78 0
 -4 -2 -3 12.58 1.99 0
 -4 -2 -1 21.34 1.8 0
 -4 -1 -6 169.53 7.51 0
 -4 -1 -5 46.07 4.03 0
 -4 -1 -4 354.53 9.24 0
 -4 -1 -3 222.08 6.82 0
 -4 -1 -2 289.71 7.22 0
 -4 0 -6 139.41 7.51 0
 -4 0 -5 -0.47 1.9 0
 -4 0 -4 9.73 2.85 0
 -4 0 -3 73.23 4.74 0
 -4 0 -2 93.39 4.82 0
 -4 1 -5 42.18 4.49 0
 -4 1 -4 361.86 10.8 0
 -4 2 -4 194.82 8.65 0
 -4 2 -3 18.99 3.59 0
 -4 3 -4 266.53 10.65 0
 -3 -6 0 41.77 2.52 0
 -3 -5 0 314.72 5.43 0
 -3 -4 0 54.73 1.84 0
 -3 -2 -1 90.97 2.91 0
 -3 -1 -2 78.49 3.5 0
 -3 -1 -1 3.7 1.19 0
 -3 0 -6 10.74 2.87 0
 -3 0 -5 442.42 10.96 0
 -3 0 -4 1.16 1.75 0
 -3 0 -1 566.9 9.05 0
 -3 1 -6 135.83 6.94 0
 -3 1 -5 4.3 2.32 0
 -3 1 -4 252.78 8.35 0
 -3 1 -3 140.24 6.01 0
 -3 1 -1 5.07 1.8 0
 -3 2 -6 31.66 4.35 0
 -3 2 -5 107.2 6.38 0
 -3 2 -4 65.47 4.81 0
 -3 2 -3 123.36 6.04 0
 -3 3 -5 11.11 3.36 0
 -3 3 -4 286.04 9.92 0
 -3 3 -3 95.94 6.1 0
 -3 4 -4 15.33 3.84 0
 -2 -8 -1 5.12 2.38 0
 -2 -7 0 20.41 2.95 0
 -2 -7 1 4.22 1.74 0
 -2 -6 0 387.14 9.04 0
 -2 -3 1 1018.57 6.67 0
 -2 -1 0 596.81 5.24 0
 -2 0 -1 285.11 5.57 0
 -2 1 -5 19.61 2.88 0
 -2 1 -2 493.27 9.04 0
 -2 2 -7 221.71 8.87 0
 -2 2 -3 88.34 5 0
 -2 2 -1 142.86 5.46 0
 -2 3 -6 14.03 3.18 0
 -2 4 -5 6.81 3.27 0
 -2 4 -4 203.12 8.7 0
 -2 5 -4 16.6 4.18 0
 -1 -8 -1 59.56 5.69 0
 -1 -8 0 70.36 5.74 0
 -1 -8 2 44.99 4.7 0
 -1 -8 3 115.82 6.68 0
 -1 -7 0 26.93 3.84 0
 -1 -7 1 9.77 2.68 0
 -1 -7 2 48.21 4.22 0
 -1 -7 3 107.58 6.02 0
 -1 -6 0 9.85 2.55 0
 -1 -6 1 66.17 4.66 0
 -1 -6 2 79.38 4.67 0
 -1 -6 3 233.15 7.62 0
 -1 -5 1 88.23 4.44 0
 -1 -5 2 244.98 6.77 0
 -1 -5 3 3.68 1.8 0
 -1 -4 1 1332.11 13.83 0
 -1 -4 2 379.28 7.47 0
 -1 -3 1 360.28 6.03 0
 -1 -3 2 348.05 6 0
 -1 1 -1 1225.54 10.8 0
 -1 2 -7 191.45 7.69 0
 -1 2 -4 29.15 3.09 0
 -1 2 -3 564.55 10.01 0
 -1 2 -2 16.12 2.44 0
 -1 2 -1 1159.54 13.09 0
 -1 3 -8 25.68 4.37 0
 -1 3 -7 72.1 5.48 0
 -1 3 -6 432.77 11.3 0
 -1 3 -5 21.23 3.21 0
 -1 3 -2 101.26 4.89 0
 -1 4 -6 93.59 6.33 0
 -1 4 -5 157.39 7.25 0
 -1 4 -4 46.08 4.21 0
 -1 4 -3 36.59 4 0
 -1 5 -5 14.19 4.09 0
 -1 5 -4 449.37 12.3 0
 0 -7 -1 184.31 8.57 0
 0 -7 1 188.68 8.29 0
 0 -7 4 6.4 2.86 0
 0 -6 2 52.13 4.77 0
 0 -6 3 278.72 9.27 0
 0 -5 1 159.93 6.41 0
 0 -5 2 16.14 3.22 0
 0 -5 3 41.97 4.11 0
 0 -4 3 762.14 12.46 0
 0 -3 1 564.7 8.93 0
 0 -3 2 785.69 10.68 0
 0 -2 2 1996.34 14.56 0
 0 -1 1 470.28 5.03 0
 0 1 -1 494.34 5.21 0
 0 2 -4 574.62 9.8 0
 0 2 -3 877.54 10.97 0
 0 2 -2 2052.7 15.07 0
 0 2 -1 198.25 4.67 0
 0 3 -8 62.06 5.12 0
 0 3 -7 19.36 3.44 0
 0 3 -6 16.69 2.97 0
 0 3 -5 118.53 5.38 0
 0 3 -4 95.23 4.54 0
 0 3 -3 451.17 8.99 0
 0 4 -8 134.61 7.31 0
 0 4 -7 93.76 6.25 0
 0 4 -6 9.26 2.81 0
 0 4 -5 258.76 8.47 0
 0 4 -4 48.87 3.88 0
 0 4 -3 780.04 13.24 0
 0 5 -7 119.62 7.17 0
 0 5 -6 129.22 6.85 0
 0 5 -5 5.62 2.61 0
 0 5 -4 67.17 5.33 0
 0 6 -6 5.32 3.51 0
 1 -7 -1 11.32 3.76 0
 1 -7 0 26.26 4.75 0
 1 -7 1 65.61 5.83 0
 1 -7 2 2.29 2.99 0
 1 -6 0 12.26 3.64 0
 1 -6 2 121.05 6.75 0
 1 -6 4 78.02 5.84 0
 1 -5 0 33.78 4.27 0
 1 -5 1 68.55 4.81 0
 1 -5 3 -1.13 2.64 0
 1 -4 2 64.51 4.34 0
 1 -4 3 41.42 3.83 0
 1 -3 1 406.7 8.81 0
 1 -3 2 103.39 5.17 0
 1 -3 3 68.39 4.23 0
 1 -2 0 2094.37 16.79 0
 1 -2 1 1120.69 12.47 0
 1 -2 2 12.67 2.03 0
 1 -1 0 5185.6 21.23 0
 1 -1 1 1251.37 10.88 0
 1 2 -3 514.95 7.17 0
 1 2 -2 992.67 8.42 0
 1 3 -9 106.27 6.65 0
 1 3 -8 114.73 6.11 0
 1 3 -7 545.86 11.78 0
 1 3 -6 695.02 12.29 0
 1 3 -5 34.63 2.93 0
 1 3 -4 603.77 9.62 0
 1 4 -9 94.23 6.24 0
 1 4 -7 90.66 5.7 0
 1 4 -6 36.61 4.11 0
 1 4 -5 16.6 2.78 0
 1 5 -8 88.47 6.27 0
 1 5 -7 115.96 6.36 0
 1 5 -6 67.7 4.82 0
 1 5 -5 21.7 3.39 0
 1 6 -7 99.61 6.65 0
 1 6 -6 52.83 4.91 0
 2 -6 -1 190.33 9.18 0
 2 -6 1 65.38 5.98 0
 2 -6 2 313.09 11.11 0
 2 -5 -1 342.16 10.9 0
 2 -5 0 159.05 7.58 0
 2 -5 1 504.96 13.16 0
 2 -5 3 13.35 3.52 0
 2 -4 0 727.27 14.22 0
 2 -4 1 23.67 3.4 0
 2 -4 2 446.55 11.2 0
 2 -3 0 325.82 8.69 0
 2 -3 1 573.07 11.45 0
 2 -3 3 434.99 10.24 0
 2 -2 0 789.38 11.66 0
 2 -2 1 137.26 5.25 0
 2 -2 2 216.7 6.77 0
 2 -1 0 590.08 8.72 0
 2 0 -1 364.26 5.43 0
 2 3 -7 64.56 4.11 0
 2 3 -6 172.27 5.87 0
 2 3 -5 61.36 3.42 0
 2 3 -4 209.12 4.97 0
 2 3 -3 90.64 2.95 0
 2 4 -9 87.48 5.82 0
 2 4 -8 111.5 5.81 0
 2 4 -7 53.47 4.25 0
 2 4 -6 194.07 6.36 0
 2 4 -5 173.29 5.61 0
 2 4 -4 61.95 3.3 0
 2 5 -9 34.55 4.23 0
 2 5 -8 180.57 7.73 0
 2 5 -7 29.74 3.67 0
 2 6 -8 126.76 6.96 0
 3 -5 -1 423.87 13 0
 3 -5 0 319.09 11.2 0
 3 -5 1 20.23 4.03 0
 3 -5 2 144.04 7.74 0
 3 -4 -1 25.29 4.42 0
 3 -4 0 62.25 5.19 0
 3 -4 2 103.46 6.66 0
 3 -3 -1 3.57 2.41 0
 3 -3 0 183.5 7.39 0
 3 -3 1 16.94 3.09 0
 3 -3 2 194 7.76 0
 3 -2 -1 258.88 7.59 0
 3 -2 1 91.67 4.86 0
 3 -2 2 7.64 2.22 0
 3 -1 -1 109.36 4.41 0
 3 -1 0 402.19 8.01 0
 3 -1 1 3.26 1.7 0
 3 0 -2 228.58 5.19 0
 3 0 -1 469.98 7.1 0
 3 0 0 491.08 7.35 0
 3 1 -2 245.8 3.52 0
 3 3 -10 5.45 2.47 0
 3 3 -9 5.83 2.14 0
 3 3 -6 231.58 5.73 0
 3 3 -5 486.47 6.89 0
 3 4 -9 54.84 4.3 0
 3 4 -8 56.28 4.07 0
 3 4 -6 88.21 3.77 0
 3 5 -7 18.16 2.74 0
 4 -4 -3 5.04 3.04 0
 4 -4 -2 10.29 3.55 0
 4 -4 -1 4.54 2.73 0
 4 -4 0 171.8 8.12 0
 4 -4 1 24.36 4.1 0
 4 -4 2 9.7 3.44 0
 4 -3 -3 8.66 2.84 0
 4 -3 -2 130.4 6.91 0
 4 -3 -1 287.71 9.48 0
 4 -3 0 23.91 3.54 0
 4 -3 1 374.58 11.02 0
 4 -3 2 82.62 6.1 0
 4 -2 -3 47.86 4.18 0
 4 -2 -2 5.15 1.98 0
 4 -2 -1 61 4.21 0
 4 -2 0 101.63 5.23 0
 4 -2 1 24.5 3.3 0
 4 -1 -3 27.25 2.73 0
 4 -1 -2 98.86 4.67 0
 4 -1 -1 31.08 3.07 0
 4 -1 0 17.79 2.63 0
 4 0 -3 217.79 5.73 0
 4 0 -2 1.78 1.13 0
 4 0 -1 11.1 1.88 0
 4 1 -3 27.56 1.65 0
 4 3 -7 129.27 4.08 0
 5 -3 -4 47.86 4.69 0
 5 -3 -3 1.86 2.14 0
 5 -3 -2 13.98 3.6 0
 5 -3 -1 21.82 3.43 0
 5 -3 0 239.4 9.25 0
 5 -3 1 103.66 6.32 0
 5 -2 -4 19.47 3.26 0
 5 -2 -3 217.16 7.88 0
 5 -2 -2 155.3 6.83 0
 5 -2 -1 36.62 3.58 0
 5 -2 0 112.57 5.91 0
 5 -1 -5 14.44 2.75 0
 5 -1 -4 30.63 3.69 0
 5 -1 -3 51.5 3.78 0
 5 -1 -2 79.76 4.35 0
 5 -1 -1 12.71 2.58 0
 5 0 -4 75.35 3.84 0
 5 0 -3 314.8 6.95 0
 5 0 -2 307.14 6.71 0
 5 1 -5 15.17 1.71 0
 5 1 -4 30.92 1.66 0
 6 -2 -3 49.29 4.41 0
 6 -2 -2 3.41 2.23 0
 6 -2 -1 65.98 4.79 0
 -8 -4 4 5.39 7.09 0
 -8 -4 5 30.89 10.66 0
 -8 -3 3 33.15 9.07 0
 -8 -3 5 18.88 9.05 0
 -8 -3 6 30.98 9.44 0
 -8 -3 7 75.96 13.17 0
 -8 -2 2 43.83 9.12 0
 -8 -2 3 58.65 10.11 0
 -8 -2 4 46.84 10.56 0
 -8 -2 6 49.48 10.5 0
 -8 -1 1 7 5.74 0
 -8 -1 2 53.19 10.26 0
 -8 -1 3 12.41 7.9 0
 -8 -1 4 5.43 7.07 0
 -8 -1 5 26.16 9.85 0
 -8 -1 6 13.23 8.17 0
 -8 -1 7 90.18 13.07 0
 -8 0 2 81.89 10.88 0
 -8 0 3 118.04 12.32 0
 -8 0 5 76.33 10.86 0
 -8 0 6 71.41 12.16 0
 -8 0 7 21.39 9.69 0
 -8 0 8 3.03 7.71 0
 -8 1 3 17.09 6.63 0
 -8 1 4 2 6.74 0
 -8 1 5 28.71 8.99 0
 -8 1 6 24.36 8.2 0
 -8 1 7 89.19 12.7 0
 -8 1 8 10.62 8.47 0
 -8 2 4 43.37 8.04 0
 -8 2 5 35.58 8.66 0
 -8 2 6 38.59 9.46 0
 -8 2 7 19.46 7.96 0
 -8 3 6 30.91 9.31 0
 -8 3 7 67.56 11.46 0
 -7 -6 7 16.86 8.78 0
 -7 -5 5 37.81 9.46 0
 -7 -5 6 8.01 8.29 0
 -7 -5 7 17.95 8.43 0
 -7 -4 4 44.6 10.34 0
 -7 -4 5 29.53 8.91 0
 -7 -4 6 3.8 7.2 0
 -7 -4 7 4.53 7.64 0
 -7 -4 8 65.53 12.89 0
 -7 -4 9 33.38 11.01 0
 -7 -3 3 36.13 8.59 0
 -7 -3 4 34.53 8.68 0
 -7 -3 5 58.86 10.74 0
 -7 -3 6 7.38 7.31 0
 -7 -3 7 35.32 9.55 0
 -7 -3 8 60.23 11.78 0
 -7 -3 10 19.1 9.12 0
 -7 -2 3 140.06 12.88 0
 -7 -2 4 12.84 7.66 0
 -7 -2 5 37.73 9.69 0
 -7 -2 6 12.12 7.81 0
 -7 -2 9 16.91 8.38 0
 -7 -1 0 77.61 9.2 0
 -7 -1 1 6.25 5.48 0
 -7 -1 2 2.4 5.88 0
 -7 -1 3 28.99 8.22 0
 -7 -1 4 27.49 7.66 0
 -7 -1 5 11.91 6.91 0
 -7 -1 6 27.5 8.45 0
 -7 -1 7 61.99 10.42 0
 -7 -1 8 -0.65 7.44 0
 -7 -1 10 -3.95 6.84 0
 -7 0 0 26.03 5.72 0
 -7 0 1 0.58 4.46 0
 -7 0 2 12.82 6.75 0
 -7 0 3 65.35 9.75 0
 -7 0 7 6.16 7.41 0
 -7 0 8 20.12 8.18 0
 -7 0 9 14.74 7.91 0
 -7 1 2 2.12 4.4 0
 -7 1 3 28.47 7.82 0
 -7 1 5 13.87 6.42 0
 -7 1 6 33.73 9.4 0
 -7 1 7 61.56 10.49 0
 -7 1 8 0.75 6.82 0
 -7 1 9 14.19 8.93 0
 -7 1 11 15.98 9.11 0
 -7 2 2 86.81 8.69 0
 -7 2 4 21.78 6.58 0
 -7 2 5 31.71 8.09 0
 -7 2 7 29.26 7.93 0
 -7 2 8 19.24 8.06 0
 -7 2 9 8.81 7.54 0
 -7 3 3 27.99 5.82 0
 -7 3 4 35.32 7.41 0
 -7 3 5 48.87 8.4 0
 -7 3 6 9.06 6.34 0
 -7 3 7 41.59 9 0
 -7 3 8 75.86 11.15 0
 -7 3 10 12.69 9.09 0
 -7 4 6 4.61 6.25 0
 -7 4 8 71.13 10.95 0
 -7 4 9 34.06 10.66 0
 -7 5 6 17.37 6.75 0
 -7 5 7 23.52 7.92 0
 -7 5 8 35.48 8.64 0
 -6 -6 5 13.65 6.97 0
 -6 -6 7 5.84 7.31 0
 -6 -6 8 -2.02 6.58 0
 -6 -6 9 78.95 12.08 0
 -6 -6 10 55.43 11.76 0
 -6 -5 4 108.31 11.49 0
 -6 -5 5 23.52 9.13 0
 -6 -5 6 0.33 6.28 0
 -6 -5 8 115.34 14 0
 -6 -5 9 43.55 9.71 0
 -6 -5 10 4.98 8.63 0
 -6 -5 11 7.81 7.97 0
 -6 -4 3 16.74 6.77 0
 -6 -4 4 33.66 8.12 0
 -6 -4 6 30.69 8.33 0
 -6 -4 7 37.3 8.84 0
 -6 -4 8 20.31 9.27 0
 -6 -4 9 22.01 9.08 0
 -6 -4 10 18.95 8.59 0
 -6 -4 11 3.11 8.52 0
 -6 -3 1 -0.64 4.78 0
 -6 -3 2 0.62 5.81 0
 -6 -3 4 87.16 11 0
 -6 -3 5 24.97 8.01 0
 -6 -3 7 55.7 10.07 0
 -6 -3 8 27.37 8.18 0
 -6 -3 10 -2.66 6.57 0
 -6 -3 11 25.5 8.39 0
 -6 -2 0 54.24 8.12 0
 -6 -2 1 71.84 8.68 0
 -6 -2 4 13.24 5.9 0
 -6 -2 5 76.08 9.91 0
 -6 -2 6 15.88 6.71 0
 -6 -2 7 15.6 6.66 0
 -6 -2 8 25.78 8.69 0
 -6 -2 9 6.42 8.21 0
 -6 -2 10 3.28 7 0
 -6 -2 11 -1.51 6.6 0
 -6 -2 12 4.66 7.59 0
 -6 -1 0 8.12 4.84 0
 -6 -1 1 -0.62 5.16 0
 -6 -1 2 24.2 6.64 0
 -6 -1 3 66.89 10.22 0
 -6 -1 4 43.83 7.54 0
 -6 -1 5 11.58 5.66 0
 -6 -1 6 49.39 9.03 0
 -6 -1 8 30.14 8.38 0
 -6 -1 9 16.85 7.89 0
 -6 -1 11 49.32 10.4 0
 -6 -1 12 7.05 7.79 0
 -6 0 2 35.08 6.62 0
 -6 0 3 16.34 6.02 0
 -6 0 4 2.03 4.67 0
 -6 0 5 32.43 7.09 0
 -6 0 7 -2.54 5.05 0
 -6 0 8 7.08 7.15 0
 -6 0 9 3.52 6.43 0
 -6 0 10 32.57 9.52 0
 -6 0 11 23.64 8.97 0
 -6 0 12 18.34 9.37 0
 -6 1 -1 58.18 5.89 0
 -6 1 3 74.76 8.8 0
 -6 1 6 50.95 7.98 0
 -6 1 7 28.51 7.41 0
 -6 1 8 34.99 8.05 0
 -6 1 10 5.65 6.26 0
 -6 1 11 52.45 10.36 0
 -6 1 12 14.11 9.38 0
 -6 2 0 50.51 5.56 0
 -6 2 4 12.18 6.24 0
 -6 2 5 83.96 10.05 0
 -6 2 6 17.87 7.22 0
 -6 2 7 19.4 6.72 0
 -6 2 8 22.47 7.22 0
 -6 2 9 10.39 7.74 0
 -6 2 11 -1.2 7.85 0
 -6 2 12 16.33 8.17 0
 -6 3 4 96.71 9.54 0
 -6 3 5 27.69 6.73 0
 -6 3 7 82.66 11.51 0
 -6 3 8 32.33 9.05 0
 -6 3 9 59.81 10.01 0
 -6 3 10 1.19 6.61 0
 -6 3 11 27.94 9.43 0
 -6 3 12 87.1 13.27 0
 -6 4 3 24.07 5.9 0
 -6 4 4 26.26 5.83 0
 -6 4 5 184.61 12.73 0
 -6 4 6 16.65 7.28 0
 -6 4 7 49.18 8.58 0
 -6 4 8 24.08 8.38 0
 -6 4 9 33.26 8.72 0
 -6 4 10 24.6 8.81 0
 -6 4 11 6.53 8.37 0
 -6 5 4 83.73 8.48 0
 -6 5 7 40.94 8.47 0
 -6 5 8 116.35 11.85 0
 -6 5 9 50.04 9.92 0
 -6 5 10 3.73 7.11 0
 -6 5 11 7.14 8.42 0
 -6 6 6 86.7 10.12 0
 -6 6 7 6.22 6.24 0
 -6 6 8 0.08 6.54 0
 -6 6 9 69.72 11.15 0
 -6 6 10 56.11 11.28 0
 -6 7 6 9.13 5.82 0
 -6 7 7 104.45 11.51 0
 -6 7 8 32.34 8.23 0
 -5 -7 8 0.81 7 0
 -5 -7 9 32.21 9.43 0
 -5 -7 10 25.53 8.42 0
 -5 -6 5 29.84 7.8 0
 -5 -6 6 41.55 8.72 0
 -5 -6 7 35.35 8.54 0
 -5 -6 8 165.06 13.51 0
 -5 -6 9 35.29 8.73 0
 -5 -6 10 13.35 7.82 0
 -5 -6 11 9.96 7.59 0
 -5 -5 3 8.49 5.38 0
 -5 -5 5 52.66 8.85 0
 -5 -5 10 38.7 9.23 0
 -5 -5 12 9.76 8.23 0
 -5 -4 1 143.93 10.57 0
 -5 -4 2 42.52 7.25 0
 -5 -4 5 13.62 5.69 0
 -5 -4 6 34.28 7.71 0
 -5 -4 7 15.18 7.17 0
 -5 -4 8 86.63 10.07 0
 -5 -4 9 35.99 8.37 0
 -5 -4 12 67.64 11.47 0
 -5 -4 13 44.65 9.57 0
 -5 -3 3 0.36 4.25 0
 -5 -3 7 38.06 7.81 0
 -5 -3 9 4.78 6.74 0
 -5 -3 11 -2.37 6.06 0
 -5 -3 12 3.18 6.67 0
 -5 -3 13 55.57 10.36 0
 -5 -2 4 27.54 6.1 0
 -5 -2 5 237.86 12.79 0
 -5 -2 7 7.36 4.89 0
 -5 -2 9 22.21 8.16 0
 -5 -2 10 34.76 8.38 0
 -5 -2 11 84.76 11.27 0
 -5 -2 13 183.12 14.97 0
 -5 -2 14 20.6 8.25 0
 -5 -1 -1 24.98 5.32 0
 -5 -1 1 8.93 4.85 0
 -5 -1 5 16.47 5.21 0
 -5 -1 7 51.14 7.88 0
 -5 -1 10 81.41 11.32 0
 -5 -1 11 104.15 12.91 0
 -5 -1 12 5.15 6.33 0
 -5 -1 13 31.77 9.5 0
 -5 -1 14 94.69 12.92 0
 -5 0 -1 151.2 8.27 0
 -5 0 0 187.33 9.66 0
 -5 0 1 71.52 6.96 0
 -5 0 2 291.77 12.08 0
 -5 0 6 117.77 9.97 0
 -5 0 7 -0.24 4.23 0
 -5 0 8 -1.72 4.36 0
 -5 0 10 104.66 10.98 0
 -5 0 11 101.68 12.59 0
 -5 0 13 57.83 10.44 0
 -5 0 14 22.43 9.1 0
 -5 1 -2 423.7 11.67 0
 -5 1 1 11.14 3.81 0
 -5 1 3 46.89 6.73 0
 -5 1 7 47.88 8.1 0
 -5 1 8 21.73 6.49 0
 -5 1 9 13.27 6.15 0
 -5 1 10 87.94 11.41 0
 -5 1 11 116.35 12.63 0
 -5 1 12 10.74 8.07 0
 -5 1 13 18.46 9.71 0
 -5 1 14 82.47 12.37 0
 -5 2 -1 83.86 5.63 0
 -5 2 0 100.74 6.64 0
 -5 2 1 31.83 4.69 0
 -5 2 2 136.44 8.53 0
 -5 2 3 225.05 10.94 0
 -5 2 6 59.19 7.32 0
 -5 2 7 1.02 4.89 0
 -5 2 8 3.46 5.14 0
 -5 2 10 37.8 8.37 0
 -5 2 11 84.93 11.79 0
 -5 2 12 -3.25 7.75 0
 -5 2 13 172.9 15.52 0
 -5 2 14 18.74 8.86 0
 -5 3 2 11.64 3.79 0
 -5 3 3 0.17 4.13 0
 -5 3 5 67.21 7.62 0
 -5 3 6 -0.11 4.68 0
 -5 3 8 79.57 10.31 0
 -5 3 9 5.77 5.98 0
 -5 3 10 12.45 6.72 0
 -5 3 11 1.36 5.62 0
 -5 3 12 7.37 7.53 0
 -5 3 13 33.93 9.99 0
 -5 4 1 135.25 7.44 0
 -5 4 5 10.41 4.89 0
 -5 4 7 18.03 6.11 0
 -5 4 8 83.62 10.32 0
 -5 4 9 31.54 7.76 0
 -5 4 10 12.33 7.5 0
 -5 4 11 19.23 7.94 0
 -5 4 12 48.98 10.33 0
 -5 4 13 51.4 11.36 0
 -5 5 2 15.35 3.94 0
 -5 5 4 3.7 4.08 0
 -5 5 5 51.5 7.48 0
 -5 5 7 5.39 5.48 0
 -5 5 8 12.68 6.31 0
 -5 5 10 33.72 8.57 0
 -5 5 12 0.76 6.36 0
 -5 6 4 14.41 4.97 0
 -5 6 6 49.13 8.45 0
 -5 6 7 24.77 6.84 0
 -5 6 8 149.28 12.57 0
 -5 6 9 42.4 9.63 0
 -5 6 11 8.78 7.29 0
 -5 7 4 13.97 4.79 0
 -5 7 5 8.36 4.8 0
 -5 7 7 38.63 8.56 0
 -5 7 9 31.75 8.79 0
 -5 7 10 24 8.24 0
 -5 8 8 27.58 7.83 0
 -5 8 9 15.63 8.27 0
 -5 9 7 111.82 11.35 0
 -4 -7 8 53.15 9.18 0
 -4 -7 10 28.24 8.16 0
 -4 -7 11 9.76 7.06 0
 -4 -6 4 29.13 6.57 0
 -4 -6 5 24.52 7.13 0
 -4 -6 6 36.77 7.76 0
 -4 -6 8 28.41 7.42 0
 -4 -6 9 9.4 6.48 0
 -4 -6 11 -5.03 5.23 0
 -4 -5 3 33.67 6.39 0
 -4 -5 4 37.48 7.23 0
 -4 -5 6 52.43 8.13 0
 -4 -5 7 123.91 10.63 0
 -4 -5 9 140.25 12.38 0
 -4 -5 11 11.91 6.88 0
 -4 -5 12 4.85 6.19 0
 -4 -5 13 2.91 6.77 0
 -4 -4 6 13.98 5.38 0
 -4 -4 8 226.49 13.2 0
 -4 -4 9 27.25 6.91 0
 -4 -4 11 21.13 7.54 0
 -4 -4 12 15.03 7.12 0
 -4 -4 13 19.63 7.77 0
 -4 -4 14 -3.97 6.83 0
 -4 -3 0 25.79 5.57 0
 -4 -3 1 275.56 12.2 0
 -4 -3 7 132.27 10.09 0
 -4 -3 8 46.84 7.76 0
 -4 -3 9 228.51 13.41 0
 -4 -3 10 26.82 7.16 0
 -4 -3 11 5.9 6.36 0
 -4 -3 12 22.89 7.36 0
 -4 -3 14 38.4 8.92 0
 -4 -2 -1 21.5 4.78 0
 -4 -2 0 101.5 7.95 0
 -4 -2 1 61.45 6.16 0
 -4 -2 2 7.5 3.7 0
 -4 -2 4 338.5 13.24 0
 -4 -2 8 152.96 11.33 0
 -4 -2 9 61.46 8.62 0
 -4 -2 10 138.89 11.95 0
 -4 -2 13 12.23 6.98 0
 -4 -2 14 8.74 7.44 0
 -4 -1 -1 1231.96 20.76 0
 -4 -1 2 89.26 6.97 0
 -4 -1 3 29.72 4.93 0
 -4 -1 5 88.41 7.68 0
 -4 -1 9 62.38 8.28 0
 -4 -1 10 20.71 6.43 0
 -4 -1 11 3.65 5.93 0
 -4 -1 12 164.57 13.14 0
 -4 -1 13 68.38 10.5 0
 -4 -1 14 89.24 12.15 0
 -4 -1 15 5.13 6.82 0
 -4 0 -2 96.16 5.87 0
 -4 0 0 35.93 4.44 0
 -4 0 1 10.8 3.47 0
 -4 0 3 215.29 9.54 0
 -4 0 5 18.63 4.55 0
 -4 0 9 -0.5 4.45 0
 -4 0 11 332.07 17.17 0
 -4 0 12 -0.86 6.29 0
 -4 0 13 61.24 10.65 0
 -4 0 15 2.72 7 0
 -4 1 -2 291.79 8.45 0
 -4 1 -1 1245.96 18.06 0
 -4 1 0 17.92 3.55 0
 -4 1 2 92.52 6.39 0
 -4 1 3 33.59 4.92 0
 -4 1 4 439.72 13.87 0
 -4 1 5 100.04 7.55 0
 -4 1 9 68.15 8.55 0
 -4 1 10 19.5 7.08 0
 -4 1 11 3.43 5.68 0
 -4 1 12 149.53 13.33 0
 -4 1 13 48.33 9.49 0
 -4 1 15 5.59 8.6 0
 -4 2 -1 20.51 3.04 0
 -4 2 2 6.35 3.48 0
 -4 2 3 52.41 5.43 0
 -4 2 4 309.17 11.67 0
 -4 2 5 6.02 3.83 0
 -4 2 8 138.93 9.95 0
 -4 2 10 120.05 11.06 0
 -4 2 11 93.89 10.24 0
 -4 2 12 57.25 9.87 0
 -4 2 14 3.42 8.65 0
 -4 3 -1 358.08 8.62 0
 -4 3 0 24.74 3.26 0
 -4 3 1 275.93 9.16 0
 -4 3 3 10.03 3.53 0
 -4 3 4 225.05 10.21 0
 -4 3 7 129.62 9.57 0
 -4 3 8 42.59 7.65 0
 -4 3 9 220.47 13.23 0
 -4 3 10 24.26 6.85 0
 -4 3 11 4.36 5.91 0
 -4 3 12 26.01 8.38 0
 -4 3 13 44.56 9.49 0
 -4 4 -1 24.17 2.91 0
 -4 4 1 1.43 2.57 0
 -4 4 2 14.19 3.71 0
 -4 4 4 91.03 7.6 0
 -4 4 8 214.83 13.23 0
 -4 4 9 20.92 7.17 0
 -4 4 10 58.78 9.92 0
 -4 4 11 10.31 6.57 0
 -4 4 12 15.32 7.56 0
 -4 4 13 18.3 7.95 0
 -4 5 0 10.2 2.43 0
 -4 5 1 97.89 6.05 0
 -4 5 2 16.18 3.63 0
 -4 5 3 25.8 4.51 0
 -4 5 6 65.41 7.94 0
 -4 5 7 111.62 10.19 0
 -4 5 10 7.18 6.2 0
 -4 5 11 12.22 7.39 0
 -4 5 12 3.92 6.44 0
 -4 5 13 1.22 6.84 0
 -4 6 1 8.63 2.74 0
 -4 6 6 37.79 6.99 0
 -4 6 8 24 7.02 0
 -4 6 9 2.97 6.07 0
 -4 6 10 22.46 8.02 0
 -4 6 11 -1.59 7.35 0
 -4 6 12 68.79 11.58 0
 -4 7 5 41.99 7.69 0
 -4 7 6 5.73 5.7 0
 -4 7 8 44.7 9.24 0
 -4 7 9 86.46 12.79 0
 -4 7 10 16.46 7.76 0
 -4 7 11 10.57 7.72 0
 -4 8 4 35.29 6.54 0
 -4 8 7 170.54 12.99 0
 -4 8 8 33.32 8.01 0
 -4 8 9 21.66 7.82 0
 -4 8 10 29.03 8.83 0
 -4 9 7 21.02 7.55 0
 -4 9 9 -3.61 5.87 0
 -3 -7 9 61.52 9.14 0
 -3 -7 11 26.35 6.76 0
 -3 -6 5 64.97 7.92 0
 -3 -6 6 25.45 6.12 0
 -3 -6 8 137.26 10.8 0
 -3 -6 9 5.32 5.05 0
 -3 -6 11 130.9 11.18 0
 -3 -6 12 3.72 5 0
 -3 -5 3 163.11 10.22 0
 -3 -5 9 145.82 11.13 0
 -3 -5 11 25.62 6.46 0
 -3 -5 13 68.86 9.63 0
 -3 -4 2 59.83 5.95 0
 -3 -4 3 244.71 11.31 0
 -3 -4 4 57.09 6.63 0
 -3 -4 5 189.28 10.24 0
 -3 -4 9 54.25 7.44 0
 -3 -4 10 39.54 7.73 0
 -3 -4 12 93.52 9.67 0
 -3 -4 13 20.54 6.77 0
 -3 -4 14 10.68 6.61 0
 -3 -3 4 754.71 17.84 0
 -3 -3 5 483.07 14.71 0
 -3 -3 6 222.99 10.67 0
 -3 -3 9 2.47 5.05 0
 -3 -3 10 7.39 5.07 0
 -3 -3 11 13.05 5.84 0
 -3 -3 13 137.09 11.7 0
 -3 -3 14 99.05 10.94 0
 -3 -3 15 51.22 9.06 0
 -3 -2 5 169.04 9.11 0
 -3 -2 11 25.38 6.98 0
 -3 -2 12 65.27 9.85 0
 -3 -2 13 50.51 8.52 0
 -3 -2 14 9.12 6.63 0
 -3 -2 15 13.55 6.94 0
 -3 -1 -1 5.18 2.97 0
 -3 -1 1 117.48 6.49 0
 -3 -1 2 247.22 9.12 0
 -3 -1 6 201.98 9.92 0
 -3 -1 7 208.61 10.52 0
 -3 -1 11 1.52 4.84 0
 -3 -1 12 128.81 11.62 0
 -3 -1 14 16.12 6.83 0
 -3 -1 15 103.98 11.1 0
 -3 0 -1 572.58 11.3 0
 -3 0 1 458.04 10.78 0
 -3 0 6 4.81 3.37 0
 -3 0 7 650.19 17.23 0
 -3 0 10 41.24 6.87 0
 -3 0 14 17.03 7.16 0
 -3 1 -2 75.29 3.82 0
 -3 1 -1 5.73 1.95 0
 -3 1 0 388.3 8.94 0
 -3 1 1 113.66 5.46 0
 -3 1 2 245.19 8.34 0
 -3 1 6 191.5 9.43 0
 -3 1 7 222.83 10.56 0
 -3 1 9 22.33 5.72 0
 -3 1 11 6.98 5.12 0
 -3 1 12 122.93 11.68 0
 -3 1 15 85.15 11.42 0
 -3 2 -2 7.05 1.51 0
 -3 2 1 275.02 7.9 0
 -3 2 4 27.66 4.13 0
 -3 2 11 32.98 7.23 0
 -3 2 12 55.75 8.81 0
 -3 2 14 13.69 7.48 0
 -3 2 15 15.99 7.66 0
 -3 3 -2 178.15 4.13 0
 -3 3 -1 15.58 2.13 0
 -3 3 0 173.29 5.9 0
 -3 3 3 59.15 5 0
 -3 3 4 726.78 16.38 0
 -3 3 5 485.29 14.33 0
 -3 3 8 22.48 5.41 0
 -3 3 9 6.48 5.04 0
 -3 3 10 1.99 4.74 0
 -3 3 11 21.06 6.64 0
 -3 3 14 73.12 12.04 0
 -3 3 15 58.91 10.5 0
 -3 4 -2 101.15 3.09 0
 -3 4 1 26.96 3.47 0
 -3 4 9 58.33 8.24 0
 -3 4 12 79.01 11.14 0
 -3 4 13 11.06 7.23 0
 -3 5 -1 18.28 2.4 0
 -3 5 0 312.87 8.61 0
 -3 5 12 1.22 5.93 0
 -3 5 13 74.34 12.19 0
 -3 5 14 60.08 11.16 0
 -3 6 13 0.65 6.52 0
 -3 7 12 -5.19 6.97 0
 -2 -6 6 20.71 5.48 0
 -2 -6 10 28.42 5.85 0
 -2 -6 11 54.74 7.49 0
 -2 -5 5 115.52 7.81 0
 -2 -5 6 148.66 8.75 0
 -2 -5 7 32.61 5.9 0
 -2 -5 10 21.17 5.34 0
 -2 -5 11 220.6 11.71 0
 -2 -5 12 3.96 4.77 0
 -2 -4 2 167.56 8.23 0
 -2 -4 3 12.82 3.65 0
 -2 -4 4 61.67 5.56 0
 -2 -4 5 165.97 8.5 0
 -2 -4 6 199.73 9.56 0
 -2 -4 8 113.82 8.52 0
 -2 -4 11 33.85 6.05 0
 -2 -4 13 166.34 10.92 0
 -2 -3 1 1013.13 17.16 0
 -2 -3 2 120.54 6.48 0
 -2 -3 3 88.43 6.13 0
 -2 -3 4 213.48 8.66 0
 -2 -3 6 166.14 8.63 0
 -2 -3 8 32.1 5.15 0
 -2 -3 12 27.43 6.33 0
 -2 -3 13 40.4 7.24 0
 -2 -2 2 314.32 9.17 0
 -2 -2 3 105.4 6.2 0
 -2 -2 5 79.15 5.57 0
 -2 -2 7 155.06 8.59 0
 -2 -2 8 47.23 6.1 0
 -2 -2 9 61.69 6.42 0
 -2 -2 12 5.86 5.26 0
 -2 -2 13 46.42 7.78 0
 -2 -2 14 7.58 5.11 0
 -2 -1 -1 272.93 7.58 0
 -2 -1 0 596.35 10.67 0
 -2 -1 2 31.02 3.51 0
 -2 -1 3 201.29 7.16 0
 -2 -1 5 40.83 4.32 0
 -2 -1 6 81.33 5.98 0
 -2 -1 7 358.76 11.98 0
 -2 -1 11 15.5 5.31 0
 -2 -1 12 47.46 7.8 0
 -2 -1 13 91.43 9.88 0
 -2 -1 15 13.62 6.44 0
 -2 0 -1 284.38 6.56 0
 -2 0 0 240.29 6.32 0
 -2 0 1 353.47 7.76 0
 -2 0 3 -0.01 2.19 0
 -2 0 6 57.86 5.42 0
 -2 0 7 42.68 4.96 0
 -2 0 11 14.67 5.32 0
 -2 0 12 7.51 5.16 0
 -2 0 13 1.73 5.78 0
 -2 0 14 20.43 6.59 0
 -2 0 15 25.61 7.67 0
 -2 1 -2 484 6.28 0
 -2 1 -1 265.66 5.3 0
 -2 1 0 580.21 8.6 0
 -2 1 1 284.32 6.87 0
 -2 1 8 151.3 9.12 0
 -2 1 10 5.51 4.3 0
 -2 1 12 54.23 7.94 0
 -2 1 13 80.59 10.34 0
 -2 1 14 49.86 8.82 0
 -2 1 15 18.43 7.07 0
 -2 2 -2 213.02 3.2 0
 -2 2 -1 131.76 3.51 0
 -2 2 1 486.44 8.92 0
 -2 2 10 193.77 11.41 0
 -2 2 11 12.08 5.55 0
 -2 2 12 4.7 5.2 0
 -2 2 14 14.22 7 0
 -2 2 15 56.36 10.56 0
 -2 3 -2 60.86 1.81 0
 -2 3 -1 546.63 7.41 0
 -2 3 11 22.9 6.49 0
 -2 3 12 34.2 8.33 0
 -2 3 14 49.57 10.31 0
 -2 3 15 7.58 7.16 0
 -2 4 14 56.76 10.14 0
 -2 4 15 0.22 6.33 0
 -1 -5 5 21.13 4.11 0
 -1 -5 6 69.48 5.46 0
 -1 -5 7 112.01 6.79 0
 -1 -5 8 83.06 5.98 0
 -1 -5 9 133.54 7.75 0
 -1 -5 10 1.97 2.75 0
 -1 -4 3 419.3 10.57 0
 -1 -4 4 63.42 5.16 0
 -1 -4 5 15.65 3.67 0
 -1 -4 8 11.76 3.5 0
 -1 -4 9 91.43 6.61 0
 -1 -4 10 16.43 4.25 0
 -1 -4 11 26.72 4.98 0
 -1 -3 2 339.69 8.74 0
 -1 -3 4 581.98 11.62 0
 -1 -3 5 33.92 3.98 0
 -1 -3 6 664.32 13.23 0
 -1 -3 7 533.05 12.6 0
 -1 -3 8 113.82 6.88 0
 -1 -3 9 94.82 6.47 0
 -1 -3 10 89.82 6.6 0
 -1 -3 11 15.12 4.5 0
 -1 -2 1 1930.37 17.26 0
 -1 -2 3 501.62 9.58 0
 -1 -2 4 146.86 5.79 0
 -1 -2 5 170.17 6.44 0
 -1 -2 6 218.58 7.66 0
 -1 -2 7 49.82 4.44 0
 -1 -2 8 94.26 6.43 0
 -1 -2 9 -0 3.35 0
 -1 -2 13 11.05 5.03 0
 -1 -1 0 5283.41 23.49 0
 -1 -1 1 454.75 7.6 0
 -1 -1 2 21.77 3.02 0
 -1 -1 3 1149.86 13.27 0
 -1 -1 4 2315.22 20.3 0
 -1 -1 5 21.16 3.37 0
 -1 -1 6 688.33 13.08 0
 -1 -1 7 350.16 10.27 0
 -1 -1 9 19.56 4.18 0
 -1 -1 10 71.06 6.86 0
 -1 -1 12 38.3 6.21 0
 -1 -1 13 7.65 4.99 0
 -1 -1 14 19.04 5.71 0
 -1 0 -1 1558.65 9.79 0
 -1 0 0 484.18 5.91 0
 -1 0 1 34.9 2.97 0
 -1 0 3 299.93 7.11 0
 -1 0 4 1450.66 16.28 0
 -1 0 5 134.37 6.19 0
 -1 0 6 61.05 4.71 0
 -1 0 7 -1.25 2.5 0
 -1 0 9 90.87 7.23 0
 -1 0 12 167.2 10.73 0
 -1 0 14 36.57 7.41 0
 -1 0 15 17.89 6.06 0
 -1 1 0 5190.95 17.15 0
 -1 1 11 109.74 9.1 0
 -1 1 12 35.78 6.83 0
 -1 1 13 5.24 4.98 0
 -1 1 14 11.87 6.18 0
 -1 1 15 48.73 8.88 0
 -1 1 16 -2.24 5.35 0
 -1 2 12 38.56 7.32 0
 -1 2 13 5.21 6.21 0
 -1 2 14 125.5 11.52 0
 -1 2 15 18.15 7.14 0
 -1 3 13 9.73 6.33 0
 -1 3 14 92.8 11.99 0
 -1 4 14 108.35 13.21 0
 0 -4 5 247.88 6.78 0
 0 -4 6 6.21 2.15 0
 0 -4 7 92.95 4.87 0
 0 -4 8 145.04 6.01 0
 0 -4 9 5.27 2.42 0
 0 -3 3 450.27 7.67 0
 0 -3 4 90.19 3.95 0
 0 -3 5 123.05 4.66 0
 0 -3 6 18.04 2.76 0
 0 -3 8 59.87 4.42 0
 0 -3 9 40.39 4.12 0
 0 -3 11 64.16 5.22 0
 0 -2 2 1993.17 12.94 0
 0 -2 3 856.97 9.04 0
 0 -2 4 545.57 7.97 0
 0 -2 5 477.54 8.28 0
 0 -2 6 12.62 2.6 0
 0 -2 7 268.22 7.68 0
 0 -2 8 336.51 9.22 0
 0 -2 9 6.4 2.72 0
 0 -2 10 203.8 8.4 0
 0 -2 11 48.07 5.59 0
 0 -1 2 465.9 5.21 0
 0 -1 3 1037.23 9.22 0
 0 -1 4 237.49 5.41 0
 0 -1 5 536.89 9.11 0
 0 -1 6 138.08 5.43 0
 0 -1 7 206.15 7.09 0
 0 -1 9 0.79 2.54 0
 0 -1 10 28.17 4.51 0
 0 -1 11 126.39 7.6 0
 0 -1 13 85.31 7.59 0
 0 0 13 201.8 11.07 0
 0 1 12 129.31 9.44 0
 0 1 13 95.55 9.15 0
 0 1 14 44.15 7.61 0
 0 2 14 40.84 7.48 0
 0 2 15 73.19 9.63 0
 0 3 15 45.87 9.51 0
 0 4 15 35.61 8.79 0
 1 -3 7 62.69 2.49 0
 1 -3 8 31.9 2.28 0
 1 -2 5 80.83 2.45 0
 1 -2 6 445.83 6.61 0
 1 -2 9 99.36 4.76 0
 1 -2 10 37.36 3.74 0
 1 -1 8 306.96 8.23 0
 1 -1 9 71.54 4.79 0
 1 -1 10 60.99 5.02 0
 1 -1 11 34.04 4.56 0
 1 0 11 3 3.47 0
 1 1 13 202.62 11.05 0
 1 2 14 39.34 6.86 0
 1 3 15 3.64 5.54 0
 2 -1 9 8.97 2.19 0
 -5 3 -4 0.78 2.04 0
 -5 4 -10 5.72 4.55 0
 -5 4 -9 1.34 3.88 0
 -5 4 -7 94.2 8.13 0
 -5 4 -6 5.99 3.46 0
 -5 4 -5 26.34 4.78 0
 -5 4 -3 6.82 2.83 0
 -5 4 -2 7.05 2.74 0
 -5 4 -1 11.67 2.83 0
 -5 5 -10 4.48 4.97 0
 -5 5 -9 40.14 7.16 0
 -5 5 -8 23.64 6.41 0
 -5 5 -7 25.25 6.06 0
 -5 5 -6 25 5.42 0
 -5 5 -4 8.3 4.21 0
 -5 5 -3 87.61 7.07 0
 -5 6 -9 22.73 6.8 0
 -5 6 -7 40.17 7.64 0
 -5 6 -6 1.66 4.1 0
 -5 6 -5 7.98 4.51 0
 -5 6 -4 30.86 6 0
 -5 6 -2 8.21 3.99 0
 -5 7 -8 40.65 8.43 0
 -5 7 -7 1.71 4.99 0
 -5 7 -5 12.01 5.77 0
 -5 7 -4 9.81 4.89 0
 -5 7 -2 28.67 6.07 0
 -5 8 -4 9.01 5.67 0
 -5 8 -3 -1.66 4.99 0
 -5 8 -2 20.28 6.16 0
 -4 -2 -13 18.41 6.55 0
 -4 -1 -13 4.09 6.23 0
 -4 -1 -12 17.92 6.41 0
 -4 -1 -11 12.69 5.2 0
 -4 -1 -10 19.88 5.1 0
 -4 -1 -4 358.72 8.48 0
 -4 -1 -2 283.09 5.38 0
 -4 0 -13 30.31 7.36 0
 -4 0 -12 12.42 6.29 0
 -4 0 -9 9.49 3.88 0
 -4 0 -6 139.64 7.08 0
 -4 0 -5 0.73 1.98 0
 -4 0 -4 10.74 2.4 0
 -4 0 -3 69.66 3.75 0
 -4 0 -2 88.92 3.47 0
 -4 0 -1 10.95 1.17 0
 -4 1 -13 6.01 5.76 0
 -4 1 -12 21.74 7.15 0
 -4 1 -11 19.86 7.03 0
 -4 1 -10 20.18 5.5 0
 -4 1 -9 82.09 8.2 0
 -4 1 -8 13.32 4.28 0
 -4 1 -6 180.85 8.49 0
 -4 1 -5 43.04 4.17 0
 -4 1 -4 350.79 9.49 0
 -4 1 -3 226.77 6.95 0
 -4 1 -1 1212.3 12.27 0
 -4 1 0 18.7 1.72 0
 -4 2 -13 8.48 6.18 0
 -4 2 -12 9.74 5.92 0
 -4 2 -11 6.63 5.15 0
 -4 2 -9 34.77 6.29 0
 -4 2 -8 66.19 7.28 0
 -4 2 -6 129.03 7.53 0
 -4 2 -5 47.04 4.99 0
 -4 2 -4 192.19 7.7 0
 -4 2 -3 16.68 3.06 0
 -4 2 -2 48.75 3.61 0
 -4 3 -11 25.77 7.29 0
 -4 3 -10 20.71 6.37 0
 -4 3 -9 19.68 5.71 0
 -4 3 -8 34.48 5.94 0
 -4 3 -7 23.39 5.11 0
 -4 3 -5 14.95 3.94 0
 -4 3 -3 221.91 8.42 0
 -4 3 -1 370.27 9.81 0
 -4 3 0 20.97 3.05 0
 -4 4 -12 4.42 6.09 0
 -4 4 -11 1.64 5.01 0
 -4 4 -10 16.24 6.24 0
 -4 4 -8 18.18 5.67 0
 -4 4 -7 29.96 5.75 0
 -4 4 -6 48.23 6.57 0
 -4 4 -4 40.01 5.63 0
 -4 4 -3 7 3.49 0
 -4 4 -2 9.04 3.19 0
 -4 4 -1 21.25 3.87 0
 -4 4 0 178.3 7.69 0
 -4 5 -11 105.82 11.72 0
 -4 5 -9 19.92 6.19 0
 -4 5 -7 19.67 5.48 0
 -4 5 -6 8.96 5.11 0
 -4 5 -5 21.41 4.96 0
 -4 5 -1 91.53 7.06 0
 -4 5 0 9.3 3.98 0
 -4 6 -10 10.38 6.45 0
 -4 6 -9 13.03 6.58 0
 -4 6 -8 24.78 6.49 0
 -4 6 -6 5.23 4.84 0
 -4 6 -5 2.56 4.29 0
 -4 6 -4 22.09 5.33 0
 -4 6 -3 3.45 4.18 0
 -4 6 -2 14.86 4.46 0
 -4 7 -9 0.68 5.66 0
 -4 7 -8 8.91 5.92 0
 -4 7 -7 31.01 7.43 0
 -4 7 -6 1.92 5.21 0
 -4 7 -4 32.78 6.87 0
 -4 7 -3 94.97 9.48 0
 -4 7 -2 46.21 7.09 0
 -4 7 -1 -2.53 3.61 0
 -4 7 0 69.45 7.77 0
 -4 8 -8 39.88 8.87 0
 -4 8 -7 13.38 6.92 0
 -4 8 -6 42.14 9.11 0
 -4 8 -5 26.47 7.12 0
 -4 8 -3 3.07 5.03 0
 -4 8 -1 25.04 6.63 0
 -4 9 -7 -6.29 5.39 0
 -4 9 -5 74.41 10.98 0
 -4 9 -3 40.27 8.27 0
 -4 10 -4 25.53 7.7 0
 -4 10 -3 45.88 9.48 0
 -3 -1 -14 22.52 7.81 0
 -3 -1 -13 5.41 5.75 0
 -3 0 -14 17.05 6.76 0
 -3 0 -12 2.43 4.62 0
 -3 0 -11 0.33 4.67 0
 -3 0 -10 39.35 6.35 0
 -3 0 -3 18.38 2.47 0
 -3 0 -2 61.13 3.01 0
 -3 0 -1 567.72 6.64 0
 -3 1 -14 24.16 7.55 0
 -3 1 -13 5.41 5.87 0
 -3 1 -12 13.87 6.94 0
 -3 1 -11 81.29 9.78 0
 -3 1 -10 31.66 6.51 0
 -3 1 -5 3.92 2.71 0
 -3 1 -4 260.93 8.08 0
 -3 1 -1 2.94 1.23 0
 -3 1 0 391.22 6.19 0
 -3 2 -14 72.74 10.47 0
 -3 2 -12 24.61 6.87 0
 -3 2 -11 9.53 5.45 0
 -3 2 -10 7.05 4.75 0
 -3 2 -9 36.71 6.72 0
 -3 2 -6 31.39 4.99 0
 -3 2 -5 104.54 6.32 0
 -3 2 -4 69.14 5.04 0
 -3 2 -3 116.46 5.51 0
 -3 2 -1 88.27 4.24 0
 -3 2 0 666.65 10.32 0
 -3 3 -13 8.24 7.17 0
 -3 3 -12 13.34 5.98 0
 -3 3 -11 0.87 4.88 0
 -3 3 -10 7.42 4.87 0
 -3 3 -9 8.48 4.73 0
 -3 3 -2 177.13 7.04 0
 -3 4 -13 44.47 8.98 0
 -3 4 -11 27.22 6.9 0
 -3 4 -10 89.35 9.96 0
 -3 4 -9 5.33 4.66 0
 -3 4 -7 37.68 6.35 0
 -3 4 -4 16.05 4.39 0
 -3 4 -3 158.73 7.8 0
 -3 4 -1 24.3 3.78 0
 -3 4 0 55.82 4.68 0
 -3 4 1 26.21 3.92 0
 -3 5 -10 68.14 9.56 0
 -3 5 -9 6.81 5.08 0
 -3 5 -7 95.5 8.86 0
 -3 5 -6 73.93 7.79 0
 -3 5 -3 67.94 6.22 0
 -3 5 0 302.07 10.96 0
 -3 5 1 417.68 12.67 0
 -3 6 -12 16.79 8.13 0
 -3 6 -11 24.02 8.41 0
 -3 6 -10 132.39 11.68 0
 -3 6 -9 8.26 5.81 0
 -3 6 -8 89.12 10.03 0
 -3 6 -7 9.71 5.36 0
 -3 6 -6 70.79 8.14 0
 -3 6 -5 -0.32 3.58 0
 -3 6 -4 29.03 5.63 0
 -3 7 -11 14.87 7.05 0
 -3 7 -10 20.78 7.16 0
 -3 7 -9 3.08 5.7 0
 -3 7 -8 59.72 9.16 0
 -3 7 -7 12.89 5.59 0
 -3 7 -6 9.34 5.93 0
 -3 7 -4 33.38 6.25 0
 -3 7 -2 10.96 5.16 0
 -3 7 -1 7.11 4.71 0
 -3 7 0 352.56 14.19 0
 -3 8 -10 51.8 9.81 0
 -3 8 -9 5.39 6.3 0
 -3 8 -6 15.63 6.32 0
 -3 8 -4 23.24 6.29 0
 -3 8 -3 -1.18 5.33 0
 -3 8 -2 24.35 6.33 0
 -3 9 -8 21.24 7.74 0
 -3 9 -7 25.52 7.79 0
 -3 9 -6 -1.49 5.38 0
 -3 9 -5 28.62 8.18 0
 -3 9 -2 12.77 6.54 0
 -3 9 -1 -1.6 4.95 0
 -3 10 -6 12.76 7.08 0
 -3 10 -5 52 10.02 0
 -3 10 -4 13.52 7.04 0
 -3 10 -3 10.2 6.3 0
 -3 11 -3 76.68 11.89 0
 -2 -1 -15 2.67 7.01 0
 -2 0 -15 28.63 7.88 0
 -2 0 -13 7.86 5.81 0
 -2 0 -1 282.66 4.46 0
 -2 1 -15 10.37 8.11 0
 -2 1 -14 15.86 7.4 0
 -2 1 -13 -4.86 5.69 0
 -2 1 -12 14.44 5.72 0
 -2 1 -11 32.06 6.46 0
 -2 1 -10 19.12 4.81 0
 -2 1 -9 13.16 4.09 0
 -2 1 -3 533.55 9.76 0
 -2 1 -2 493.96 8.39 0
 -2 1 -1 273.33 5.55 0
 -2 1 0 574.91 6.99 0
 -2 2 -14 58.86 10.39 0
 -2 2 -13 21.89 7.09 0
 -2 2 -12 13.81 5.72 0
 -2 2 -10 14.77 5.03 0
 -2 2 -9 119.73 8.89 0
 -2 2 -7 229.95 9.84 0
 -2 2 -6 142.3 7.65 0
 -2 2 -5 60.78 5.09 0
 -2 2 -2 214.19 6.46 0
 -2 2 0 784.14 10.62 0
 -2 2 1 481.26 8.64 0
 -2 3 -14 98.83 11.21 0
 -2 3 -13 45.75 8.84 0
 -2 3 -12 45.86 8.33 0
 -2 3 -11 32.62 6.78 0
 -2 3 -10 0.11 4.1 0
 -2 3 -9 12.83 4.72 0
 -2 3 -6 9.94 3.77 0
 -2 3 -5 31.39 4.64 0
 -2 3 -1 536.16 10.82 0
 -2 3 0 328.48 8.3 0
 -2 3 1 1018.01 14.56 0
 -2 4 -14 65.3 11 0
 -2 4 -13 -2.26 6.01 0
 -2 4 -12 25.86 7.54 0
 -2 4 -11 22.26 6.64 0
 -2 4 -10 43.65 7.69 0
 -2 4 -9 51.63 7.21 0
 -2 4 -8 7.28 4.3 0
 -2 4 -5 6.77 3.18 0
 -2 4 -4 190.66 8.78 0
 -2 4 -3 185.76 8.05 0
 -2 5 -13 19.06 7.34 0
 -2 5 -12 14.4 7.82 0
 -2 5 -9 41.4 7.81 0
 -2 5 -8 18.16 5.29 0
 -2 5 -4 23.21 4.98 0
 -2 5 -3 11.52 3.6 0
 -2 5 -2 10.07 3.41 0
 -2 5 -1 510.26 13.68 0
 -2 5 1 340.96 11.33 0
 -2 6 -12 20.9 7.99 0
 -2 6 -11 8.3 6.59 0
 -2 6 -9 17.7 6.01 0
 -2 6 -8 11.89 5.19 0
 -2 6 -7 80.6 8.59 0
 -2 6 -6 108.26 8.59 0
 -2 6 -5 114.98 8.48 0
 -2 6 1 187.06 9.58 0
 -2 7 -12 47.05 9.76 0
 -2 7 -10 35.22 7.94 0
 -2 7 -9 14.81 6.04 0
 -2 7 -8 16.65 6.66 0
 -2 7 -7 8.9 5.82 0
 -2 7 -5 5.06 4.2 0
 -2 7 -3 19.45 4.91 0
 -2 7 -2 32.52 5.91 0
 -2 8 -11 9.86 6.95 0
 -2 8 -10 49.69 9.17 0
 -2 8 -9 30.8 8.1 0
 -2 8 -8 19.44 7.17 0
 -2 8 -7 9.69 6.05 0
 -2 8 -5 47.11 8.31 0
 -2 8 -4 12.17 5.32 0
 -2 8 -3 19.12 5.64 0
 -2 8 -2 18.26 5.06 0
 -2 8 -1 4.76 4.53 0
 -2 8 0 147.95 10.59 0
 -2 9 -8 12.73 6.96 0
 -2 9 -6 17.61 6.72 0
 -2 9 -3 58.72 8.85 0
 -2 9 -2 26.38 6.58 0
 -2 9 -1 24.7 7.11 0
 -2 10 -8 17.9 7.72 0
 -2 10 -6 30.5 8.38 0
 -2 10 -5 -1.05 5.56 0
 -2 10 -4 -1.51 7.01 0
 -2 10 -3 17.32 6.66 0
 -2 10 -2 4.95 5.93 0
 -2 11 -5 1.17 7.66 0
 -2 11 -4 14.97 7.41 0
 -2 11 -3 43.15 9.26 0
 -1 0 -15 5.23 7.26 0
 -1 1 -15 14.77 7.71 0
 -1 1 -14 122.96 11.8 0
 -1 1 -13 194.1 13.09 0
 -1 1 -12 11.98 5.24 0
 -1 1 -2 274.43 6.09 0
 -1 1 -1 1213.77 10.05 0
 -1 1 0 5237.81 18.54 0
 -1 2 -15 5.22 7.17 0
 -1 2 -14 41.46 9.43 0
 -1 2 -11 29.67 6.1 0
 -1 2 -10 42.13 6.56 0
 -1 2 -7 195.26 8.76 0
 -1 2 -6 446.62 11.95 0
 -1 2 -4 28.43 3.85 0
 -1 2 -3 552.73 10.46 0
 -1 2 -1 1154.47 12.48 0
 -1 2 1 1969.27 15.9 0
 -1 3 -15 1.01 7.08 0
 -1 3 -14 38.59 8.51 0
 -1 3 -12 3.29 4.94 0
 -1 3 -11 19.3 5.83 0
 -1 3 -9 104.92 8.32 0
 -1 3 -7 61.13 5.67 0
 -1 3 -6 453.49 12.93 0
 -1 3 -3 69.62 4.91 0
 -1 3 0 276.94 7.62 0
 -1 3 1 364.84 8.73 0
 -1 4 -14 33 8.1 0
 -1 4 -13 -0.29 5.8 0
 -1 4 -11 45.45 8.07 0
 -1 4 -8 54.82 6.33 0
 -1 4 -6 91.26 6.89 0
 -1 4 -2 64.47 4.65 0
 -1 4 -1 488.53 11.27 0
 -1 4 0 162.71 6.65 0
 -1 4 1 1321.14 18.61 0
 -1 5 -14 9.96 7.53 0
 -1 5 -13 18.04 7.75 0
 -1 5 -12 20.24 7.05 0
 -1 5 -11 3.69 4.79 0
 -1 5 -10 177.37 12.13 0
 -1 5 -8 0.78 4.31 0
 -1 5 -7 16.29 4.62 0
 -1 5 -5 16.67 4.43 0
 -1 5 -4 442.04 13.2 0
 -1 6 -13 0.99 7.33 0
 -1 6 -12 13.86 6.97 0
 -1 6 -11 106.57 11.41 0
 -1 6 -10 44.4 8.04 0
 -1 6 -9 32.59 6.73 0
 -1 6 -8 15.2 5.84 0
 -1 6 -7 227.78 12.37 0
 -1 6 -6 11.22 4.2 0
 -1 6 -3 90.81 7.18 0
 -1 6 -1 181.86 9.21 0
 -1 6 0 9.72 3.74 0
 -1 7 -12 -5.45 6.03 0
 -1 7 -9 95.98 10.72 0
 -1 7 -7 9.28 4.69 0
 -1 7 -6 67.97 8.07 0
 -1 7 -5 38.94 6.08 0
 -1 7 -3 15.9 4.52 0
 -1 8 -11 -0.67 7.01 0
 -1 8 -7 266.66 14.6 0
 -1 8 -6 3.03 4.6 0
 -1 8 -5 127.35 10.76 0
 -1 8 -4 146.77 10.71 0
 -1 8 -3 20.19 5.6 0
 -1 8 -2 58.75 7.33 0
 -1 8 -1 62.72 7.69 0
 -1 8 0 78.58 7.52 0
 -1 9 -10 10.49 6.92 0
 -1 9 -9 43.37 9.04 0
 -1 9 -8 14.28 6.75 0
 -1 9 -7 21.11 6.99 0
 -1 9 -5 2.23 4.81 0
 -1 9 -4 92.37 10.67 0
 -1 9 -3 28.33 6.34 0
 -1 9 -1 3.55 5.65 0
 -1 10 -8 16.69 8.2 0
 -1 10 -7 24.89 8.17 0
 -1 10 -6 7.84 7.16 0
 -1 10 -5 48.06 8.88 0
 -1 10 -3 36.11 8.36 0
 -1 10 -2 57.69 9.41 0
 -1 11 -6 12.1 7.45 0
 -1 11 -5 42.59 9.21 0
 -1 11 -4 22.27 7.49 0
 -1 11 -3 19.71 7.22 0
 0 1 -15 22.13 7.36 0
 0 1 -14 48.15 8.78 0
 0 1 -13 96.88 9.64 0
 0 1 -2 479.28 7 0
 0 1 -1 487.44 5.82 0
 0 2 -15 82.81 11.98 0
 0 2 -13 185.21 12.66 0
 0 2 -12 49.54 7.96 0
 0 2 -11 48.08 6.94 0
 0 2 -10 220.55 11.07 0
 0 2 -8 359.18 12.07 0
 0 2 -5 469.76 10.75 0
 0 2 -3 871.14 12.1 0
 0 2 -2 2023.51 16.46 0
 0 2 -1 197.43 5.04 0
 0 2 0 9875.98 32.27 0
 0 3 -15 42.1 8.77 0
 0 3 -14 52.85 9.61 0
 0 3 -13 21.33 6.47 0
 0 3 -12 54.15 8.05 0
 0 3 -11 77.27 7.99 0
 0 3 -10 49.47 7.03 0
 0 3 -9 37.36 6.12 0
 0 3 -7 19.17 3.87 0
 0 3 -6 19.42 3.59 0
 0 3 -4 96.44 5.3 0
 0 3 -3 448.25 9.99 0
 0 3 -2 812.11 12.38 0
 0 4 -15 29.53 9.13 0
 0 4 -12 8.01 6.87 0
 0 4 -11 103.46 9.44 0
 0 4 -10 223.38 12.22 0
 0 4 -9 4.5 4.26 0
 0 4 -7 88.77 6.95 0
 0 4 -6 5.16 3.01 0
 0 4 -5 264.68 9.86 0
 0 4 -4 51.93 4.83 0
 0 4 -3 785.78 14.52 0
 0 4 -2 436.19 10.43 0
 0 5 -13 38.53 8.74 0
 0 5 -12 14.54 6.29 0
 0 5 -11 4.52 4.77 0
 0 5 -10 32.09 6.66 0
 0 5 -9 26.65 5.86 0
 0 5 -5 4.48 3.08 0
 0 5 -4 60.64 5.41 0
 0 5 -3 42.1 4.56 0
 0 5 -2 20.51 3.66 0
 0 5 -1 163.36 7.39 0
 0 6 -13 10.84 7.6 0
 0 6 -12 5.2 6.32 0
 0 6 -9 56.9 7.74 0
 0 6 -8 28.17 5.85 0
 0 6 -7 65.6 7.06 0
 0 6 -4 83.92 6.62 0
 0 6 -3 257.97 10.84 0
 0 6 -2 60.07 6.26 0
 0 6 -1 493.03 14.05 0
 0 7 -13 12.58 7.8 0
 0 7 -12 1.1 7.07 0
 0 7 -11 9.65 6.05 0
 0 7 -10 52.16 8.6 0
 0 7 -9 -3.31 4.32 0
 0 7 -8 99.63 9.83 0
 0 7 -7 212.37 12.06 0
 0 7 -6 76.25 7.63 0
 0 7 -4 6.57 4.05 0
 0 8 -12 41.02 9.49 0
 0 8 -10 30.97 7.76 0
 0 8 -9 38.75 8.07 0
 0 8 -8 2.05 4.82 0
 0 8 -7 -3.09 4.26 0
 0 8 -6 7 4.86 0
 0 8 -5 17.49 5.51 0
 0 8 -4 185.53 11.34 0
 0 8 -2 16.14 5.06 0
 0 8 -1 111.18 9.21 0
 0 9 -10 5.2 6.39 0
 0 9 -9 11.98 6.87 0
 0 9 -7 49.7 8.62 0
 0 9 -4 0.12 4.43 0
 0 9 -2 10.04 5.74 0
 0 9 -1 60.97 8.26 0
 0 10 -7 23.47 7.66 0
 0 10 -6 16.36 6.66 0
 0 10 -5 8.16 6.13 0
 0 10 -3 13.06 6.22 0
 0 10 -2 7.23 6.46 0
 0 11 -7 6.07 6.73 0
 0 11 -6 21.34 8.44 0
 0 11 -5 9.57 6.54 0
 0 11 -3 40.57 8.91 0
 1 0 -16 1.56 6 0
 1 1 -16 0.91 6.33 0
 1 1 -15 62.62 10.29 0
 1 1 -14 15.75 6.18 0
 1 1 -2 20.79 1.83 0
 1 1 -1 436.1 4.52 0
 1 2 -15 21.85 7.19 0
 1 2 -14 131.78 11.63 0
 1 2 -12 37.31 7.34 0
 1 2 -11 8.71 4.49 0
 1 2 -10 10.06 3.98 0
 1 2 -8 100.01 6.77 0
 1 2 -7 47.67 5.11 0
 1 2 -6 212.3 7.89 0
 1 2 -4 156.97 5.65 0
 1 2 -3 517.98 8.98 0
 1 2 -2 992.06 10.68 0
 1 2 -1 1951.2 13.49 0
 1 2 0 2125.12 14 0
 1 3 -14 99.3 10.81 0
 1 3 -13 2.98 6.15 0
 1 3 -11 17.57 5.59 0
 1 3 -10 96.97 8.31 0
 1 3 -8 123.54 7.77 0
 1 3 -6 667.03 14.47 0
 1 3 -5 33.25 3.59 0
 1 3 -4 605.01 11.76 0
 1 3 -3 27.86 3.31 0
 1 3 -2 344.01 7.9 0
 1 3 0 278.52 6.7 0
 1 4 -15 20.06 7.7 0
 1 4 -14 89.92 10.97 0
 1 4 -12 3.02 5.12 0
 1 4 -11 29.58 6.33 0
 1 4 -10 15.6 4.99 0
 1 4 -9 103.28 8.64 0
 1 4 -7 90.08 6.87 0
 1 4 -6 33.24 4.86 0
 1 4 -5 23.13 3.88 0
 1 4 -4 60.98 5.22 0
 1 4 -3 406.4 10.17 0
 1 4 -2 386.61 9.43 0
 1 4 -1 1332.98 16.95 0
 1 4 0 158.09 6.18 0
 1 5 -12 20.11 6.41 0
 1 5 -11 20.87 6.3 0
 1 5 -10 4.46 5.17 0
 1 5 -9 124.32 9.6 0
 1 5 -4 392.9 11.7 0
 1 5 -3 1.85 2.5 0
 1 5 -2 241.51 8.94 0
 1 5 0 29.55 3.97 0
 1 6 -14 22.84 7.48 0
 1 6 -13 36.03 8.91 0
 1 6 -12 19.04 7.49 0
 1 6 -11 48.25 8.19 0
 1 6 -10 24.53 6.51 0
 1 6 -9 24.09 5.8 0
 1 6 -4 67.24 6.63 0
 1 6 -3 234.22 10.01 0
 1 6 -2 74.81 5.82 0
 1 6 -1 73.8 5.95 0
 1 6 0 12.81 3.67 0
 1 7 -13 2.13 5.83 0
 1 7 -10 5.27 6.1 0
 1 7 -8 2.81 4.36 0
 1 7 -5 23.75 5.09 0
 1 8 -12 23.62 7.92 0
 1 8 -11 22.72 7.31 0
 1 8 -10 12.07 6.41 0
 1 8 -9 13.55 6.48 0
 1 8 -8 38.27 7.75 0
 1 8 -7 39.81 6.98 0
 1 8 -6 3.18 4.72 0
 1 8 -5 25.79 6.06 0
 1 8 -4 124.36 9.8 0
 1 8 -3 118.32 8.94 0
 1 8 -2 44.38 6.55 0
 1 9 -10 14.86 6.57 0
 1 9 -8 4.65 6.29 0
 1 9 -7 127.87 11.08 0
 1 9 -6 50.86 8.74 0
 1 9 -5 12.23 5.4 0
 1 9 -4 191.13 12.6 0
 1 9 -3 3.86 4.87 0
 1 10 -8 44.23 9.14 0
 1 10 -7 15.71 7.72 0
 1 10 -6 4.1 5.32 0
 1 10 -4 13.09 6.76 0
 1 10 -3 44.73 8.3 0
 1 11 -7 14.08 6.89 0
 1 11 -6 35.46 8.99 0
 1 11 -5 15.47 7.13 0
 2 0 -16 8.02 6.57 0
 2 1 -15 11.07 7.23 0
 2 1 -14 46.84 8.38 0
 2 1 -2 23.96 1.48 0
 2 2 -15 43.18 8.39 0
 2 2 -14 13.42 6.29 0
 2 2 -13 31.57 7.46 0
 2 2 -12 11.17 5.1 0
 2 2 -11 7.88 4.43 0
 2 2 -8 45.85 5.44 0
 2 2 -7 149.4 6.97 0
 2 2 -6 217.6 7.7 0
 2 2 -4 321.67 7.37 0
 2 2 -2 330.27 5.62 0
 2 2 -1 467.7 5.95 0
 2 3 -14 51.62 9.48 0
 2 3 -13 31.4 7.01 0
 2 3 -11 18.76 5.52 0
 2 3 -10 24.72 5.58 0
 2 3 -8 21.87 4.83 0
 2 3 -7 66.89 5.74 0
 2 3 -6 169.15 7.3 0
 2 3 -5 55.97 4.59 0
 2 3 -4 222.61 6.95 0
 2 3 -1 985.82 11.45 0
 2 4 -15 -4.97 5.06 0
 2 4 -14 49.48 8.47 0
 2 4 -12 7.23 5.71 0
 2 4 -11 28.87 6.34 0
 2 4 -10 36.92 6.54 0
 2 4 -7 48.88 5.6 0
 2 4 -6 200.66 8.43 0
 2 4 -5 172.35 7.27 0
 2 4 -4 58.57 4.75 0
 2 4 -3 15.27 3.01 0
 2 4 -2 169.36 6.25 0
 2 4 -1 51.19 3.87 0
 2 5 -13 52.43 8.97 0
 2 5 -12 6.95 5.65 0
 2 5 -10 20 5.79 0
 2 5 -9 29.36 5.99 0
 2 5 -6 153.5 8.22 0
 2 5 -5 111.11 6.64 0
 2 5 -4 14.06 3.42 0
 2 5 -3 316.15 9.76 0
 2 5 -1 349.99 9.76 0
 2 6 -12 2.77 5.53 0
 2 6 -11 66.35 8.73 0
 2 6 -10 40.5 7.27 0
 2 6 -9 87.88 8.99 0
 2 6 -8 124.78 9.42 0
 2 6 -7 18.39 4.96 0
 2 6 -4 16.82 3.95 0
 2 6 -3 98.02 6.85 0
 2 6 -1 179.72 8.16 0
 2 7 -13 14.57 7.56 0
 2 7 -12 25.23 7.42 0
 2 7 -10 -1.39 4.62 0
 2 7 -9 16.45 5.67 0
 2 7 -7 21.84 6.02 0
 2 7 -6 51.07 6.54 0
 2 7 -2 10.01 3.75 0
 2 8 -12 1.46 5.74 0
 2 8 -11 48.72 8.8 0
 2 8 -10 62.27 9.56 0
 2 8 -9 7.82 5.58 0
 2 8 -8 82.27 10.02 0
 2 8 -7 16.34 5.56 0
 2 8 -6 23.76 6.17 0
 2 8 -4 13.25 4.92 0
 2 8 -3 138.7 9.75 0
 2 8 -2 71.04 7.15 0
 2 9 -10 0.98 6.26 0
 2 9 -9 25.35 7.48 0
 2 9 -8 11.44 6.25 0
 2 9 -7 6.05 5.27 0
 2 9 -6 2.73 4.85 0
 2 9 -5 4.6 5.07 0
 2 9 -3 7.08 4.6 0
 2 10 -8 19.65 6.87 0
 2 10 -6 -1.27 5.94 0
 2 10 -5 12.13 5.85 0
 2 10 -4 5.86 5.81 0
 2 11 -5 15.15 6.88 0
 3 1 -15 86.75 10.65 0
 3 1 -13 30.52 6.82 0
 3 1 -4 857.87 9.69 0
 3 1 -3 1.53 0.78 0
 3 2 -14 17.55 6.15 0
 3 2 -13 51.24 8.41 0
 3 2 -12 58.53 7.98 0
 3 2 -11 28.57 5.67 0
 3 2 -8 100.09 6.17 0
 3 2 -6 15.29 2.72 0
 3 2 -5 173.26 5.82 0
 3 2 -4 30.69 2.53 0
 3 2 -3 212.5 4.42 0
 3 3 -15 56.7 9.33 0
 3 3 -13 136.85 11.16 0
 3 3 -12 103.75 9.32 0
 3 3 -11 14.62 5.37 0
 3 3 -10 5.72 4.68 0
 3 3 -8 22.42 4.4 0
 3 3 -6 222.61 7.87 0
 3 3 -5 493.31 10.31 0
 3 3 -3 57.26 3.13 0
 3 4 -14 9.93 5.93 0
 3 4 -11 42.06 6.96 0
 3 4 -7 15.36 3.69 0
 3 4 -6 91.4 5.99 0
 3 4 -5 196.37 7.4 0
 3 4 -4 60.54 4.31 0
 3 4 -2 71.92 3.96 0
 3 5 -14 61.73 9.26 0
 3 5 -12 1.74 5.77 0
 3 5 -11 22.3 5.63 0
 3 5 -10 25.06 5.81 0
 3 5 -7 20.41 4.14 0
 3 5 -5 150.63 7.39 0
 3 5 -4 73.97 5.04 0
 3 5 -2 21.78 3.27 0
 3 6 -13 8.93 6.05 0
 3 6 -12 6.82 6.05 0
 3 6 -11 134.14 10.83 0
 3 6 -10 6.85 4.95 0
 3 6 -9 10.65 5.14 0
 3 6 -8 149.22 9.63 0
 3 6 -5 55.28 5.71 0
 3 6 -4 6.44 3.02 0
 3 6 -3 276.5 9.76 0
 3 6 -2 67.15 5.56 0
 3 7 -12 3.05 5.25 0
 3 7 -11 26.43 7.31 0
 3 7 -10 30.19 6.56 0
 3 7 -9 61.86 7.57 0
 3 7 -8 95.59 8.81 0
 3 7 -7 3.14 3.64 0
 3 7 -6 84.96 7.17 0
 3 8 -11 17.61 6.3 0
 3 8 -10 20.78 6.71 0
 3 8 -8 53.04 7.6 0
 3 8 -7 29.25 6.21 0
 3 8 -6 2.19 4.11 0
 3 8 -5 6.31 4.51 0
 3 8 -3 25.16 5.35 0
 3 9 -9 9.59 5.55 0
 3 9 -8 35.32 7.19 0
 3 9 -7 5.84 4.63 0
 3 9 -6 91.43 9.25 0
 3 9 -5 5.36 5.1 0
 3 9 -4 95.75 8.61 0
 3 10 -8 22.57 6.66 0
 3 10 -6 1.21 4.63 0
 3 10 -5 -0.64 4.98 0
 4 0 -15 1.8 4.96 0
 4 1 -15 2.65 5.15 0
 4 1 -14 98.99 9.77 0
 4 1 -13 44.46 7.2 0
 4 1 -12 168.33 10.4 0
 4 1 -11 2.49 3.65 0
 4 1 -7 409.8 9.7 0
 4 1 -6 398.25 8.44 0
 4 1 -5 88.13 3.59 0
 4 1 -4 451.58 5.12 0
 4 2 -14 11.47 5.4 0
 4 2 -13 16.55 6.12 0
 4 2 -11 94.67 7.88 0
 4 2 -9 59.25 5.67 0
 4 2 -8 147.71 7.12 0
 4 2 -7 144.23 6.26 0
 4 2 -5 5.51 1.56 0
 4 2 -4 312.91 4.51 0
 4 3 -14 24.96 6.61 0
 4 3 -13 47.01 7.08 0
 4 3 -12 30.01 6.35 0
 4 3 -11 3.28 4.35 0
 4 3 -10 21.85 4.57 0
 4 3 -8 39.62 4.41 0
 4 3 -7 123.52 6.1 0
 4 3 -6 48.72 3.76 0
 4 3 -5 140.72 4.86 0
 4 3 -4 223.27 4.97 0
 4 4 -14 -1.59 4.98 0
 4 4 -13 14.49 5.36 0
 4 4 -12 18.75 5.43 0
 4 4 -11 15.08 4.51 0
 4 4 -10 59.68 6.32 0
 4 4 -7 60.88 4.89 0
 4 4 -5 29.04 3.3 0
 4 4 -4 84.28 4 0
 4 5 -13 4.73 5.24 0
 4 5 -12 0.48 4.31 0
 4 5 -11 16.77 4.82 0
 4 5 -10 5.24 3.98 0
 4 5 -9 121.81 8.02 0
 4 5 -6 65.9 5.03 0
 4 5 -5 119.97 5.87 0
 4 5 -4 28.07 3.47 0
 4 6 -11 4.71 4.49 0
 4 6 -10 25 5.54 0
 4 6 -9 11.6 4.44 0
 4 6 -8 31.01 5.06 0
 4 6 -6 35.82 4.77 0
 4 6 -5 26.15 3.96 0
 4 6 -4 27.36 3.99 0
 4 7 -8 49.78 6.77 0
 4 7 -7 44.09 6.19 0
 4 8 -6 28.04 5.17 0
 4 8 -5 15.39 4.48 0
 -7 4 -1 5.86 3.75 0
 -7 4 0 2.66 3.5 0
 -7 5 -5 5.9 4.64 0
 -7 5 -4 6.22 4.66 0
 -7 5 -3 11.96 5.13 0
 -7 5 0 1.61 4.6 0
 -7 5 1 45.86 7.02 0
 -7 6 -3 3.63 5.17 0
 -7 6 -2 0.29 4.31 0
 -7 6 -1 39.49 7.38 0
 -7 6 1 38.99 7.65 0
 -7 7 -1 6.35 5.8 0
 -7 7 0 -2.17 4.84 0
 -6 2 -9 1.82 4.01 0
 -6 2 -8 12.95 4.8 0
 -6 2 -5 28.56 4.89 0
 -6 2 -4 32.77 4.73 0
 -6 2 -3 11.05 3.12 0
 -6 2 1 68.29 5.09 0
 -6 3 -9 14.02 5.54 0
 -6 3 -8 20.53 6.07 0
 -6 3 -7 26.28 5.92 0
 -6 3 -6 1.93 4.2 0
 -6 3 -5 32.2 5.85 0
 -6 3 -4 41.58 5.66 0
 -6 3 -3 41.47 5.94 0
 -6 3 -2 24.19 4.5 0
 -6 3 -1 71.3 6.43 0
 -6 3 0 29.26 4.63 0
 -6 4 -9 4.41 5.1 0
 -6 4 -8 32.73 7.33 0
 -6 4 -6 24.64 6.46 0
 -6 4 -5 17.85 5.16 0
 -6 4 -4 20.85 5.79 0
 -6 4 -3 61.22 7 0
 -6 4 -2 43.29 6.92 0
 -6 4 -1 2.66 3.55 0
 -6 4 0 21.64 4.68 0
 -6 4 1 37.51 5.99 0
 -6 4 2 7.03 3.86 0
 -6 5 -8 17.13 6.15 0
 -6 5 -6 9.42 5.52 0
 -6 5 -5 19.78 5.71 0
 -6 5 -4 105.27 9.01 0
 -6 5 -1 23.96 5.74 0
 -6 5 0 131.18 9.09 0
 -6 5 1 14.37 4.71 0
 -6 5 2 6.41 4.22 0
 -6 6 -7 -1.16 5.42 0
 -6 6 -5 8.44 5.62 0
 -6 6 -2 126.26 10.61 0
 -6 6 0 24.71 6.07 0
 -6 6 1 89.09 8.74 0
 -6 6 2 24.8 6.72 0
 -6 7 -5 37.18 7.64 0
 -6 7 -3 15.53 6.81 0
 -6 7 -2 1.8 4.82 0
 -6 7 0 27.01 6.74 0
 -6 7 1 27.02 6.74 0
 -6 8 -2 30.15 8.08 0
 -6 8 -1 10.3 5.69 0
 -6 8 0 3.53 5.44 0
 -6 8 1 1.53 5.13 0
 -5 0 -11 5.04 4.04 0
 -5 0 -8 90.6 7.01 0
 -5 0 -7 15.23 4.15 0
 -5 0 -5 47.97 4.62 0
 -5 0 -4 60.44 4.71 0
 -5 0 -3 4.64 1.91 0
 -5 0 -2 0.21 1.31 0
 -5 0 -1 158.76 5.65 0
 -5 0 0 182.22 5.66 0
 -5 0 1 70.11 3.67 0
 -5 1 -11 28.07 6.32 0
 -5 1 -9 25.07 5.38 0
 -5 1 -8 24.17 5.05 0
 -5 1 -7 13.23 4.07 0
 -5 1 -6 5.44 3.7 0
 -5 1 -4 18.91 3.6 0
 -5 1 -3 28.41 3.72 0
 -5 1 -2 419.54 10.54 0
 -5 1 -1 29.17 3.49 0
 -5 1 0 198.6 6.99 0
 -5 1 1 10.3 2.27 0
 -5 2 -11 3.27 5.09 0
 -5 2 -10 48.31 7.55 0
 -5 2 -9 23.06 6.01 0
 -5 2 -8 31.12 6.1 0
 -5 2 -7 19.02 5.27 0
 -5 2 -6 11.13 3.87 0
 -5 2 -5 34.71 4.79 0
 -5 2 -3 70.43 5.43 0
 -5 2 -2 16.28 3.28 0
 -5 2 1 34.93 3.83 0
 -5 2 2 139.92 6.61 0
 -5 3 -11 33.55 6.83 0
 -5 3 -9 132.09 9.93 0
 -5 3 -7 43.5 6.38 0
 -5 3 -6 95.19 8.3 0
 -5 3 -5 10.55 4.54 0
 -5 3 -4 -0.1 2.92 0
 -5 3 0 241.09 9.39 0
 -5 3 1 21.26 3.91 0
 -5 3 2 11.6 3.43 0
 -5 4 -10 15.19 5.94 0
 -5 4 -9 4.13 4.88 0
 -5 4 -8 31.48 6.21 0
 -5 4 -7 100.68 8.6 0
 -5 4 -6 4.41 3.97 0
 -5 4 -5 21.94 4.95 0
 -5 4 -4 100.9 8.22 0
 -5 4 -3 6.28 3.97 0
 -5 4 -2 6.66 3.7 0
 -5 4 -1 11.45 3.77 0
 -5 5 -10 -3.51 4.73 0
 -5 5 -9 39.65 7.62 0
 -5 5 -7 20.09 6.1 0
 -5 5 -6 21.27 5.63 0
 -5 5 -5 44.22 7.16 0
 -5 5 -4 7.38 4.25 0
 -5 5 -3 81.82 8.08 0
 -5 5 -2 43.23 6.27 0
 -5 5 2 22.64 5.1 0
 -5 6 -9 20.36 6.76 0
 -5 6 -8 14.17 5.74 0
 -5 6 -6 1.88 4.76 0
 -5 6 -5 7.09 4.89 0
 -5 6 -4 25.72 5.82 0
 -5 6 -3 48.13 7.47 0
 -5 6 -2 10.76 5.2 0
 -5 6 -1 28 5.93 0
 -5 6 0 102.07 8.72 0
 -5 6 2 11.78 4.73 0
 -5 7 -7 -3.05 5.87 0
 -5 7 -6 89.14 10.6 0
 -5 7 -5 13.01 5.87 0
 -5 7 -4 8.72 5.36 0
 -5 7 -3 54.52 7.94 0
 -5 7 -2 27.43 6.86 0
 -5 7 -1 106.05 9.81 0
 -5 7 0 22.67 6.29 0
 -5 7 1 77.91 7.92 0
 -5 7 2 67.49 8.68 0
 -5 8 -5 20.99 6.65 0
 -5 8 -4 8.22 6.64 0
 -5 8 -3 5.03 5.68 0
 -5 8 -2 16.51 7.14 0
 -5 8 -1 36.88 7.16 0
 -5 8 0 26.77 6.41 0
 -5 8 2 10.77 6.05 0
 -5 9 -4 1.11 5.39 0
 -5 9 -2 2.4 5.49 0
 -5 9 -1 98.49 10.59 0
 -5 9 0 5.75 5.37 0
 -5 9 1 9.7 7.08 0
 -5 10 0 29.71 7.67 0
 -4 -3 -2 77.49 2.11 0
 -4 -2 -13 16.5 5.14 0
 -4 -2 -12 1.03 4.21 0
 -4 -2 -6 135.35 6.24 0
 -4 -2 -5 43.25 3.48 0
 -4 -2 -4 196.23 5.95 0
 -4 -2 -3 16.61 1.96 0
 -4 -2 -1 21.93 1.28 0
 -4 -1 -13 3.82 5.77 0
 -4 -1 -12 16.98 5.72 0
 -4 -1 -11 20.65 5.88 0
 -4 -1 -10 21.25 4.73 0
 -4 -1 -9 106.24 7.73 0
 -4 -1 -8 17.5 3.75 0
 -4 -1 -6 180.01 7.31 0
 -4 -1 -5 47.2 3.95 0
 -4 -1 -4 362.83 8.62 0
 -4 -1 -3 219.05 6.19 0
 -4 -1 0 19.72 1.58 0
 -4 0 -12 13.64 5.93 0
 -4 0 -11 15.45 5.05 0
 -4 0 -8 101.61 7.36 0
 -4 0 -6 144.62 7.21 0
 -4 0 -5 0.68 2.11 0
 -4 0 -3 74.22 4.46 0
 -4 0 -2 92.72 4.36 0
 -4 1 -13 14.29 5.92 0
 -4 1 -12 28.12 6.51 0
 -4 1 -11 21.11 6 0
 -4 1 -10 15.43 5.57 0
 -4 1 -9 94.31 7.65 0
 -4 1 -8 16.26 4.14 0
 -4 1 -7 23.73 4.29 0
 -4 1 -5 49.41 5.02 0
 -4 1 -4 359.52 10.04 0
 -4 1 -3 227.68 7.87 0
 -4 1 -2 289.16 8.05 0
 -4 1 1 32.73 3.04 0
 -4 1 2 94.23 4.49 0
 -4 2 -13 12.25 6.81 0
 -4 2 -12 3.01 5 0
 -4 2 -11 17.95 6.17 0
 -4 2 -7 3.8 3.03 0
 -4 2 -3 17.42 3.66 0
 -4 2 -2 48.8 4.25 0
 -4 2 -1 23.46 3.43 0
 -4 2 0 95.09 5.24 0
 -4 2 1 57.53 4.41 0
 -4 2 2 6.31 2.33 0
 -4 3 -12 32.08 6.8 0
 -4 3 -11 30.03 6.76 0
 -4 3 -10 17.44 5.36 0
 -4 3 -9 22.52 6.15 0
 -4 3 -8 35.96 6.1 0
 -4 3 -7 19.07 5.07 0
 -4 3 -3 212.13 8.98 0
 -4 3 0 22.67 3.52 0
 -4 3 1 287.12 9.27 0
 -4 3 2 139.7 6.8 0
 -4 4 -11 0.67 4.79 0
 -4 4 -10 19.62 6.28 0
 -4 4 -9 95.63 9.02 0
 -4 4 -8 15.56 5.31 0
 -4 4 -1 28.68 4.61 0
 -4 4 0 176.27 8.51 0
 -4 4 1 6.1 3.41 0
 -4 4 3 2.53 3.27 0
 -4 5 -11 102.49 10.87 0
 -4 5 -10 9.65 5.66 0
 -4 5 -9 19.79 6.16 0
 -4 5 -8 41.81 7.21 0
 -4 5 -7 18.47 5.46 0
 -4 5 -6 5.18 4.09 0
 -4 5 -5 22.32 4.83 0
 -4 5 -4 136.9 8.82 0
 -4 6 -10 7.68 5.95 0
 -4 6 -9 12.84 6.01 0
 -4 6 -8 27.54 7.19 0
 -4 6 -6 5.79 5.09 0
 -4 6 -5 0.97 3.7 0
 -4 6 -4 28.66 5.77 0
 -4 6 -2 13.99 4.5 0
 -4 6 2 14.55 4.2 0
 -4 6 3 14.01 4.44 0
 -4 7 -9 3.66 5.28 0
 -4 7 -7 31.37 6.63 0
 -4 7 -6 6.69 4.87 0
 -4 7 -5 58.35 8.16 0
 -4 7 -4 38.36 7.01 0
 -4 7 -3 85.6 8.03 0
 -4 7 -1 -0.42 3.63 0
 -4 7 0 72.63 7.68 0
 -4 7 1 47.22 7.15 0
 -4 7 2 70.88 8.39 0
 -4 8 -8 37.67 7.84 0
 -4 8 -7 17.41 6.9 0
 -4 8 -6 42.88 8.38 0
 -4 8 -5 31.37 6.76 0
 -4 8 -3 4.85 4.78 0
 -4 8 -2 13.02 6.1 0
 -4 8 -1 22.07 6.06 0
 -4 8 1 2.65 4.15 0
 -4 8 2 40.25 7.02 0
 -4 9 -7 0.72 5.52 0
 -4 9 -6 45.57 8.29 0
 -4 9 -4 3.24 5.39 0
 -4 9 -3 48.15 7.69 0
 -4 9 -2 10.32 5.64 0
 -4 9 -1 39.98 7.24 0
 -4 9 0 119.27 10.7 0
 -4 9 2 149.91 11.36 0
 -4 10 -4 27.25 7.86 0
 -4 10 -3 45.67 8.11 0
 -4 10 -2 3.08 4.97 0
 -4 10 -1 11.8 6.74 0
 -4 10 1 15.2 6.14 0
 -3 -2 -2 8.8 1.32 0
 -3 -2 -1 89.16 2.13 0
 -3 -1 -1 4.94 1.03 0
 -3 -1 0 407.24 4.98 0
 -3 0 -14 16.94 7.32 0
 -3 0 -13 33.19 6.71 0
 -3 0 -5 435.67 10.3 0
 -3 0 -4 0.88 1.62 0
 -3 0 -1 586.87 8.49 0
 -3 0 0 505.2 7.35 0
 -3 0 1 462.03 6.83 0
 -3 1 -13 3.9 4.94 0
 -3 1 -12 15.27 5.85 0
 -3 1 -11 64.87 7.29 0
 -3 1 -10 33.83 6.22 0
 -3 1 -9 16.14 4.43 0
 -3 1 -8 22.91 4.24 0
 -3 1 -6 144.04 7.3 0
 -3 1 -5 9.41 2.73 0
 -3 1 -4 256.33 7.86 0
 -3 1 -1 3.5 1.89 0
 -3 1 0 388.95 7.68 0
 -3 1 2 244.12 6.3 0
 -3 2 -14 54.6 8.35 0
 -3 2 -13 6.04 5.38 0
 -3 2 -12 30.6 6.52 0
 -3 2 -10 7.54 4.31 0
 -3 2 -9 32.81 5.71 0
 -3 2 -5 96.16 6.16 0
 -3 2 -4 69.8 5 0
 -3 2 -3 125.71 6 0
 -3 3 -13 11.59 6.02 0
 -3 3 -12 11.8 6.19 0
 -3 3 -11 6.59 4.62 0
 -3 3 -10 16.5 5.32 0
 -3 3 -9 8.45 4.04 0
 -3 3 -7 73.1 6.71 0
 -3 3 -5 13.99 3.8 0
 -3 3 -3 95.78 5.74 0
 -3 3 -2 182.66 7.23 0
 -3 3 0 188.73 6.96 0
 -3 3 1 3.32 2.03 0
 -3 3 2 16.89 3.28 0
 -3 4 -13 36.73 8.3 0
 -3 4 -12 17.28 6.11 0
 -3 4 -11 29.33 6.47 0
 -3 4 -10 88.71 9.09 0
 -3 4 -9 7.71 4.18 0
 -3 4 -8 121.21 8.52 0
 -3 4 -7 33.09 5.29 0
 -3 4 -6 14.85 3.85 0
 -3 4 -3 168.77 7.96 0
 -3 4 -2 111.18 6.42 0
 -3 4 -1 24.82 3.73 0
 -3 4 0 50.54 4.9 0
 -3 4 1 23.56 3.63 0
 -3 4 2 72.81 5.13 0
 -3 4 3 248 9.1 0
 -3 5 -12 0.03 4.87 0
 -3 5 -11 -1.24 4.4 0
 -3 5 -10 60.27 8.58 0
 -3 5 -8 28.31 6.32 0
 -3 5 -7 97.69 8.51 0
 -3 5 -1 20.93 3.93 0
 -3 5 2 16.31 3.69 0
 -3 6 -11 12.56 5.83 0
 -3 6 -10 122.55 11.25 0
 -3 6 -9 13.4 5.78 0
 -3 6 -8 92.17 8.84 0
 -3 6 -7 12.14 5 0
 -3 6 -5 1.08 3 0
 -3 6 -4 30.16 5.3 0
 -3 6 -3 23.19 4.98 0
 -3 6 -2 40.63 5.34 0
 -3 7 -11 8.48 5.88 0
 -3 7 -10 25.85 7.98 0
 -3 7 -9 1.11 5.68 0
 -3 7 -8 72.27 8.19 0
 -3 7 -7 17.45 5.44 0
 -3 7 -6 10.45 4.62 0
 -3 7 -5 70.39 7.4 0
 -3 7 -4 36.09 5.69 0
 -3 7 -3 59.46 6.6 0
 -3 7 -2 6.74 3.93 0
 -3 7 0 371.21 13.52 0
 -3 7 1 192.96 10.3 0
 -3 8 -10 53.77 8.94 0
 -3 8 -9 12.69 6.1 0
 -3 8 -8 64.78 8.66 0
 -3 8 -7 -1.31 4.35 0
 -3 8 -6 25.18 6.16 0
 -3 8 -5 19.83 5.53 0
 -3 8 -3 2.71 4.84 0
 -3 8 -2 29.75 6.2 0
 -3 8 0 41.85 6.41 0
 -3 8 1 2.9 3.7 0
 -3 8 2 51.48 6.99 0
 -3 9 -8 18.62 6.77 0
 -3 9 -7 34.14 7.41 0
 -3 9 -6 -0.43 4.89 0
 -3 9 -2 7.24 5.4 0
 -3 9 -1 -2.04 4.88 0
 -3 9 0 38.04 6.79 0
 -3 9 1 8.8 4.89 0
 -3 9 2 16.82 5.53 0
 -3 10 -6 12.29 6.41 0
 -3 10 -5 50.13 9.38 0
 -3 10 -4 2.62 5.77 0
 -3 10 -2 -0.07 4.88 0
 -3 10 -1 14.08 6.39 0
 -3 10 0 7.42 5.6 0
 -3 10 1 37.56 7.66 0
 -3 11 -3 66.08 9.41 0
 -3 11 -2 5.26 5.58 0
 -3 11 -1 13.07 6.85 0
 -3 11 0 29.55 7.05 0
 -2 -1 -1 277.3 3.99 0
 -2 0 -2 29.02 2.48 0
 -2 0 0 236.95 4.16 0
 -2 0 1 349.85 5.01 0
 -2 1 -15 7.94 5.97 0
 -2 1 -3 540.65 9.43 0
 -2 1 -2 489.26 8.41 0
 -2 1 -1 268.89 5.9 0
 -2 1 0 585.76 7.97 0
 -2 1 1 294.84 5.97 0
 -2 2 -14 58.64 8.71 0
 -2 2 -13 32.92 6.52 0
 -2 2 -12 11.52 4.55 0
 -2 2 -11 14 4.7 0
 -2 2 -7 223.78 8.99 0
 -2 2 -6 151.04 7.16 0
 -2 2 -5 58.34 4.31 0
 -2 2 -2 219.62 6.4 0
 -2 2 -1 143.01 5.08 0
 -2 2 1 487.54 9.05 0
 -2 2 2 333.7 7.59 0
 -2 3 -14 89.93 10.64 0
 -2 3 -12 36.88 6.55 0
 -2 3 -11 31.36 6.14 0
 -2 3 -10 1.04 3.53 0
 -2 3 -9 19.5 4.68 0
 -2 3 -8 60.36 5.7 0
 -2 3 -6 13.95 3.4 0
 -2 3 -5 33.66 4.1 0
 -2 3 -2 61.23 4.25 0
 -2 3 -1 535.35 10.56 0
 -2 3 1 997.27 14.17 0
 -2 3 2 124.36 5.63 0
 -2 4 -14 73.3 10.06 0
 -2 4 -12 27.2 6.26 0
 -2 4 -11 23.62 5.68 0
 -2 4 -10 44.25 6.39 0
 -2 4 -9 48.6 6.96 0
 -2 4 -8 9.31 4.09 0
 -2 4 -5 8.68 3.02 0
 -2 5 -13 9.69 6.74 0
 -2 5 -12 12.33 5.89 0
 -2 5 -11 8.18 5.14 0
 -2 5 -10 48.31 7.47 0
 -2 5 -9 42.21 6.55 0
 -2 5 -7 102.66 7.68 0
 -2 5 -6 12.62 3.57 0
 -2 5 -4 17.68 3.73 0
 -2 5 -3 10.39 3.01 0
 -2 5 -1 491.65 12.27 0
 -2 5 2 110.55 6.51 0
 -2 6 -12 22.11 7.31 0
 -2 6 -11 7.8 5.46 0
 -2 6 -9 21.98 5.64 0
 -2 6 -7 80.45 7.79 0
 -2 6 -6 105.61 7.89 0
 -2 6 -5 109.19 8.09 0
 -2 6 -1 68.12 5.64 0
 -2 6 2 3.13 2.9 0
 -2 7 -11 9.47 5.99 0
 -2 7 -10 39.22 7.33 0
 -2 7 -9 15.34 5.28 0
 -2 7 -8 15.91 5.89 0
 -2 7 -7 4.08 5.19 0
 -2 7 -6 4.72 3.82 0
 -2 7 -5 4.87 3.58 0
 -2 7 -4 290.77 11.9 0
 -2 7 -3 21.46 4.55 0
 -2 7 -2 27.7 4.7 0
 -2 8 -11 15.24 6.62 0
 -2 8 -10 49.17 9.02 0
 -2 8 -9 22.17 6.54 0
 -2 8 -8 16.55 6.08 0
 -2 8 -7 7.68 4.88 0
 -2 8 -6 42.98 6.66 0
 -2 8 -5 51.6 7.48 0
 -2 8 -4 13.87 4.66 0
 -2 8 -3 19.69 4.83 0
 -2 8 -2 15.17 5.29 0
 -2 8 -1 3.27 3.69 0
 -2 8 0 143.78 9.28 0
 -2 8 1 5.16 3.95 0
 -2 8 2 69.5 7.21 0
 -2 9 -9 15.04 6.87 0
 -2 9 -8 15.72 5.88 0
 -2 9 -7 5.82 5.21 0
 -2 9 -6 15.59 5.91 0
 -2 9 -5 -1.84 3.97 0
 -2 9 -4 105.98 9.58 0
 -2 9 -2 26.87 5.76 0
 -2 9 0 58.3 7.27 0
 -2 9 1 0.13 3.89 0
 -2 10 -8 29.89 8.02 0
 -2 10 -7 37.14 8.13 0
 -2 10 -6 24.14 6.5 0
 -2 10 -5 6.84 5.89 0
 -2 10 -4 7.76 5.58 0
 -2 10 -2 7.39 5.82 0
 -2 10 -1 5.32 5.49 0
 -2 10 0 32.38 6.58 0
 -2 11 -5 4.73 5.61 0
 -2 11 -4 19.4 7.27 0
 -2 11 -2 13.75 5.65 0
 -2 11 0 12.95 6.01 0
 -1 0 0 462.7 3.94 0
 -1 1 -2 264.67 5.34 0
 -1 1 -1 1212.12 9.83 0
 -1 1 0 5240.5 18.89 0
 -1 2 -15 6.59 5.47 0
 -1 2 -4 32.76 3.21 0
 -1 2 0 2163.23 15.46 0
 -1 2 1 1993.59 14.99 0
 -1 3 -15 -2.3 6.22 0
 -1 3 -14 47.9 7.75 0
 -1 3 -12 0.42 3.66 0
 -1 3 -11 18.3 4.77 0
 -1 3 -7 60.93 5.25 0
 -1 3 -6 441.84 11.26 0
 -1 3 -2 103.63 4.64 0
 -1 3 -1 397.51 8.11 0
 -1 3 1 372.26 7.89 0
 -1 3 2 356.49 8.04 0
 -1 4 -14 32.41 6.85 0
 -1 4 -13 2.58 4.72 0
 -1 4 -12 4.18 5.26 0
 -1 4 -11 35.19 5.92 0
 -1 4 -9 64.21 6.71 0
 -1 4 -8 51.42 5.77 0
 -1 4 -6 94.16 6.3 0
 -1 4 -5 165.01 7.17 0
 -1 4 -4 49.16 4.36 0
 -1 4 -1 509.24 10.24 0
 -1 4 0 164.6 6.18 0
 -1 4 1 1363.25 16.57 0
 -1 4 2 377.15 9.3 0
 -1 5 -14 11.13 6.89 0
 -1 5 -11 8.08 4.55 0
 -1 5 -9 31.34 5.39 0
 -1 5 -8 4.19 3.87 0
 -1 5 -5 17.44 3.59 0
 -1 5 -4 458.12 12.03 0
 -1 5 -3 2.28 2.38 0
 -1 5 -2 74.64 5.12 0
 -1 5 -1 68.63 4.88 0
 -1 5 0 32.7 3.52 0
 -1 5 1 89.93 5.11 0
 -1 5 2 262.11 8.64 0
 -1 6 -13 6.05 5.81 0
 -1 6 -10 48.63 7.13 0
 -1 6 -9 30.66 5.73 0
 -1 6 -8 12.51 4.57 0
 -1 6 -6 13.95 4 0
 -1 6 -3 91.91 6.23 0
 -1 6 -2 119.59 6.89 0
 -1 6 -1 178.68 8.08 0
 -1 6 0 7.9 3.12 0
 -1 6 1 70.63 5.63 0
 -1 6 2 75.06 5.44 0
 -1 7 -12 1.47 5.24 0
 -1 7 -11 10.32 6.07 0
 -1 7 -10 39.49 7.02 0
 -1 7 -8 25.46 5.61 0
 -1 7 -7 6.81 3.97 0
 -1 7 -6 63.24 6.4 0
 -1 7 -5 33.03 5.51 0
 -1 8 -11 3.44 6.43 0
 -1 8 -9 21.78 6.5 0
 -1 8 -8 0.37 4.51 0
 -1 8 -7 270.78 13.03 0
 -1 8 -6 5.03 4.25 0
 -1 8 -5 120.94 8.82 0
 -1 8 -4 147.72 9.24 0
 -1 8 -3 22.04 4.7 0
 -1 8 -2 59.12 6.14 0
 -1 8 -1 55.1 6.13 0
 -1 8 0 78.72 6.45 0
 -1 8 1 96.19 7.22 0
 -1 9 -10 11.27 6.57 0
 -1 9 -9 43.63 7.66 0
 -1 9 -7 14.55 5.19 0
 -1 9 -6 16.64 6.15 0
 -1 9 -5 7.11 4.96 0
 -1 9 -4 91.84 8.56 0
 -1 9 -2 12.49 4.48 0
 -1 9 0 25.63 5.23 0
 -1 9 1 4.45 4.1 0
 -1 10 -8 16.61 5.96 0
 -1 10 -7 35.34 6.82 0
 -1 10 -6 5.3 5.58 0
 -1 10 -5 44.51 7.83 0
 -1 10 -4 43.91 7.05 0
 -1 10 -3 41.6 7.19 0
 -1 10 -2 48.58 6.98 0
 -1 10 -1 9.8 4.62 0
 -1 10 0 90.96 8.44 0
 -1 11 -6 5.47 5.74 0
 -1 11 -5 30.76 6.66 0
 -1 11 -4 14.66 5.73 0
 -1 11 -3 18.11 5.68 0
 -1 11 -2 2.2 5.14 0
 -1 12 -2 49.06 8.41 0
 0 1 -1 493.76 4.82 0
 0 2 -2 2028.73 13.88 0
 0 2 -1 194.37 4.2 0
 0 2 0 9861.17 26.84 0
 0 2 1 193.4 4.43 0
 0 3 -5 118.39 5.47 0
 0 3 -3 451.35 8.36 0
 0 3 -2 804.17 10.42 0
 0 3 -1 563.57 8.38 0
 0 4 -14 12.91 5.85 0
 0 4 -13 31.99 7.28 0
 0 4 -12 8.15 4.67 0
 0 4 -10 235.23 10.92 0
 0 4 -9 6.39 3.55 0
 0 4 -7 92.15 6.05 0
 0 4 -6 7.24 2.59 0
 0 4 -5 256.52 8.07 0
 0 4 -4 52.34 3.92 0
 0 4 -3 800.02 12.43 0
 0 4 -2 452.74 9.07 0
 0 4 -1 358.56 7.7 0
 0 4 0 578.39 9.91 0
 0 5 -14 101.88 10.67 0
 0 5 -13 53.55 8.46 0
 0 5 -12 15.89 5.22 0
 0 5 -11 0.11 3.66 0
 0 5 -10 30.75 5.49 0
 0 5 -8 60.62 5.99 0
 0 5 -6 119.8 6.65 0
 0 5 -5 5.93 2.7 0
 0 5 -4 63.34 5.11 0
 0 5 -3 42.33 3.84 0
 0 5 -2 19.49 2.96 0
 0 5 -1 157.65 6.12 0
 0 5 1 166.63 6.43 0
 0 6 -13 -0.87 4.47 0
 0 6 -12 -0.14 5.3 0
 0 6 -10 154.77 10.13 0
 0 6 -9 58.86 7.31 0
 0 6 -8 19.75 4.5 0
 0 6 -7 66.91 6.48 0
 0 6 -5 37.84 5.05 0
 0 6 -4 83.94 5.87 0
 0 6 -2 54.27 4.41 0
 0 6 -1 472.03 11.17 0
 0 6 0 37.92 4.2 0
 0 6 1 482.57 11.47 0
 0 7 -13 15.9 6.01 0
 0 7 -12 -3.22 4.21 0
 0 7 -11 13.6 6.15 0
 0 7 -10 56.79 7.71 0
 0 7 -9 3.41 4.85 0
 0 7 -8 91.71 8.28 0
 0 7 -6 68.43 6.3 0
 0 7 -3 69 5.94 0
 0 7 -1 181.74 7.85 0
 0 7 1 181.46 8.15 0
 0 8 -11 55.01 8.44 0
 0 8 -10 32.23 6.64 0
 0 8 -8 6.58 4.94 0
 0 8 -7 2.92 3.8 0
 0 8 -6 1.24 3.58 0
 0 8 -5 20.39 4.51 0
 0 8 -4 205.84 9.85 0
 0 9 -10 -5.22 3.93 0
 0 9 -9 9.59 5.61 0
 0 9 -8 71.06 8.86 0
 0 9 -7 51.58 6.81 0
 0 9 -6 18.97 5.08 0
 0 9 -5 77 7.57 0
 0 9 -4 0.55 3.42 0
 0 9 -3 160.97 9.46 0
 0 9 -2 9.47 4.42 0
 0 10 -9 17.4 5.76 0
 0 10 -7 14.49 5.33 0
 0 10 -6 11.29 5.47 0
 0 10 -4 211.38 11.07 0
 0 10 -3 20.81 5.13 0
 0 10 -2 4.77 3.74 0
 0 11 -7 0.33 4.75 0
 0 11 -6 21.8 5.87 0
 0 11 -5 9.99 5.15 0
 0 11 -4 -1.59 3.64 0
 0 11 -3 43.13 6.68 0
 0 12 -3 16.81 5.85 0
 1 2 -2 982.13 7.95 0
 1 2 -1 1983.16 9.27 0
 1 2 0 2091.96 8.97 0
 1 3 -4 605.84 9.49 0
 1 3 -3 28.37 2.6 0
 1 3 -2 348.04 5.93 0
 1 3 0 269.79 4.64 0
 1 4 -15 12.85 6.56 0
 1 4 -14 92.58 9.46 0
 1 4 -13 41.17 6.96 0
 1 4 -7 88.83 5.87 0
 1 4 -4 64.32 3.91 0
 1 4 -3 438.39 8.3 0
 1 4 -2 366.87 7.08 0
 1 4 -1 1316.64 12.46 0
 1 4 0 167.27 4.61 0
 1 5 -14 45.93 7.81 0
 1 5 -13 8.82 5.95 0
 1 5 -11 13.65 5.05 0
 1 5 -10 6.21 3.63 0
 1 5 -9 142.83 8.5 0
 1 5 -6 67.97 5.03 0
 1 5 -5 20.16 3.35 0
 1 5 -4 407.35 9.52 0
 1 5 -3 1.45 1.73 0
 1 5 -2 248.37 6.68 0
 1 5 -1 93.15 4.32 0
 1 5 0 33.8 3.01 0
 1 6 -14 25.21 6.38 0
 1 6 -13 34.6 6.77 0
 1 6 -11 51.47 6.81 0
 1 6 -10 16.53 4.51 0
 1 6 -9 23.55 4.71 0
 1 6 -8 13.02 3.7 0
 1 6 -5 49.89 4.67 0
 1 6 -2 79.4 4.71 0
 1 6 -1 75.55 4.58 0
 1 6 0 9.29 2.3 0
 1 7 -13 5.59 4.86 0
 1 7 -12 21.06 5.55 0
 1 7 -10 9.87 5.22 0
 1 7 -8 0.19 3.35 0
 1 7 -7 58.22 6.16 0
 1 7 -5 22.81 4 0
 1 7 -4 158.21 7.33 0
 1 7 -3 108.97 6.14 0
 1 7 -2 43.74 3.97 0
 1 7 0 28.35 3.63 0
 1 8 -12 16.32 5.8 0
 1 8 -11 31.32 6.23 0
 1 8 -10 9.41 4.49 0
 1 8 -9 20.69 5.06 0
 1 8 -8 40.48 6.15 0
 1 8 -6 3.98 3.11 0
 1 8 -2 45.35 4.81 0
 1 8 -1 96.77 6.02 0
 1 9 -10 9.22 4.81 0
 1 9 -9 3.97 4.76 0
 1 9 -8 1.63 3.63 0
 1 9 -7 133.77 8.42 0
 1 9 -6 35.54 5.72 0
 1 9 -5 20.96 4.4 0
 1 9 -3 5.65 3.09 0
 1 10 -9 37.24 6.52 0
 1 10 -8 52.14 7.1 0
 1 10 -7 20.55 5.39 0
 1 10 -6 7.12 4.04 0
 1 10 -5 18.11 4.52 0
 1 10 -4 17.43 4.26 0
 1 10 -3 44.67 5.82 0
 1 10 -2 57.1 6.28 0
 2 3 -3 88.14 2.88 0
 2 3 -2 120.03 2.68 0
 2 4 -15 1.92 4.56 0
 2 4 -6 197.62 6.7 0
 2 4 -5 173.61 5.69 0
 2 4 -4 57.54 3.22 0
 2 4 -3 11.9 1.78 0
 2 4 -2 166.07 3.8 0
 2 4 -1 54.01 2.1 0
 2 5 -14 18.45 5.95 0
 2 5 -13 43.13 6.99 0
 2 5 -12 3.24 4.13 0
 2 5 -10 21.31 4.35 0
 2 5 -8 177.18 7.99 0
 2 5 -7 31.47 3.89 0
 2 5 -5 110.43 5.1 0
 2 5 -4 11.43 2.18 0
 2 5 -3 304.71 6.52 0
 2 5 -2 106.54 3.79 0
 2 5 -1 347.81 6.19 0
 2 6 -13 88.95 8.48 0
 2 6 -12 3.7 4.83 0
 2 6 -10 33.54 5.49 0
 2 6 -9 89.77 6.79 0
 2 6 -7 21.21 3.63 0
 2 6 -6 26.76 3.85 0
 2 6 -5 12.42 2.76 0
 2 6 -4 21.64 2.76 0
 2 6 -3 92.98 4.34 0
 2 6 -2 3.88 1.52 0
 2 6 -1 189.13 5.5 0
 2 7 -12 25.78 6.08 0
 2 7 -11 118.8 8.84 0
 2 7 -10 2.34 3.84 0
 2 7 -9 14.42 4.21 0
 2 7 -8 64.46 5.89 0
 2 7 -6 41.06 4.54 0
 2 7 -5 28.51 3.87 0
 2 7 -4 163.71 6.4 0
 2 7 -3 101.42 5.04 0
 2 7 -2 12.42 2.43 0
 2 8 -11 53.68 7.25 0
 2 8 -10 66.28 6.85 0
 2 8 -9 6.26 3.78 0
 2 8 -8 83.04 6.64 0
 2 8 -7 7.11 3.13 0
 2 8 -5 2.11 2.84 0
 2 8 -4 16.23 3.15 0
 2 8 -3 120.75 5.76 0
 2 8 -2 61.8 4.45 0
 3 3 -3 56.63 1.55 0
 3 4 -14 12.1 4.85 0
 3 4 -7 22.18 2.98 0
 3 4 -6 94.31 4.36 0
 3 4 -4 63.71 2.6 0
 3 5 -14 50.98 7.16 0
 3 5 -13 62.67 7.31 0
 3 5 -11 23.47 4.61 0
 3 5 -7 18.27 2.78 0
 3 5 -6 52.03 3.6 0
 3 5 -5 151.02 4.77 0
 3 5 -4 77.73 2.95 0
 3 5 -3 153.39 2.91 0
 3 6 -12 4.79 3.68 0
 3 6 -11 128.15 8.12 0
 3 6 -10 9.76 3.68 0
 3 6 -8 137.01 6.68 0
 3 6 -7 33.82 3.92 0
 3 6 -6 30.8 3.16 0
 3 6 -5 62.11 3.41 0
 3 6 -4 5.31 1.44 0
 4 4 -7 61 3.57 0
 4 4 -6 20.43 2.02 0
 -8 -4 -1 8.44 4.64 0
 -8 -4 0 11.51 5.34 0
 -8 -4 1 21.73 6.42 0
 -8 -4 2 4.12 5.03 0
 -8 -4 3 50.86 8.09 0
 -8 -4 4 12.74 5.84 0
 -8 -4 5 33.38 7.82 0
 -8 -3 0 19.92 5.74 0
 -8 -3 1 12.65 5.33 0
 -8 -3 2 23.24 6.23 0
 -8 -3 3 27.52 6.66 0
 -8 -3 4 19.26 6.88 0
 -8 -3 5 14.08 6.25 0
 -8 -3 6 32.25 8 0
 -8 -3 7 67.29 9.45 0
 -8 -2 0 38.92 6.73 0
 -8 -2 1 4.51 4.43 0
 -8 -2 3 47.69 8.14 0
 -8 -2 5 45.67 7.96 0
 -8 -2 6 39.12 8.14 0
 -8 -2 7 20.13 6.99 0
 -8 -1 0 7.85 4.3 0
 -8 -1 1 3.43 4.11 0
 -8 -1 4 2.84 4.85 0
 -8 -1 6 21.35 6.53 0
 -8 -1 7 80.7 10.56 0
 -8 -1 8 4 5.87 0
 -8 0 2 77.86 9.17 0
 -8 0 3 107.42 10.1 0
 -8 0 4 78.27 9.7 0
 -8 0 5 82.32 9.12 0
 -8 0 6 71.56 9.52 0
 -8 0 7 19.73 6.74 0
 -8 0 8 0.89 6.13 0
 -8 1 2 32.53 6.01 0
 -8 1 3 13.87 5.5 0
 -8 1 4 10.34 5.35 0
 -8 1 6 21.03 6.6 0
 -8 1 7 98.76 10.57 0
 -8 1 8 10.41 6.57 0
 -8 2 1 4.21 3.97 0
 -8 2 2 38.99 6.67 0
 -8 2 3 78.36 9.39 0
 -8 2 4 36.71 7.64 0
 -8 2 5 35.56 7.65 0
 -8 2 6 33.11 7.46 0
 -8 2 7 12.94 6.72 0
 -8 3 3 28.34 7.1 0
 -8 3 4 14.22 5.79 0
 -8 3 5 9.68 6.3 0
 -8 3 6 23.3 7.59 0
 -8 3 7 72.56 10.14 0
 -8 4 3 48.37 8.37 0
 -8 4 4 5.37 5.5 0
 -7 -6 4 14.52 6.65 0
 -7 -6 5 19.29 6.88 0
 -7 -6 6 10.82 6.9 0
 -7 -6 7 27.54 8.29 0
 -7 -5 1 45.62 7.7 0
 -7 -5 2 19.32 6.06 0
 -7 -5 3 11.11 6.37 0
 -7 -5 4 5.37 5.32 0
 -7 -5 6 20.71 6.8 0
 -7 -5 7 26.74 7.24 0
 -7 -4 -2 27.08 5.68 0
 -7 -4 -1 36.22 6.14 0
 -7 -4 0 140.19 10.26 0
 -7 -4 1 51.65 7.63 0
 -7 -4 2 17.51 6.42 0
 -7 -4 3 65.94 8.89 0
 -7 -4 4 54.71 8.95 0
 -7 -4 5 37.88 7.57 0
 -7 -4 6 3.32 5.04 0
 -7 -4 7 2.95 5.54 0
 -7 -4 8 71.27 10.2 0
 -7 -4 9 25.8 8.03 0
 -7 -3 -2 3.55 3.37 0
 -7 -3 -1 23.41 5.13 0
 -7 -3 0 4.17 4.13 0
 -7 -3 1 5.83 4.83 0
 -7 -3 2 0.38 3.94 0
 -7 -3 4 35.34 7.23 0
 -7 -3 5 48.65 7.5 0
 -7 -3 7 42.07 7.52 0
 -7 -3 8 56.43 8.64 0
 -7 -3 9 -3.11 5.54 0
 -7 -2 -2 8.29 3.23 0
 -7 -2 -1 81.79 7.16 0
 -7 -2 0 35.4 5.81 0
 -7 -2 1 25.3 5.3 0
 -7 -2 2 86.18 8.49 0
 -7 -2 3 137.57 9.82 0
 -7 -2 4 18.06 5.46 0
 -7 -2 5 34.97 7.41 0
 -7 -2 6 7.28 4.98 0
 -7 -2 7 25.41 6.81 0
 -7 -2 8 10.9 6.04 0
 -7 -2 9 17.16 6.73 0
 -7 -2 10 49.94 9.16 0
 -7 -1 -1 82.47 6.87 0
 -7 -1 0 67.61 6.99 0
 -7 -1 1 -0.23 3.49 0
 -7 -1 2 0.91 3.7 0
 -7 -1 4 23.96 6.47 0
 -7 -1 5 7.1 5.14 0
 -7 -1 6 27.82 6.48 0
 -7 -1 7 61.51 8.96 0
 -7 -1 8 1.73 5.4 0
 -7 -1 9 16.96 6.38 0
 -7 -1 10 -1.43 5.55 0
 -7 -1 11 12.28 6.65 0
 -7 0 -1 16.95 4.22 0
 -7 0 0 20.14 4.48 0
 -7 0 1 2.4 3.43 0
 -7 0 2 5.03 4.03 0
 -7 0 3 57.41 7.13 0
 -7 0 4 -1.08 4.76 0
 -7 0 5 3.87 4.65 0
 -7 0 6 87.73 9.64 0
 -7 0 7 -3.24 4.03 0
 -7 0 8 27.8 7.08 0
 -7 0 9 6.52 5.58 0
 -7 0 10 14.08 6.7 0
 -7 0 11 54.28 9.56 0
 -7 1 0 76.76 6.73 0
 -7 1 2 8.11 4.12 0
 -7 1 3 27.32 6.03 0
 -7 1 5 15.37 6.24 0
 -7 1 6 25.67 7.03 0
 -7 1 8 1.34 5.07 0
 -7 1 9 10.12 6.09 0
 -7 1 10 4.25 6.17 0
 -7 1 11 16.81 6.82 0
 -7 2 0 25.16 4.8 0
 -7 2 1 25.2 5.2 0
 -7 2 2 90.78 8.31 0
 -7 2 4 15.95 5.94 0
 -7 2 5 34.25 7.13 0
 -7 2 6 11.36 5.99 0
 -7 2 8 13.22 7.15 0
 -7 2 9 5.91 6 0
 -7 2 10 43.91 8.55 0
 -7 3 0 4.52 3.12 0
 -7 3 2 3.26 3.79 0
 -7 3 3 30.13 6 0
 -7 3 5 58.07 8.68 0
 -7 3 6 7.38 5.52 0
 -7 3 7 41.38 8.32 0
 -7 3 10 8.88 6.13 0
 -7 4 0 -0.83 2.47 0
 -7 4 1 47.34 6.39 0
 -7 4 2 26.65 6.05 0
 -7 4 4 46.21 8.2 0
 -7 4 6 3.84 5.51 0
 -7 4 7 3.03 6.04 0
 -7 4 8 63.94 10.05 0
 -7 4 9 35.87 8.39 0
 -7 5 3 11.94 5.7 0
 -7 5 4 11.7 5.77 0
 -7 5 5 38.76 7.91 0
 -7 5 6 18.41 7.1 0
 -7 5 8 37.86 8.35 0
 -6 -7 7 111.56 11.94 0
 -6 -7 8 29.75 8.4 0
 -6 -6 7 13.25 6.52 0
 -6 -6 9 64.18 10.16 0
 -6 -6 10 63.64 9.82 0
 -6 -5 6 5.72 5.37 0
 -6 -5 7 48.36 8.46 0
 -6 -5 8 126.4 10.92 0
 -6 -5 9 46.32 8.24 0
 -6 -5 10 10.26 6.24 0
 -6 -5 11 10.05 5.87 0
 -6 -4 4 25.44 5.65 0
 -6 -4 5 198.85 11.9 0
 -6 -4 6 19.53 6.66 0
 -6 -4 7 44.94 7.72 0
 -6 -4 8 28.67 6.64 0
 -6 -4 10 32.37 8.23 0
 -6 -3 1 1.61 4.21 0
 -6 -3 3 65.02 7.95 0
 -6 -3 4 84.33 8.31 0
 -6 -3 5 23.31 6.03 0
 -6 -3 6 50.97 7.33 0
 -6 -3 7 61.8 8.54 0
 -6 -3 9 63.55 8.62 0
 -6 -3 10 2.84 5.12 0
 -6 -3 11 30.93 7.92 0
 -6 -3 12 95.25 10.27 0
 -6 -2 -2 47.37 5.31 0
 -6 -2 -1 11.58 3.76 0
 -6 -2 0 55.25 5.83 0
 -6 -2 1 74.12 7.16 0
 -6 -2 2 -0.16 3.97 0
 -6 -2 5 78.39 8.29 0
 -6 -2 6 26.21 6.44 0
 -6 -2 7 11.49 5.07 0
 -6 -2 8 20.62 6.29 0
 -6 -2 10 5.38 5.15 0
 -6 -2 12 7.93 5.93 0
 -6 -1 0 8.65 3.81 0
 -6 -1 1 1.98 3.74 0
 -6 -1 2 25.79 4.74 0
 -6 -1 3 67.27 6.84 0
 -6 -1 4 47.25 6.75 0
 -6 -1 5 12.77 4.38 0
 -6 -1 6 52.48 6.93 0
 -6 -1 7 29.06 5.89 0
 -6 -1 8 41.22 7.69 0
 -6 -1 11 48.77 8.21 0
 -6 -1 12 13.89 6.36 0
 -6 0 0 102.15 6.71 0
 -6 0 1 108.22 7.7 0
 -6 0 2 28.67 4.96 0
 -6 0 3 15.79 4.43 0
 -6 0 4 3.33 3.86 0
 -6 0 5 28.18 6.05 0
 -6 0 6 17.97 5.37 0
 -6 0 7 2.91 4.44 0
 -6 0 8 9.64 5.22 0
 -6 0 9 8.84 5.17 0
 -6 0 10 28.11 6.79 0
 -6 0 11 20.69 7.17 0
 -6 1 2 25.24 4.91 0
 -6 1 3 68.66 6.75 0
 -6 1 4 43.21 6.36 0
 -6 1 5 17.96 5.01 0
 -6 1 6 52.08 7.88 0
 -6 1 7 28.89 6.19 0
 -6 1 8 36.93 6.76 0
 -6 1 9 19.15 6.1 0
 -6 1 10 11.68 5.66 0
 -6 1 11 50.86 9.17 0
 -6 1 12 8.29 6.04 0
 -6 2 1 66.95 6.15 0
 -6 2 2 0.99 3.12 0
 -6 2 3 46.51 6.23 0
 -6 2 5 72.36 8.38 0
 -6 2 6 15.91 5.15 0
 -6 2 7 11.09 5.1 0
 -6 2 8 16.54 5.67 0
 -6 2 9 8.44 6.11 0
 -6 2 10 7.64 6.44 0
 -6 2 11 1.73 5.49 0
 -6 2 12 19.23 6.93 0
 -6 3 0 30.31 4.87 0
 -6 3 1 0.07 3.06 0
 -6 3 2 4.89 4.29 0
 -6 3 3 61.02 7.43 0
 -6 3 5 18.97 5.84 0
 -6 3 6 49.77 7.53 0
 -6 3 7 71.06 8.22 0
 -6 3 8 31.59 6.9 0
 -6 3 9 48.61 8.61 0
 -6 3 11 26.36 7.23 0
 -6 3 12 87.13 11.15 0
 -6 4 1 39.32 5.59 0
 -6 4 2 6.96 4.08 0
 -6 4 4 29.05 5.8 0
 -6 4 5 196.16 12.17 0
 -6 4 6 16.13 5.54 0
 -6 4 7 37.72 7.4 0
 -6 4 8 24.01 6.96 0
 -6 4 9 27.79 7.72 0
 -6 4 10 24.8 7.2 0
 -6 4 11 4.68 7.42 0
 -6 5 2 5.1 4.15 0
 -6 5 3 3.78 4.28 0
 -6 5 6 9.13 6.37 0
 -6 5 7 38.48 7.43 0
 -6 5 8 119.79 11.7 0
 -5 -8 9 31.02 7.61 0
 -5 -7 10 25.69 7.39 0
 -5 -6 11 13.6 6.83 0
 -5 -5 7 4.81 4.83 0
 -5 -5 8 21.13 6.64 0
 -5 -5 9 58.01 8.47 0
 -5 -5 10 39.83 7.54 0
 -5 -5 11 1.25 4.96 0
 -5 -5 12 8.59 5.89 0
 -5 -4 6 32.1 6.7 0
 -5 -4 7 13.35 5.19 0
 -5 -4 9 37.57 7.06 0
 -5 -4 11 20.32 6.94 0
 -5 -3 5 69.42 6.75 0
 -5 -3 6 9.92 4.49 0
 -5 -3 7 31.03 5.71 0
 -5 -3 8 71.69 8.52 0
 -5 -3 9 8.19 4.6 0
 -5 -3 10 20.2 6.38 0
 -5 -3 12 6.86 5.73 0
 -5 -3 13 48.37 8.63 0
 -5 -2 3 222.59 9.99 0
 -5 -2 4 20.19 4.38 0
 -5 -2 5 246.76 11.37 0
 -5 -2 6 75.13 7.56 0
 -5 -2 8 4.83 4.43 0
 -5 -2 9 17.28 5.28 0
 -5 -2 10 40.71 6.7 0
 -5 -2 11 77.59 8.55 0
 -5 -2 12 6.58 6.23 0
 -5 -2 13 158.24 12.24 0
 -5 -2 14 16.53 6.34 0
 -5 -1 -3 31.16 3.59 0
 -5 -1 -1 22.33 3.49 0
 -5 -1 0 181.61 8.19 0
 -5 -1 6 14.04 4.79 0
 -5 -1 7 48.47 6.6 0
 -5 -1 8 21.21 5.17 0
 -5 -1 9 9.78 4.58 0
 -5 -1 10 88.01 8.89 0
 -5 -1 11 107.84 10.12 0
 -5 -1 12 3.33 5.11 0
 -5 -1 14 98.06 9.88 0
 -5 0 -3 2.45 1.72 0
 -5 0 -2 3.33 2.25 0
 -5 0 0 196.4 7.98 0
 -5 0 1 71.91 5.81 0
 -5 0 4 67.7 6.39 0
 -5 0 5 154.59 8.9 0
 -5 0 6 123.09 8.8 0
 -5 0 7 -0.68 3.19 0
 -5 0 8 0.06 3.14 0
 -5 0 9 74.9 7.84 0
 -5 0 10 108.23 9.43 0
 -5 0 11 104.66 9.48 0
 -5 0 12 48.93 7.86 0
 -5 0 13 66.44 9.58 0
 -5 0 14 15.63 6.26 0
 -5 1 -2 415.48 9.8 0
 -5 1 -1 23.19 3.34 0
 -5 1 0 195.67 7.96 0
 -5 1 1 9.26 3.57 0
 -5 1 5 16.25 4.09 0
 -5 1 6 21.9 5.19 0
 -5 1 8 18.3 5.72 0
 -5 1 9 12.7 4.7 0
 -5 1 12 3.37 4.76 0
 -5 1 13 8.65 6.35 0
 -5 1 14 87.1 10.64 0
 -5 2 -2 21.74 3.31 0
 -5 2 -1 84.68 5.19 0
 -5 2 0 100.22 6.2 0
 -5 2 5 235.21 10.8 0
 -5 2 6 61.46 6.7 0
 -5 2 7 5.92 4.39 0
 -5 2 8 8.75 4.3 0
 -5 2 9 16.01 5.37 0
 -5 2 11 76.41 8.67 0
 -5 2 12 1.62 6.27 0
 -5 2 14 3.12 6.18 0
 -5 3 -2 134.48 5.91 0
 -5 3 -1 105.56 5.82 0
 -5 3 0 241.22 9.1 0
 -5 3 3 3.55 3.2 0
 -5 3 4 44 6.3 0
 -5 3 5 58.64 6.31 0
 -5 3 7 27.5 6.31 0
 -5 3 9 7.4 5.24 0
 -5 3 10 18.33 6.48 0
 -5 3 11 -1.55 5.9 0
 -5 3 13 43.09 9.15 0
 -5 4 3 109.49 7.94 0
 -5 4 4 101.41 8.02 0
 -5 4 6 34.58 6.28 0
 -5 4 8 80.34 9.09 0
 -5 4 10 9.94 5.84 0
 -5 4 11 22.71 7.23 0
 -5 4 12 72.58 10.6 0
 -5 5 2 22.75 4.83 0
 -5 5 3 14.35 4.98 0
 -5 5 4 7.49 4.72 0
 -5 5 5 49.96 7.15 0
 -5 5 6 70.34 8.21 0
 -5 5 7 -0.58 4.63 0
 -5 5 8 19.61 6.03 0
 -5 5 9 47.41 8.1 0
 -4 -8 10 25.39 7.15 0
 -4 -7 11 5.21 4.72 0
 -4 -6 9 7.9 4.94 0
 -4 -6 10 19.06 6.25 0
 -4 -6 11 -0.85 4.38 0
 -4 -6 12 78.98 9.78 0
 -4 -5 10 6.6 5.36 0
 -4 -5 11 14.6 5.46 0
 -4 -5 12 3.98 4.67 0
 -4 -5 13 1.8 4.72 0
 -4 -4 9 27.36 5.77 0
 -4 -4 10 49.39 7.26 0
 -4 -4 13 15.95 5.58 0
 -4 -4 14 3.37 4.31 0
 -4 -3 6 49.46 6.21 0
 -4 -3 7 129.26 8.75 0
 -4 -3 8 37 5.94 0
 -4 -3 9 242.57 11.85 0
 -4 -3 10 24.24 5.38 0
 -4 -3 11 3.76 4.34 0
 -4 -3 12 19.23 5.43 0
 -4 -3 13 37.11 6.94 0
 -4 -3 14 29.79 6.39 0
 -4 -2 7 156.54 9.13 0
 -4 -2 9 57.77 6.4 0
 -4 -2 10 126.8 8.92 0
 -4 -2 11 87.97 8.36 0
 -4 -2 12 61.51 8.38 0
 -4 -2 13 14.9 5.34 0
 -4 -2 14 1.4 4.13 0
 -4 -1 -5 47.89 2.83 0
 -4 -1 1 33.86 4.24 0
 -4 -1 2 88.99 5.82 0
 -4 -1 3 32.29 4.29 0
 -4 -1 4 449.75 12.53 0
 -4 -1 8 13.76 4.61 0
 -4 -1 9 56.39 6.2 0
 -4 -1 10 19.58 5.06 0
 -4 -1 11 7.44 4.7 0
 -4 -1 12 154.86 10.86 0
 -4 -1 13 65.81 8.02 0
 -4 -1 14 90.71 9.3 0
 -4 -1 15 1.05 4.39 0
 -4 0 -4 10.02 1.58 0
 -4 0 -2 86.67 4.31 0
 -4 0 -1 10.94 2.33 0
 -4 0 0 36.81 3.49 0
 -4 0 1 11.78 2.95 0
 -4 0 2 2.16 2.27 0
 -4 0 3 212.91 8.26 0
 -4 0 4 13.38 3.37 0
 -4 0 9 0.77 4 0
 -4 0 10 185.9 10.51 0
 -4 0 11 324.8 14.14 0
 -4 0 12 0.29 4.24 0
 -4 0 13 52.72 7.4 0
 -4 0 14 12.78 5.4 0
 -4 0 15 -1.26 4.95 0
 -4 1 -4 352.28 5.78 0
 -4 1 -2 290.42 7.11 0
 -4 1 -1 1237.36 15.54 0
 -4 1 0 21.66 3.08 0
 -4 1 1 31.19 3.66 0
 -4 1 2 99.97 5.69 0
 -4 1 3 31.03 4.14 0
 -4 1 7 424.49 13.57 0
 -4 1 8 13.38 4.46 0
 -4 1 9 69.11 8.07 0
 -4 1 10 17.49 5.15 0
 -4 1 11 4.79 4.72 0
 -4 1 12 147.68 10.68 0
 -4 1 13 53.05 7.79 0
 -4 1 14 107.2 9.58 0
 -4 1 15 1.03 4.54 0
 -4 2 -3 18.92 2.24 0
 -4 2 -2 50.73 3.42 0
 -4 2 0 104.39 5.22 0
 -4 2 1 58.5 4.55 0
 -4 2 2 6.85 2.97 0
 -4 2 8 144.13 8.91 0
 -4 2 9 51.18 6.67 0
 -4 2 11 98.64 9.58 0
 -4 2 12 63.04 8.48 0
 -4 2 13 13.73 6.45 0
 -4 2 14 8.16 5.29 0
 -4 3 -2 71.19 4.3 0
 -4 3 0 22.56 3.66 0
 -4 3 2 129.21 6.91 0
 -4 3 10 19.55 5.52 0
 -4 3 11 5.02 5.25 0
 -4 3 12 23.69 6.28 0
 -4 3 13 41.74 7.57 0
 -4 4 0 181.68 7.75 0
 -4 4 1 5.78 3.11 0
 -4 4 6 17.96 4.63 0
 -4 4 7 54.34 6.32 0
 -4 4 8 238.33 12.17 0
 -4 4 9 16.38 5.49 0
 -4 4 10 66.22 8.6 0
 -4 5 4 43.15 5.76 0
 -4 5 7 105.47 8.51 0
 -4 5 8 18.05 5.25 0
 -3 -8 11 12.13 5.48 0
 -3 -7 10 26.37 6.34 0
 -3 -7 11 22.97 5.78 0
 -3 -7 12 -6 3.45 0
 -3 -6 10 5.36 4.3 0
 -3 -6 11 123.34 9.15 0
 -3 -6 12 2.85 4 0
 -3 -5 9 167.51 10.16 0
 -3 -5 10 18.95 4.81 0
 -3 -5 11 23.36 5.54 0
 -3 -5 12 -0.4 3.53 0
 -3 -5 13 74.38 7.71 0
 -3 -4 8 47.05 6.02 0
 -3 -4 9 42.62 5.69 0
 -3 -4 10 45.92 6.15 0
 -3 -4 11 36.14 5.87 0
 -3 -4 13 19.97 4.86 0
 -3 -3 9 3.24 3.44 0
 -3 -3 10 4.28 3.73 0
 -3 -3 11 18.26 4.9 0
 -3 -3 12 93.97 7.55 0
 -3 -2 6 14.48 3.43 0
 -3 -2 7 148.27 7.97 0
 -3 -2 10 -1.47 3.12 0
 -3 -2 11 25.85 5.32 0
 -3 -2 13 44.06 6.55 0
 -3 -2 14 14.4 4.65 0
 -3 -1 3 2.97 2.6 0
 -3 -1 4 866.39 15.16 0
 -3 -1 5 63.2 4.86 0
 -3 -1 7 209.71 8.66 0
 -3 -1 10 3.36 3.32 0
 -3 -1 11 -0.15 3.3 0
 -3 -1 12 117.06 8.28 0
 -3 -1 13 28.88 5.4 0
 -3 -1 14 15.81 4.63 0
 -3 0 -5 421.51 3.79 0
 -3 0 -4 1.34 0.78 0
 -3 0 -2 64.99 3.19 0
 -3 0 -1 576 9.3 0
 -3 0 2 225.87 7.27 0
 -3 0 3 809.27 13.73 0
 -3 0 5 -0.54 1.94 0
 -3 0 6 11.3 3.46 0
 -3 0 7 649.14 14.78 0
 -3 0 10 52.59 5.97 0
 -3 0 11 4.57 3.56 0
 -3 0 12 14.76 4.41 0
 -3 0 13 69.88 7.69 0
 -3 0 14 22.39 5.32 0
 -3 1 -4 257.98 3.25 0
 -3 1 -3 139.31 3.51 0
 -3 1 -1 4.52 1.56 0
 -3 1 0 398.19 8.12 0
 -3 1 1 115.34 4.96 0
 -3 1 2 243.86 7.51 0
 -3 1 4 868.78 15.39 0
 -3 1 5 58.12 5.03 0
 -3 1 6 205.06 8.37 0
 -3 1 9 17.81 4.53 0
 -3 1 10 8.14 3.89 0
 -3 1 11 5.71 4.38 0
 -3 1 13 27.41 5.52 0
 -3 1 14 16.45 5.21 0
 -3 1 15 90.06 8.29 0
 -3 2 -3 118.43 3.35 0
 -3 2 -1 82.42 3.69 0
 -3 2 0 660.65 10.81 0
 -3 2 1 265.2 7.42 0
 -3 2 3 207.38 7.47 0
 -3 2 5 176.63 7.73 0
 -3 2 9 94.91 7.14 0
 -3 2 11 29.52 5.74 0
 -3 2 12 61.13 6.88 0
 -3 2 13 49.66 7.61 0
 -3 3 -1 16.59 2.57 0
 -3 3 0 177.95 6.36 0
 -3 3 1 2.69 2.43 0
 -3 3 2 14.86 3.43 0
 -3 3 3 51.95 4.88 0
 -3 3 4 747.89 15.4 0
 -3 3 8 26.27 5.19 0
 -3 3 9 2.94 3.68 0
 -3 3 11 17.04 5.06 0
 -3 3 12 98.77 8.48 0
 -3 4 2 67.73 5.26 0
 -3 4 3 254.3 9.75 0
 -3 4 7 17.99 4.84 0
 -3 4 8 59.37 6.87 0
 -3 4 9 48.67 6.65 0
 -3 4 10 43.15 6.42 0
 -2 -7 11 113.8 8.33 0
 -2 -6 10 35.46 5.49 0
 -2 -6 11 65.25 6.52 0
 -2 -5 11 218.45 9.9 0
 -2 -5 12 3.09 3.24 0
 -2 -4 11 31.09 4.73 0
 -2 -4 12 2.1 2.91 0
 -2 -3 8 22.94 3.97 0
 -2 -3 9 10.3 3.75 0
 -2 -3 12 26.79 4.76 0
 -2 -2 6 231.52 7.97 0
 -2 -2 8 51.29 4.96 0
 -2 -2 9 55.66 5.07 0
 -2 -2 12 7.68 3.27 0
 -2 -1 4 97.89 4.95 0
 -2 -1 5 44.08 3.66 0
 -2 -1 6 82.32 4.93 0
 -2 -1 7 345.81 9.72 0
 -2 -1 8 145.74 7 0
 -2 -1 9 106.83 6.56 0
 -2 -1 12 38.57 5.06 0
 -2 -1 13 82.64 6.55 0
 -2 0 0 236.81 5.36 0
 -2 0 1 355.77 6.81 0
 -2 0 3 3.12 2.1 0
 -2 0 4 642.35 11.1 0
 -2 0 5 166.2 6.38 0
 -2 0 6 56.3 4.54 0
 -2 0 8 29.45 4 0
 -2 0 9 54.98 5 0
 -2 0 12 7.9 3.79 0
 -2 0 13 -0.87 3.67 0
 -2 1 -1 269.31 4.88 0
 -2 1 0 592.23 7.99 0
 -2 1 4 96.56 4.84 0
 -2 1 8 146.02 7.15 0
 -2 1 11 11.13 3.66 0
 -2 1 12 45.97 5.62 0
 -2 1 13 88.27 7.49 0
 -2 2 -1 131.61 4.04 0
 -2 2 0 811.52 10.38 0
 -2 2 2 328.41 7.66 0
 -2 2 3 109.93 5.2 0
 -2 2 4 324.81 8.62 0
 -2 2 5 79.41 4.73 0
 -2 2 8 51.14 5.1 0
 -2 2 11 14 4.41 0
 -2 2 12 5.75 3.72 0
 -2 3 1 998 13.71 0
 -2 3 2 119.19 5.54 0
 -2 3 3 85.96 5.02 0
 -2 3 4 219.09 7.95 0
 -2 3 5 61.67 5.27 0
 -2 3 6 168.27 7.71 0
 -1 -4 10 18.63 3.29 0
 -1 -4 11 24.32 3.64 0
 -1 -3 8 111.9 5.49 0
 -1 -3 9 90.09 5.15 0
 -1 -3 10 93.05 5.45 0
 -1 -3 11 17 3.3 0
 -1 -2 6 214.87 6.44 0
 -1 -2 7 50.22 3.89 0
 -1 -2 8 106.94 5.14 0
 -1 -2 9 1.61 2.2 0
 -1 -2 11 12.45 3.08 0
 -1 -1 4 2323.23 17.51 0
 -1 -1 5 17.3 2.34 0
 -1 -1 6 661.28 10.47 0
 -1 -1 7 372.26 8.49 0
 -1 -1 9 19.6 3.26 0
 -1 -1 10 72.62 4.95 0
 -1 -1 12 37.83 4.12 0
 -1 0 2 15.36 1.79 0
 -1 0 3 296.92 5.89 0
 -1 0 4 1460.13 13.65 0
 -1 0 6 58.5 3.75 0
 -1 0 7 -0.35 1.73 0
 -1 0 8 4.59 2.29 0
 -1 0 9 95.79 5.44 0
 -1 0 10 73.39 4.93 0
 -1 0 11 7.24 2.84 0
 -1 0 12 158.42 7.36 0
 -1 1 0 5130.9 17.29 0
 -1 1 1 445.56 6.09 0
 -1 1 2 21.5 2.15 0
 -1 1 3 1164.53 12.11 0
 -1 1 4 2382.63 18.55 0
 -1 1 5 23.83 2.94 0
 -1 1 6 702.37 11.87 0
 -1 1 7 344.31 8.79 0
 -1 1 8 52.55 4.19 0
 -1 1 9 17.11 3.59 0
 -1 1 10 66.43 5.3 0
 -1 1 11 112.13 6.7 0
 -1 2 1 2001.29 15.04 0
 -1 2 2 958.04 11.32 0
 -1 2 3 499.09 8.94 0
 -1 2 5 166.3 5.99 0
 -1 2 6 219.14 7.36 0
 -1 2 7 50.87 4.28 0
 -1 2 8 100.7 5.87 0
 -1 2 9 1.62 2.6 0
 0 -4 8 142.24 5.44 0
 0 -4 9 3.36 1.76 0
 0 -3 7 21.91 2.43 0
 0 -3 8 71.91 3.63 0
 0 -3 9 35.29 2.86 0
 0 -2 6 13.95 1.77 0
 0 -2 8 351.27 6.99 0
 0 -2 9 8.95 1.79 0
 0 -2 10 204.45 5.51 0
 0 -1 4 240.8 4.32 0
 0 -1 5 544.7 6.88 0
 0 -1 6 132.83 3.86 0
 0 -1 7 209.21 5.14 0
 0 -1 8 137.96 4.49 0
 0 -1 9 2.39 1.44 0
 0 -1 10 27.19 2.57 0
 0 0 2 2893.23 10.23 0
 0 0 3 30.13 1.71 0
 0 0 4 247.9 4.52 0
 0 0 5 293.74 5.48 0
 0 0 6 12.66 1.76 0
 0 0 7 100.61 3.97 0
 0 0 8 1074.71 12.68 0
 0 0 9 12.3 2.22 0
 0 1 3 1047.51 9.43 0
 0 1 4 232.23 5.14 0
 0 1 5 536.65 8.26 0
 0 1 6 123.52 4.37 0
 1 -3 7 57.63 1.87 0
 1 -2 5 83.09 1.72 0

_iucr_refine_fcf_details
;
data_fk03416_intdb_v128
_computing_structure_refinement   'olex2.refine 1.5-alpha (Bourhis et al., 2015)'
_shelx_refln_list_code            4
loop_
  _space_group_symop_id
  _space_group_symop_operation_xyz
  1  x,y,z
  2  -x,y+1/2,-z

_space_group_crystal_system       monoclinic
_space_group_IT_number            4
_space_group_name_H-M_alt         'P 1 21 1'
_space_group_name_Hall            ' P 2yb'
_symmetry_space_group_name_H-M    'P 1 21 1'
_symmetry_space_group_name_Hall   ' P 2yb'
_symmetry_Int_Tables_number       4
_cell_length_a                    5.1533(6)
_cell_length_b                    7.2436(9)
_cell_length_c                    9.4682(11)
_cell_angle_alpha                 90
_cell_angle_beta                  97.235(9)
_cell_angle_gamma                 90
_cell_volume                      350.62(7)
loop_
  _refln_index_h
  _refln_index_k
  _refln_index_l
  _refln_F_squared_calc
  _refln_F_squared_meas
  _refln_F_squared_sigma
  _refln_F_squared_weight
  _refln_observed_status
-8 -4 -2 2.738 2.445 1.805 54.386 o
-8 -4 -1 4.150 3.574 1.451 80.537 o
-8 -4 0 9.908 9.401 1.885 44.296 o
-8 -3 -3 7.945 8.522 1.847 47.468 o
-8 -3 -2 2.851 1.366 1.866 51.160 o
-8 -3 -1 18.268 22.289 2.740 19.760 o
-8 -3 0 10.027 10.954 1.868 44.382 o
-8 -2 -4 10.819 10.839 1.805 46.498 o
-8 -2 -3 5.583 3.107 1.960 45.072 o
-8 -2 -2 24.863 29.297 2.767 17.362 o
-8 -2 -1 3.635 3.614 2.200 36.607 o
-8 -2 0 18.775 19.628 2.295 26.391 o
-8 -1 -4 12.978 12.295 2.298 29.721 o
-8 -1 -3 6.995 9.777 3.228 16.836 o
-8 -1 -2 8.234 9.952 1.946 42.675 o
-8 -1 -1 6.239 9.375 1.908 45.515 o
-8 -1 0 3.445 2.365 1.445 82.773 o
-8 0 1 9.151 10.189 2.719 22.988 o
-8 0 2 33.240 42.923 3.273 11.569 o
-8 0 3 52.327 62.432 3.551 7.742 o
-8 0 4 40.910 40.534 3.217 11.030 o
-8 0 5 41.841 44.305 3.291 10.398 o
-8 0 6 33.115 36.566 3.244 12.121 o
-8 0 7 8.605 9.792 2.448 28.098 o
-8 0 8 0.829 0.200 1.777 57.458 o
-8 1 1 1.568 -0.525 2.068 42.340 o
-8 1 2 20.960 19.273 2.257 26.301 o
-8 1 3 7.141 7.734 1.721 54.705 o
-8 1 4 2.096 3.693 1.676 62.774 o
-8 1 5 12.858 14.382 3.345 15.062 o
-8 1 6 13.199 12.008 2.275 30.210 o
-8 1 7 45.543 51.032 3.711 8.330 o
-8 1 8 2.689 4.887 2.175 37.516 o
-8 2 1 3.440 2.566 1.799 54.339 o
-8 2 2 18.490 18.762 2.188 28.665 o
-8 2 3 33.911 41.811 3.027 12.809 o
-8 2 4 21.702 22.036 2.484 22.153 o
-8 2 5 20.805 18.828 2.562 21.808 o
-8 2 6 23.809 18.404 2.647 20.046 o
-8 2 7 8.265 8.847 2.193 34.639 o
-8 3 1 9.292 13.832 2.249 31.896 o
-8 3 3 14.869 15.401 2.070 33.785 o
-8 3 4 8.707 8.464 1.614 59.273 o
-8 3 5 6.547 5.922 1.641 60.910 o
-8 3 6 15.960 15.257 1.883 38.452 o
-8 3 7 40.444 39.739 3.381 10.447 o
-8 4 1 13.615 10.719 2.533 25.116 o
-8 4 3 24.923 29.459 2.746 17.530 o
-8 4 4 5.360 2.163 1.717 58.366 o
-8 5 2 1.438 2.615 2.041 43.162 o
-7 -7 -1 1.143 0.928 1.240 116.009 o
-7 -7 0 0.138 0.868 1.177 130.640 o
-7 -6 -3 1.634 1.335 1.076 151.013 o
-7 -6 -2 0.485 -0.547 0.973 190.968 o
-7 -6 -1 19.611 21.791 1.850 34.706 o
-7 -6 0 48.005 53.996 2.170 13.328 o
-7 -5 -5 3.252 2.818 1.469 80.197 o
-7 -5 -4 3.121 1.838 1.182 121.974 o
-7 -5 -3 7.155 4.826 1.667 59.141 o
-7 -5 -2 1.137 2.711 1.155 131.175 o
-7 -5 -1 1.011 1.625 0.954 192.146 o
-7 -5 0 0.905 1.355 1.164 131.394 o
-7 -4 -6 1.447 0.655 1.238 116.135 o
-7 -4 -5 11.114 8.774 1.612 56.676 o
-7 -4 -4 13.793 15.659 1.442 58.463 o
-7 -4 -3 19.469 22.119 1.921 33.006 o
-7 -4 -2 18.305 16.623 1.401 53.295 o
-7 -4 -1 23.038 22.344 1.647 36.939 o
-7 -4 0 68.744 78.124 2.180 8.144 o
-7 -3 -7 9.859 9.601 1.394 72.563 o
-7 -3 -6 7.250 7.171 1.259 93.558 o
-7 -3 -5 16.342 14.113 1.680 45.551 o
-7 -3 -4 6.169 6.830 1.354 85.211 o
-7 -3 -3 15.982 18.575 1.423 54.196 o
-7 -3 -2 5.232 2.692 0.854 199.574 o
-7 -3 -1 12.905 13.766 1.226 75.715 o
-7 -3 0 1.969 2.228 1.104 141.333 o
-7 -2 -7 0.351 0.868 1.087 152.278 o
-7 -2 -6 6.408 5.300 1.302 92.206 o
-7 -2 -5 11.090 9.849 1.291 78.702 o
-7 -2 -4 1.290 1.254 1.173 128.792 o
-7 -2 -3 18.176 16.238 1.391 54.161 o
-7 -2 -2 6.332 6.130 0.872 172.052 o
-7 -2 -1 45.559 45.620 2.152 14.939 o
-7 -2 0 16.088 17.708 1.631 45.905 o
-7 -1 -7 2.392 2.931 1.138 131.262 o
-7 -1 -6 6.957 7.469 1.308 88.169 o
-7 -1 -5 6.010 4.368 0.999 146.400 o
-7 -1 -4 9.792 10.758 1.472 65.960 o
-7 -1 -3 3.056 3.752 0.963 172.900 o
-7 -1 -2 1.889 1.178 0.880 219.947 o
-7 -1 -1 43.038 44.374 1.990 16.709 o
-7 -1 0 38.257 41.961 2.342 16.108 o
-7 0 1 0.847 0.209 0.985 184.310 o
-7 0 2 2.609 3.863 1.376 90.875 o
-7 0 3 27.657 32.216 2.198 22.141 o
-7 0 4 1.446 -0.854 1.338 100.275 o
-7 0 5 4.829 3.659 1.229 107.531 o
-7 0 6 41.752 48.217 2.980 11.432 o
-7 0 7 0.192 0.530 1.259 114.411 o
-7 0 8 11.399 13.339 2.006 37.935 o
-7 0 9 8.732 5.954 1.475 70.629 o
-7 0 10 9.089 9.153 1.692 54.027 o
-7 0 11 28.188 27.634 2.471 19.667 o
-7 1 1 3.525 2.952 1.898 48.913 o
-7 1 2 3.017 3.062 1.115 134.345 o
-7 1 3 15.293 14.829 1.747 43.639 o
-7 1 4 15.482 14.002 1.441 57.242 o
-7 1 5 5.190 6.527 0.952 156.717 o
-7 1 6 15.358 15.669 1.302 63.752 o
-7 1 7 30.743 30.036 2.036 23.289 o
-7 1 8 1.697 0.962 0.991 177.042 o
-7 1 9 7.221 7.112 1.706 55.748 o
-7 1 10 0.661 2.047 1.848 52.866 o
-7 1 11 8.483 8.360 1.893 45.146 o
-7 2 1 13.473 14.590 1.412 61.392 o
-7 2 2 46.009 49.760 2.375 13.279 o
-7 2 3 65.541 69.408 2.370 8.683 o
-7 2 4 9.404 9.471 1.237 88.146 o
-7 2 5 17.903 17.674 1.312 57.116 o
-7 2 6 5.323 4.231 1.106 126.733 o
-7 2 7 12.774 14.074 1.430 61.828 o
-7 2 8 7.879 7.616 1.253 92.250 o
-7 2 9 5.322 5.207 1.280 97.305 o
-7 2 10 23.849 25.564 2.828 17.373 o
-7 3 1 2.400 1.211 1.349 96.605 o
-7 3 2 0.198 1.472 0.957 195.297 o
-7 3 3 16.193 14.511 1.499 53.124 o
-7 3 4 18.189 18.799 2.151 29.546 o
-7 3 5 30.459 29.796 1.681 28.261 o
-7 3 6 4.004 6.122 1.132 122.968 o
-7 3 7 23.956 23.066 1.948 29.583 o
-7 3 8 36.914 38.963 2.071 18.935 o
-7 3 9 0.073 0.640 1.204 125.281 o
-7 3 10 6.017 4.057 1.487 74.405 o
-7 4 1 28.130 30.721 4.180 8.754 o
-7 4 2 13.638 13.467 2.060 35.144 o
-7 4 4 24.797 28.666 2.371 21.653 o
-7 4 5 15.577 16.906 1.836 39.591 o
-7 4 6 2.617 2.866 1.170 124.239 o
-7 4 7 1.305 1.964 1.270 109.623 o
-7 4 8 35.210 40.316 2.467 16.202 o
-7 4 9 14.161 15.867 1.746 44.193 o
-7 5 1 27.501 24.977 2.074 25.289 o
-7 5 2 14.259 18.774 2.353 27.070 o
-7 5 3 5.722 5.288 1.576 66.604 o
-7 5 4 6.583 5.508 2.199 35.565 o
-7 5 5 17.914 19.651 2.974 17.533 o
-7 5 6 9.499 10.697 1.696 52.772 o
-7 5 7 8.646 12.184 2.078 37.294 o
-7 5 8 17.633 21.229 1.922 34.372 o
-7 6 1 16.206 16.974 2.065 32.836 o
-7 6 2 2.462 5.111 1.877 49.936 o
-7 6 4 10.180 9.673 2.262 31.971 o
-7 6 6 4.415 6.150 2.031 41.993 o
-7 6 7 12.608 15.962 2.718 21.852 o
-7 7 1 5.488 6.111 2.040 41.237 o
-7 7 3 0.238 0.974 1.818 54.977 o
-7 7 4 0.653 -0.489 1.532 77.373 o
-6 -8 -3 5.598 6.532 1.272 96.295 o
-6 -8 -2 8.097 5.984 1.425 75.793 o
-6 -8 -1 8.776 9.089 1.423 72.465 o
-6 -8 0 3.939 2.912 1.147 125.131 o
-6 -7 -5 16.339 16.522 1.512 51.082 o
-6 -7 -4 6.275 4.275 1.127 119.426 o
-6 -7 -3 7.573 7.512 1.157 105.528 o
-6 -7 -2 1.896 2.329 1.068 150.436 o
-6 -7 -1 24.406 26.928 1.816 30.671 o
-6 -7 0 15.288 15.091 1.366 60.708 o
-6 -6 -7 0.358 0.129 0.908 219.037 o
-6 -6 -6 7.000 7.095 1.060 123.622 o
-6 -6 -5 4.513 5.235 1.103 128.298 o
-6 -6 -4 5.825 4.836 1.087 127.471 o
-6 -6 -3 4.923 4.788 1.006 149.051 o
-6 -6 -2 62.474 67.941 2.093 9.755 o
-6 -6 -1 1.196 0.533 0.799 272.759 o
-6 -6 0 12.109 10.806 1.049 98.643 o
-6 -5 -8 11.523 15.149 1.200 79.428 o
-6 -5 -7 48.439 52.756 1.954 14.300 o
-6 -5 -6 10.508 8.293 1.248 85.787 o
-6 -5 -5 12.738 12.930 0.995 98.403 o
-6 -5 -4 50.395 55.722 1.855 13.870 o
-6 -5 -3 32.584 33.759 1.649 26.255 o
-6 -5 -2 8.735 7.219 1.155 102.708 o
-6 -5 -1 15.175 15.992 1.046 80.745 o
-6 -5 0 72.455 76.982 1.885 8.224 o
-6 -4 -9 3.536 3.146 0.960 172.950 o
-6 -4 -8 13.374 13.372 1.085 86.807 o
-6 -4 -7 4.031 2.656 0.977 166.439 o
-6 -4 -6 18.973 19.039 1.418 50.038 o
-6 -4 -5 6.286 5.586 0.874 174.004 o
-6 -4 -4 11.880 10.995 0.787 134.277 o
-6 -4 -3 29.997 33.131 1.586 28.886 o
-6 -4 -2 18.196 19.495 1.251 57.939 o
-6 -4 -1 1.568 2.059 0.689 341.603 o
-6 -4 0 10.654 11.626 0.957 114.232 o
-6 -3 -9 5.867 3.855 0.943 162.737 o
-6 -3 -8 10.693 10.373 1.147 93.103 o
-6 -3 -7 15.720 14.352 1.046 81.552 o
-6 -3 -6 0.024 0.138 0.630 458.368 o
-6 -3 -5 17.895 20.098 1.167 61.903 o
-6 -3 -4 25.455 23.918 1.291 42.809 o
-6 -3 -3 22.252 22.366 1.178 51.688 o
-6 -3 -2 9.926 9.967 1.111 100.312 o
-6 -3 -1 35.965 35.253 1.684 23.639 o
-6 -3 0 17.528 14.384 1.394 56.344 o
-6 -2 -9 0.681 1.552 0.872 230.777 o
-6 -2 -8 9.216 6.869 1.343 80.686 o
-6 -2 -7 21.881 21.379 1.422 44.811 o
-6 -2 -6 22.303 19.909 1.319 48.591 o
-6 -2 -5 17.259 18.722 1.312 57.324 o
-6 -2 -4 17.149 15.602 1.138 69.898 o
-6 -2 -3 6.626 6.799 0.826 180.552 o
-6 -2 -2 25.311 26.340 1.288 41.611 o
-6 -2 -1 4.343 5.887 0.905 177.197 o
-6 -2 0 33.326 31.636 1.472 28.737 o
-6 -1 -10 60.095 71.160 2.250 9.516 o
-6 -1 -9 9.873 8.159 1.473 67.614 o
-6 -1 -8 63.238 73.071 2.410 8.660 o
-6 -1 -7 1.449 1.636 0.872 225.092 o
-6 -1 -6 6.721 5.529 0.967 147.265 o
-6 -1 -5 1.212 0.845 0.744 309.984 o
-6 -1 -4 11.522 12.639 1.120 90.134 o
-6 -1 -3 0.529 -0.161 0.611 475.331 o
-6 -1 -2 7.135 6.308 0.941 148.955 o
-6 -1 -1 28.200 29.819 1.690 29.541 o
-6 -1 0 4.683 4.181 0.742 245.521 o
-6 0 1 63.252 58.811 1.370 12.030 o
-6 0 2 16.149 17.809 0.958 81.381 o
-6 0 3 9.782 9.298 0.829 146.715 o
-6 0 4 2.255 1.771 0.930 194.311 o
-6 0 5 18.374 15.312 1.360 55.988 o
-6 0 6 9.403 7.922 1.547 63.169 o
-6 0 7 0.833 0.815 1.046 162.794 o
-6 0 8 2.402 3.097 1.140 130.751 o
-6 0 9 1.185 2.715 1.386 92.243 o
-6 0 10 17.150 16.466 2.337 26.776 o
-6 0 11 10.557 9.963 1.889 43.541 o
-6 0 12 11.950 12.477 2.776 21.473 o
-6 0 13 0.404 -0.973 2.113 40.788 o
-6 1 1 2.656 1.544 0.568 450.625 o
-6 1 2 15.549 14.211 1.172 73.023 o
-6 1 3 36.305 36.210 1.730 22.788 o
-6 1 4 25.392 21.845 2.029 27.719 o
-6 1 5 9.603 7.497 0.894 140.808 o
-6 1 6 27.049 28.575 2.163 23.494 o
-6 1 7 10.893 13.355 1.157 87.234 o
-6 1 8 19.203 20.834 1.629 41.466 o
-6 1 9 9.462 8.971 1.316 80.735 o
-6 1 10 4.275 5.302 1.233 106.217 o
-6 1 11 25.723 28.639 2.073 25.282 o
-6 1 12 5.261 4.704 1.409 82.560 o
-6 2 1 38.072 38.529 1.262 25.688 o
-6 2 2 1.485 0.675 0.662 382.429 o
-6 2 3 25.019 23.426 1.370 41.537 o
-6 2 4 10.942 7.952 1.034 110.210 o
-6 2 5 42.798 44.232 1.583 19.406 o
-6 2 6 12.703 11.853 1.066 93.106 o
-6 2 7 8.250 8.283 1.139 104.728 o
-6 2 8 13.090 11.766 1.434 62.803 o
-6 2 9 6.669 5.331 1.230 100.808 o
-6 2 10 2.457 1.712 1.213 117.819 o
-6 2 11 0.752 0.839 1.233 118.068 o
-6 2 12 8.103 8.854 1.517 66.313 o
-6 3 1 2.154 1.140 1.079 148.709 o
-6 3 2 3.461 3.331 0.849 213.367 o
-6 3 3 33.618 35.916 1.462 27.252 o
-6 3 4 46.067 52.590 1.794 15.687 o
-6 3 5 14.063 12.520 1.028 91.177 o
-6 3 6 25.928 24.047 1.480 37.615 o
-6 3 7 38.532 43.401 2.147 17.162 o
-6 3 8 14.820 17.314 1.740 43.258 o
-6 3 9 31.936 28.686 2.202 21.191 o
-6 3 10 1.263 1.628 1.423 88.171 o
-6 3 11 12.272 14.717 2.160 32.819 o
-6 3 12 45.648 46.914 3.064 10.659 o
-6 4 1 20.532 21.413 1.133 57.126 o
-6 4 2 4.853 3.858 0.855 197.573 o
-6 4 3 12.482 12.132 1.398 65.780 o
-6 4 4 19.083 15.769 1.029 71.481 o
-6 4 5 101.692 106.228 2.538 4.392 o
-6 4 6 12.581 10.187 1.009 102.641 o
-6 4 7 21.840 24.862 1.530 39.894 o
-6 4 8 13.370 13.130 1.327 68.126 o
-6 4 9 13.681 15.749 1.702 46.368 o
-6 4 10 13.354 13.936 2.050 35.461 o
-6 4 11 2.358 1.684 1.411 88.327 o
-6 5 1 8.605 8.885 0.968 128.866 o
-6 5 2 2.101 2.718 0.774 267.572 o
-6 5 3 0.131 0.790 1.054 162.813 o
-6 5 4 49.548 47.479 2.546 12.089 o
-6 5 5 13.168 14.104 1.525 55.946 o
-6 5 6 2.958 3.661 1.150 126.169 o
-6 5 7 22.807 22.236 1.510 40.776 o
-6 5 8 61.151 61.498 2.141 10.325 o
-6 5 9 25.578 26.335 2.590 19.276 o
-6 5 10 1.287 2.811 1.770 57.108 o
-6 5 11 4.219 7.018 1.969 44.432 o
-6 6 1 46.175 51.179 1.846 15.606 o
-6 6 2 15.651 14.913 1.699 45.097 o
-6 6 3 1.558 1.011 1.316 102.736 o
-6 6 4 16.932 14.677 2.671 21.741 o
-6 6 5 8.220 10.384 1.505 66.006 o
-6 6 6 38.999 48.112 2.797 12.703 o
-6 6 7 4.807 5.183 1.349 89.703 o
-6 6 8 0.426 0.451 1.108 146.987 o
-6 6 9 36.065 38.036 2.257 17.849 o
-6 6 10 29.014 31.218 2.428 19.365 o
-6 7 1 16.153 15.290 1.775 41.770 o
-6 7 2 11.530 10.598 1.656 52.964 o
-6 7 3 15.091 13.212 1.938 37.994 o
-6 7 4 2.000 0.099 1.592 70.779 o
-6 7 5 6.731 7.235 1.539 67.296 o
-6 7 6 8.407 7.215 1.740 52.839 o
-6 7 7 52.044 58.451 2.846 9.853 o
-6 7 8 15.368 15.694 1.780 42.076 o
-6 8 1 1.079 2.022 1.402 90.659 o
-6 8 2 19.213 21.295 2.877 18.167 o
-6 8 3 10.099 10.576 1.961 40.925 o
-6 8 4 7.409 6.406 1.986 42.459 o
-6 8 5 5.934 6.197 1.890 47.316 o
-6 8 6 0.955 3.056 1.786 56.205 o
-5 -10 0 21.356 25.105 2.647 19.832 o
-5 -9 -4 1.741 2.158 1.512 77.612 o
-5 -9 -3 16.823 18.455 1.956 34.851 o
-5 -9 -2 1.076 2.706 1.302 104.258 o
-5 -9 -1 44.690 43.043 2.906 11.700 o
-5 -9 0 7.529 6.490 1.730 54.373 o
-5 -8 -6 3.505 4.116 1.239 108.330 o
-5 -8 -5 11.393 10.039 1.526 60.706 o
-5 -8 -4 4.118 4.154 1.326 94.543 o
-5 -8 -3 0.924 1.953 1.298 105.669 o
-5 -8 -2 8.816 9.328 1.588 60.355 o
-5 -8 -1 17.999 20.965 1.827 36.675 o
-5 -8 0 12.981 11.319 1.552 56.414 o
-5 -7 -8 20.428 20.744 1.647 39.875 o
-5 -7 -7 0.208 -0.818 1.063 160.908 o
-5 -7 -6 44.841 43.111 2.428 13.949 o
-5 -7 -5 10.272 9.866 1.295 80.046 o
-5 -7 -4 6.285 8.242 1.346 84.559 o
-5 -7 -3 28.347 27.696 1.838 27.750 o
-5 -7 -2 16.613 19.613 1.634 44.340 o
-5 -7 -1 48.766 53.421 2.401 12.283 o
-5 -7 0 12.407 14.761 1.740 46.372 o
-5 -6 -9 9.761 10.254 1.247 85.312 o
-5 -6 -8 11.473 9.504 1.314 76.308 o
-5 -6 -7 26.137 27.921 1.625 32.777 o
-5 -6 -6 1.585 2.025 1.057 155.006 o
-5 -6 -5 7.906 5.998 1.331 85.222 o
-5 -6 -4 14.632 14.841 1.402 59.962 o
-5 -6 -3 28.427 29.830 1.963 25.327 o
-5 -6 -2 4.480 4.556 0.878 189.526 o
-5 -6 -1 13.794 14.190 1.292 68.699 o
-5 -6 0 57.497 63.109 2.182 10.667 o
-5 -5 -10 0.207 -0.221 0.802 282.056 o
-5 -5 -9 17.191 18.591 1.243 60.913 o
-5 -5 -8 13.266 10.406 1.216 79.648 o
-5 -5 -7 10.353 12.117 1.046 103.055 o
-5 -5 -6 11.678 11.943 1.025 100.897 o
-5 -5 -5 27.386 22.788 1.180 43.925 o
-5 -5 -4 3.349 3.085 0.850 214.878 o
-5 -5 -3 44.572 42.836 1.565 19.093 o
-5 -5 -2 20.057 20.505 0.931 68.016 o
-5 -5 -1 22.757 22.763 1.037 55.391 o
-5 -5 0 32.603 34.486 1.513 27.739 o
-5 -4 -10 5.155 5.979 0.935 162.800 o
-5 -4 -9 0.384 1.086 0.770 297.943 o
-5 -4 -8 21.332 21.719 1.262 50.675 o
-5 -4 -7 47.995 51.551 1.639 16.004 o
-5 -4 -6 1.525 1.489 0.648 388.202 o
-5 -4 -5 13.202 16.534 0.884 100.613 o
-5 -4 -4 50.635 54.184 1.353 15.970 o
-5 -4 -3 3.250 1.894 0.631 362.899 o
-5 -4 -2 4.966 4.031 0.481 422.909 o
-5 -4 -1 5.494 5.546 0.520 350.266 o
-5 -4 0 67.044 67.934 1.926 9.440 o
-5 -3 -11 16.941 15.519 1.175 68.216 o
-5 -3 -10 44.642 50.529 1.685 16.996 o
-5 -3 -9 57.020 61.252 1.687 12.304 o
-5 -3 -8 30.384 35.329 1.276 32.304 o
-5 -3 -7 22.015 23.232 1.036 56.371 o
-5 -3 -6 49.165 45.984 1.264 18.311 o
-5 -3 -5 4.078 3.069 0.566 387.934 o
-5 -3 -4 0.758 0.978 0.505 648.901 o
-5 -3 -3 45.911 48.181 1.204 19.483 o
-5 -3 -2 74.260 74.320 1.364 8.838 o
-5 -3 -1 54.711 56.258 1.060 15.311 o
-5 -3 0 139.868 131.361 1.337 2.926 o
-5 -2 -11 0.857 -1.268 0.887 227.033 o
-5 -2 -10 26.290 28.880 1.519 34.323 o
-5 -2 -9 13.838 15.562 1.177 75.131 o
-5 -2 -8 16.867 17.282 1.014 76.275 o
-5 -2 -7 10.021 10.191 0.750 157.334 o
-5 -2 -6 8.768 6.832 0.755 181.907 o
-5 -2 -5 20.011 20.868 1.176 56.820 o
-5 -2 -4 18.043 17.125 1.145 65.800 o
-5 -2 -3 36.844 39.654 1.006 28.471 o
-5 -2 -2 12.147 9.424 0.635 164.493 o
-5 -2 -1 43.443 42.962 0.876 23.796 o
-5 -2 0 62.925 57.387 0.927 13.152 o
-5 -1 -11 12.041 13.004 1.207 80.189 o
-5 -1 -10 88.906 97.501 2.449 5.360 o
-5 -1 -9 12.569 13.153 1.029 95.102 o
-5 -1 -8 10.167 9.783 0.802 147.476 o
-5 -1 -7 6.780 6.697 0.719 214.936 o
-5 -1 -6 5.131 4.251 0.632 299.074 o
-5 -1 -5 24.858 20.896 1.416 41.898 o
-5 -1 -4 10.771 9.182 0.899 128.466 o
-5 -1 -3 17.788 16.599 0.740 92.955 o
-5 -1 -2 230.469 221.521 1.985 1.095 o
-5 -1 -1 13.036 13.178 0.502 159.098 o
-5 -1 0 111.770 105.409 1.027 4.508 o
-5 0 1 42.892 40.123 0.582 26.584 o
-5 0 2 176.966 165.377 1.133 1.888 o
-5 0 3 179.388 166.116 1.712 1.819 o
-5 0 4 40.646 40.003 1.228 23.986 o
-5 0 5 91.760 82.999 1.363 6.465 o
-5 0 6 66.621 66.142 2.510 8.470 o
-5 0 7 0.274 0.108 0.820 269.112 o
-5 0 8 0.014 -0.595 0.799 285.825 o
-5 0 9 40.055 40.636 1.938 18.611 o
-5 0 10 59.275 55.339 2.371 10.471 o
-5 0 11 53.487 59.167 2.826 9.687 o
-5 0 12 25.887 26.333 2.603 19.068 o
-5 0 13 31.672 35.452 3.207 12.579 o
-5 0 14 9.634 8.715 2.013 39.817 o
-5 1 1 5.248 5.107 0.284 583.670 o
-5 1 2 47.719 43.053 0.694 22.136 o
-5 1 3 28.762 24.774 0.913 46.833 o
-5 1 4 18.363 17.059 0.667 94.410 o
-5 1 5 6.838 8.514 0.703 209.007 o
-5 1 6 10.901 11.549 1.111 94.628 o
-5 1 7 27.497 26.849 2.022 25.619 o
-5 1 8 12.005 12.892 1.272 75.120 o
-5 1 9 6.350 7.524 1.163 108.369 o
-5 1 10 43.310 47.674 2.345 14.217 o
-5 1 11 54.991 65.415 3.591 7.330 o
-5 1 12 3.639 4.154 1.426 83.437 o
-5 1 13 9.612 8.310 1.637 57.056 o
-5 1 14 45.317 44.898 3.570 9.030 o
-5 2 1 16.702 17.872 0.514 111.340 o
-5 2 2 84.805 78.473 1.068 7.555 o
-5 2 3 131.744 126.343 1.888 3.133 o
-5 2 4 12.289 11.767 1.076 93.544 o
-5 2 5 142.275 128.379 2.612 2.686 o
-5 2 6 37.848 33.749 1.341 26.574 o
-5 2 7 2.378 2.279 0.835 233.590 o
-5 2 8 2.783 2.881 0.919 192.057 o
-5 2 9 10.110 8.456 1.241 87.281 o
-5 2 10 22.096 21.022 1.714 36.554 o
-5 2 11 38.070 42.448 2.686 13.966 o
-5 2 12 3.167 0.959 1.768 56.783 o
-5 2 13 80.455 90.407 3.808 4.791 o
-5 2 14 8.473 5.346 1.957 43.322 o
-5 3 1 13.531 11.578 0.442 170.787 o
-5 3 2 8.643 8.271 0.486 260.081 o
-5 3 3 0.839 0.594 0.477 726.850 o
-5 3 4 26.226 23.085 1.107 47.202 o
-5 3 5 36.067 35.528 1.511 25.327 o
-5 3 6 2.816 1.765 0.691 322.067 o
-5 3 7 17.890 17.292 1.137 66.386 o
-5 3 8 37.386 40.728 1.892 19.918 o
-5 3 9 4.863 4.072 1.242 104.993 o
-5 3 10 9.383 7.389 1.346 79.576 o
-5 3 11 1.082 -0.188 1.342 100.128 o
-5 3 12 2.507 2.972 1.819 53.569 o
-5 3 13 24.515 20.973 2.668 19.345 o
-5 4 1 69.053 73.412 1.473 9.505 o
-5 4 2 17.792 16.962 1.031 73.125 o
-5 4 3 57.947 60.331 1.675 12.240 o
-5 4 4 55.746 57.831 1.626 13.146 o
-5 4 5 8.105 5.633 0.819 175.181 o
-5 4 6 16.758 16.518 1.237 63.978 o
-5 4 7 7.699 8.330 0.900 148.725 o
-5 4 8 45.318 47.200 1.863 16.344 o
-5 4 9 16.679 13.007 1.459 55.374 o
-5 4 10 7.534 5.269 1.768 52.754 o
-5 4 11 10.427 12.290 1.964 40.161 o
-5 4 12 36.370 33.918 3.191 12.151 o
-5 4 13 29.363 30.796 3.397 12.094 o
-5 5 1 70.805 67.303 2.272 8.370 o
-5 5 2 10.829 10.272 0.730 154.400 o
-5 5 3 7.737 8.213 0.762 183.170 o
-5 5 4 5.029 4.070 0.806 213.924 o
-5 5 5 29.311 28.201 1.378 34.691 o
-5 5 6 38.419 39.483 1.448 23.540 o
-5 5 7 1.431 1.301 0.816 256.261 o
-5 5 8 8.705 7.805 1.013 123.087 o
-5 5 9 29.303 26.776 1.504 33.017 o
-5 5 10 19.362 16.700 1.923 34.698 o
-5 5 11 3.249 1.123 1.583 70.212 o
-5 5 12 3.575 2.449 1.917 48.028 o
-5 6 1 24.952 29.038 1.543 34.891 o
-5 6 2 5.257 5.311 1.061 134.024 o
-5 6 3 24.797 23.976 1.553 36.991 o
-5 6 4 7.885 7.975 0.976 133.209 o
-5 6 5 11.477 10.892 1.228 82.257 o
-5 6 6 25.245 24.607 1.410 39.664 o
-5 6 7 15.192 15.450 1.383 59.686 o
-5 6 8 86.360 88.793 2.459 5.797 o
-5 6 9 22.842 21.552 1.822 33.295 o
-5 6 10 4.907 2.772 1.612 65.784 o
-5 6 11 5.471 6.166 1.994 43.071 o
-5 7 1 42.390 41.230 1.860 18.256 o
-5 7 2 37.501 33.242 2.439 16.717 o
-5 7 3 16.803 14.090 1.268 64.492 o
-5 7 4 8.164 6.053 0.844 166.630 o
-5 7 5 3.828 3.764 1.126 128.309 o
-5 7 6 20.495 19.832 1.862 34.482 o
-5 7 7 20.277 19.119 2.318 25.553 o
-5 7 8 1.545 2.496 1.168 127.658 o
-5 7 9 19.111 17.602 1.696 40.920 o
-5 7 10 14.358 13.741 2.154 32.294 o
-5 8 1 23.871 20.409 2.143 26.809 o
-5 8 2 4.396 4.627 1.422 82.512 o
-5 8 3 24.579 29.994 2.167 24.145 o
-5 8 4 20.269 21.599 1.658 39.325 o
-5 8 5 1.389 0.182 1.118 142.310 o
-5 8 6 38.471 41.588 2.753 13.591 o
-5 8 7 13.567 15.586 2.020 35.761 o
-5 8 8 14.714 13.113 1.684 47.354 o
-5 8 9 13.356 11.578 1.538 56.554 o
-5 9 1 3.157 3.673 1.459 80.813 o
-5 9 2 19.569 18.419 2.632 21.243 o
-5 9 3 8.029 7.973 1.458 71.524 o
-5 9 4 2.090 0.527 1.221 118.205 o
-5 9 5 0.468 0.579 1.190 127.584 o
-5 9 6 4.080 5.103 1.602 66.306 o
-5 9 7 53.204 59.692 2.669 10.157 o
-5 10 1 29.094 30.290 2.888 15.447 o
-5 10 2 14.777 13.383 2.584 23.672 o
-5 10 3 17.123 15.086 3.089 16.843 o
-4 -10 -4 11.437 9.883 2.622 24.176 o
-4 -10 -3 22.323 26.118 2.654 19.403 o
-4 -10 -2 1.721 3.378 1.673 63.342 o
-4 -10 -1 6.403 3.595 2.302 32.885 o
-4 -10 0 3.473 4.751 1.763 55.871 o
-4 -9 -7 0.222 0.631 1.419 90.192 o
-4 -9 -6 22.637 21.756 2.409 22.946 o
-4 -9 -5 41.844 47.020 2.749 12.551 o
-4 -9 -4 4.167 5.992 1.462 77.799 o
-4 -9 -3 21.649 20.484 2.021 30.101 o
-4 -9 -2 7.239 5.678 1.606 62.753 o
-4 -9 -1 24.248 25.908 1.953 28.573 o
-4 -9 0 58.134 65.688 3.092 8.143 o
-4 -8 -8 20.533 20.736 1.643 39.894 o
-4 -8 -7 7.581 8.928 1.571 63.048 o
-4 -8 -6 27.860 35.285 2.633 17.240 o
-4 -8 -5 17.241 20.503 1.674 42.003 o
-4 -8 -4 32.609 36.506 2.615 16.170 o
-4 -8 -3 1.242 1.554 1.225 118.183 o
-4 -8 -2 6.940 5.938 1.504 70.599 o
-4 -8 -1 14.023 18.022 2.149 31.599 o
-4 -8 0 62.818 70.029 3.155 7.397 o
-4 -7 -9 0.835 1.394 1.102 146.426 o
-4 -7 -8 9.475 9.758 1.194 92.192 o
-4 -7 -7 15.651 15.842 1.716 44.032 o
-4 -7 -6 2.884 1.683 1.055 151.724 o
-4 -7 -5 33.119 32.975 2.236 19.724 o
-4 -7 -4 19.170 22.024 1.594 42.010 o
-4 -7 -3 53.093 45.763 2.568 11.553 o
-4 -7 -2 20.305 22.032 1.478 44.484 o
-4 -7 -1 1.392 0.282 1.076 153.371 o
-4 -7 0 34.116 39.452 1.891 21.472 o
-4 -6 -10 7.041 5.826 1.110 117.291 o
-4 -6 -9 10.139 10.222 1.346 75.506 o
-4 -6 -8 14.912 15.923 1.555 51.244 o
-4 -6 -7 28.253 26.536 1.532 33.442 o
-4 -6 -6 3.432 3.558 1.216 113.032 o
-4 -6 -5 0.904 0.208 0.840 251.256 o
-4 -6 -4 11.314 11.357 1.027 103.177 o
-4 -6 -3 1.219 1.387 0.756 297.746 o
-4 -6 -2 8.350 7.572 0.687 202.167 o
-4 -6 -1 0.528 0.156 0.579 524.747 o
-4 -6 0 96.782 94.760 2.253 5.110 o
-4 -5 -11 48.952 55.975 1.845 14.233 o
-4 -5 -10 2.918 3.108 0.932 185.900 o
-4 -5 -9 10.646 12.578 1.171 87.672 o
-4 -5 -8 23.082 25.569 1.331 43.575 o
-4 -5 -7 11.109 12.147 1.276 77.480 o
-4 -5 -6 3.555 3.888 0.938 177.656 o
-4 -5 -5 11.460 9.769 1.012 107.584 o
-4 -5 -4 70.042 68.088 1.818 9.202 o
-4 -5 -3 146.226 145.270 1.989 2.521 o
-4 -5 -2 34.488 34.731 1.126 31.083 o
-4 -5 -1 54.161 52.983 1.632 14.106 o
-4 -5 0 6.380 5.459 0.525 324.372 o
-4 -4 -12 4.803 4.874 0.967 159.358 o
-4 -4 -11 0.622 0.476 0.933 205.636 o
-4 -4 -10 11.523 11.740 1.065 97.348 o
-4 -4 -9 50.841 60.289 1.713 13.735 o
-4 -4 -8 9.277 10.188 1.009 116.077 o
-4 -4 -7 16.259 16.533 1.032 77.833 o
-4 -4 -6 31.214 30.356 1.263 33.952 o
-4 -4 -5 4.624 5.318 0.628 301.028 o
-4 -4 -4 25.326 25.304 0.956 50.990 o
-4 -4 -3 4.787 2.977 0.624 324.402 o
-4 -4 -2 5.912 4.896 0.457 393.307 o
-4 -4 -1 14.623 12.812 0.563 138.713 o
-4 -4 0 109.164 94.859 1.375 4.831 o
-4 -3 -12 19.366 18.869 1.319 53.581 o
-4 -3 -11 12.585 12.999 1.135 85.140 o
-4 -3 -10 9.865 9.786 1.036 110.580 o
-4 -3 -9 8.580 9.856 0.985 123.673 o
-4 -3 -8 22.366 23.303 1.187 50.480 o
-4 -3 -7 11.457 10.480 0.812 134.669 o
-4 -3 -6 84.008 78.441 1.484 7.320 o
-4 -3 -5 12.479 13.076 0.779 125.093 o
-4 -3 -4 158.596 156.563 2.289 2.147 o
-4 -3 -3 117.212 115.642 1.541 3.899 o
-4 -3 -2 39.518 42.158 0.640 28.080 o
-4 -3 -1 200.234 199.628 1.306 1.424 o
-4 -3 0 16.697 13.473 0.418 133.947 o
-4 -2 -13 8.361 8.817 1.074 112.800 o
-4 -2 -12 4.609 3.054 0.856 202.622 o
-4 -2 -11 6.945 6.343 0.925 153.717 o
-4 -2 -10 17.299 17.005 1.127 68.596 o
-4 -2 -9 19.617 20.698 1.042 63.646 o
-4 -2 -8 30.338 27.463 1.283 35.786 o
-4 -2 -7 2.918 1.979 0.627 373.145 o
-4 -2 -6 79.382 76.079 1.357 8.080 o
-4 -2 -5 23.094 21.728 0.764 65.548 o
-4 -2 -4 110.263 106.006 1.198 4.527 o
-4 -2 -3 10.617 8.926 0.371 248.983 o
-4 -2 -2 29.781 29.285 0.586 47.460 o
-4 -2 -1 11.900 12.116 0.291 211.448 o
-4 -2 0 63.735 54.113 0.581 13.893 o
-4 -1 -13 4.504 3.700 0.965 164.841 o
-4 -1 -12 13.056 11.510 1.100 89.136 o
-4 -1 -11 7.211 8.311 1.034 124.952 o
-4 -1 -10 10.658 10.301 0.897 126.355 o
-4 -1 -9 49.355 54.981 1.519 15.591 o
-4 -1 -8 9.998 9.055 0.757 160.683 o
-4 -1 -7 15.623 13.792 0.893 95.507 o
-4 -1 -6 104.261 97.087 1.546 4.982 o
-4 -1 -5 26.833 25.194 0.644 56.000 o
-4 -1 -4 203.629 191.547 1.252 1.431 o
-4 -1 -3 127.674 119.803 0.983 3.527 o
-4 -1 -2 163.608 157.379 0.917 2.167 o
-4 -1 -1 647.456 669.362 1.977 0.139 o
-4 -1 0 11.320 10.491 0.293 236.158 o
-4 0 1 5.105 5.379 0.250 619.806 o
-4 0 2 0.190 0.280 0.195 4081.990 o
-4 0 3 122.143 120.592 0.949 3.722 o
-4 0 4 5.708 6.873 0.313 472.062 o
-4 0 5 9.336 9.584 0.532 221.860 o
-4 0 6 22.991 22.690 0.697 66.900 o
-4 0 7 45.526 42.644 1.605 18.518 o
-4 0 8 5.060 7.342 0.853 182.937 o
-4 0 9 0.279 0.199 0.606 486.947 o
-4 0 10 98.859 101.974 2.634 4.571 o
-4 0 11 169.584 179.539 4.901 1.531 o
-4 0 12 0.075 -0.396 0.741 331.337 o
-4 0 13 24.663 29.895 2.735 17.637 o
-4 0 14 6.661 7.606 2.433 29.109 o
-4 0 15 0.093 0.126 1.551 75.746 o
-4 1 1 18.488 18.015 0.329 110.496 o
-4 1 2 50.860 51.347 0.551 18.951 o
-4 1 3 16.321 16.031 0.443 125.049 o
-4 1 4 253.593 243.014 1.560 0.921 o
-4 1 5 50.351 51.509 0.854 18.324 o
-4 1 6 229.147 215.926 2.017 1.120 o
-4 1 7 235.556 225.632 2.234 1.047 o
-4 1 8 6.297 6.714 0.693 230.483 o
-4 1 9 34.511 37.042 1.640 24.392 o
-4 1 10 10.393 10.277 0.946 120.246 o
-4 1 11 3.640 2.619 1.224 112.240 o
-4 1 12 80.551 85.511 2.081 6.737 o
-4 1 13 31.674 26.639 2.527 18.308 o
-4 1 14 52.039 55.052 2.934 9.796 o
-4 1 15 2.044 1.795 1.411 88.594 o
-4 2 1 30.850 32.246 0.517 44.181 o
-4 2 2 4.687 4.065 0.285 673.189 o
-4 2 3 28.208 26.257 0.676 51.498 o
-4 2 4 184.707 173.063 1.578 1.716 o
-4 2 5 3.478 2.982 0.336 755.801 o
-4 2 6 8.048 6.533 0.542 267.165 o
-4 2 7 85.279 81.800 1.325 7.149 o
-4 2 8 76.438 79.874 1.432 8.130 o
-4 2 9 32.561 30.104 1.035 36.301 o
-4 2 10 69.383 70.392 2.425 8.091 o
-4 2 11 46.996 50.376 1.807 15.675 o
-4 2 12 34.008 33.061 1.731 24.686 o
-4 2 13 8.637 9.779 1.696 53.969 o
-4 2 14 2.974 5.056 1.741 57.440 o
-4 3 1 157.973 152.851 0.956 2.308 o
-4 3 2 73.677 73.150 0.811 9.567 o
-4 3 3 3.579 5.690 0.484 441.203 o
-4 3 4 121.916 121.483 1.532 3.608 o
-4 3 5 76.289 75.497 1.481 8.363 o
-4 3 6 30.412 27.140 0.850 43.833 o
-4 3 7 69.004 70.222 1.135 10.238 o
-4 3 8 19.687 22.772 0.887 68.095 o
-4 3 9 128.211 124.884 2.491 3.114 o
-4 3 10 12.801 11.841 1.111 88.418 o
-4 3 11 2.030 1.770 0.747 291.769 o
-4 3 12 14.743 14.125 1.562 52.171 o
-4 3 13 23.050 23.032 1.769 33.806 o
-4 3 14 17.737 14.485 2.319 27.251 o
-4 4 1 3.194 1.942 0.294 959.844 o
-4 4 2 5.347 6.338 0.526 339.004 o
-4 4 3 3.536 2.954 0.332 757.941 o
-4 4 4 51.876 46.673 1.083 17.884 o
-4 4 5 17.938 14.985 1.059 73.624 o
-4 4 6 10.174 10.789 0.784 147.275 o
-4 4 7 34.571 32.671 0.981 33.683 o
-4 4 8 118.149 124.026 2.215 3.517 o
-4 4 9 12.960 11.736 0.962 103.512 o
-4 4 10 30.153 31.626 1.418 31.860 o
-4 4 11 10.602 8.888 1.070 105.028 o
-4 4 12 11.214 11.383 1.645 53.438 o
-4 4 13 11.435 9.452 1.631 54.949 o
-4 4 14 0.339 -1.198 1.883 51.397 o
-4 5 1 60.439 56.960 0.968 13.775 o
-4 5 2 11.119 10.120 0.741 150.657 o
-4 5 3 16.755 16.689 0.802 92.534 o
-4 5 4 21.351 18.840 0.781 73.836 o
-4 5 5 60.707 62.245 1.591 11.696 o
-4 5 6 32.981 34.610 1.495 27.678 o
-4 5 7 64.768 60.214 2.029 10.133 o
-4 5 8 8.980 8.803 1.063 112.062 o
-4 5 9 68.400 67.637 2.324 8.536 o
-4 5 10 5.649 5.336 0.981 150.073 o
-4 5 11 8.339 8.977 1.316 82.963 o
-4 5 12 1.756 1.757 1.174 126.824 o
-4 5 13 2.544 2.040 1.425 86.266 o
-4 6 1 5.129 5.362 0.655 276.209 o
-4 6 2 7.908 8.435 0.741 186.296 o
-4 6 3 6.733 7.299 0.838 174.236 o
-4 6 4 12.797 14.109 0.947 100.902 o
-4 6 5 13.081 12.758 0.863 112.089 o
-4 6 6 20.485 20.618 1.204 55.080 o
-4 6 7 17.356 16.127 1.600 46.608 o
-4 6 8 15.143 15.444 1.175 72.370 o
-4 6 9 4.189 4.602 0.959 165.717 o
-4 6 10 13.820 13.359 1.496 57.090 o
-4 6 11 1.714 1.450 1.504 78.764 o
-4 6 12 40.551 36.980 2.984 12.400 o
-4 7 1 25.614 22.433 1.262 44.287 o
-4 7 2 37.932 40.287 1.391 24.087 o
-4 7 3 5.462 5.960 0.791 206.549 o
-4 7 4 2.422 2.264 0.782 262.023 o
-4 7 5 24.436 23.512 1.396 41.458 o
-4 7 6 6.469 6.277 1.144 112.843 o
-4 7 7 23.969 25.634 1.666 34.451 o
-4 7 8 23.189 25.357 1.925 29.821 o
-4 7 9 43.749 44.655 2.106 15.784 o
-4 7 10 15.642 12.769 1.596 50.369 o
-4 7 11 3.139 2.908 1.284 103.338 o
-4 8 1 2.402 0.366 0.685 345.944 o
-4 8 2 21.478 24.489 1.224 49.693 o
-4 8 3 23.357 19.856 1.359 45.941 o
-4 8 4 16.684 16.591 1.235 64.195 o
-4 8 5 7.700 7.680 0.970 136.083 o
-4 8 6 14.382 15.091 1.423 59.002 o
-4 8 7 84.867 92.383 3.150 5.145 o
-4 8 8 23.805 19.674 1.920 31.182 o
-4 8 9 15.310 11.119 1.847 41.499 o
-4 8 10 15.721 16.023 2.195 30.272 o
-4 9 1 4.157 2.201 1.118 131.345 o
-4 9 2 81.259 85.313 2.717 6.013 o
-4 9 3 24.776 26.883 2.294 22.936 o
-4 9 4 1.833 0.512 1.084 149.407 o
-4 9 5 14.333 16.292 1.709 45.264 o
-4 9 6 2.287 0.752 1.154 131.059 o
-4 9 7 14.196 14.467 1.644 48.889 o
-4 9 8 35.361 36.489 2.960 13.371 o
-4 9 9 1.837 -1.368 1.211 121.060 o
-4 10 1 8.191 7.287 1.290 87.718 o
-4 10 2 20.588 19.342 2.005 31.292 o
-4 10 3 3.791 3.323 1.363 91.074 o
-4 10 4 11.736 11.656 1.680 51.061 o
-4 10 5 8.265 9.981 1.665 55.945 o
-4 10 6 5.277 4.683 1.449 78.483 o
-3 -11 -3 41.342 42.901 2.963 11.949 o
-3 -11 -2 4.048 4.207 1.803 53.364 o
-3 -11 -1 2.156 -0.148 1.663 64.888 o
-3 -11 0 16.128 18.915 2.301 27.387 o
-3 -10 -6 7.375 7.176 1.542 66.373 o
-3 -10 -5 29.445 27.903 2.995 14.800 o
-3 -10 -4 3.615 2.621 1.553 71.854 o
-3 -10 -3 3.826 4.879 1.659 62.353 o
-3 -10 -2 2.266 4.844 1.862 50.879 o
-3 -10 -1 7.453 6.272 2.276 32.968 o
-3 -10 0 6.919 7.160 1.847 48.517 o
-3 -9 -8 7.692 8.056 1.545 65.213 o
-3 -9 -7 15.924 14.061 1.811 41.220 o
-3 -9 -6 0.797 2.809 1.244 114.373 o
-3 -9 -5 15.970 16.831 1.771 41.458 o
-3 -9 -4 38.707 38.642 2.528 15.182 o
-3 -9 -3 3.661 1.078 1.334 96.882 o
-3 -9 -2 8.095 7.336 1.644 58.583 o
-3 -9 -1 1.278 0.255 1.172 129.947 o
-3 -9 0 18.751 19.418 1.679 40.970 o
-3 -8 -10 35.653 36.254 2.163 19.025 o
-3 -8 -9 4.024 1.530 1.280 103.632 o
-3 -8 -8 34.721 33.699 2.435 17.400 o
-3 -8 -7 0.619 0.306 1.169 131.972 o
-3 -8 -6 13.620 11.006 1.608 52.975 o
-3 -8 -5 11.610 9.624 1.372 71.246 o
-3 -8 -4 15.389 15.997 2.201 30.269 o
-3 -8 -3 0.930 0.091 1.112 145.249 o
-3 -8 -2 17.682 15.863 1.782 40.132 o
-3 -8 -1 10.189 11.184 1.652 54.182 o
-3 -8 0 21.589 18.625 1.792 35.868 o
-3 -7 -11 4.483 5.216 1.145 120.417 o
-3 -7 -10 14.201 18.268 1.453 55.438 o
-3 -7 -9 1.683 3.408 1.010 165.694 o
-3 -7 -8 33.706 32.977 2.629 16.213 o
-3 -7 -7 10.334 9.732 1.251 84.152 o
-3 -7 -6 3.831 2.631 1.083 139.656 o
-3 -7 -5 33.619 38.113 2.338 17.889 o
-3 -7 -4 22.180 22.421 1.567 39.739 o
-3 -7 -3 28.175 28.812 2.140 23.311 o
-3 -7 -2 5.763 3.207 1.287 97.529 o
-3 -7 -1 7.158 4.941 0.875 169.756 o
-3 -7 0 195.245 201.301 3.007 1.381 o
-3 -6 -12 8.643 7.818 1.324 82.754 o
-3 -6 -11 8.218 7.987 1.208 96.374 o
-3 -6 -10 62.699 67.398 2.168 9.598 o
-3 -6 -9 4.740 5.280 1.000 150.268 o
-3 -6 -8 52.436 56.792 2.149 12.218 o
-3 -6 -7 6.642 7.240 1.121 114.345 o
-3 -6 -6 38.124 38.762 1.947 19.555 o
-3 -6 -5 1.846 2.051 0.776 273.127 o
-3 -6 -4 18.510 15.686 0.963 77.145 o
-3 -6 -3 13.988 14.614 0.999 90.492 o
-3 -6 -2 21.630 20.347 1.138 55.899 o
-3 -6 -1 10.210 11.412 0.925 121.557 o
-3 -6 0 21.059 22.641 0.781 69.161 o
-3 -5 -12 2.767 5.371 1.299 99.606 o
-3 -5 -11 0.945 0.018 1.019 172.376 o
-3 -5 -10 34.330 38.580 2.359 17.456 o
-3 -5 -9 3.870 4.182 1.005 155.758 o
-3 -5 -8 18.794 20.358 1.702 39.831 o
-3 -5 -7 50.411 52.221 1.968 13.829 o
-3 -5 -6 44.889 43.554 1.720 17.888 o
-3 -5 -5 25.192 25.779 1.280 42.270 o
-3 -5 -4 35.108 32.254 1.463 27.461 o
-3 -5 -3 36.514 33.325 1.334 27.671 o
-3 -5 -2 80.859 80.073 1.532 7.520 o
-3 -5 -1 12.359 10.415 0.693 148.121 o
-3 -5 0 171.757 170.646 1.485 1.906 o
-3 -4 -13 18.301 19.612 1.534 46.149 o
-3 -4 -12 5.960 7.447 1.238 98.859 o
-3 -4 -11 15.655 17.518 1.388 57.121 o
-3 -4 -10 50.889 53.233 1.790 14.313 o
-3 -4 -9 4.232 3.796 0.815 218.961 o
-3 -4 -8 67.391 67.604 1.724 9.787 o
-3 -4 -7 26.402 25.326 1.479 36.593 o
-3 -4 -6 6.652 6.616 0.819 183.277 o
-3 -4 -5 9.186 10.754 1.137 98.210 o
-3 -4 -4 9.188 9.303 0.921 133.083 o
-3 -4 -3 87.521 91.081 1.140 6.613 o
-3 -4 -2 65.658 57.049 1.066 12.296 o
-3 -4 -1 11.227 11.796 0.615 165.616 o
-3 -4 0 29.588 30.637 0.511 47.651 o
-3 -3 -13 8.094 8.054 1.141 105.280 o
-3 -3 -12 7.579 8.194 1.006 128.506 o
-3 -3 -11 1.455 -0.236 0.891 221.110 o
-3 -3 -10 6.387 5.266 0.963 150.892 o
-3 -3 -9 5.638 6.084 0.866 179.266 o
-3 -3 -8 15.342 16.968 1.196 68.867 o
-3 -3 -7 40.287 37.543 1.304 24.289 o
-3 -3 -6 33.669 32.527 2.133 20.611 o
-3 -3 -5 9.076 7.793 0.660 200.132 o
-3 -3 -4 160.927 149.227 1.886 2.213 o
-3 -3 -3 53.490 49.528 0.711 17.852 o
-3 -3 -2 94.284 102.562 1.189 5.594 o
-3 -3 -1 9.534 10.013 0.471 232.180 o
-3 -3 0 104.324 99.240 1.241 5.031 o
-3 -2 -14 34.160 33.451 1.961 22.000 o
-3 -2 -13 0.086 -0.909 0.874 238.123 o
-3 -2 -12 14.786 15.798 1.162 73.681 o
-3 -2 -11 6.707 7.862 0.968 141.023 o
-3 -2 -10 3.563 3.679 0.801 232.435 o
-3 -2 -9 22.861 23.353 1.057 53.978 o
-3 -2 -8 80.450 81.007 1.757 7.292 o
-3 -2 -7 134.163 121.640 6.352 1.920 o
-3 -2 -6 21.460 18.991 0.751 74.633 o
-3 -2 -5 66.328 59.390 0.828 12.252 o
-3 -2 -4 39.877 39.146 0.667 28.841 o
-3 -2 -3 65.606 66.925 0.725 11.705 o
-3 -2 -2 6.868 4.589 0.349 444.025 o
-3 -2 -1 50.466 48.297 0.571 19.779 o
-3 -2 0 334.764 374.117 1.682 0.483 o
-3 -1 -14 11.268 11.505 1.187 85.832 o
-3 -1 -13 2.186 2.224 1.149 130.544 o
-3 -1 -12 8.638 7.862 1.029 120.626 o
-3 -1 -11 37.274 40.561 1.656 22.007 o
-3 -1 -10 20.439 20.057 1.097 60.138 o
-3 -1 -9 11.053 10.991 0.810 136.047 o
-3 -1 -8 16.382 15.088 0.989 82.673 o
-3 -1 -7 51.509 50.726 1.866 14.165 o
-3 -1 -6 85.869 78.175 1.315 7.280 o
-3 -1 -5 4.587 3.348 0.285 716.397 o
-3 -1 -4 139.502 143.414 0.911 2.821 o
-3 -1 -3 69.059 78.581 0.665 9.990 o
-3 -1 -2 40.405 41.989 0.654 27.381 o
-3 -1 -1 2.377 2.633 0.154 1612.000 o
-3 -1 0 199.980 222.091 1.014 1.335 o
-3 0 1 238.021 255.528 0.907 0.975 o
-3 0 2 118.483 126.234 0.779 3.777 o
-3 0 3 407.559 440.790 2.393 0.334 o
-3 0 4 3.493 3.225 0.244 944.966 o
-3 0 5 0.216 0.461 0.236 2832.010 o
-3 0 6 5.821 4.682 0.438 415.872 o
-3 0 7 379.743 357.108 2.063 0.422 o
-3 0 8 91.592 72.639 0.915 7.232 o
-3 0 9 58.520 56.758 0.978 14.309 o
-3 0 10 27.355 25.288 0.901 48.957 o
-3 0 11 1.792 1.981 0.639 386.582 o
-3 0 12 8.297 7.475 1.351 81.081 o
-3 0 13 33.219 35.825 1.626 25.582 o
-3 0 14 8.991 10.913 1.643 56.039 o
-3 0 15 19.358 12.950 2.881 18.831 o
-3 1 1 59.496 62.504 0.494 14.004 o
-3 1 2 115.067 130.899 0.758 3.823 o
-3 1 3 1.176 0.837 0.180 2746.840 o
-3 1 4 449.594 467.491 2.545 0.283 o
-3 1 5 39.685 32.494 0.588 32.492 o
-3 1 6 108.213 108.847 1.147 4.573 o
-3 1 7 135.491 120.905 1.465 3.180 o
-3 1 8 30.494 25.967 0.666 47.833 o
-3 1 9 12.389 11.990 0.914 111.026 o
-3 1 10 3.474 4.096 0.818 223.608 o
-3 1 11 0.928 1.977 0.661 380.924 o
-3 1 12 64.725 61.622 2.860 8.201 o
-3 1 13 17.741 15.205 1.274 61.405 o
-3 1 14 10.742 11.522 1.640 54.097 o
-3 1 15 46.674 48.782 2.210 14.012 o
-3 2 1 134.285 146.168 0.897 2.923 o
-3 2 2 33.780 33.588 0.687 37.434 o
-3 2 3 111.524 115.556 2.081 3.966 o
-3 2 4 19.104 16.840 0.398 107.065 o
-3 2 5 96.522 95.484 1.182 5.690 o
-3 2 6 7.659 7.145 0.525 275.856 o
-3 2 7 91.122 82.464 1.704 6.307 o
-3 2 8 68.787 55.049 2.046 9.877 o
-3 2 9 53.324 52.323 1.223 15.876 o
-3 2 10 0.305 -0.599 0.799 282.987 o
-3 2 11 15.951 16.134 1.151 71.264 o
-3 2 12 33.645 33.085 1.286 30.431 o
-3 2 13 28.157 28.726 1.546 32.393 o
-3 2 14 8.985 10.138 1.204 91.901 o
-3 2 15 8.936 11.893 1.782 48.535 o
-3 3 1 2.900 2.129 0.495 533.109 o
-3 3 2 7.709 8.066 0.417 311.725 o
-3 3 3 29.465 30.771 0.606 46.459 o
-3 3 4 414.107 404.778 2.647 0.345 o
-3 3 5 271.284 264.168 1.551 0.799 o
-3 3 6 126.715 125.835 1.394 3.392 o
-3 3 7 70.888 71.337 1.393 9.498 o
-3 3 8 13.106 12.913 0.758 124.600 o
-3 3 9 2.462 2.404 0.485 564.092 o
-3 3 10 2.381 2.967 0.625 375.910 o
-3 3 11 8.058 8.544 0.996 127.294 o
-3 3 12 51.903 53.822 1.551 14.896 o
-3 3 13 64.746 74.287 2.116 8.964 o
-3 3 14 40.534 37.523 2.987 12.347 o
-3 3 15 24.409 28.858 1.927 28.150 o
-3 4 1 10.225 13.304 0.519 186.800 o
-3 4 2 37.703 37.734 0.543 32.160 o
-3 4 3 144.083 136.184 1.262 2.764 o
-3 4 4 34.575 33.274 0.795 35.547 o
-3 4 5 112.164 103.476 1.692 4.342 o
-3 4 6 49.769 49.369 1.012 18.454 o
-3 4 7 11.321 10.544 0.722 150.717 o
-3 4 8 28.095 29.922 1.006 42.173 o
-3 4 9 27.685 28.226 1.002 43.969 o
-3 4 10 25.086 26.773 1.441 38.013 o
-3 4 11 23.533 23.408 1.478 40.296 o
-3 4 12 45.102 46.700 1.941 16.054 o
-3 4 13 8.644 9.184 1.280 85.734 o
-3 4 14 5.928 6.151 1.249 99.004 o
-3 5 1 227.071 228.286 1.453 1.108 o
-3 5 2 11.474 10.568 0.572 177.778 o
-3 5 3 86.015 85.836 1.434 6.803 o
-3 5 4 47.177 41.996 1.087 20.914 o
-3 5 5 83.633 79.901 1.342 7.402 o
-3 5 6 29.243 29.150 1.053 40.310 o
-3 5 7 12.996 10.726 0.732 136.101 o
-3 5 8 0.198 0.024 0.553 589.585 o
-3 5 9 85.240 87.656 2.539 5.837 o
-3 5 10 10.676 10.292 1.175 90.307 o
-3 5 11 13.793 12.848 1.118 83.391 o
-3 5 12 1.573 0.900 0.942 195.887 o
-3 5 13 34.979 38.046 2.013 20.271 o
-3 5 14 34.451 30.944 1.913 22.920 o
-3 6 1 2.773 1.960 0.391 747.233 o
-3 6 2 39.375 39.144 0.966 27.127 o
-3 6 3 153.744 149.565 2.384 2.279 o
-3 6 4 3.051 2.686 0.465 558.152 o
-3 6 5 34.478 33.520 1.005 33.084 o
-3 6 6 21.209 18.358 1.109 59.754 o
-3 6 7 17.771 20.292 1.503 47.514 o
-3 6 8 76.662 76.386 1.934 7.721 o
-3 6 9 3.868 5.697 1.011 150.534 o
-3 6 10 4.437 3.501 0.976 162.407 o
-3 6 11 67.071 74.051 2.305 8.354 o
-3 6 12 2.255 2.231 1.050 154.240 o
-3 6 13 4.707 3.142 1.386 87.106 o
-3 7 1 105.881 105.040 1.511 4.683 o
-3 7 2 11.842 11.413 0.680 150.461 o
-3 7 3 86.356 87.331 1.699 6.506 o
-3 7 4 22.189 19.538 1.187 53.766 o
-3 7 5 13.414 13.585 1.072 87.480 o
-3 7 6 43.506 47.695 1.879 16.726 o
-3 7 7 2.260 1.401 0.851 230.093 o
-3 7 8 54.416 54.869 2.097 12.204 o
-3 7 9 32.205 32.660 1.963 22.970 o
-3 7 10 15.467 14.083 1.449 56.783 o
-3 7 11 16.468 17.846 1.742 41.578 o
-3 7 12 0.074 0.114 1.033 170.694 o
-3 8 1 2.525 2.690 0.746 280.559 o
-3 8 2 27.661 27.905 1.377 36.367 o
-3 8 3 12.960 12.697 0.869 112.132 o
-3 8 4 7.052 6.393 0.829 178.025 o
-3 8 5 3.743 2.949 0.848 213.177 o
-3 8 6 2.772 3.099 0.817 235.394 o
-3 8 7 16.586 15.919 1.442 54.297 o
-3 8 8 25.021 26.714 2.415 21.360 o
-3 8 9 1.772 1.795 1.102 143.096 o
-3 8 10 12.598 10.920 1.351 69.904 o
-3 8 11 6.905 9.471 1.528 66.582 o
-3 9 1 7.103 4.652 0.854 177.172 o
-3 9 2 7.744 7.612 0.920 146.330 o
-3 9 3 37.309 38.511 1.730 21.796 o
-3 9 4 51.384 51.248 1.776 14.498 o
-3 9 5 1.442 1.679 0.861 230.157 o
-3 9 6 43.405 49.548 2.127 15.120 o
-3 9 7 7.883 6.217 1.423 76.113 o
-3 9 8 25.079 20.949 2.036 27.963 o
-3 9 9 4.292 4.606 1.200 112.294 o
-3 9 10 14.242 14.673 1.734 45.094 o
-3 10 1 21.660 20.685 1.485 43.511 o
-3 10 2 22.881 19.795 2.447 22.644 o
-3 10 3 26.813 31.593 1.943 25.958 o
-3 10 4 9.936 11.221 1.354 74.274 o
-3 10 5 1.725 0.887 1.031 164.213 o
-3 10 6 1.216 0.416 1.126 140.517 o
-3 10 7 9.473 6.824 1.404 74.722 o
-3 10 8 12.436 11.317 1.584 55.351 o
-3 11 1 4.486 4.331 1.330 93.297 o
-3 11 2 1.516 0.760 1.117 141.556 o
-3 11 3 5.419 3.280 1.515 73.083 o
-3 11 4 10.790 10.284 1.834 45.496 o
-3 11 5 7.570 4.815 1.795 51.446 o
-2 -11 -5 2.057 2.072 1.381 92.145 o
-2 -11 -4 9.903 9.144 1.699 52.932 o
-2 -11 -3 20.824 18.721 2.167 28.088 o
-2 -11 -2 7.560 6.996 1.536 66.707 o
-2 -11 -1 11.193 12.136 2.523 25.708 o
-2 -11 0 5.225 2.179 1.579 68.418 o
-2 -10 -8 11.959 15.105 1.791 44.594 o
-2 -10 -7 19.545 22.157 2.034 30.502 o
-2 -10 -6 14.209 12.600 1.666 48.850 o
-2 -10 -5 2.605 6.442 1.636 64.355 o
-2 -10 -4 3.517 3.455 1.401 86.909 o
-2 -10 -3 7.900 7.589 1.533 66.139 o
-2 -10 -2 6.748 5.732 1.513 70.230 o
-2 -10 -1 6.275 6.531 1.387 81.860 o
-2 -10 0 16.271 17.157 1.781 40.753 o
-2 -9 -9 8.909 8.750 1.447 70.559 o
-2 -9 -8 8.743 9.064 1.449 70.437 o
-2 -9 -7 4.990 3.765 1.276 100.057 o
-2 -9 -6 9.222 10.071 1.478 66.797 o
-2 -9 -5 0.432 -1.511 1.236 118.766 o
-2 -9 -4 56.230 57.246 2.143 11.493 o
-2 -9 -3 30.427 31.974 2.049 22.866 o
-2 -9 -2 12.951 14.720 1.885 40.591 o
-2 -9 -1 13.833 11.916 1.656 49.999 o
-2 -9 0 35.978 30.541 2.568 16.438 o
-2 -8 -11 6.670 6.714 1.452 74.936 o
-2 -8 -10 29.837 25.989 1.881 26.755 o
-2 -8 -9 14.053 12.038 1.732 46.479 o
-2 -8 -8 9.595 7.938 1.271 85.961 o
-2 -8 -7 7.268 8.118 1.166 104.240 o
-2 -8 -6 23.432 22.364 1.528 39.601 o
-2 -8 -5 28.233 25.491 1.796 29.124 o
-2 -8 -4 8.467 6.195 0.936 142.708 o
-2 -8 -3 12.635 12.007 1.085 91.148 o
-2 -8 -2 10.464 12.066 1.682 51.967 o
-2 -8 -1 2.351 2.582 0.737 289.334 o
-2 -8 0 79.886 80.633 1.803 7.319 o
-2 -7 -12 28.307 25.001 2.070 24.984 o
-2 -7 -11 5.270 3.864 1.120 124.809 o
-2 -7 -10 22.392 21.858 1.673 37.017 o
-2 -7 -9 10.317 10.152 1.326 76.934 o
-2 -7 -8 7.838 9.661 1.433 72.620 o
-2 -7 -7 2.054 2.224 0.962 182.417 o
-2 -7 -6 5.081 2.606 1.052 142.081 o
-2 -7 -5 2.971 2.954 0.785 250.597 o
-2 -7 -4 148.281 154.628 2.171 2.362 o
-2 -7 -3 6.872 7.249 0.764 195.340 o
-2 -7 -2 15.749 15.058 0.818 98.986 o
-2 -7 -1 65.414 63.730 1.496 10.864 o
-2 -7 0 9.953 10.658 0.728 160.507 o
-2 -6 -12 10.969 10.943 1.709 50.708 o
-2 -6 -11 3.599 3.384 1.166 121.813 o
-2 -6 -10 51.556 60.643 2.082 12.247 o
-2 -6 -9 11.262 9.968 1.291 78.228 o
-2 -6 -8 4.756 2.563 1.278 101.519 o
-2 -6 -7 35.889 40.810 1.953 19.949 o
-2 -6 -6 56.925 57.712 1.508 13.233 o
-2 -6 -5 57.872 57.772 1.693 12.475 o
-2 -6 -4 36.430 34.648 1.420 26.351 o
-2 -6 -3 1.489 1.876 0.684 349.047 o
-2 -6 -2 168.699 170.361 2.919 1.828 o
-2 -6 -1 35.579 35.178 0.995 31.446 o
-2 -6 0 207.927 210.853 1.812 1.295 o
-2 -5 -13 7.258 6.932 1.379 80.647 o
-2 -5 -12 7.929 6.602 1.191 101.110 o
-2 -5 -11 3.613 3.652 1.235 109.274 o
-2 -5 -10 25.124 24.265 1.797 31.418 o
-2 -5 -9 23.915 24.165 1.354 42.793 o
-2 -5 -8 11.346 10.167 0.887 124.595 o
-2 -5 -7 54.958 56.278 1.557 13.742 o
-2 -5 -6 7.133 5.761 0.742 207.730 o
-2 -5 -5 3.094 1.814 0.593 405.324 o
-2 -5 -4 11.861 11.342 0.709 145.748 o
-2 -5 -3 7.833 8.274 0.580 240.318 o
-2 -5 -2 7.665 10.653 0.626 209.994 o
-2 -5 -1 270.700 273.135 1.980 0.780 o
-2 -5 0 82.930 85.446 1.102 7.359 o
-2 -4 -14 37.143 37.914 1.932 20.203 o
-2 -4 -13 0.324 0.764 1.123 143.104 o
-2 -4 -12 15.295 17.516 1.430 55.575 o
-2 -4 -11 12.456 11.827 1.217 79.750 o
-2 -4 -10 24.555 21.302 1.464 40.695 o
-2 -4 -9 27.999 27.761 1.296 37.731 o
-2 -4 -8 6.465 6.708 0.745 208.740 o
-2 -4 -7 89.220 86.035 2.518 5.645 o
-2 -4 -6 246.451 255.924 3.440 0.882 o
-2 -4 -5 3.550 3.754 0.353 678.654 o
-2 -4 -4 111.425 108.448 1.396 4.353 o
-2 -4 -3 93.933 99.278 1.298 5.688 o
-2 -4 -2 251.087 252.464 1.991 0.903 o
-2 -4 -1 13.497 13.180 0.600 141.738 o
-2 -4 0 385.173 398.925 2.208 0.385 o
-2 -3 -14 48.223 51.566 1.911 14.694 o
-2 -3 -13 19.142 19.019 1.367 51.819 o
-2 -3 -12 20.769 20.171 1.553 42.606 o
-2 -3 -11 15.931 16.227 1.098 74.683 o
-2 -3 -10 1.185 0.518 0.718 334.149 o
-2 -3 -9 9.196 8.838 0.831 151.853 o
-2 -3 -8 35.107 30.751 1.446 28.168 o
-2 -3 -7 128.271 122.279 2.393 3.176 o
-2 -3 -6 9.126 7.777 0.691 190.889 o
-2 -3 -5 14.348 16.897 0.720 110.326 o
-2 -3 -4 168.655 164.945 1.701 1.978 o
-2 -3 -3 219.505 233.899 2.510 1.109 o
-2 -3 -2 30.360 34.193 1.037 36.432 o
-2 -3 -1 279.546 306.090 1.974 0.694 o
-2 -3 0 157.387 181.227 1.623 2.031 o
-2 -2 -14 32.629 33.141 1.615 26.835 o
-2 -2 -13 16.655 16.374 1.209 65.948 o
-2 -2 -12 8.728 7.881 1.047 117.379 o
-2 -2 -11 6.634 6.238 0.834 180.441 o
-2 -2 -10 9.798 9.105 0.895 134.860 o
-2 -2 -9 61.433 62.488 1.615 11.471 o
-2 -2 -8 14.833 16.980 1.695 45.046 o
-2 -2 -7 133.245 122.587 1.601 3.199 o
-2 -2 -6 80.947 75.688 1.120 8.126 o
-2 -2 -5 32.136 34.035 0.677 39.290 o
-2 -2 -4 152.648 153.129 3.401 2.112 o
-2 -2 -3 41.509 44.334 0.897 24.438 o
-2 -2 -2 110.598 118.896 1.054 4.230 o
-2 -2 -1 66.091 74.924 0.962 10.552 o
-2 -2 0 396.755 433.945 1.678 0.351 o
-2 -1 -15 4.817 4.795 1.048 139.698 o
-2 -1 -14 9.227 9.525 1.256 86.489 o
-2 -1 -13 0.245 1.377 0.847 247.908 o
-2 -1 -12 8.354 7.249 1.099 111.882 o
-2 -1 -11 17.308 14.465 0.968 82.306 o
-2 -1 -10 11.030 12.480 0.798 133.231 o
-2 -1 -9 5.074 5.130 0.562 337.450 o
-2 -1 -8 34.551 30.537 1.905 23.048 o
-2 -1 -7 25.771 24.774 0.881 52.706 o
-2 -1 -6 8.880 11.068 0.582 203.882 o
-2 -1 -5 10.692 11.063 0.608 176.190 o
-2 -1 -4 62.470 64.163 0.867 12.537 o
-2 -1 -3 271.801 292.827 1.688 0.744 o
-2 -1 -2 254.466 262.916 1.159 0.876 o
-2 -1 -1 137.374 149.811 0.746 2.805 o
-2 -1 0 308.719 326.475 0.942 0.591 o
-2 0 1 156.226 195.664 0.761 1.984 o
-2 0 2 0.254 0.473 0.147 5807.060 o
-2 0 3 0.345 0.825 0.215 2952.410 o
-2 0 4 309.586 346.884 1.808 0.561 o
-2 0 5 70.608 88.666 1.363 8.379 o
-2 0 6 31.199 33.348 0.624 41.627 o
-2 0 7 13.369 21.453 0.622 112.017 o
-2 0 8 16.442 16.390 0.718 101.147 o
-2 0 9 37.065 31.712 0.643 35.179 o
-2 0 10 32.527 36.548 1.152 31.658 o
-2 0 11 7.704 8.714 0.961 135.117 o
-2 0 12 4.436 5.258 0.935 169.279 o
-2 0 13 0.326 0.455 0.657 412.497 o
-2 0 14 10.829 9.957 1.355 73.684 o
-2 0 15 19.022 15.927 2.016 32.826 o
-2 0 16 3.269 5.451 1.554 70.780 o
-2 1 1 139.449 159.279 0.818 2.636 o
-2 1 2 11.140 13.725 0.317 206.909 o
-2 1 3 107.804 111.371 1.130 4.534 o
-2 1 4 52.219 52.015 0.834 17.536 o
-2 1 5 26.444 24.448 0.571 59.342 o
-2 1 6 47.194 45.885 0.734 21.510 o
-2 1 7 194.600 195.150 1.566 1.490 o
-2 1 8 96.893 80.944 1.010 6.302 o
-2 1 9 60.663 61.715 1.220 12.604 o
-2 1 10 3.812 3.674 0.550 402.089 o
-2 1 11 9.232 8.228 0.723 179.028 o
-2 1 12 28.078 28.375 1.140 40.483 o
-2 1 13 46.061 46.164 1.787 16.691 o
-2 1 14 26.184 25.143 1.725 31.810 o
-2 1 15 8.524 9.390 1.506 66.195 o
-2 2 1 233.772 259.747 1.221 0.982 o
-2 2 2 169.695 180.186 1.229 1.882 o
-2 2 3 52.832 59.983 0.722 16.133 o
-2 2 4 170.568 180.778 1.349 1.860 o
-2 2 5 36.634 41.804 1.013 27.762 o
-2 2 6 113.676 121.145 1.337 3.981 o
-2 2 7 84.429 81.835 0.982 7.467 o
-2 2 8 30.277 26.423 0.815 45.202 o
-2 2 9 37.743 33.439 1.213 28.088 o
-2 2 10 109.313 111.096 1.792 4.262 o
-2 2 11 6.035 6.490 0.645 257.091 o
-2 2 12 3.571 4.052 0.781 240.326 o
-2 2 13 21.486 19.339 1.195 54.795 o
-2 2 14 6.705 6.973 1.110 116.380 o
-2 2 15 22.386 26.928 1.746 33.406 o
-2 3 1 486.290 549.216 1.694 0.230 o
-2 3 2 57.526 63.609 0.845 13.897 o
-2 3 3 43.451 47.924 0.706 23.131 o
-2 3 4 105.939 117.646 1.246 4.439 o
-2 3 5 34.682 33.095 0.812 35.330 o
-2 3 6 95.670 92.975 1.014 5.914 o
-2 3 7 38.839 35.980 0.757 30.431 o
-2 3 8 18.156 13.155 0.862 89.432 o
-2 3 9 9.562 7.364 0.609 211.873 o
-2 3 10 12.113 13.444 0.857 116.008 o
-2 3 11 13.727 13.653 0.914 101.524 o
-2 3 12 15.401 15.512 1.169 72.062 o
-2 3 13 20.892 20.924 1.244 52.595 o
-2 3 14 29.886 26.959 1.925 25.840 o
-2 3 15 4.421 4.552 1.325 93.828 o
-2 4 1 30.726 28.749 0.696 44.733 o
-2 4 2 90.982 91.883 1.478 6.093 o
-2 4 3 6.617 7.627 0.408 355.733 o
-2 4 4 30.861 32.745 0.617 42.623 o
-2 4 5 99.069 95.960 1.106 5.523 o
-2 4 6 110.980 107.390 1.478 4.376 o
-2 4 7 24.319 28.632 1.020 48.193 o
-2 4 8 66.363 62.018 1.138 11.491 o
-2 4 9 47.239 46.830 1.194 19.255 o
-2 4 10 20.549 19.723 1.308 51.612 o
-2 4 11 17.727 18.012 1.205 62.394 o
-2 4 12 0.799 1.539 0.808 265.767 o
-2 4 13 82.924 85.552 2.653 5.956 o
-2 4 14 33.999 30.117 1.676 26.143 o
-2 4 15 0.118 0.074 0.928 211.348 o
-2 5 1 173.176 190.758 1.425 1.757 o
-2 5 2 57.501 59.573 0.916 14.332 o
-2 5 3 178.298 168.565 1.517 1.829 o
-2 5 4 8.090 7.282 0.470 288.827 o
-2 5 5 61.689 62.015 0.797 13.093 o
-2 5 6 88.277 83.351 1.649 6.550 o
-2 5 7 16.790 15.681 0.856 90.341 o
-2 5 8 92.631 99.112 1.763 5.539 o
-2 5 9 19.401 17.992 0.899 74.899 o
-2 5 10 11.807 13.240 1.093 91.061 o
-2 5 11 113.075 116.742 2.466 3.741 o
-2 5 12 4.404 3.390 1.077 137.408 o
-2 5 13 31.824 27.649 1.815 26.198 o
-2 5 14 16.658 13.479 1.395 58.283 o
-2 6 1 101.786 102.392 1.219 5.097 o
-2 6 2 2.929 2.957 0.471 548.728 o
-2 6 3 52.150 52.761 1.313 15.865 o
-2 6 4 12.165 10.674 0.731 142.373 o
-2 6 5 6.150 5.405 0.659 257.181 o
-2 6 6 12.353 13.736 1.044 93.327 o
-2 6 7 11.440 10.597 0.851 128.308 o
-2 6 8 68.698 71.218 1.671 9.414 o
-2 6 9 47.331 47.726 2.040 14.805 o
-2 6 10 19.074 21.076 1.234 55.811 o
-2 6 11 32.515 35.509 2.042 21.404 o
-2 6 12 2.511 3.625 1.054 149.584 o
-2 6 13 44.733 50.507 2.450 13.114 o
-2 7 1 2.570 2.051 0.420 694.252 o
-2 7 2 7.885 6.833 0.682 213.745 o
-2 7 3 56.406 54.527 1.385 14.132 o
-2 7 4 96.660 93.746 1.649 5.514 o
-2 7 5 13.458 13.936 1.024 91.174 o
-2 7 6 26.600 25.843 1.027 46.675 o
-2 7 7 10.325 10.851 1.132 95.164 o
-2 7 8 34.213 33.978 1.749 24.145 o
-2 7 9 8.000 8.113 0.893 149.114 o
-2 7 10 1.667 1.328 0.810 257.884 o
-2 7 11 56.106 62.643 2.347 10.466 o
-2 7 12 16.110 13.816 1.528 52.304 o
-2 7 13 8.246 8.718 1.666 56.462 o
-2 8 1 1.450 1.655 0.501 604.692 o
-2 8 2 32.229 35.164 0.988 34.682 o
-2 8 3 70.759 69.657 1.644 9.273 o
-2 8 4 8.706 7.570 0.761 177.389 o
-2 8 5 0.377 0.932 0.600 483.828 o
-2 8 6 10.884 10.484 1.041 104.703 o
-2 8 7 6.794 6.193 0.912 158.285 o
-2 8 8 40.401 42.529 1.866 18.683 o
-2 8 9 3.021 3.464 0.965 173.254 o
-2 8 10 37.105 36.747 1.954 20.249 o
-2 8 11 27.943 31.096 1.822 27.268 o
-2 8 12 0.274 0.574 1.236 118.628 o
-2 9 1 3.235 1.442 0.778 259.717 o
-2 9 2 2.539 1.188 0.789 262.383 o
-2 9 3 4.910 3.644 0.726 254.175 o
-2 9 4 36.492 36.667 1.511 24.761 o
-2 9 5 1.626 2.591 0.744 293.754 o
-2 9 6 1.687 1.989 0.941 192.648 o
-2 9 7 1.215 0.996 0.965 188.447 o
-2 9 8 7.961 6.673 1.438 74.241 o
-2 9 9 17.582 16.802 1.671 43.480 o
-2 9 10 0.603 -0.520 1.124 143.076 o
-2 10 1 6.769 5.768 1.090 121.681 o
-2 10 2 4.082 5.382 0.817 212.470 o
-2 10 3 10.669 12.798 0.982 108.320 o
-2 10 4 3.773 3.511 0.837 215.077 o
-2 10 5 9.978 9.379 1.195 91.233 o
-2 10 6 1.136 -0.262 0.992 180.929 o
-2 10 7 19.082 20.065 1.683 40.286 o
-2 10 8 10.068 9.425 1.633 56.249 o
-2 10 9 3.883 2.635 1.229 110.755 o
-2 11 1 3.815 4.221 1.220 110.605 o
-2 11 2 13.143 12.841 1.460 60.422 o
-2 11 3 0.668 0.663 1.183 128.525 o
-2 11 4 15.617 14.396 1.616 48.678 o
-2 11 5 5.277 6.409 1.320 91.119 o
-2 11 6 2.345 1.052 1.282 106.671 o
-1 -12 -2 23.351 27.107 2.451 21.353 o
-1 -12 -1 0.551 0.718 1.618 69.204 o
-1 -12 0 5.646 3.804 1.641 62.586 o
-1 -11 -6 3.086 3.156 1.410 86.664 o
-1 -11 -5 19.841 15.217 2.015 32.589 o
-1 -11 -4 11.199 11.399 2.244 31.778 o
-1 -11 -3 9.280 8.387 1.746 51.395 o
-1 -11 -2 2.693 4.410 2.454 29.678 o
-1 -11 -1 2.845 1.035 1.405 88.815 o
-1 -11 0 21.176 21.256 2.073 29.133 o
-1 -10 -8 6.134 4.675 1.252 99.928 o
-1 -10 -7 13.800 11.593 1.509 57.575 o
-1 -10 -6 5.628 5.648 1.778 53.377 o
-1 -10 -5 22.832 19.059 2.106 28.246 o
-1 -10 -4 26.601 25.620 1.799 30.030 o
-1 -10 -3 22.026 20.859 1.832 33.824 o
-1 -10 -2 33.089 28.990 2.218 20.573 o
-1 -10 -1 6.815 6.763 1.247 96.463 o
-1 -10 0 49.027 55.871 2.370 12.135 o
-1 -9 -10 7.743 6.645 1.442 74.257 o
-1 -9 -9 22.805 22.996 1.979 29.659 o
-1 -9 -8 5.818 4.925 1.239 102.140 o
-1 -9 -7 9.536 10.271 1.159 95.339 o
-1 -9 -6 6.502 4.490 1.004 142.723 o
-1 -9 -5 1.566 1.258 1.011 170.475 o
-1 -9 -4 45.551 47.678 1.798 16.552 o
-1 -9 -3 15.694 17.080 1.697 44.128 o
-1 -9 -2 5.176 4.023 1.002 150.620 o
-1 -9 -1 4.159 2.014 1.190 117.710 o
-1 -9 0 18.073 13.714 1.553 48.996 o
-1 -8 -11 1.370 1.669 1.114 141.535 o
-1 -8 -10 14.721 14.322 1.876 39.826 o
-1 -8 -9 8.507 7.490 1.589 61.595 o
-1 -8 -8 2.467 2.045 1.060 151.065 o
-1 -8 -7 133.387 139.129 2.652 2.759 o
-1 -8 -6 1.508 0.592 0.916 207.735 o
-1 -8 -5 69.655 70.479 1.902 8.952 o
-1 -8 -4 81.313 79.778 2.372 6.599 o
-1 -8 -3 12.295 10.980 1.066 95.842 o
-1 -8 -2 30.667 22.810 1.481 33.937 o
-1 -8 -1 32.342 32.939 1.683 26.189 o
-1 -8 0 41.288 38.795 1.061 25.237 o
-1 -7 -12 0.663 1.678 1.194 125.149 o
-1 -7 -11 4.076 1.330 1.121 132.474 o
-1 -7 -10 27.308 25.983 1.973 26.656 o
-1 -7 -9 51.086 49.171 2.144 13.291 o
-1 -7 -8 11.300 10.740 1.479 63.352 o
-1 -7 -7 5.095 6.177 0.919 166.976 o
-1 -7 -6 33.495 30.650 1.470 28.986 o
-1 -7 -5 18.221 16.593 1.473 50.358 o
-1 -7 -4 49.133 49.282 1.849 15.037 o
-1 -7 -3 9.084 9.495 1.343 78.415 o
-1 -7 -2 2.666 2.372 0.797 250.317 o
-1 -7 -1 36.081 36.426 0.816 32.219 o
-1 -7 0 17.273 16.733 0.675 99.664 o
-1 -6 -13 2.285 1.459 1.121 137.469 o
-1 -6 -12 12.829 12.217 1.469 60.743 o
-1 -6 -11 53.643 60.581 2.086 11.842 o
-1 -6 -10 27.219 26.640 1.531 34.244 o
-1 -6 -9 19.015 17.984 1.610 43.639 o
-1 -6 -8 9.147 8.663 1.171 97.294 o
-1 -6 -7 126.847 132.770 2.603 3.014 o
-1 -6 -6 6.497 5.284 0.684 241.554 o
-1 -6 -5 98.224 94.262 2.049 5.167 o
-1 -6 -4 41.147 39.808 1.326 23.012 o
-1 -6 -3 51.087 51.244 1.440 15.954 o
-1 -6 -2 63.405 67.529 1.637 10.605 o
-1 -6 -1 95.183 96.397 1.724 5.482 o
-1 -6 0 6.152 6.664 0.509 324.416 o
-1 -5 -14 10.165 7.985 1.481 66.703 o
-1 -5 -13 9.766 8.327 1.242 88.087 o
-1 -5 -12 8.623 7.989 1.024 121.271 o
-1 -5 -11 3.669 4.701 0.925 178.781 o
-1 -5 -10 95.067 99.727 2.507 4.902 o
-1 -5 -9 18.728 16.971 1.298 56.995 o
-1 -5 -8 2.704 1.584 0.699 319.226 o
-1 -5 -7 9.187 10.024 1.101 103.917 o
-1 -5 -6 172.185 169.314 1.902 1.882 o
-1 -5 -5 11.967 8.775 0.597 177.126 o
-1 -5 -4 244.319 245.530 2.735 0.935 o
-1 -5 -3 0.720 0.644 0.465 768.044 o
-1 -5 -2 41.492 39.754 1.356 22.613 o
-1 -5 -1 38.700 38.858 0.880 28.407 o
-1 -5 0 16.727 18.858 0.509 108.605 o
-1 -4 -14 15.525 14.890 1.340 61.964 o
-1 -4 -13 2.178 2.018 0.927 195.352 o
-1 -4 -12 3.494 3.318 0.784 243.537 o
-1 -4 -11 22.310 20.399 1.523 41.832 o
-1 -4 -10 24.280 20.177 1.325 45.608 o
-1 -4 -9 30.853 33.672 1.689 26.756 o
-1 -4 -8 26.605 27.380 0.971 46.851 o
-1 -4 -7 249.429 240.721 3.083 0.913 o
-1 -4 -6 48.131 50.035 0.844 19.634 o
-1 -4 -5 91.670 90.997 0.964 6.338 o
-1 -4 -4 24.232 25.562 0.891 54.575 o
-1 -4 -3 22.802 21.537 0.784 65.836 o
-1 -4 -2 36.984 33.497 0.798 32.923 o
-1 -4 -1 261.583 279.855 2.054 0.800 o
-1 -4 0 79.306 89.685 1.029 7.569 o
-1 -3 -15 0.847 0.583 0.882 227.683 o
-1 -3 -14 21.675 19.422 1.344 48.905 o
-1 -3 -13 54.371 58.846 1.890 12.502 o
-1 -3 -12 0.661 -0.645 0.824 263.317 o
-1 -3 -11 14.675 13.367 1.051 85.784 o
-1 -3 -10 31.832 31.266 1.187 34.155 o
-1 -3 -9 55.405 60.458 2.580 10.061 o
-1 -3 -8 18.791 17.157 0.842 81.437 o
-1 -3 -7 36.125 33.781 0.593 35.494 o
-1 -3 -6 252.834 243.218 1.920 0.918 o
-1 -3 -5 11.975 12.326 0.447 184.209 o
-1 -3 -4 211.646 215.052 1.496 1.259 o
-1 -3 -3 34.497 38.085 0.725 33.793 o
-1 -3 -2 51.984 54.724 0.900 16.933 o
-1 -3 -1 204.780 226.102 1.537 1.268 o
-1 -3 0 143.696 149.763 1.374 2.602 o
-1 -2 -15 4.537 3.963 1.038 144.758 o
-1 -2 -14 23.046 20.420 1.472 42.525 o
-1 -2 -13 3.676 2.936 0.770 250.919 o
-1 -2 -12 0.176 0.282 0.626 458.833 o
-1 -2 -11 14.182 12.706 0.894 103.703 o
-1 -2 -10 21.361 19.220 0.898 67.874 o
-1 -2 -9 57.972 54.867 1.934 12.036 o
-1 -2 -8 269.324 250.874 2.813 0.813 o
-1 -2 -7 106.820 104.586 1.530 4.639 o
-1 -2 -6 253.413 244.581 1.874 0.913 o
-1 -2 -5 49.466 44.913 0.621 20.961 o
-1 -2 -4 17.891 18.643 0.517 102.245 o
-1 -2 -3 306.732 310.767 1.575 0.613 o
-1 -2 -2 8.114 7.449 0.370 330.053 o
-1 -2 -1 583.099 620.484 2.273 0.167 o
-1 -2 0 1153.910 1165.430 3.484 0.045 o
-1 -1 -15 7.703 6.457 1.121 112.117 o
-1 -1 -14 59.649 62.402 1.942 11.002 o
-1 -1 -13 96.716 102.658 2.190 4.929 o
-1 -1 -12 6.170 4.889 0.731 228.222 o
-1 -1 -11 20.573 18.447 0.893 71.232 o
-1 -1 -10 30.417 30.902 1.090 37.301 o
-1 -1 -9 44.165 38.161 1.246 22.440 o
-1 -1 -8 193.239 171.135 1.833 1.616 o
-1 -1 -7 41.503 37.661 1.016 25.797 o
-1 -1 -6 86.752 87.041 1.497 6.636 o
-1 -1 -5 44.248 46.435 0.788 22.749 o
-1 -1 -4 469.554 516.304 1.846 0.251 o
-1 -1 -3 30.429 30.733 0.577 45.325 o
-1 -1 -2 147.381 142.446 1.042 2.631 o
-1 -1 -1 647.793 676.007 2.361 0.138 o
-1 -1 0 2812.630 2868.710 6.641 0.008 o
-1 0 1 12.716 18.683 0.467 140.901 o
-1 0 2 14.340 8.306 0.273 205.148 o
-1 0 3 189.845 164.944 1.006 1.727 o
-1 0 4 733.544 788.091 2.368 0.105 o
-1 0 5 70.684 73.920 0.785 10.015 o
-1 0 6 30.257 31.991 0.609 44.185 o
-1 0 7 0.014 0.110 0.246 2938.430 o
-1 0 8 3.756 2.798 0.346 717.148 o
-1 0 9 51.449 49.391 0.896 18.174 o
-1 0 10 46.637 41.133 0.996 21.877 o
-1 0 11 6.264 3.751 0.626 286.457 o
-1 0 12 85.778 90.056 1.539 6.559 o
-1 0 13 38.466 40.810 1.836 19.943 o
-1 0 14 22.808 22.380 1.775 34.088 o
-1 0 15 7.639 7.374 1.139 108.096 o
-1 0 16 0.381 0.675 1.115 145.132 o
-1 1 1 224.246 243.281 1.001 1.086 o
-1 1 2 11.117 11.154 0.305 231.386 o
-1 1 3 577.395 618.427 2.788 0.169 o
-1 1 4 1169.140 1271.410 4.388 0.041 o
-1 1 5 14.298 11.934 0.394 166.503 o
-1 1 6 360.019 375.440 1.948 0.438 o
-1 1 7 204.086 192.492 1.717 1.408 o
-1 1 8 33.915 27.573 0.672 41.281 o
-1 1 9 10.431 11.061 0.629 174.686 o
-1 1 10 37.601 36.144 1.117 28.183 o
-1 1 11 52.860 59.500 1.408 14.346 o
-1 1 12 20.108 18.955 1.086 62.438 o
-1 1 13 2.541 1.942 0.806 248.917 o
-1 1 14 8.413 6.712 0.965 135.854 o
-1 1 15 27.191 28.714 1.741 29.692 o
-1 1 16 0.011 -0.610 0.923 214.024 o
-1 2 1 1044.930 1083.670 2.527 0.053 o
-1 2 2 512.382 537.368 1.806 0.218 o
-1 2 3 262.527 278.770 1.389 0.807 o
-1 2 4 86.154 83.638 0.914 7.227 o
-1 2 5 83.896 88.771 1.036 7.128 o
-1 2 6 120.058 118.717 1.102 3.816 o
-1 2 7 27.461 26.031 0.714 52.354 o
-1 2 8 57.551 54.803 1.027 14.758 o
-1 2 9 0.382 0.387 0.454 837.900 o
-1 2 10 8.781 7.319 0.653 208.917 o
-1 2 11 7.513 6.829 0.655 228.213 o
-1 2 12 16.898 19.875 1.254 59.743 o
-1 2 13 4.999 3.711 0.835 204.526 o
-1 2 14 69.655 72.838 2.127 8.429 o
-1 2 15 12.028 9.940 1.277 77.788 o
-1 3 1 189.541 198.885 1.097 1.537 o
-1 3 2 169.415 190.338 1.336 1.812 o
-1 3 3 15.604 15.344 0.496 128.476 o
-1 3 4 319.734 330.940 1.719 0.557 o
-1 3 5 22.638 19.195 0.620 76.091 o
-1 3 6 359.825 374.212 2.138 0.439 o
-1 3 7 319.030 296.161 2.164 0.596 o
-1 3 8 70.256 64.778 1.186 10.424 o
-1 3 9 56.494 53.803 1.441 14.032 o
-1 3 10 50.837 50.361 1.191 17.170 o
-1 3 11 10.176 9.331 0.828 144.093 o
-1 3 12 3.786 4.029 0.887 193.458 o
-1 3 13 5.255 4.158 0.834 200.625 o
-1 3 14 46.398 51.505 1.910 15.187 o
-1 3 15 45.583 47.996 2.292 13.949 o
-1 4 1 681.588 732.370 2.490 0.122 o
-1 4 2 194.410 205.071 1.322 1.452 o
-1 4 3 222.431 233.091 2.173 1.104 o
-1 4 4 34.938 33.628 0.771 35.218 o
-1 4 5 10.081 11.125 0.594 185.670 o
-1 4 6 22.878 19.407 0.819 67.036 o
-1 4 7 52.762 49.359 0.920 17.584 o
-1 4 8 5.656 4.465 0.715 244.379 o
-1 4 9 58.033 53.228 1.368 13.923 o
-1 4 10 10.253 10.570 0.770 149.987 o
-1 4 11 16.547 14.924 1.005 81.306 o
-1 4 12 1.737 1.550 0.752 293.200 o
-1 4 13 24.001 25.474 1.544 37.240 o
-1 4 14 48.029 53.588 1.897 14.546 o
-1 4 15 10.126 9.129 1.257 84.759 o
-1 5 1 51.566 49.816 0.689 18.645 o
-1 5 2 129.993 138.428 1.238 3.116 o
-1 5 3 1.258 1.212 0.352 1111.020 o
-1 5 4 213.266 215.539 2.058 1.228 o
-1 5 5 13.766 11.517 0.467 165.075 o
-1 5 6 36.923 36.180 1.049 29.353 o
-1 5 7 71.405 63.052 1.729 9.518 o
-1 5 8 48.899 46.709 1.348 17.879 o
-1 5 9 73.596 72.996 1.752 8.513 o
-1 5 10 3.170 2.563 0.709 296.814 o
-1 5 11 8.293 8.422 0.818 162.868 o
-1 5 12 14.440 14.692 1.204 72.835 o
-1 5 13 7.014 8.105 1.219 97.909 o
-1 5 14 27.802 26.340 1.858 28.116 o
-1 6 1 37.237 39.102 0.722 30.732 o
-1 6 2 46.789 41.769 0.923 21.999 o
-1 6 3 128.262 128.785 1.582 3.261 o
-1 6 4 34.777 38.293 1.308 27.447 o
-1 6 5 26.776 29.236 1.307 37.999 o
-1 6 6 29.008 26.665 1.279 37.593 o
-1 6 7 53.764 55.067 1.444 14.586 o
-1 6 8 7.300 6.536 0.764 194.871 o
-1 6 9 14.229 13.996 1.037 87.407 o
-1 6 10 13.856 12.880 1.034 90.636 o
-1 6 11 27.416 27.237 1.284 38.861 o
-1 6 12 13.680 12.824 1.366 65.317 o
-1 6 13 17.433 17.520 1.272 59.999 o
-1 6 14 12.681 13.303 1.359 67.053 o
-1 7 1 5.423 5.588 0.712 241.592 o
-1 7 2 27.032 25.228 1.089 44.992 o
-1 7 3 59.370 57.587 1.508 12.680 o
-1 7 4 81.265 84.712 1.785 7.005 o
-1 7 5 14.769 13.585 0.877 100.937 o
-1 7 6 22.556 22.330 1.217 49.927 o
-1 7 7 29.917 27.198 1.657 29.809 o
-1 7 8 1.383 1.516 0.775 281.279 o
-1 7 9 24.556 22.004 1.291 45.098 o
-1 7 10 5.008 4.035 0.919 174.349 o
-1 7 11 44.853 45.425 2.219 14.783 o
-1 7 12 12.940 13.629 1.207 77.337 o
-1 7 13 2.705 2.129 1.087 143.388 o
-1 8 1 54.979 55.035 1.152 15.158 o
-1 8 2 24.067 24.429 0.992 52.927 o
-1 8 3 64.306 66.501 1.578 10.654 o
-1 8 4 61.268 62.514 1.714 11.269 o
-1 8 5 11.288 11.249 0.930 115.862 o
-1 8 6 3.891 2.506 0.641 334.766 o
-1 8 7 26.338 24.427 1.560 35.307 o
-1 8 8 21.721 20.880 1.458 44.167 o
-1 8 9 9.772 9.224 1.147 97.522 o
-1 8 10 4.310 6.027 1.080 132.374 o
-1 8 11 17.338 14.983 1.314 60.196 o
-1 8 12 15.212 11.259 1.638 49.778 o
-1 9 1 2.262 2.635 0.563 452.488 o
-1 9 2 2.852 2.461 0.695 312.634 o
-1 9 3 2.356 4.240 0.722 287.565 o
-1 9 4 100.592 104.598 2.017 4.759 o
-1 9 5 11.159 9.537 0.828 136.944 o
-1 9 6 22.748 23.493 1.252 47.692 o
-1 9 7 66.811 71.508 1.707 9.610 o
-1 9 8 0.202 1.584 1.008 175.905 o
-1 9 9 0.969 1.510 1.016 170.785 o
-1 9 10 9.405 6.599 1.275 87.483 o
-1 10 1 1.075 0.729 0.736 318.831 o
-1 10 2 33.200 31.646 1.486 28.627 o
-1 10 3 24.799 21.713 1.142 49.388 o
-1 10 4 11.143 10.104 0.914 121.676 o
-1 10 5 10.507 10.056 0.983 114.804 o
-1 10 6 3.591 4.194 0.768 245.736 o
-1 10 7 8.415 9.448 1.093 108.677 o
-1 10 8 29.512 29.019 1.685 29.033 o
-1 10 9 19.438 22.158 1.560 42.743 o
-1 11 1 4.819 3.704 1.047 142.096 o
-1 11 2 4.319 5.464 1.204 110.426 o
-1 11 3 39.629 39.972 2.058 17.982 o
-1 11 4 25.635 24.463 1.811 30.773 o
-1 11 5 7.592 7.174 1.264 92.129 o
-1 11 6 16.898 16.974 1.825 38.965 o
-1 11 7 6.488 8.444 1.876 47.019 o
-1 12 1 1.954 1.993 1.116 138.864 o
-1 12 2 17.730 17.234 2.330 26.578 o
-1 12 3 4.692 3.876 1.077 135.592 o
0 -12 -3 12.384 10.765 2.525 25.558 o
0 -12 -2 4.061 2.276 1.684 61.417 o
0 -12 -1 19.622 17.126 2.610 21.679 o
0 -12 0 57.776 66.244 5.679 4.048 o
0 -11 -7 0.883 0.063 1.277 110.560 o
0 -11 -6 13.483 15.852 1.738 45.085 o
0 -11 -5 5.561 8.315 1.683 57.983 o
0 -11 -4 0.346 0.128 1.129 142.220 o
0 -11 -3 24.728 26.800 2.280 23.156 o
0 -11 -2 37.961 40.600 2.983 12.525 o
0 -11 -1 1.067 -0.325 2.049 43.252 o
0 -10 -9 14.282 11.833 1.852 41.795 o
0 -10 -8 14.821 14.284 1.554 52.351 o
0 -10 -7 7.755 6.969 1.485 70.406 o
0 -10 -6 7.724 5.426 1.182 104.670 o
0 -10 -5 2.476 1.970 0.927 193.565 o
0 -10 -4 107.183 113.675 2.736 3.907 o
0 -10 -3 8.726 7.362 1.189 98.200 o
0 -10 -2 3.720 5.243 1.495 75.715 o
0 -10 -1 21.555 19.559 1.783 35.783 o
0 -10 0 68.582 70.564 3.162 6.897 o
0 -9 -10 0.817 0.585 1.940 48.193 o
0 -9 -9 5.422 6.051 1.098 124.679 o
0 -9 -8 32.655 36.857 2.009 21.425 o
0 -9 -7 28.208 29.128 1.699 29.617 o
0 -9 -6 9.802 9.509 1.042 110.616 o
0 -9 -5 40.441 44.797 1.572 20.334 o
0 -9 -4 0.582 1.809 0.887 223.002 o
0 -9 -3 81.216 90.832 2.822 5.721 o
0 -9 -2 4.899 5.908 1.360 87.616 o
0 -9 -1 30.266 32.284 1.857 25.239 o
0 -8 -12 27.556 32.636 3.092 14.051 o
0 -8 -11 29.868 30.355 2.126 22.508 o
0 -8 -10 18.505 18.307 1.894 35.477 o
0 -8 -9 18.041 16.259 1.672 43.279 o
0 -8 -8 3.379 3.430 0.941 179.145 o
0 -8 -7 0.837 1.787 0.879 225.298 o
0 -8 -6 3.396 3.102 0.939 180.691 o
0 -8 -5 9.909 8.691 1.296 81.942 o
0 -8 -4 100.505 102.267 4.153 3.579 o
0 -8 -3 70.364 73.879 2.217 8.141 o
0 -8 -2 8.100 6.047 0.817 174.173 o
0 -8 -1 51.864 57.641 1.284 15.299 o
0 -8 0 5.511 4.335 1.829 51.085 o
0 -7 -13 6.899 4.737 1.726 55.773 o
0 -7 -12 0.463 0.318 1.089 152.215 o
0 -7 -11 5.170 7.226 1.470 75.001 o
0 -7 -10 28.427 36.899 2.246 20.517 o
0 -7 -9 0.377 1.018 1.015 173.924 o
0 -7 -8 51.570 54.352 2.065 12.947 o
0 -7 -7 107.388 113.089 3.130 3.726 o
0 -7 -6 41.246 46.812 2.337 14.825 o
0 -7 -5 12.831 12.224 1.131 85.897 o
0 -7 -4 2.402 3.735 0.732 283.705 o
0 -7 -3 36.977 38.494 1.803 21.293 o
0 -7 -2 14.891 11.713 0.808 112.013 o
0 -7 -1 102.364 103.200 1.357 4.988 o
0 -6 -13 3.491 4.544 1.064 141.742 o
0 -6 -12 2.435 0.845 1.038 159.596 o
0 -6 -11 37.336 37.776 2.067 19.020 o
0 -6 -10 71.079 81.652 3.056 6.453 o
0 -6 -9 33.806 35.908 1.697 24.439 o
0 -6 -8 10.991 11.079 1.105 95.737 o
0 -6 -7 36.780 37.071 1.561 23.997 o
0 -6 -6 5.183 2.861 0.868 194.265 o
0 -6 -5 18.263 19.536 0.621 92.215 o
0 -6 -4 45.172 48.773 1.069 20.347 o
0 -6 -3 144.645 146.629 1.550 2.597 o
0 -6 -2 28.449 29.024 1.141 39.636 o
0 -6 -1 241.319 266.038 2.479 0.907 o
0 -6 0 23.790 24.605 0.848 57.724 o
0 -5 -14 48.523 60.732 2.703 10.628 o
0 -5 -13 24.780 24.360 1.861 30.378 o
0 -5 -12 6.023 4.522 0.916 167.380 o
0 -5 -11 0.813 0.903 0.767 296.799 o
0 -5 -10 16.052 16.475 1.557 49.536 o
0 -5 -9 15.439 14.337 1.062 81.175 o
0 -5 -8 36.593 41.774 1.502 23.415 o
0 -5 -7 68.327 66.769 1.297 10.423 o
0 -5 -6 65.563 62.614 1.128 11.611 o
0 -5 -5 2.906 2.699 0.386 713.966 o
0 -5 -4 28.394 32.748 0.866 42.448 o
0 -5 -3 19.740 22.646 0.600 81.020 o
0 -5 -2 9.456 9.476 0.469 238.971 o
0 -5 -1 86.808 88.732 1.104 6.807 o
0 -4 -15 17.956 14.547 1.872 37.663 o
0 -4 -14 4.299 6.333 1.584 66.910 o
0 -4 -13 16.424 16.867 1.389 56.367 o
0 -4 -12 1.972 0.941 0.848 235.936 o
0 -4 -11 54.890 60.392 1.874 12.284 o
0 -4 -10 123.270 140.389 2.982 2.906 o
0 -4 -9 2.804 2.030 0.527 491.708 o
0 -4 -8 79.493 77.554 1.263 8.067 o
0 -4 -7 58.106 53.366 0.910 15.085 o
0 -4 -6 4.460 3.271 0.347 634.337 o
0 -4 -5 125.087 141.091 1.187 3.231 o
0 -4 -4 27.873 26.545 0.557 54.111 o
0 -4 -3 397.342 426.645 2.193 0.353 o
0 -4 -2 224.236 245.978 1.611 1.068 o
0 -4 -1 194.641 200.137 1.285 1.475 o
0 -4 0 289.310 300.467 4.697 0.630 o
0 -3 -15 26.301 25.513 2.070 25.761 o
0 -3 -14 24.818 23.920 1.910 29.573 o
0 -3 -13 10.223 10.454 1.104 99.344 o
0 -3 -12 29.677 32.755 1.424 31.686 o
0 -3 -11 36.742 35.572 1.382 26.269 o
0 -3 -10 26.251 26.994 1.812 29.597 o
0 -3 -9 20.283 20.039 0.912 68.958 o
0 -3 -8 37.424 36.038 0.837 30.984 o
0 -3 -7 11.068 12.340 0.696 150.132 o
0 -3 -6 10.427 9.943 0.537 202.004 o
0 -3 -5 62.406 63.975 0.784 12.693 o
0 -3 -4 49.919 49.655 0.680 19.430 o
0 -3 -3 234.383 252.288 1.560 0.994 o
0 -3 -2 397.524 439.201 1.941 0.347 o
0 -3 -1 298.008 311.865 1.295 0.637 o
0 -2 -15 41.803 42.105 2.125 16.557 o
0 -2 -14 19.040 20.240 1.224 57.040 o
0 -2 -13 92.974 101.342 2.221 5.161 o
0 -2 -12 24.591 27.196 1.451 38.057 o
0 -2 -11 24.039 24.942 1.210 46.143 o
0 -2 -10 114.758 113.101 1.772 3.987 o
0 -2 -9 5.522 4.764 0.565 328.914 o
0 -2 -8 204.571 188.255 1.697 1.423 o
0 -2 -7 152.225 146.612 1.600 2.431 o
0 -2 -6 7.079 7.348 0.382 359.130 o
0 -2 -5 244.522 263.049 1.439 0.918 o
0 -2 -4 285.351 300.724 1.462 0.689 o
0 -2 -3 437.295 465.732 1.816 0.295 o
0 -2 -2 985.333 1097.620 2.895 0.057 o
0 -2 -1 108.178 105.536 0.851 4.734 o
0 -2 0 4761.560 5276.710 18.449 0.002 o
0 -1 -15 13.502 14.072 1.348 65.652 o
0 -1 -14 24.803 27.747 1.361 39.657 o
0 -1 -13 45.580 51.017 1.475 17.687 o
0 -1 -12 65.068 69.437 1.562 10.304 o
0 -1 -11 72.022 73.986 1.563 8.914 o
0 -1 -10 18.671 15.149 0.784 89.301 o
0 -1 -9 1.323 1.342 0.385 950.708 o
0 -1 -8 80.561 74.772 1.092 8.253 o
0 -1 -7 122.269 113.176 1.147 3.830 o
0 -1 -6 74.882 72.828 0.896 9.334 o
0 -1 -5 282.453 295.229 1.607 0.705 o
0 -1 -4 126.503 130.571 0.876 3.394 o
0 -1 -3 542.167 579.677 1.674 0.193 o
0 -1 -2 273.645 258.470 1.073 0.806 o
0 -1 -1 268.762 262.550 1.609 0.812 o
0 0 1 35.600 36.589 0.774 32.991 o
0 0 2 1464.280 1601.110 3.502 0.026 o
0 0 3 15.907 16.207 0.334 135.486 o
0 0 4 113.926 135.028 0.880 3.771 o
0 0 5 145.632 161.454 1.224 2.448 o
0 0 6 4.495 6.727 0.375 486.635 o
0 0 7 49.772 57.053 0.985 17.062 o
0 0 8 617.422 589.754 2.542 0.160 o
0 0 9 6.100 5.989 0.452 372.127 o
0 0 10 96.115 93.422 1.584 5.597 o
0 0 11 0.131 -0.787 0.653 425.182 o
0 0 12 1.509 1.336 0.769 285.176 o
0 0 13 106.397 113.312 2.159 4.201 o
0 0 14 22.565 25.938 1.410 41.814 o
0 0 15 23.832 29.054 1.959 27.861 o
0 1 1 268.458 264.257 1.024 0.815 o
0 1 2 273.098 261.059 0.858 0.804 o
0 1 3 541.861 573.624 2.071 0.194 o
0 1 4 126.477 127.856 0.940 3.434 o
0 1 5 282.483 288.197 1.496 0.717 o
0 1 6 74.980 70.159 0.889 9.531 o
0 1 7 122.115 111.916 1.207 3.851 o
0 1 8 80.557 72.232 1.025 8.470 o
0 1 9 1.321 1.324 0.481 663.590 o
0 1 10 18.627 16.247 0.968 75.685 o
0 1 11 71.996 72.877 2.218 8.014 o
0 1 12 65.112 69.839 1.504 10.368 o
0 1 13 45.616 49.252 1.478 17.978 o
0 1 14 24.965 26.476 1.252 42.841 o
0 1 15 13.470 12.383 1.248 74.313 o
0 2 0 4761.660 5398.240 7.807 0.002 o
0 2 1 108.543 105.475 0.645 4.754 o
0 2 2 985.694 1106.840 2.110 0.057 o
0 2 3 437.253 469.414 1.922 0.293 o
0 2 4 285.444 310.164 1.429 0.674 o
0 2 5 244.536 263.279 1.407 0.918 o
0 2 6 7.049 7.006 0.382 366.167 o
0 2 7 152.238 144.843 1.394 2.469 o
0 2 8 204.402 191.748 1.772 1.406 o
0 2 9 5.556 4.805 0.568 325.049 o
0 2 10 114.660 114.561 1.665 3.992 o
0 2 11 24.078 24.640 1.140 48.307 o
0 2 12 24.528 24.012 1.208 46.160 o
0 2 13 93.018 103.944 1.982 5.229 o
0 2 14 18.995 19.852 1.188 59.063 o
0 2 15 41.704 45.697 1.936 17.252 o
0 3 1 298.183 311.709 1.428 0.636 o
0 3 2 397.329 437.186 1.653 0.349 o
0 3 3 234.037 245.291 1.352 1.018 o
0 3 4 49.900 52.030 0.752 18.711 o
0 3 5 62.423 64.459 0.907 12.452 o
0 3 6 10.393 9.717 0.506 211.848 o
0 3 7 11.109 10.982 0.586 176.790 o
0 3 8 37.447 34.724 0.944 30.551 o
0 3 9 20.284 19.514 1.236 55.030 o
0 3 10 26.246 29.154 1.433 35.956 o
0 3 11 36.723 38.474 1.158 27.578 o
0 3 12 29.762 30.883 1.261 35.090 o
0 3 13 10.217 10.661 0.993 113.321 o
0 3 14 24.945 24.668 1.395 40.313 o
0 3 15 26.274 26.047 1.529 35.331 o
0 4 0 289.165 310.887 2.186 0.656 o
0 4 1 194.811 200.761 1.260 1.471 o
0 4 2 224.475 245.561 1.868 1.062 o
0 4 3 397.247 432.108 1.952 0.351 o
0 4 4 27.899 28.446 0.661 50.309 o
0 4 5 124.964 140.534 1.357 3.219 o
0 4 6 4.450 4.122 0.462 460.651 o
0 4 7 58.160 52.050 1.031 14.976 o
0 4 8 79.382 73.748 1.669 7.885 o
0 4 9 2.835 2.393 0.715 299.156 o
0 4 10 123.187 126.961 2.228 3.302 o
0 4 11 54.995 60.420 1.536 13.288 o
0 4 12 1.975 1.990 0.681 342.562 o
0 4 13 16.440 17.889 1.175 66.757 o
0 4 14 4.271 7.663 1.272 98.062 o
0 4 15 17.898 19.159 1.474 49.134 o
0 5 1 86.844 89.570 0.935 6.852 o
0 5 2 9.435 11.040 0.600 192.516 o
0 5 3 19.725 22.247 0.576 82.897 o
0 5 4 28.389 34.081 0.696 44.228 o
0 5 5 2.927 2.504 0.404 682.244 o
0 5 6 65.630 67.695 1.344 10.743 o
0 5 7 68.397 64.190 1.551 10.207 o
0 5 8 36.602 36.217 1.160 28.459 o
0 5 9 15.428 14.450 1.074 80.102 o
0 5 10 16.009 17.202 0.964 82.347 o
0 5 11 0.842 1.319 0.679 370.227 o
0 5 12 6.072 6.491 0.830 185.235 o
0 5 13 24.746 27.764 1.435 37.984 o
0 5 14 48.633 56.256 2.471 11.788 o
0 6 0 23.909 22.509 0.834 60.200 o
0 6 1 241.520 263.407 1.766 0.926 o
0 6 2 28.494 30.092 0.684 47.431 o
0 6 3 144.646 144.000 1.520 2.630 o
0 6 4 45.103 48.278 1.092 20.380 o
0 6 5 18.250 19.905 0.749 84.042 o
0 6 6 5.190 4.969 0.946 162.802 o
0 6 7 36.807 36.426 1.444 25.338 o
0 6 8 11.015 13.060 0.946 110.912 o
0 6 9 33.942 31.233 1.185 32.292 o
0 6 10 71.107 78.065 1.663 8.629 o
0 6 11 37.389 37.014 1.562 23.685 o
0 6 12 2.433 2.363 0.803 249.281 o
0 6 13 3.478 1.822 0.888 203.148 o
0 7 1 102.406 101.015 1.257 5.088 o
0 7 2 14.874 13.306 0.776 111.438 o
0 7 3 37.091 37.479 1.003 29.151 o
0 7 4 2.408 4.705 0.861 211.379 o
0 7 5 12.853 13.934 1.095 86.580 o
0 7 6 41.233 41.780 1.457 21.484 o
0 7 7 107.489 117.110 2.150 4.076 o
0 7 8 51.571 53.950 1.393 15.566 o
0 7 9 0.377 0.654 0.685 377.656 o
0 7 10 28.409 27.203 1.395 35.639 o
0 7 11 5.223 5.146 0.947 161.833 o
0 7 12 0.463 0.868 0.817 266.281 o
0 7 13 6.904 7.111 1.112 115.166 o
0 8 0 5.474 5.730 1.074 129.753 o
0 8 1 51.964 59.432 2.497 10.895 o
0 8 2 8.117 7.679 0.948 138.265 o
0 8 3 70.405 74.405 2.050 8.372 o
0 8 4 100.616 106.720 1.989 4.715 o
0 8 5 9.908 9.710 0.798 150.431 o
0 8 6 3.401 3.344 0.697 295.231 o
0 8 7 0.839 0.537 0.738 321.640 o
0 8 8 3.399 2.193 0.809 237.440 o
0 8 9 18.108 19.590 1.490 48.023 o
0 8 10 18.572 17.994 1.197 61.192 o
0 8 11 29.885 32.467 1.652 28.217 o
0 8 12 27.634 24.448 1.713 31.284 o
0 9 1 30.297 29.584 1.027 39.258 o
0 9 2 4.920 4.246 0.653 290.226 o
0 9 3 81.385 86.402 1.703 6.990 o
0 9 4 0.578 0.093 0.514 659.527 o
0 9 5 40.425 40.592 1.281 23.539 o
0 9 6 9.806 10.607 0.894 130.685 o
0 9 7 28.228 29.039 1.912 26.336 o
0 9 8 32.661 34.554 1.760 24.651 o
0 9 9 5.429 5.508 1.252 100.516 o
0 9 10 0.824 0.447 0.902 218.617 o
0 10 0 68.573 78.321 2.318 7.932 o
0 10 1 21.622 25.461 1.234 48.440 o
0 10 2 3.733 3.734 0.642 324.423 o
0 10 3 8.755 9.176 0.809 158.704 o
0 10 4 107.140 114.916 1.911 4.230 o
0 10 5 2.476 2.771 0.862 218.040 o
0 10 6 7.723 7.247 1.026 126.434 o
0 10 7 7.742 9.194 1.097 110.880 o
0 10 8 14.857 18.346 1.386 57.795 o
0 10 9 14.328 12.867 1.428 60.473 o
0 11 1 1.071 2.132 0.791 270.884 o
0 11 2 37.923 40.229 1.649 21.850 o
0 11 3 24.756 24.784 1.394 40.465 o
0 11 4 0.342 -0.093 1.036 168.949 o
0 11 5 5.543 5.962 1.216 104.825 o
0 11 6 13.485 12.295 1.591 53.284 o
0 11 7 0.882 2.789 1.365 95.330 o
0 12 0 57.814 62.086 4.185 6.123 o
0 12 1 19.693 19.138 2.011 31.716 o
0 12 2 4.082 3.227 1.246 107.009 o
0 12 3 12.353 11.498 1.600 54.514 o
1 -12 -3 4.673 2.678 2.224 35.703 o
1 -12 -2 17.758 16.713 1.995 33.805 o
1 -12 -1 1.953 2.033 1.831 53.316 o
1 -11 -7 6.461 4.489 1.552 68.149 o
1 -11 -6 16.945 17.494 1.759 40.797 o
1 -11 -5 7.568 8.127 1.482 70.099 o
1 -11 -4 25.752 23.232 2.068 26.565 o
1 -11 -3 39.592 40.442 3.227 11.152 o
1 -11 -2 4.306 7.035 1.380 85.357 o
1 -11 -1 4.842 3.177 1.589 67.463 o
1 -10 -9 19.496 16.771 2.677 20.872 o
1 -10 -8 29.581 26.073 2.139 23.307 o
1 -10 -7 8.397 7.075 1.548 64.748 o
1 -10 -6 3.571 2.199 1.133 130.175 o
1 -10 -5 10.521 11.165 1.656 53.660 o
1 -10 -4 11.121 11.202 2.096 35.854 o
1 -10 -3 24.728 18.442 1.511 40.710 o
1 -10 -2 33.164 26.747 2.640 16.949 o
1 -10 -1 1.078 0.032 0.980 185.755 o
1 -9 -10 9.388 8.441 1.750 51.101 o
1 -9 -9 0.964 -0.005 1.177 129.866 o
1 -9 -8 0.201 -1.625 0.804 280.475 o
1 -9 -7 66.626 66.321 2.947 7.619 o
1 -9 -6 22.832 21.770 1.313 46.814 o
1 -9 -5 11.140 12.675 1.324 72.990 o
1 -9 -4 100.901 98.193 3.220 4.203 o
1 -9 -3 2.335 2.294 1.117 137.115 o
1 -9 -2 2.847 2.708 1.451 82.613 o
1 -9 -1 2.271 2.479 1.390 90.490 o
1 -8 -12 15.232 11.569 1.973 37.328 o
1 -8 -11 17.310 14.612 1.795 40.486 o
1 -8 -10 4.309 3.428 1.444 81.063 o
1 -8 -9 9.822 8.185 1.333 79.195 o
1 -8 -8 21.735 19.924 1.348 48.346 o
1 -8 -7 26.299 23.307 1.538 36.295 o
1 -8 -6 3.922 3.421 1.120 129.816 o
1 -8 -5 11.271 11.135 1.016 105.020 o
1 -8 -4 61.342 63.185 1.767 11.066 o
1 -8 -3 64.167 60.873 1.562 11.223 o
1 -8 -2 24.002 24.670 0.999 52.614 o
1 -8 -1 54.977 55.843 1.632 13.547 o
1 -7 -13 2.697 1.556 1.527 75.561 o
1 -7 -12 12.993 12.543 2.356 28.419 o
1 -7 -11 44.830 47.828 3.686 8.588 o
1 -7 -10 4.994 3.005 1.118 127.472 o
1 -7 -9 24.565 26.898 2.378 21.919 o
1 -7 -8 1.379 1.738 0.922 202.830 o
1 -7 -7 29.904 24.971 1.588 31.760 o
1 -7 -6 22.659 20.549 1.227 50.760 o
1 -7 -5 14.761 11.452 0.971 96.061 o
1 -7 -4 81.520 81.277 1.411 7.495 o
1 -7 -3 59.213 56.935 1.198 13.589 o
1 -7 -2 27.036 26.735 0.767 51.332 o
1 -7 -1 5.438 4.519 0.416 455.060 o
1 -6 -14 12.686 13.915 2.024 36.553 o
1 -6 -13 17.409 16.981 2.141 30.496 o
1 -6 -12 13.669 11.655 1.561 54.948 o
1 -6 -11 27.383 28.548 1.709 30.161 o
1 -6 -10 13.804 16.943 1.508 54.155 o
1 -6 -9 14.338 13.308 1.513 55.540 o
1 -6 -8 7.310 6.286 0.687 222.430 o
1 -6 -7 53.773 54.101 1.400 14.870 o
1 -6 -6 29.050 27.546 0.875 45.060 o
1 -6 -5 26.770 30.477 0.898 45.825 o
1 -6 -4 34.758 38.762 1.010 30.454 o
1 -6 -3 128.068 127.019 1.393 3.329 o
1 -6 -2 46.767 45.649 0.839 21.375 o
1 -6 -1 37.157 36.763 0.826 30.998 o
1 -5 -14 27.792 26.037 2.692 17.774 o
1 -5 -13 6.992 5.334 1.420 78.397 o
1 -5 -12 14.438 13.598 1.263 69.917 o
1 -5 -11 8.281 8.956 1.244 90.721 o
1 -5 -10 3.178 2.816 0.647 341.020 o
1 -5 -9 73.644 72.283 1.767 8.531 o
1 -5 -8 48.901 47.554 1.122 18.736 o
1 -5 -7 71.591 61.943 1.207 10.409 o
1 -5 -6 36.769 37.503 1.119 28.276 o
1 -5 -5 13.759 10.510 0.624 147.069 o
1 -5 -4 213.317 219.310 2.063 1.214 o
1 -5 -3 1.222 1.361 0.358 1074.230 o
1 -5 -2 130.095 134.724 1.282 3.162 o
1 -5 -1 51.636 48.465 0.771 18.676 o
1 -4 -15 10.066 9.913 1.282 81.662 o
1 -4 -14 48.026 49.179 3.192 9.783 o
1 -4 -13 23.984 24.761 1.970 28.717 o
1 -4 -12 1.746 1.739 0.720 315.909 o
1 -4 -11 16.535 14.212 1.197 69.196 o
1 -4 -10 10.239 10.208 0.640 178.837 o
1 -4 -9 58.196 53.306 1.386 13.818 o
1 -4 -8 5.617 4.968 0.606 298.328 o
1 -4 -7 52.913 48.317 1.005 17.452 o
1 -4 -6 22.927 20.514 0.681 70.760 o
1 -4 -5 10.018 10.197 0.474 221.924 o
1 -4 -4 34.994 33.448 0.699 35.985 o
1 -4 -3 222.294 231.130 1.682 1.124 o
1 -4 -2 194.588 206.819 1.523 1.436 o
1 -4 -1 681.216 721.528 2.580 0.123 o
1 -3 -15 45.739 46.840 2.378 13.619 o
1 -3 -14 46.356 49.798 2.033 14.823 o
1 -3 -13 5.222 4.262 1.366 87.738 o
1 -3 -12 3.769 3.612 0.892 193.010 o
1 -3 -11 10.150 8.710 0.751 162.130 o
1 -3 -10 50.953 48.686 1.652 15.494 o
1 -3 -9 56.547 51.332 1.216 15.054 o
1 -3 -8 70.145 62.970 1.068 10.770 o
1 -3 -7 319.584 297.526 2.449 0.591 o
1 -3 -6 359.424 369.077 1.828 0.445 o
1 -3 -5 22.609 20.056 0.561 76.948 o
1 -3 -4 319.341 328.269 1.898 0.559 o
1 -3 -3 15.687 15.031 0.487 129.768 o
1 -3 -2 169.558 188.146 1.215 1.830 o
1 -3 -1 189.644 197.176 1.338 1.537 o
1 -2 -15 11.961 11.829 1.530 58.612 o
1 -2 -14 69.634 77.035 2.420 7.726 o
1 -2 -13 4.996 5.557 0.799 210.001 o
1 -2 -12 16.921 17.358 0.969 78.973 o
1 -2 -11 7.510 6.413 0.680 221.714 o
1 -2 -10 8.731 4.913 0.685 213.868 o
1 -2 -9 0.384 0.122 0.414 1012.840 o
1 -2 -8 57.358 55.440 0.875 15.073 o
1 -2 -7 27.633 26.545 0.609 53.634 o
1 -2 -6 120.171 116.441 1.193 3.841 o
1 -2 -5 84.037 89.161 0.865 7.185 o
1 -2 -4 86.317 82.981 0.875 7.264 o
1 -2 -3 262.430 274.796 1.534 0.813 o
1 -2 -2 512.747 531.704 1.993 0.219 o
1 -2 -1 1044.060 1073.460 4.944 0.054 o
1 -1 -16 0.014 1.861 1.996 45.595 o
1 -1 -15 27.258 26.413 2.142 24.130 o
1 -1 -14 8.433 9.244 1.059 114.015 o
1 -1 -13 2.530 1.908 0.690 326.000 o
1 -1 -12 20.101 20.492 0.816 73.444 o
1 -1 -11 52.935 54.690 1.174 15.781 o
1 -1 -10 37.646 38.425 1.212 26.451 o
1 -1 -9 10.460 9.864 0.482 215.639 o
1 -1 -8 33.912 28.431 0.732 39.954 o
1 -1 -7 204.288 197.840 1.387 1.393 o
1 -1 -6 359.776 371.509 1.808 0.442 o
1 -1 -5 14.219 10.905 0.375 175.672 o
1 -1 -4 1168.420 1262.930 2.603 0.042 o
1 -1 -3 577.471 625.260 1.970 0.169 o
1 -1 -2 11.105 11.633 0.368 215.799 o
1 -1 -1 224.276 245.274 1.576 1.070 o
1 0 0 254.421 258.321 0.696 0.890 o
1 0 1 845.015 857.580 1.397 0.083 o
1 0 2 67.994 57.870 0.516 12.391 o
1 0 3 0.789 0.188 0.182 3567.170 o
1 0 4 191.963 190.916 1.157 1.552 o
1 0 5 1.849 1.246 0.236 1637.040 o
1 0 6 266.458 244.494 1.759 0.856 o
1 0 7 0.014 0.519 0.269 2352.000 o
1 0 8 321.248 289.740 2.302 0.597 o
1 0 9 71.805 70.463 1.935 8.623 o
1 0 10 79.286 75.402 1.695 7.775 o
1 0 11 0.804 1.218 0.600 467.659 o
1 0 12 8.451 7.162 1.004 127.269 o
1 0 13 0.009 0.039 0.722 349.810 o
1 0 14 21.451 19.899 1.366 48.130 o
1 0 15 6.269 6.226 1.024 135.453 o
1 1 0 2812.440 2836.480 3.775 0.008 o
1 1 1 647.907 668.394 1.535 0.139 o
1 1 2 147.246 145.698 0.782 2.615 o
1 1 3 30.510 31.114 0.398 46.899 o
1 1 4 469.582 515.167 2.397 0.251 o
1 1 5 44.411 45.395 0.681 23.415 o
1 1 6 86.539 85.116 1.181 6.959 o
1 1 7 41.578 36.553 0.743 28.041 o
1 1 8 193.135 175.873 1.733 1.596 o
1 1 9 44.200 38.067 1.184 22.867 o
1 1 10 30.474 30.534 1.065 37.858 o
1 1 11 20.558 22.006 1.125 56.868 o
1 1 12 6.166 4.518 0.742 225.753 o
1 1 13 96.751 106.234 1.872 5.000 o
1 1 14 59.583 61.572 1.997 10.942 o
1 1 15 7.685 8.804 1.249 91.750 o
1 2 0 1153.720 1152.670 2.825 0.045 o
1 2 1 583.037 629.441 1.878 0.166 o
1 2 2 8.121 8.130 0.243 370.112 o
1 2 3 306.470 308.616 1.396 0.618 o
1 2 4 17.855 18.273 0.469 106.317 o
1 2 5 49.395 45.875 0.868 19.922 o
1 2 6 253.443 244.908 1.735 0.914 o
1 2 7 107.107 103.493 1.010 4.814 o
1 2 8 269.420 249.903 2.568 0.820 o
1 2 9 57.976 53.281 1.425 13.764 o
1 2 10 21.384 20.496 1.029 60.644 o
1 2 11 14.210 16.222 1.051 82.880 o
1 2 12 0.176 0.668 0.684 381.350 o
1 2 13 3.683 3.190 0.803 232.575 o
1 2 14 23.046 22.602 1.411 43.097 o
1 2 15 4.578 3.381 1.096 132.680 o
1 3 0 143.684 149.567 0.973 2.640 o
1 3 1 204.702 220.034 1.385 1.297 o
1 3 2 52.007 54.642 0.544 17.787 o
1 3 3 34.577 37.944 0.568 35.104 o
1 3 4 211.548 215.210 1.806 1.250 o
1 3 5 11.915 12.146 0.643 152.920 o
1 3 6 252.429 239.832 1.608 0.933 o
1 3 7 36.189 36.650 0.815 32.023 o
1 3 8 18.762 16.989 0.874 79.842 o
1 3 9 55.396 57.054 1.370 14.108 o
1 3 10 31.853 34.541 1.280 31.363 o
1 3 11 14.647 12.889 0.846 106.191 o
1 3 12 0.666 0.053 0.622 454.676 o
1 3 13 54.343 59.978 1.763 12.791 o
1 3 14 21.605 21.596 1.393 45.939 o
1 3 15 0.833 -0.437 0.881 230.213 o
1 4 0 79.226 90.281 0.946 7.597 o
1 4 1 261.527 275.088 1.265 0.819 o
1 4 2 37.052 35.642 0.567 33.703 o
1 4 3 22.767 21.682 0.596 72.515 o
1 4 4 24.218 25.713 0.717 59.416 o
1 4 5 91.669 89.413 1.097 6.345 o
1 4 6 48.145 50.576 0.906 19.282 o
1 4 7 249.906 231.337 2.594 0.946 o
1 4 8 26.706 26.909 1.167 42.461 o
1 4 9 30.890 30.224 1.080 37.325 o
1 4 10 24.267 23.865 1.167 47.815 o
1 4 11 22.304 20.881 0.980 60.243 o
1 4 12 3.499 3.215 0.770 251.255 o
1 4 13 2.176 1.191 0.852 231.261 o
1 4 14 15.528 16.061 1.261 65.480 o
1 5 0 16.695 19.088 0.499 108.774 o
1 5 1 38.737 38.648 0.796 29.099 o
1 5 2 41.533 38.151 0.656 27.979 o
1 5 3 0.720 0.848 0.304 1569.520 o
1 5 4 244.264 244.473 1.898 0.957 o
1 5 5 11.955 8.994 0.556 184.553 o
1 5 6 171.917 165.829 2.718 1.837 o
1 5 7 9.201 9.554 0.839 147.708 o
1 5 8 2.699 2.082 0.534 484.707 o
1 5 9 18.742 17.124 0.925 76.653 o
1 5 10 95.081 101.052 2.021 5.169 o
1 5 11 3.672 3.369 0.718 277.442 o
1 5 12 8.617 9.157 0.906 139.437 o
1 5 13 9.783 11.148 1.094 100.835 o
1 5 14 10.110 6.605 1.421 72.465 o
1 6 0 6.133 5.870 0.373 430.601 o
1 6 1 95.193 94.971 1.095 5.843 o
1 6 2 63.449 64.828 1.035 11.977 o
1 6 3 50.980 51.357 0.879 18.021 o
1 6 4 41.167 39.538 0.918 26.092 o
1 6 5 98.283 98.203 1.800 5.185 o
1 6 6 6.513 6.491 0.799 191.325 o
1 6 7 127.016 128.986 1.765 3.261 o
1 6 8 9.104 8.097 0.799 162.383 o
1 6 9 19.070 16.725 0.944 75.128 o
1 6 10 27.308 26.125 1.165 42.241 o
1 6 11 53.560 57.715 1.569 13.872 o
1 6 12 12.859 13.219 1.169 81.075 o
1 6 13 2.279 3.121 1.001 166.614 o
1 7 0 17.277 15.826 1.011 77.398 o
1 7 1 36.002 39.425 0.989 29.374 o
1 7 2 2.659 2.288 0.498 535.226 o
1 7 3 9.008 8.505 0.905 139.252 o
1 7 4 49.033 49.908 1.124 18.200 o
1 7 5 18.329 18.221 0.855 80.450 o
1 7 6 33.549 35.116 1.296 29.601 o
1 7 7 5.074 5.436 0.755 227.764 o
1 7 8 11.316 10.421 0.900 122.154 o
1 7 9 51.093 52.616 1.597 15.118 o
1 7 10 27.286 23.775 1.565 34.681 o
1 7 11 4.097 4.724 0.972 162.058 o
1 7 12 0.670 -0.442 0.822 264.706 o
1 8 0 41.388 42.740 1.090 23.771 o
1 8 1 32.380 30.541 1.018 36.505 o
1 8 2 30.670 31.733 0.874 39.980 o
1 8 3 12.362 12.766 0.755 130.118 o
1 8 4 81.264 81.891 1.816 7.108 o
1 8 5 69.749 72.385 1.685 9.160 o
1 8 6 1.526 1.465 0.854 234.212 o
1 8 7 133.363 143.241 2.289 2.786 o
1 8 8 2.435 0.877 0.804 256.010 o
1 8 9 8.544 7.925 1.055 116.718 o
1 8 10 14.787 17.215 1.363 59.980 o
1 8 11 1.370 1.119 0.905 212.073 o
1 9 0 18.066 17.063 0.844 83.985 o
1 9 1 4.142 3.663 0.598 350.197 o
1 9 2 5.181 5.387 0.606 303.313 o
1 9 3 15.619 16.387 1.013 81.259 o
1 9 4 45.417 47.820 1.660 17.324 o
1 9 5 1.572 1.737 0.594 446.942 o
1 9 6 6.560 8.081 1.038 127.413 o
1 9 7 9.500 11.638 1.304 79.031 o
1 9 8 5.821 6.057 1.109 121.227 o
1 9 9 22.805 23.391 1.592 38.055 o
1 9 10 7.718 6.592 1.195 101.223 o
1 10 0 49.062 50.992 1.539 16.213 o
1 10 1 6.834 5.736 0.835 180.618 o
1 10 2 33.115 32.840 1.302 30.733 o
1 10 3 22.038 18.420 1.232 53.230 o
1 10 4 26.628 23.938 1.615 34.118 o
1 10 5 22.885 24.805 1.827 32.079 o
1 10 6 5.644 4.599 1.258 100.301 o
1 10 7 13.818 16.788 1.798 42.217 o
1 10 8 6.143 8.027 1.204 102.357 o
1 11 0 21.198 21.006 1.303 49.926 o
1 11 1 2.843 1.064 0.981 175.179 o
1 11 2 2.695 2.166 1.094 141.701 o
1 11 3 9.254 11.651 1.322 77.851 o
1 11 4 11.121 8.731 1.141 95.008 o
1 11 5 19.854 19.496 1.604 42.254 o
1 11 6 3.104 3.573 1.311 98.920 o
1 12 0 5.653 5.425 1.246 101.026 o
1 12 1 0.552 0.147 1.271 112.034 o
1 12 2 23.341 24.276 2.435 21.986 o
2 -11 -6 2.337 4.789 2.154 38.342 o
2 -11 -5 5.264 6.463 2.349 31.582 o
2 -11 -4 15.608 17.264 3.861 11.289 o
2 -11 -3 0.668 -4.935 2.218 36.994 o
2 -11 -2 13.136 10.945 2.104 34.762 o
2 -11 -1 3.797 3.433 2.065 41.385 o
2 -10 -8 10.137 10.153 2.974 19.314 o
2 -10 -7 19.130 16.589 2.343 25.973 o
2 -10 -6 1.134 -0.049 1.456 85.190 o
2 -10 -5 9.993 9.847 1.850 45.533 o
2 -10 -4 3.775 3.314 1.617 66.157 o
2 -10 -3 10.707 14.132 1.836 44.108 o
2 -10 -2 4.100 6.297 1.385 85.791 o
2 -10 -1 6.776 6.152 1.366 83.487 o
2 -9 -10 0.596 -0.588 1.747 59.574 o
2 -9 -9 17.621 16.833 2.636 21.838 o
2 -9 -8 7.982 12.443 2.373 29.559 o
2 -9 -7 1.196 0.813 1.330 101.216 o
2 -9 -6 1.684 0.505 1.389 92.598 o
2 -9 -5 1.621 2.590 0.977 178.580 o
2 -9 -4 36.580 34.858 2.363 17.320 o
2 -9 -3 4.900 6.195 1.505 72.824 o
2 -9 -2 2.534 2.906 1.223 114.417 o
2 -9 -1 3.228 3.082 1.796 54.522 o
2 -8 -12 0.268 -0.019 1.931 48.899 o
2 -8 -11 28.046 31.283 4.736 7.066 o
2 -8 -10 37.153 36.092 2.789 14.116 o
2 -8 -9 3.058 3.055 1.323 97.744 o
2 -8 -8 40.567 48.969 2.281 15.045 o
2 -8 -7 6.802 5.326 1.597 63.974 o
2 -8 -6 10.887 11.357 1.231 82.842 o
2 -8 -5 0.372 0.048 0.775 299.990 o
2 -8 -4 8.725 9.088 1.047 114.860 o
2 -8 -3 70.973 70.483 1.714 9.076 o
2 -8 -2 32.295 32.675 1.263 32.005 o
2 -8 -1 1.476 2.433 0.604 428.262 o
2 -7 -13 8.249 7.428 2.434 28.763 o
2 -7 -12 16.035 16.534 1.792 40.826 o
2 -7 -11 56.115 63.269 2.534 9.900 o
2 -7 -10 1.677 0.654 1.063 155.415 o
2 -7 -9 8.037 7.735 1.504 68.082 o
2 -7 -8 34.220 33.985 1.828 23.270 o
2 -7 -7 10.253 9.166 1.061 106.901 o
2 -7 -6 26.636 22.948 1.418 38.891 o
2 -7 -5 13.479 14.776 0.990 92.838 o
2 -7 -4 96.711 98.416 1.618 5.372 o
2 -7 -3 56.390 52.579 1.060 15.361 o
2 -7 -2 7.879 8.675 0.712 193.589 o
2 -7 -1 2.581 2.870 0.627 370.328 o
2 -6 -13 44.785 50.602 3.508 9.017 o
2 -6 -12 2.491 0.781 1.155 130.357 o
2 -6 -11 32.598 33.141 1.970 22.619 o
2 -6 -10 19.236 17.364 1.277 56.769 o
2 -6 -9 47.316 53.195 2.423 12.483 o
2 -6 -8 68.903 62.450 2.364 8.709 o
2 -6 -7 11.402 10.303 0.736 148.609 o
2 -6 -6 12.398 13.132 0.769 126.825 o
2 -6 -5 6.192 4.580 0.706 240.837 o
2 -6 -4 12.188 11.385 0.884 117.427 o
2 -6 -3 52.242 57.478 1.151 15.629 o
2 -6 -2 2.957 2.553 0.330 850.475 o
2 -6 -1 101.870 105.571 1.053 5.048 o
2 -5 -14 16.594 17.438 3.018 17.458 o
2 -5 -13 31.856 26.508 2.300 20.532 o
2 -5 -12 4.458 2.946 1.023 151.019 o
2 -5 -11 113.072 115.123 2.484 3.764 o
2 -5 -10 11.812 10.944 1.344 71.885 o
2 -5 -9 19.469 17.176 1.422 50.452 o
2 -5 -8 92.588 92.862 1.871 5.688 o
2 -5 -7 16.841 15.715 0.723 100.480 o
2 -5 -6 88.365 82.931 1.123 6.924 o
2 -5 -5 61.632 64.471 1.228 12.065 o
2 -5 -4 8.100 6.125 0.563 260.911 o
2 -5 -3 178.193 169.874 1.782 1.806 o
2 -5 -2 57.496 66.067 1.256 12.755 o
2 -5 -1 173.257 190.427 1.659 1.746 o
2 -4 -15 0.119 0.303 1.218 122.533 o
2 -4 -14 33.976 29.957 2.554 17.090 o
2 -4 -13 83.010 86.808 2.566 5.995 o
2 -4 -12 0.780 0.995 0.774 291.737 o
2 -4 -11 17.741 18.663 1.418 51.922 o
2 -4 -10 20.615 19.781 1.174 56.776 o
2 -4 -9 46.987 45.944 1.915 15.765 o
2 -4 -8 66.520 65.117 1.149 11.137 o
2 -4 -7 24.229 27.148 0.714 57.861 o
2 -4 -6 110.971 107.039 1.071 4.497 o
2 -4 -5 99.159 89.985 1.132 5.718 o
2 -4 -4 30.803 33.249 0.707 41.208 o
2 -4 -3 6.619 8.617 0.819 175.137 o
2 -4 -2 90.826 93.580 1.120 6.230 o
2 -4 -1 30.610 33.645 0.918 38.240 o
2 -3 -15 4.408 3.883 1.638 63.787 o
2 -3 -14 29.775 29.121 2.330 20.462 o
2 -3 -13 20.922 22.783 1.746 35.977 o
2 -3 -12 15.443 15.296 0.977 86.275 o
2 -3 -11 13.698 15.081 1.227 72.417 o
2 -3 -10 12.094 11.838 0.863 119.474 o
2 -3 -9 9.571 5.864 0.579 232.383 o
2 -3 -8 18.196 15.533 0.556 106.507 o
2 -3 -7 38.978 35.327 0.752 30.633 o
2 -3 -6 95.764 93.755 0.955 5.900 o
2 -3 -5 34.600 35.024 0.721 35.335 o
2 -3 -4 105.828 118.433 1.418 4.376 o
2 -3 -3 43.393 47.370 0.749 23.145 o
2 -3 -2 57.571 66.271 0.858 13.505 o
2 -3 -1 486.063 556.115 2.605 0.227 o
2 -2 -14 6.688 5.395 1.067 126.968 o
2 -2 -13 21.519 22.138 1.480 43.010 o
2 -2 -12 3.539 3.659 0.755 256.385 o
2 -2 -11 6.083 5.955 0.915 162.769 o
2 -2 -10 109.529 109.104 1.974 4.230 o
2 -2 -9 37.638 32.711 0.832 32.350 o
2 -2 -8 30.335 26.903 0.821 44.638 o
2 -2 -7 84.232 82.513 1.179 7.325 o
2 -2 -6 113.554 125.144 1.675 3.819 o
2 -2 -5 36.636 43.800 0.747 29.064 o
2 -2 -4 170.523 174.724 1.723 1.880 o
2 -2 -3 52.779 60.342 0.776 15.974 o
2 -2 -2 169.593 174.559 1.151 1.927 o
2 -2 -1 233.960 261.077 2.133 0.962 o
2 -1 -15 8.543 7.738 1.510 66.964 o
2 -1 -14 26.135 27.522 1.643 32.586 o
2 -1 -13 46.066 47.264 1.458 18.287 o
2 -1 -12 28.099 26.012 1.562 33.202 o
2 -1 -11 9.110 9.821 0.814 152.604 o
2 -1 -10 3.801 4.218 0.494 451.065 o
2 -1 -9 60.654 61.563 0.886 13.268 o
2 -1 -8 96.767 80.236 0.970 6.360 o
2 -1 -7 194.788 193.121 1.467 1.501 o
2 -1 -6 47.245 46.797 0.648 21.545 o
2 -1 -5 26.453 24.394 0.656 57.421 o
2 -1 -4 52.296 52.905 0.824 17.366 o
2 -1 -3 107.692 114.573 1.081 4.470 o
2 -1 -2 11.153 16.311 0.470 166.950 o
2 -1 -1 139.391 159.182 1.560 2.573 o
2 0 0 109.250 131.072 0.457 4.099 o
2 0 1 143.469 152.562 0.482 2.637 o
2 0 2 17.881 17.504 0.254 119.391 o
2 0 3 386.982 399.093 1.628 0.384 o
2 0 4 185.193 204.749 1.034 1.554 o
2 0 5 25.107 24.707 0.704 58.886 o
2 0 6 78.233 77.316 1.006 8.457 o
2 0 7 67.934 65.993 0.934 11.078 o
2 0 8 20.760 20.695 1.032 61.608 o
2 0 9 47.017 48.597 1.540 17.277 o
2 0 10 9.549 9.987 0.831 145.520 o
2 0 11 46.778 48.499 1.765 16.226 o
2 0 12 4.715 5.848 0.935 165.829 o
2 0 13 4.770 4.831 0.856 194.026 o
2 0 14 95.034 107.413 2.645 4.618 o
2 0 15 15.340 17.037 1.523 51.530 o
2 1 0 309.188 322.048 0.783 0.596 o
2 1 1 137.412 147.929 0.588 2.838 o
2 1 2 254.555 268.247 0.844 0.866 o
2 1 3 271.558 292.727 1.134 0.750 o
2 1 4 62.464 63.355 0.741 12.813 o
2 1 5 10.619 11.482 0.493 199.022 o
2 1 6 8.875 12.351 0.473 223.329 o
2 1 7 25.808 25.132 0.627 58.739 o
2 1 8 34.646 32.310 1.103 32.267 o
2 1 9 5.082 5.859 0.496 374.923 o
2 1 10 11.025 11.489 0.730 147.966 o
2 1 11 17.310 15.331 1.040 76.095 o
2 1 12 8.279 9.056 0.945 134.245 o
2 1 13 0.262 -0.133 0.776 300.130 o
2 1 14 9.142 9.235 1.193 93.999 o
2 1 15 4.819 4.463 1.063 137.056 o
2 2 0 396.296 435.161 1.174 0.352 o
2 2 1 66.400 73.795 0.488 11.039 o
2 2 2 110.547 120.211 0.687 4.264 o
2 2 3 41.434 47.105 0.613 25.037 o
2 2 4 152.574 163.531 1.827 2.240 o
2 2 5 32.204 33.115 0.616 40.500 o
2 2 6 80.901 77.736 0.917 8.156 o
2 2 7 133.387 122.921 1.167 3.258 o
2 2 8 14.850 13.412 0.868 101.843 o
2 2 9 61.460 64.729 1.115 12.288 o
2 2 10 9.843 9.017 0.642 189.176 o
2 2 11 6.593 7.104 0.813 183.563 o
2 2 12 8.697 8.439 0.876 147.209 o
2 2 13 16.660 16.468 1.155 69.038 o
2 2 14 32.554 33.783 1.705 25.565 o
2 3 0 157.535 184.362 1.142 2.034 o
2 3 1 279.093 299.433 1.152 0.713 o
2 3 2 30.376 33.925 0.512 43.681 o
2 3 3 219.638 233.008 7.283 0.865 o
2 3 4 169.052 168.612 1.400 1.965 o
2 3 5 14.346 17.648 0.545 124.670 o
2 3 6 9.072 7.608 0.391 292.932 o
2 3 7 128.412 122.031 1.780 3.323 o
2 3 8 35.112 33.508 0.947 33.161 o
2 3 9 9.182 7.885 0.611 212.981 o
2 3 10 1.200 0.610 0.556 535.407 o
2 3 11 16.006 16.474 1.088 74.800 o
2 3 12 20.702 22.528 1.593 40.342 o
2 3 13 19.267 21.465 1.449 46.993 o
2 3 14 48.044 52.883 2.124 13.634 o
2 4 0 385.045 392.740 3.159 0.385 o
2 4 1 13.548 12.011 0.293 187.106 o
2 4 2 250.948 256.761 1.709 0.899 o
2 4 3 93.823 96.914 1.016 5.904 o
2 4 4 111.333 107.346 1.121 4.458 o
2 4 5 3.564 3.489 0.380 642.075 o
2 4 6 246.371 243.012 2.764 0.930 o
2 4 7 89.326 89.781 1.718 6.148 o
2 4 8 6.456 5.615 0.602 278.247 o
2 4 9 27.957 26.617 1.321 37.845 o
2 4 10 24.585 25.038 1.260 43.983 o
2 4 11 12.401 12.162 0.947 106.680 o
2 4 12 15.255 15.208 1.262 66.765 o
2 4 13 0.323 0.329 1.060 161.130 o
2 4 14 37.039 35.926 1.873 21.166 o
2 5 0 83.010 83.973 1.039 7.470 o
2 5 1 270.396 276.901 1.547 0.779 o
2 5 2 7.577 7.356 0.357 355.098 o
2 5 3 7.937 7.026 0.387 334.294 o
2 5 4 11.873 11.152 0.570 170.593 o
2 5 5 3.117 4.156 0.762 254.801 o
2 5 6 7.100 6.730 0.638 241.611 o
2 5 7 54.949 54.676 1.166 15.179 o
2 5 8 11.350 10.376 0.823 133.991 o
2 5 9 23.884 24.087 1.012 52.954 o
2 5 10 25.170 27.575 1.334 39.974 o
2 5 11 3.651 3.332 0.776 245.960 o
2 5 12 7.877 8.021 1.076 115.718 o
2 5 13 7.307 7.994 1.124 110.495 o
2 6 0 207.693 215.644 1.409 1.290 o
2 6 1 35.662 34.361 0.664 35.081 o
2 6 2 168.631 172.167 1.597 1.933 o
2 6 3 1.493 0.997 0.436 779.569 o
2 6 4 36.434 36.471 1.235 27.715 o
2 6 5 57.916 58.883 1.432 13.071 o
2 6 6 56.901 57.305 1.246 14.024 o
2 6 7 35.896 42.854 1.130 26.889 o
2 6 8 4.745 6.802 0.782 212.864 o
2 6 9 11.274 11.793 0.789 135.364 o
2 6 10 51.513 56.364 1.753 13.908 o
2 6 11 3.606 3.366 0.899 192.633 o
2 6 12 10.937 11.098 1.155 90.469 o
2 7 0 9.934 9.829 0.534 210.610 o
2 7 1 65.474 62.955 1.359 11.186 o
2 7 2 15.634 16.448 0.648 111.107 o
2 7 3 6.868 9.194 0.536 266.772 o
2 7 4 147.902 153.386 1.730 2.435 o
2 7 5 2.951 3.168 0.674 320.669 o
2 7 6 5.096 4.198 0.702 260.345 o
2 7 7 2.058 2.356 0.638 377.155 o
2 7 8 7.824 8.361 0.844 160.596 o
2 7 9 10.276 9.925 0.915 126.541 o
2 7 10 22.413 22.389 1.320 46.737 o
2 7 11 5.228 5.234 1.026 141.868 o
2 7 12 28.210 28.249 1.613 31.351 o
2 8 0 79.736 82.987 1.489 7.524 o
2 8 1 2.354 2.333 0.512 527.205 o
2 8 2 10.430 11.882 0.773 143.386 o
2 8 3 12.628 11.914 0.797 125.318 o
2 8 4 8.493 6.281 0.926 144.539 o
2 8 5 28.207 29.465 1.189 38.724 o
2 8 6 23.483 22.502 1.122 51.475 o
2 8 7 7.276 6.576 0.856 167.924 o
2 8 8 9.582 10.756 1.027 111.061 o
2 8 9 14.044 14.883 1.324 65.480 o
2 8 10 29.779 26.424 1.627 30.660 o
2 8 11 6.654 6.496 1.044 129.183 o
2 9 0 35.963 36.165 1.553 24.762 o
2 9 1 13.886 13.473 1.041 88.953 o
2 9 2 12.865 14.032 1.022 93.192 o
2 9 3 30.503 32.357 1.656 27.808 o
2 9 4 55.968 56.229 1.961 12.213 o
2 9 5 0.438 0.659 0.787 287.113 o
2 9 6 9.230 8.152 1.070 111.335 o
2 9 7 4.990 3.569 1.120 126.143 o
2 9 8 8.750 7.445 1.187 98.239 o
2 9 9 8.879 6.823 1.102 110.285 o
2 10 0 16.192 15.346 1.047 78.690 o
2 10 1 6.245 3.813 1.256 100.070 o
2 10 2 6.696 4.677 1.132 116.693 o
2 10 3 7.924 8.417 1.311 84.924 o
2 10 4 3.537 2.784 1.061 145.581 o
2 10 5 2.616 1.595 1.014 164.326 o
2 10 6 14.264 15.910 1.535 52.968 o
2 10 7 19.521 20.243 1.540 44.287 o
2 10 8 11.937 12.538 1.433 64.047 o
2 11 0 5.193 4.451 1.376 86.500 o
2 11 1 11.217 7.604 1.938 41.966 o
2 11 2 7.522 6.580 1.369 81.449 o
2 11 3 20.839 19.743 1.836 34.921 o
2 11 4 9.858 9.210 1.352 76.431 o
2 11 5 2.049 1.133 1.043 158.924 o
3 -11 -5 7.592 10.439 2.964 19.721 o
3 -11 -4 10.755 6.040 2.876 20.754 o
3 -11 -3 5.389 5.400 2.609 25.882 o
3 -11 -2 1.509 0.350 1.395 92.073 o
3 -11 -1 4.461 5.827 1.760 55.115 o
3 -10 -7 9.433 9.312 3.218 16.757 o
3 -10 -6 1.216 -1.025 2.289 34.664 o
3 -10 -5 1.718 -0.222 2.079 41.852 o
3 -10 -4 9.917 7.109 2.495 27.135 o
3 -10 -3 26.914 21.788 2.524 20.244 o
3 -10 -2 22.995 23.718 3.939 10.244 o
3 -10 -1 21.645 24.738 2.672 19.523 o
3 -9 -10 14.263 7.523 3.485 14.114 o
3 -9 -9 4.303 6.790 3.294 16.475 o
3 -9 -8 25.073 15.211 4.333 8.757 o
3 -9 -7 7.916 10.476 2.800 21.914 o
3 -9 -5 1.454 0.182 1.839 53.425 o
3 -9 -4 51.222 52.417 3.596 8.126 o
3 -9 -3 37.216 36.093 2.428 16.506 o
3 -9 -2 7.752 4.608 1.621 61.688 o
3 -9 -1 7.102 5.688 1.650 59.912 o
3 -8 -11 6.909 6.034 2.247 33.980 o
3 -8 -10 12.597 14.029 4.279 9.505 o
3 -8 -7 16.602 19.024 2.601 22.299 o
3 -8 -6 2.782 1.505 1.108 139.029 o
3 -8 -5 3.732 2.888 1.166 122.104 o
3 -8 -4 7.009 8.650 1.051 121.985 o
3 -8 -3 12.993 12.662 1.336 68.675 o
3 -8 -2 27.814 26.190 1.330 38.023 o
3 -8 -1 2.511 2.970 0.931 188.906 o
3 -7 -12 0.074 -2.184 1.644 67.455 o
3 -7 -11 16.444 13.628 2.041 34.185 o
3 -7 -10 15.527 11.358 1.954 37.781 o
3 -7 -9 32.230 33.810 2.440 18.005 o
3 -7 -8 54.377 57.840 3.196 8.641 o
3 -7 -7 2.283 1.493 1.043 157.552 o
3 -7 -6 43.494 42.546 1.720 18.567 o
3 -7 -5 13.424 12.111 1.055 91.361 o
3 -7 -4 22.173 19.120 1.483 43.866 o
3 -7 -3 86.245 86.769 1.614 6.605 o
3 -7 -2 11.833 12.752 0.765 132.209 o
3 -7 -1 105.934 102.966 1.965 4.550 o
3 -6 -13 4.736 3.258 2.460 29.307 o
3 -6 -12 2.268 1.663 1.370 93.603 o
3 -6 -11 67.069 72.436 2.080 8.852 o
3 -6 -10 4.459 3.084 1.019 151.770 o
3 -6 -9 3.873 4.391 1.365 89.887 o
3 -6 -8 76.626 70.665 2.072 7.849 o
3 -6 -7 17.703 18.889 1.169 63.443 o
3 -6 -6 21.218 18.344 1.826 35.392 o
3 -6 -5 34.528 31.317 0.908 35.314 o
3 -6 -4 3.019 2.635 0.431 619.424 o
3 -6 -3 153.793 139.503 2.184 2.399 o
3 -6 -2 39.508 37.184 0.900 28.274 o
3 -6 -1 2.722 2.203 0.446 625.143 o
3 -5 -14 34.418 25.065 4.985 6.358 o
3 -5 -13 34.899 38.691 2.477 16.404 o
3 -5 -12 1.581 0.059 1.000 176.253 o
3 -5 -11 13.755 12.426 1.598 52.556 o
3 -5 -10 10.715 9.354 1.144 94.872 o
3 -5 -9 85.186 88.921 4.083 4.376 o
3 -5 -8 0.196 -0.261 0.555 585.120 o
3 -5 -7 12.967 11.007 1.065 93.729 o
3 -5 -6 29.136 26.467 1.306 37.023 o
3 -5 -5 83.526 78.978 2.005 6.842 o
3 -5 -4 47.315 43.121 1.149 20.265 o
3 -5 -3 85.937 90.789 1.822 6.299 o
3 -5 -2 11.476 10.902 0.502 189.561 o
3 -5 -1 226.933 233.970 1.923 1.081 o
3 -4 -14 5.939 6.664 2.011 42.052 o
3 -4 -13 8.676 9.979 1.411 72.863 o
3 -4 -12 45.218 50.998 1.940 15.429 o
3 -4 -11 23.518 22.327 1.402 42.965 o
3 -4 -10 25.120 22.693 1.640 35.272 o
3 -4 -9 27.702 26.092 1.246 39.999 o
3 -4 -8 28.057 27.384 1.577 32.420 o
3 -4 -7 11.344 9.916 0.843 132.105 o
3 -4 -6 49.735 52.545 1.065 17.644 o
3 -4 -5 112.307 103.347 1.283 4.468 o
3 -4 -4 34.699 33.273 0.794 35.420 o
3 -4 -3 144.158 132.726 1.240 2.808 o
3 -4 -2 37.792 36.960 0.904 29.691 o
3 -4 -1 10.149 12.675 0.725 151.066 o
3 -3 -15 24.343 25.328 2.202 24.665 o
3 -3 -14 40.484 52.570 3.446 9.535 o
3 -3 -13 64.556 74.192 3.744 6.118 o
3 -3 -12 52.027 50.967 1.985 13.533 o
3 -3 -11 8.033 7.983 0.991 129.611 o
3 -3 -10 2.355 2.969 0.805 246.281 o
3 -3 -9 2.448 2.425 0.734 291.031 o
3 -3 -8 13.110 15.934 1.160 77.745 o
3 -3 -7 70.803 69.609 1.632 9.288 o
3 -3 -6 126.507 126.909 1.617 3.340 o
3 -3 -5 270.932 260.682 2.226 0.799 o
3 -3 -4 414.424 407.768 2.113 0.345 o
3 -3 -3 29.486 28.565 0.675 47.187 o
3 -3 -2 7.717 7.361 0.831 168.351 o
3 -3 -1 2.898 2.278 0.246 1137.710 o
3 -2 -15 8.956 6.890 1.770 50.997 o
3 -2 -14 9.023 7.515 1.448 71.270 o
3 -2 -13 28.197 26.157 1.740 29.888 o
3 -2 -12 33.685 34.776 1.737 24.345 o
3 -2 -11 15.850 14.013 1.369 60.522 o
3 -2 -10 0.308 -0.263 0.593 510.900 o
3 -2 -9 53.326 54.259 1.526 14.536 o
3 -2 -8 68.789 65.976 1.457 10.156 o
3 -2 -7 91.154 86.426 1.396 6.350 o
3 -2 -6 7.634 8.294 0.529 263.500 o
3 -2 -5 96.694 94.653 1.427 5.595 o
3 -2 -4 19.134 17.254 0.575 96.135 o
3 -2 -3 111.378 116.082 1.410 4.173 o
3 -2 -2 33.628 33.655 0.605 38.411 o
3 -2 -1 134.113 144.285 1.182 2.925 o
3 -1 -15 46.630 55.643 4.462 6.343 o
3 -1 -14 10.754 9.212 1.669 53.700 o
3 -1 -13 17.686 19.502 1.974 33.577 o
3 -1 -12 64.753 68.736 2.184 9.194 o
3 -1 -11 0.928 0.591 0.569 521.880 o
3 -1 -10 3.458 2.965 0.819 228.292 o
3 -1 -9 12.380 10.617 0.799 130.408 o
3 -1 -8 30.533 27.783 1.110 38.543 o
3 -1 -7 135.471 115.726 1.441 3.264 o
3 -1 -6 108.192 108.854 1.229 4.552 o
3 -1 -5 39.619 32.885 0.783 30.895 o
3 -1 -4 449.702 479.113 2.888 0.277 o
3 -1 -3 1.206 1.361 0.286 1485.280 o
3 -1 -2 115.123 133.959 0.895 3.743 o
3 -1 -1 59.507 62.760 0.543 13.911 o
3 0 0 252.365 274.719 0.783 0.862 o
3 0 1 294.574 314.818 0.825 0.644 o
3 0 2 35.231 33.998 0.354 38.111 o
3 0 3 9.606 10.181 0.348 263.051 o
3 0 4 1.123 0.700 0.174 2957.230 o
3 0 5 265.452 237.269 1.390 0.881 o
3 0 6 4.863 4.022 0.384 531.060 o
3 0 7 229.588 203.605 3.954 1.078 o
3 0 8 0.040 -0.203 0.517 681.547 o
3 0 9 1.297 0.915 0.542 549.758 o
3 0 10 21.395 24.837 1.062 55.087 o
3 0 11 0.306 0.270 0.649 423.877 o
3 0 12 2.218 1.268 0.831 241.386 o
3 0 13 22.320 20.649 1.197 52.273 o
3 0 14 7.401 7.835 1.027 126.294 o
3 1 0 199.823 218.460 0.822 1.355 o
3 1 1 2.406 2.478 0.136 1712.750 o
3 1 2 40.427 41.342 0.556 28.117 o
3 1 3 69.055 76.298 0.999 9.881 o
3 1 4 139.533 140.838 0.860 2.857 o
3 1 5 4.600 3.522 0.284 708.542 o
3 1 6 85.860 77.701 0.815 7.631 o
3 1 7 51.589 49.547 1.786 14.625 o
3 1 8 16.326 13.683 0.681 111.967 o
3 1 9 11.089 11.284 0.835 130.852 o
3 1 10 20.469 19.784 0.963 66.387 o
3 1 11 37.288 38.865 1.296 25.756 o
3 1 12 8.675 10.220 1.042 113.624 o
3 1 13 2.167 2.289 0.874 216.812 o
3 1 14 11.261 13.554 1.275 75.729 o
3 2 0 334.791 366.726 1.237 0.491 o
3 2 1 50.400 46.835 0.446 20.447 o
3 2 2 6.890 4.530 0.267 506.417 o
3 2 3 65.679 66.278 0.601 11.885 o
3 2 4 39.934 38.233 0.558 29.804 o
3 2 5 66.372 57.147 0.612 12.773 o
3 2 6 21.519 19.741 0.543 82.167 o
3 2 7 134.337 111.735 2.344 3.166 o
3 2 8 80.195 79.506 1.789 7.360 o
3 2 9 22.794 20.141 1.139 54.004 o
3 2 10 3.531 3.893 0.723 272.942 o
3 2 11 6.724 6.045 0.893 164.027 o
3 2 12 14.794 14.803 1.109 78.718 o
3 2 13 0.091 -0.590 0.820 270.929 o
3 2 14 34.118 34.402 1.671 24.964 o
3 3 0 104.171 98.812 0.944 5.146 o
3 3 1 9.577 9.784 0.312 277.686 o
3 3 2 94.291 98.626 0.682 5.911 o
3 3 3 53.510 48.731 0.562 18.349 o
3 3 4 160.832 152.225 1.170 2.248 o
3 3 5 9.084 7.042 0.445 278.873 o
3 3 6 33.681 28.409 0.759 39.907 o
3 3 7 40.312 37.132 0.725 28.932 o
3 3 8 15.293 15.808 0.771 103.522 o
3 3 9 5.685 5.180 0.735 230.601 o
3 3 10 6.358 6.034 0.850 178.771 o
3 3 11 1.423 1.866 0.771 282.165 o
3 3 12 7.594 6.526 0.983 136.783 o
3 3 13 8.062 5.577 1.060 122.428 o
3 4 0 29.560 30.810 0.498 47.711 o
3 4 1 11.257 12.150 0.390 205.259 o
3 4 2 65.679 57.607 0.707 12.773 o
3 4 3 87.564 91.189 1.019 6.667 o
3 4 4 9.185 8.835 0.498 240.603 o
3 4 5 9.173 8.653 0.547 226.983 o
3 4 6 6.674 6.762 0.617 256.932 o
3 4 7 26.596 22.526 0.857 53.893 o
3 4 8 67.204 64.321 1.163 11.059 o
3 4 9 4.282 3.239 0.561 383.721 o
3 4 10 50.905 49.810 1.417 16.335 o
3 4 11 15.648 15.401 1.078 77.928 o
3 4 12 5.955 6.524 0.984 144.797 o
3 4 13 18.309 21.623 1.449 48.068 o
3 5 0 171.753 171.948 1.354 1.904 o
3 5 1 12.386 10.670 0.366 203.606 o
3 5 2 80.816 79.118 1.354 7.741 o
3 5 3 36.423 35.352 1.119 29.346 o
3 5 4 35.058 33.618 1.155 30.719 o
3 5 5 25.214 27.465 0.987 48.559 o
3 5 6 44.871 41.495 1.032 22.529 o
3 5 7 50.535 51.664 1.241 16.853 o
3 5 8 18.759 18.243 1.094 65.738 o
3 5 9 3.894 4.433 0.698 278.682 o
3 5 10 34.209 38.197 1.454 26.257 o
3 5 11 0.913 1.040 0.895 219.364 o
3 5 12 2.761 2.494 0.928 190.286 o
3 6 0 20.951 24.294 0.860 64.138 o
3 6 1 10.194 9.940 0.940 122.929 o
3 6 2 21.614 19.812 0.712 74.585 o
3 6 3 13.975 14.315 0.552 139.216 o
3 6 4 18.527 16.843 0.992 73.673 o
3 6 5 1.835 1.198 0.567 485.364 o
3 6 6 38.081 41.450 1.339 24.137 o
3 6 7 6.698 5.387 0.674 242.275 o
3 6 8 52.336 50.475 1.369 15.959 o
3 6 9 4.724 4.528 0.701 263.955 o
3 6 10 62.728 69.652 2.403 8.941 o
3 6 11 8.204 9.743 1.320 82.027 o
3 6 12 8.643 9.538 1.349 78.682 o
3 7 0 195.241 196.398 2.141 1.452 o
3 7 1 7.157 5.871 0.611 259.259 o
3 7 2 5.749 4.881 0.734 231.817 o
3 7 3 28.212 30.368 1.281 36.481 o
3 7 4 22.235 20.948 1.317 48.035 o
3 7 5 33.643 37.684 1.699 24.042 o
3 7 6 3.842 3.332 0.690 292.766 o
3 7 7 10.339 7.788 0.802 153.474 o
3 7 8 33.667 37.364 1.407 27.396 o
3 7 9 1.692 1.294 0.783 274.001 o
3 7 10 14.099 13.306 1.380 63.318 o
3 7 11 4.524 4.674 1.281 99.333 o
3 8 0 21.486 21.927 1.139 54.728 o
3 8 1 10.170 10.430 1.102 99.770 o
3 8 2 17.677 16.615 1.150 66.867 o
3 8 3 0.939 -0.311 0.772 296.282 o
3 8 4 15.378 15.581 1.049 80.496 o
3 8 5 11.580 11.117 0.952 111.902 o
3 8 6 13.560 12.794 0.948 100.465 o
3 8 7 0.601 -0.452 0.825 263.776 o
3 8 8 34.715 35.860 1.790 23.007 o
3 8 9 4.062 3.269 0.968 167.481 o
3 8 10 35.656 33.931 2.105 19.931 o
3 9 0 18.712 18.651 1.223 59.046 o
3 9 1 1.271 0.012 0.815 263.791 o
3 9 2 8.090 7.210 1.008 128.019 o
3 9 3 3.662 4.077 1.165 120.776 o
3 9 4 38.819 38.331 2.283 16.841 o
3 9 5 15.984 16.927 1.414 55.796 o
3 9 6 0.795 0.178 0.991 182.390 o
3 9 7 15.927 17.368 1.328 59.819 o
3 9 8 7.669 8.950 1.103 110.680 o
3 10 0 6.885 6.617 1.152 109.683 o
3 10 1 7.476 7.875 1.345 82.808 o
3 10 2 2.265 1.988 0.980 176.057 o
3 10 3 3.840 2.678 1.221 112.243 o
3 10 4 3.623 4.190 1.096 134.567 o
3 10 5 29.382 26.341 2.080 24.096 o
3 10 6 7.326 6.507 1.432 75.873 o
3 11 0 16.120 15.521 1.448 54.934 o
3 11 1 2.157 3.968 1.432 84.787 o
3 11 2 4.048 1.448 1.479 79.046 o
3 11 3 41.325 37.127 1.967 18.566 o
4 -10 -6 5.266 3.201 2.724 23.963 o
4 -10 -5 8.263 7.265 2.636 24.762 o
4 -10 -4 11.723 11.524 3.399 14.838 o
4 -10 -3 3.787 3.056 1.819 52.911 o
4 -10 -2 20.574 24.138 3.273 14.293 o
4 -10 -1 8.195 6.629 1.803 49.973 o
4 -9 -9 1.838 1.912 2.946 20.880 o
4 -9 -7 14.173 21.677 4.246 9.431 o
4 -9 -6 2.308 1.750 2.125 39.768 o
4 -9 -5 14.373 15.055 2.827 20.149 o
4 -9 -4 1.819 1.500 1.377 93.403 o
4 -9 -3 24.768 21.827 1.902 30.347 o
4 -9 -2 81.188 83.802 3.299 5.437 o
4 -9 -1 4.172 4.775 1.560 69.705 o
4 -8 -10 15.733 14.065 2.915 18.946 o
4 -8 -8 23.874 21.448 3.097 15.384 o
4 -8 -7 84.709 87.250 3.284 5.165 o
4 -8 -6 14.362 18.066 2.417 25.974 o
4 -8 -5 7.713 6.889 1.232 96.018 o
4 -8 -4 16.613 16.119 1.570 48.580 o
4 -8 -3 23.327 23.636 1.823 32.264 o
4 -8 -2 21.432 22.150 1.809 34.332 o
4 -8 -1 2.397 2.864 1.101 139.667 o
4 -7 -11 3.153 3.088 1.565 71.043 o
4 -7 -10 15.592 16.156 2.205 30.068 o
4 -7 -9 43.730 50.567 3.729 8.442 o
4 -7 -8 23.072 27.225 2.857 17.096 o
4 -7 -7 23.887 31.493 3.305 13.229 o
4 -7 -6 6.419 4.804 1.464 75.472 o
4 -7 -5 24.419 23.430 1.883 30.464 o
4 -7 -4 2.411 2.139 0.945 187.023 o
4 -7 -3 5.450 5.537 1.114 122.478 o
4 -7 -2 37.871 42.294 2.240 16.857 o
4 -7 -1 25.623 27.752 2.089 25.295 o
4 -6 -12 40.497 43.857 3.064 11.539 o
4 -6 -11 1.689 -0.600 1.477 82.290 o
4 -6 -10 13.742 11.325 1.749 46.361 o
4 -6 -9 4.189 5.156 1.351 90.428 o
4 -6 -8 15.150 13.463 2.060 34.375 o
4 -6 -7 17.327 14.708 1.966 35.393 o
4 -6 -6 20.469 18.170 2.001 31.773 o
4 -6 -5 13.091 11.226 1.853 42.796 o
4 -6 -4 12.819 13.711 1.255 73.805 o
4 -6 -3 6.706 7.118 1.046 127.304 o
4 -6 -2 7.871 9.480 1.329 82.101 o
4 -6 -1 5.132 4.570 1.013 146.867 o
4 -5 -13 2.547 1.899 1.399 89.362 o
4 -5 -12 1.758 3.136 1.403 89.189 o
4 -5 -11 8.351 7.915 1.416 74.587 o
4 -5 -10 5.629 5.176 1.457 76.938 o
4 -5 -9 68.425 77.330 3.125 6.709 o
4 -5 -8 8.964 8.883 1.725 52.494 o
4 -5 -7 64.721 72.461 2.704 7.963 o
4 -5 -6 32.963 28.942 1.973 23.330 o
4 -5 -5 60.490 66.473 2.000 10.381 o
4 -5 -4 21.400 22.530 2.017 29.787 o
4 -5 -3 16.771 19.177 1.327 57.009 o
4 -5 -2 11.149 9.061 1.443 67.274 o
4 -5 -1 60.490 56.861 1.386 12.822 o
4 -4 -14 0.337 0.108 1.505 80.260 o
4 -4 -13 11.453 9.712 2.100 35.908 o
4 -4 -12 11.132 7.167 2.099 36.655 o
4 -4 -11 10.671 13.848 1.974 39.237 o
4 -4 -10 29.971 29.242 2.581 17.917 o
4 -4 -9 12.990 15.034 1.774 44.444 o
4 -4 -8 118.050 123.448 4.077 2.878 o
4 -4 -7 34.641 32.482 1.436 28.024 o
4 -4 -6 10.188 9.186 0.916 128.785 o
4 -4 -5 17.917 16.243 1.173 65.478 o
4 -4 -4 52.021 47.323 1.375 16.552 o
4 -4 -3 3.519 3.107 0.715 283.651 o
4 -4 -2 5.355 5.492 0.719 239.790 o
4 -4 -1 3.185 2.207 0.298 931.479 o
4 -3 -14 17.765 18.522 2.494 23.633 o
4 -3 -13 23.118 19.886 2.353 23.895 o
4 -3 -12 14.750 13.031 1.646 49.005 o
4 -3 -11 2.039 1.858 1.221 117.012 o
4 -3 -10 12.770 13.146 1.484 59.298 o
4 -3 -9 128.225 130.649 3.473 2.765 o
4 -3 -8 19.759 22.190 0.901 68.010 o
4 -3 -7 68.979 67.407 1.760 9.501 o
4 -3 -6 30.394 25.564 1.299 36.367 o
4 -3 -5 76.159 78.884 1.520 8.128 o
4 -3 -4 122.014 121.604 1.462 3.617 o
4 -3 -3 3.577 4.604 0.388 588.203 o
4 -3 -2 73.800 72.556 0.925 9.496 o
4 -3 -1 157.915 155.122 1.824 2.220 o
4 -2 -14 2.962 2.413 1.494 78.136 o
4 -2 -13 8.657 8.901 1.396 75.010 o
4 -2 -12 33.950 36.450 2.071 20.408 o
4 -2 -11 47.064 49.873 2.958 10.681 o
4 -2 -10 69.196 71.811 2.514 7.882 o
4 -2 -9 32.674 33.664 1.626 26.518 o
4 -2 -8 76.308 82.347 2.221 7.102 o
4 -2 -7 85.410 84.973 1.546 6.815 o
4 -2 -6 8.078 7.378 0.599 236.475 o
4 -2 -5 3.463 3.212 0.274 881.346 o
4 -2 -4 184.927 181.545 2.063 1.637 o
4 -2 -3 28.282 26.706 0.831 47.823 o
4 -2 -2 4.685 4.190 0.243 726.468 o
4 -2 -1 30.897 31.805 0.488 44.768 o
4 -1 -15 2.051 1.147 1.562 72.996 o
4 -1 -14 52.067 51.141 3.321 8.855 o
4 -1 -13 31.704 34.684 2.158 20.678 o
4 -1 -12 80.562 85.362 2.568 6.222 o
4 -1 -11 3.622 3.454 1.229 110.538 o
4 -1 -10 10.416 10.964 1.134 94.550 o
4 -1 -9 34.533 33.564 1.464 27.395 o
4 -1 -8 6.338 7.192 0.884 165.164 o
4 -1 -7 235.477 227.057 3.611 0.997 o
4 -1 -6 229.147 219.719 2.672 1.088 o
4 -1 -5 50.234 50.057 0.794 18.864 o
4 -1 -4 253.671 243.489 1.412 0.921 o
4 -1 -3 16.313 17.120 0.480 118.530 o
4 -1 -2 50.856 50.689 0.586 19.018 o
4 -1 -1 18.476 17.932 0.338 110.404 o
4 0 0 16.334 20.303 0.328 117.114 o
4 0 1 8.282 6.141 0.235 408.306 o
4 0 2 51.429 50.740 0.513 18.912 o
4 0 3 33.543 38.028 0.508 36.689 o
4 0 4 5.867 5.486 0.285 526.239 o
4 0 5 0.283 0.048 0.266 2383.760 o
4 0 6 90.471 79.037 1.168 6.882 o
4 0 7 14.094 11.395 0.757 123.288 o
4 0 8 59.828 55.266 1.266 13.475 o
4 0 9 8.555 6.362 0.692 205.066 o
4 0 10 31.316 32.402 1.377 31.261 o
4 0 11 8.129 9.929 1.082 110.439 o
4 0 12 4.959 5.374 0.905 174.717 o
4 0 13 13.116 15.211 1.216 74.346 o
4 1 0 11.292 10.806 0.255 239.899 o
4 1 1 647.585 669.588 1.808 0.139 o
4 1 2 163.612 158.810 1.065 2.148 o
4 1 3 128.012 123.943 0.848 3.459 o
4 1 4 203.514 193.117 1.137 1.428 o
4 1 5 26.769 26.077 0.678 54.455 o
4 1 6 104.207 99.429 1.405 4.973 o
4 1 7 15.601 12.866 0.923 94.727 o
4 1 8 9.971 8.556 0.779 158.139 o
4 1 9 49.321 47.543 1.496 16.885 o
4 1 10 10.632 10.694 1.055 103.446 o
4 1 11 7.256 8.421 0.869 158.275 o
4 1 12 13.054 12.860 1.077 89.312 o
4 1 13 4.465 6.442 1.266 99.704 o
4 2 0 63.666 54.312 0.562 13.906 o
4 2 1 11.888 11.494 0.341 209.039 o
4 2 2 29.759 28.310 0.510 49.438 o
4 2 3 10.581 9.294 0.346 252.089 o
4 2 4 110.139 107.579 0.949 4.553 o
4 2 5 22.981 24.360 0.768 62.400 o
4 2 6 79.547 72.046 1.159 8.499 o
4 2 7 2.955 1.772 0.496 536.745 o
4 2 8 30.355 33.172 1.222 34.094 o
4 2 9 19.622 16.394 1.019 69.857 o
4 2 10 17.299 16.256 1.169 67.035 o
4 2 11 6.954 6.649 0.920 153.880 o
4 2 12 4.603 3.788 0.857 198.988 o
4 2 13 8.354 6.734 1.233 94.546 o
4 3 0 16.665 13.694 0.338 139.481 o
4 3 1 200.416 200.273 1.274 1.420 o
4 3 2 39.422 39.942 0.544 29.581 o
4 3 3 117.607 117.960 1.186 3.916 o
4 3 4 158.419 154.950 1.343 2.255 o
4 3 5 12.473 10.134 0.654 154.912 o
4 3 6 83.895 80.265 1.376 7.328 o
4 3 7 11.455 10.771 0.703 152.266 o
4 3 8 22.321 21.949 0.981 59.048 o
4 3 9 8.569 9.598 0.870 145.568 o
4 3 10 9.863 9.672 0.999 116.173 o
4 3 11 12.605 15.323 1.112 83.770 o
4 3 12 19.361 20.407 1.423 48.442 o
4 4 0 109.151 96.719 1.043 4.882 o
4 4 1 14.676 13.336 0.404 153.968 o
4 4 2 5.906 4.437 0.351 495.765 o
4 4 3 4.747 3.004 0.427 514.351 o
4 4 4 25.280 24.140 0.990 51.114 o
4 4 5 4.616 5.141 0.562 348.180 o
4 4 6 31.331 28.389 0.859 41.543 o
4 4 7 16.240 16.724 0.969 82.036 o
4 4 8 9.287 8.370 0.917 135.777 o
4 4 9 50.816 55.077 1.648 14.650 o
4 4 10 11.503 11.824 1.022 102.152 o
4 4 11 0.615 0.361 0.862 240.569 o
4 4 12 4.807 6.140 1.138 119.287 o
4 5 0 6.381 5.760 0.706 230.343 o
4 5 1 54.320 54.273 1.086 15.674 o
4 5 2 34.420 36.614 1.036 31.376 o
4 5 3 146.565 143.944 2.040 2.521 o
4 5 4 69.973 76.344 1.577 9.013 o
4 5 5 11.489 10.131 0.640 166.531 o
4 5 6 3.563 3.067 0.568 400.368 o
4 5 7 11.095 10.479 0.809 137.521 o
4 5 8 23.056 24.188 1.398 42.572 o
4 5 9 10.641 11.393 1.044 103.572 o
4 5 10 2.903 4.470 0.948 176.508 o
4 5 11 48.980 56.202 2.126 13.063 o
4 6 0 96.832 100.291 1.954 5.125 o
4 6 1 0.536 -0.056 0.437 905.076 o
4 6 2 8.362 9.392 0.719 182.880 o
4 6 3 1.227 1.281 0.658 385.066 o
4 6 4 11.265 12.477 0.871 121.100 o
4 6 5 0.918 1.466 0.583 485.507 o
4 6 6 3.403 3.948 0.703 286.811 o
4 6 7 28.274 27.307 1.401 35.593 o
4 6 8 14.957 15.747 1.076 79.451 o
4 6 9 10.119 9.831 1.185 91.378 o
4 6 10 7.021 6.616 1.025 131.071 o
4 7 0 34.199 36.905 1.615 24.866 o
4 7 1 1.408 0.071 0.892 221.053 o
4 7 2 20.428 21.381 1.159 56.294 o
4 7 3 53.154 49.502 1.366 15.866 o
4 7 4 19.200 18.204 1.032 67.975 o
4 7 5 33.214 32.937 1.627 26.393 o
4 7 6 2.907 3.357 0.691 306.917 o
4 7 7 15.666 15.585 1.197 69.606 o
4 7 8 9.466 7.525 1.180 96.945 o
4 7 9 0.831 0.433 0.902 218.672 o
4 8 0 62.834 70.657 2.848 7.963 o
4 8 1 14.065 14.114 1.090 83.186 o
4 8 2 6.930 7.874 1.117 113.015 o
4 8 3 1.241 1.321 0.771 287.287 o
4 8 4 32.643 35.631 1.677 25.354 o
4 8 5 17.310 16.458 1.189 65.622 o
4 8 6 27.762 25.641 1.708 30.896 o
4 8 7 7.584 7.312 1.114 112.239 o
4 8 8 20.551 20.724 1.798 35.723 o
4 9 0 58.229 63.298 2.246 10.367 o
4 9 1 24.177 21.843 1.929 30.164 o
4 9 2 7.290 7.939 1.283 89.740 o
4 9 3 21.590 24.008 1.730 35.404 o
4 9 4 4.211 4.747 1.096 131.687 o
4 9 5 41.933 43.243 2.435 14.520 o
4 9 6 22.686 21.291 1.511 41.347 o
4 9 7 0.219 -0.635 1.169 133.163 o
4 10 0 3.495 1.791 1.379 90.666 o
4 10 1 6.418 5.713 1.484 73.130 o
4 10 2 1.714 2.919 1.272 107.813 o
4 10 3 22.332 23.841 1.810 33.129 o
4 10 4 11.461 14.476 1.438 62.988 o
5 -10 -3 17.166 17.707 2.758 20.247 o
5 -10 -2 14.827 13.118 2.112 33.263 o
5 -10 -1 29.017 28.272 2.804 16.312 o
5 -9 -7 53.177 49.658 4.798 5.585 o
5 -9 -6 4.084 6.087 2.112 39.129 o
5 -9 -5 0.463 0.307 1.431 88.569 o
5 -9 -4 2.079 1.870 1.492 79.433 o
5 -9 -3 8.048 8.528 1.640 58.319 o
5 -9 -2 19.526 19.807 2.282 26.308 o
5 -9 -1 3.142 4.008 1.637 64.868 o
5 -8 -9 13.340 12.368 1.945 39.068 o
5 -8 -8 14.738 15.527 2.255 29.453 o
5 -8 -7 13.572 13.543 2.360 28.001 o
5 -8 -6 38.431 39.136 3.127 11.845 o
5 -8 -5 1.382 1.846 1.598 70.037 o
5 -8 -4 20.297 21.225 1.935 32.478 o
5 -8 -3 24.694 23.488 2.212 24.747 o
5 -8 -2 4.431 3.532 1.259 103.947 o
5 -8 -1 23.756 18.137 2.084 28.421 o
5 -7 -10 14.328 15.187 2.241 29.977 o
5 -7 -9 19.084 15.929 2.457 24.207 o
5 -7 -8 1.537 0.748 1.512 78.378 o
5 -7 -7 20.220 17.923 2.127 29.304 o
5 -7 -6 20.490 24.087 2.170 27.015 o
5 -7 -5 3.849 3.949 1.293 99.804 o
5 -7 -4 8.159 5.466 1.511 68.797 o
5 -7 -3 16.852 18.054 1.592 46.411 o
5 -7 -2 37.417 39.864 2.309 16.829 o
5 -7 -1 42.374 45.276 2.665 13.017 o
5 -6 -11 5.527 6.783 1.638 61.648 o
5 -6 -10 4.901 4.660 1.719 57.696 o
5 -6 -9 22.773 21.999 2.632 20.036 o
5 -6 -8 86.405 96.028 3.616 4.576 o
5 -6 -7 15.185 16.240 2.099 32.684 o
5 -6 -6 25.228 24.559 2.048 26.824 o
5 -6 -5 11.496 13.371 1.585 55.193 o
5 -6 -4 7.860 8.603 1.230 93.826 o
5 -6 -3 24.904 24.294 2.077 26.573 o
5 -6 -2 5.203 5.044 1.142 119.038 o
5 -6 -1 24.873 25.770 1.701 32.993 o
5 -5 -12 3.557 4.491 1.761 56.026 o
5 -5 -11 3.261 2.920 1.570 70.535 o
5 -5 -10 19.298 21.085 2.021 31.176 o
5 -5 -9 29.256 32.114 2.186 21.712 o
5 -5 -8 8.727 11.239 1.760 49.985 o
5 -5 -7 1.434 2.506 1.343 97.885 o
5 -5 -6 38.424 39.007 3.325 10.946 o
5 -5 -5 29.394 30.266 2.303 20.697 o
5 -5 -4 5.057 5.651 1.213 106.976 o
5 -5 -3 7.749 7.398 1.014 128.091 o
5 -5 -2 10.796 11.577 0.861 127.654 o
5 -5 -1 70.807 66.348 1.362 9.945 o
5 -4 -13 29.434 23.627 2.727 17.359 o
5 -4 -12 36.275 36.337 3.178 12.068 o
5 -4 -11 10.440 12.457 1.949 40.621 o
5 -4 -10 7.539 7.664 2.025 40.607 o
5 -4 -9 16.716 18.571 1.803 39.184 o
5 -4 -8 45.291 46.053 2.988 11.059 o
5 -4 -7 7.689 7.679 1.414 76.070 o
5 -4 -6 16.783 17.598 1.498 50.495 o
5 -4 -5 8.148 7.596 1.579 62.634 o
5 -4 -4 55.578 57.099 1.664 13.152 o
5 -4 -3 57.940 59.903 1.689 12.246 o
5 -4 -2 17.691 19.570 0.963 73.888 o
5 -4 -1 69.309 78.104 1.410 9.210 o
5 -3 -13 24.593 27.430 2.696 18.302 o
5 -3 -12 2.533 3.258 1.543 73.488 o
5 -3 -11 1.072 -2.470 1.845 53.256 o
5 -3 -10 9.351 9.445 1.554 61.802 o
5 -3 -9 4.852 4.782 1.382 86.115 o
5 -3 -8 37.399 38.867 2.101 18.545 o
5 -3 -7 17.899 18.870 1.792 38.494 o
5 -3 -6 2.843 5.047 1.264 104.914 o
5 -3 -5 36.144 35.513 1.261 27.978 o
5 -3 -4 26.370 24.844 0.949 49.780 o
5 -3 -3 0.822 0.822 0.348 1243.120 o
5 -3 -2 8.645 9.122 0.632 205.523 o
5 -3 -1 13.555 13.113 0.653 134.509 o
5 -2 -14 8.524 10.617 2.102 36.934 o
5 -2 -13 80.561 88.731 5.201 3.623 o
5 -2 -12 3.103 4.476 1.768 55.856 o
5 -2 -11 38.038 43.539 2.703 13.768 o
5 -2 -10 22.081 21.865 2.087 28.275 o
5 -2 -9 10.112 10.086 1.646 55.144 o
5 -2 -8 2.773 2.880 1.142 129.480 o
5 -2 -7 2.379 3.739 1.292 102.784 o
5 -2 -6 37.901 40.954 1.914 19.502 o
5 -2 -5 142.423 134.169 2.029 2.724 o
5 -2 -4 12.201 12.418 0.565 161.739 o
5 -2 -3 131.719 119.478 1.259 3.354 o
5 -2 -2 84.609 82.799 1.066 7.344 o
5 -2 -1 16.814 18.075 0.499 111.047 o
5 -1 -14 45.247 53.907 3.657 8.390 o
5 -1 -13 9.642 14.808 2.547 25.332 o
5 -1 -12 3.659 2.451 1.585 69.176 o
5 -1 -11 55.043 57.271 2.669 10.070 o
5 -1 -10 43.285 45.178 2.142 15.633 o
5 -1 -9 6.357 7.297 1.513 69.754 o
5 -1 -8 12.002 12.861 1.426 64.133 o
5 -1 -7 27.483 26.947 1.770 29.572 o
5 -1 -6 10.839 8.431 1.350 75.517 o
5 -1 -5 6.864 8.720 1.019 128.141 o
5 -1 -4 18.480 16.880 0.691 92.766 o
5 -1 -3 28.824 25.639 0.554 53.150 o
5 -1 -2 47.737 43.456 0.790 21.647 o
5 -1 -1 5.261 5.631 0.333 515.385 o
5 0 0 105.491 104.967 0.907 4.890 o
5 0 1 83.937 82.903 0.765 7.580 o
5 0 2 0.860 0.913 0.243 2109.030 o
5 0 3 1.506 1.533 0.302 1286.680 o
5 0 4 34.828 31.778 1.062 32.859 o
5 0 5 24.785 25.304 0.949 52.115 o
5 0 6 3.352 3.350 0.705 291.011 o
5 0 7 8.427 8.062 0.747 181.355 o
5 0 8 42.658 46.728 1.428 19.933 o
5 0 9 40.037 43.350 1.479 21.515 o
5 0 10 15.859 13.467 1.062 81.162 o
5 0 11 0.907 0.304 0.738 321.894 o
5 1 0 111.771 106.867 0.957 4.486 o
5 1 1 12.979 13.776 0.425 167.026 o
5 1 2 230.453 229.562 1.584 1.080 o
5 1 3 17.855 15.671 0.534 109.590 o
5 1 4 10.752 8.962 0.583 193.285 o
5 1 5 24.844 24.476 1.358 41.459 o
5 1 6 5.145 4.389 0.681 269.171 o
5 1 7 6.779 7.325 0.737 204.780 o
5 1 8 10.150 11.764 0.938 118.940 o
5 1 9 12.616 12.477 0.907 109.705 o
5 1 10 88.852 96.581 1.852 5.834 o
5 1 11 12.091 12.571 1.127 87.889 o
5 2 0 63.005 56.976 0.771 13.439 o
5 2 1 43.427 44.272 0.729 24.151 o
5 2 2 12.157 11.309 0.498 179.577 o
5 2 3 36.828 39.031 0.900 29.668 o
5 2 4 17.983 16.303 0.890 82.540 o
5 2 5 20.021 18.692 1.442 48.014 o
5 2 6 8.786 6.794 0.803 169.310 o
5 2 7 9.954 9.991 0.977 118.358 o
5 2 8 16.839 16.785 1.110 70.962 o
5 2 9 13.806 11.999 1.068 89.110 o
5 2 10 26.299 26.350 1.376 38.477 o
5 2 11 0.863 0.536 0.968 190.048 o
5 3 0 139.966 132.748 1.572 2.873 o
5 3 1 54.790 56.110 1.009 15.448 o
5 3 2 74.236 74.879 1.441 8.713 o
5 3 3 46.054 43.908 1.006 21.413 o
5 3 4 0.756 0.597 0.395 1024.000 o
5 3 5 4.060 3.741 0.714 272.102 o
5 3 6 49.209 49.528 1.307 17.434 o
5 3 7 21.988 24.204 1.128 52.342 o
5 3 8 30.380 32.014 1.375 32.187 o
5 3 9 57.193 65.666 1.868 11.344 o
5 3 10 44.550 50.776 1.868 16.019 o
5 3 11 17.046 18.741 1.303 58.057 o
5 4 0 67.037 66.451 2.126 9.158 o
5 4 1 5.484 5.084 0.538 344.020 o
5 4 2 4.970 4.276 0.714 255.544 o
5 4 3 3.279 2.467 0.458 562.656 o
5 4 4 50.602 54.642 1.268 16.222 o
5 4 5 13.187 13.219 0.677 133.631 o
5 4 6 1.512 1.749 0.570 481.637 o
5 4 7 47.863 52.322 1.584 16.178 o
5 4 8 21.279 20.821 1.246 52.017 o
5 4 9 0.386 -0.261 0.716 350.606 o
5 4 10 5.162 4.961 0.980 153.919 o
5 5 0 32.662 30.063 1.419 30.506 o
5 5 1 22.821 26.017 1.329 43.680 o
5 5 2 20.116 20.414 1.027 63.551 o
5 5 3 44.689 46.710 1.366 19.449 o
5 5 4 3.350 3.700 0.571 394.891 o
5 5 5 27.371 27.173 1.090 43.188 o
5 5 6 11.673 10.780 0.858 125.470 o
5 5 7 10.324 10.953 0.992 112.460 o
5 5 8 13.276 12.288 1.086 88.658 o
5 5 9 17.252 20.056 1.302 56.721 o
5 5 10 0.203 -0.221 0.986 187.072 o
5 6 0 57.450 59.276 1.849 11.957 o
5 6 1 13.799 16.169 1.124 78.449 o
5 6 2 4.472 4.232 0.870 193.608 o
5 6 3 28.456 27.037 1.237 38.815 o
5 6 4 14.615 13.755 0.953 94.018 o
5 6 5 7.887 6.390 0.728 201.045 o
5 6 6 1.604 1.276 0.649 387.317 o
5 6 7 26.157 24.014 1.426 38.643 o
5 6 8 11.454 9.999 1.043 103.242 o
5 6 9 9.783 10.347 1.090 102.757 o
5 7 0 12.432 11.919 1.465 61.769 o
5 7 1 48.840 54.488 1.894 14.242 o
5 7 2 16.589 15.411 1.131 71.874 o
5 7 3 28.374 29.537 1.755 28.486 o
5 7 4 6.282 6.667 0.964 147.442 o
5 7 5 10.241 9.912 1.119 98.395 o
5 7 6 44.863 52.545 1.904 15.491 o
5 7 7 0.204 0.662 0.904 220.529 o
5 7 8 20.456 19.497 1.721 38.291 o
5 8 0 12.935 14.176 1.380 64.560 o
5 8 1 18.014 19.477 1.708 40.682 o
5 8 2 8.795 8.644 1.167 98.937 o
5 8 3 0.923 1.461 1.175 128.971 o
5 8 4 4.102 4.794 1.235 106.956 o
5 8 5 11.375 12.568 1.522 59.349 o
5 8 6 3.509 2.873 1.195 117.319 o
5 9 0 7.568 5.019 1.383 81.366 o
5 9 1 44.772 50.820 2.475 12.963 o
5 9 2 1.087 -0.335 1.243 116.478 o
5 9 3 16.814 21.201 2.132 30.005 o
5 9 4 1.740 0.703 1.446 85.407 o
5 10 0 21.270 19.349 1.877 33.776 o
6 -8 -6 0.948 -1.412 1.623 68.738 o
6 -8 -5 5.897 3.968 1.685 59.330 o
6 -8 -4 7.421 7.432 1.474 71.482 o
6 -8 -3 10.132 11.303 1.653 54.131 o
6 -8 -2 19.274 17.609 2.000 32.589 o
6 -8 -1 1.075 -0.426 1.361 97.361 o
6 -7 -8 15.402 16.969 2.566 23.363 o
6 -7 -7 52.210 61.839 3.594 7.673 o
6 -7 -6 8.481 6.831 2.026 40.335 o
6 -7 -5 6.710 7.079 1.766 52.812 o
6 -7 -4 2.015 0.184 2.041 43.327 o
6 -7 -3 15.109 12.873 1.713 45.948 o
6 -7 -2 11.556 11.250 1.665 52.163 o
6 -7 -1 16.162 18.272 1.772 40.683 o
6 -6 -10 28.978 32.558 2.836 15.651 o
6 -6 -9 36.075 39.878 2.931 13.155 o
6 -6 -8 0.426 -0.326 1.486 82.311 o
6 -6 -7 4.814 6.011 1.551 69.197 o
6 -6 -6 38.951 39.243 3.366 10.697 o
6 -6 -5 8.270 7.142 1.399 76.914 o
6 -6 -4 16.923 12.816 1.956 36.467 o
6 -6 -3 1.587 2.418 1.162 129.102 o
6 -6 -2 15.664 12.286 1.670 47.462 o
6 -6 -1 46.166 50.001 2.200 14.037 o
6 -5 -11 4.224 4.883 1.855 50.269 o
6 -5 -10 1.298 4.078 1.903 49.294 o
6 -5 -9 25.670 27.027 2.498 20.159 o
6 -5 -8 61.024 62.536 3.080 8.046 o
6 -5 -7 22.899 27.046 2.437 21.675 o
6 -5 -6 2.908 2.387 1.322 98.720 o
6 -5 -5 13.211 12.525 1.618 52.131 o
6 -5 -4 49.691 57.664 2.396 11.761 o
6 -5 -3 0.129 -0.831 0.881 234.367 o
6 -5 -2 2.102 1.560 0.944 190.409 o
6 -5 -1 8.580 9.311 1.080 110.134 o
6 -4 -11 2.372 2.457 1.908 48.975 o
6 -4 -10 13.387 15.398 2.320 28.574 o
6 -4 -9 13.660 11.013 2.343 28.723 o
6 -4 -8 13.394 13.793 2.308 29.107 o
6 -4 -7 21.830 21.065 1.823 34.096 o
6 -4 -6 12.558 13.244 1.453 61.363 o
6 -4 -5 101.896 108.915 2.907 4.126 o
6 -4 -4 19.038 16.170 1.334 55.491 o
6 -4 -3 12.394 11.735 1.200 81.547 o
6 -4 -2 4.842 4.600 0.746 239.537 o
6 -4 -1 20.452 18.735 1.245 55.036 o
6 -3 -12 45.637 55.791 3.776 7.961 o
6 -3 -11 12.262 14.329 1.979 38.054 o
6 -3 -10 1.269 -0.627 1.505 79.643 o
6 -3 -9 32.047 32.754 2.964 14.191 o
6 -3 -8 14.690 13.814 1.961 37.339 o
6 -3 -7 38.585 33.213 2.231 18.027 o
6 -3 -6 25.765 24.764 1.721 32.309 o
6 -3 -5 14.117 14.309 1.898 39.519 o
6 -3 -4 46.141 48.183 1.859 15.978 o
6 -3 -3 33.561 34.157 1.558 26.673 o
6 -3 -2 3.472 1.979 0.907 195.085 o
6 -3 -1 2.158 1.046 0.844 235.980 o
6 -2 -12 8.119 6.268 1.703 55.497 o
6 -2 -11 0.752 -0.853 1.650 66.672 o
6 -2 -10 2.454 3.438 1.459 81.734 o
6 -2 -9 6.656 4.766 1.729 55.756 o
6 -2 -8 13.121 11.809 1.680 49.677 o
6 -2 -7 8.237 7.037 1.428 74.482 o
6 -2 -6 12.608 10.909 1.304 73.447 o
6 -2 -5 42.882 42.611 1.694 18.950 o
6 -2 -4 10.883 8.096 1.280 82.027 o
6 -2 -3 24.961 24.468 1.325 42.173 o
6 -2 -2 1.485 0.614 0.641 405.868 o
6 -2 -1 38.073 39.448 1.371 24.428 o
6 -1 -12 5.274 5.203 1.804 52.328 o
6 -1 -11 25.675 26.523 2.396 21.405 o
6 -1 -10 4.272 2.187 1.752 56.819 o
6 -1 -9 9.533 8.735 1.641 56.680 o
6 -1 -8 19.211 18.777 2.046 31.287 o
6 -1 -7 10.966 13.293 1.674 51.310 o
6 -1 -6 26.952 25.292 1.731 31.130 o
6 -1 -5 9.578 6.258 1.180 98.431 o
6 -1 -4 25.433 26.651 1.686 32.565 o
6 -1 -3 36.236 35.350 1.397 26.502 o
6 -1 -2 15.558 13.139 0.894 96.918 o
6 -1 -1 2.656 1.598 0.525 509.760 o
6 0 0 62.651 57.172 1.960 10.889 o
6 0 1 4.675 3.538 0.794 225.315 o
6 0 2 21.036 18.956 1.039 62.573 o
6 0 3 36.834 36.621 1.358 26.133 o
6 0 4 15.986 12.585 1.145 75.820 o
6 0 5 5.462 3.723 0.853 194.048 o
6 0 6 1.591 1.620 0.635 398.586 o
6 0 7 7.516 7.080 1.004 131.691 o
6 0 8 2.327 3.313 1.057 150.290 o
6 0 9 0.495 1.798 1.011 173.536 o
6 0 10 5.442 4.427 1.076 131.895 o
6 1 0 4.672 2.917 0.709 271.719 o
6 1 1 28.177 30.018 1.857 26.920 o
6 1 2 7.193 4.465 0.973 146.310 o
6 1 3 0.520 1.169 0.635 427.833 o
6 1 4 11.503 12.607 0.933 111.416 o
6 1 5 1.221 1.735 0.664 374.476 o
6 1 6 6.711 8.309 1.156 107.113 o
6 1 7 1.447 2.033 0.904 208.880 o
6 1 8 63.236 72.127 2.230 9.078 o
6 1 9 9.907 8.713 1.242 87.312 o
6 1 10 60.105 67.493 2.275 9.713 o
6 2 0 33.334 29.006 1.619 27.601 o
6 2 1 4.347 4.309 0.941 171.104 o
6 2 2 25.348 24.801 1.635 34.355 o
6 2 3 6.611 5.641 0.769 204.369 o
6 2 4 17.209 16.487 1.038 74.916 o
6 2 5 17.309 17.526 1.425 52.974 o
6 2 6 22.341 21.449 1.682 36.998 o
6 2 7 21.807 23.924 1.648 37.275 o
6 2 8 9.187 7.584 1.082 110.758 o
6 2 9 0.689 0.955 0.992 180.939 o
6 3 0 17.579 16.486 1.447 52.342 o
6 3 1 35.876 39.494 1.435 25.078 o
6 3 2 9.999 11.524 0.802 142.636 o
6 3 3 22.147 23.562 1.155 51.699 o
6 3 4 25.355 24.372 1.624 34.771 o
6 3 5 17.889 16.426 1.284 59.563 o
6 3 6 0.025 -0.764 0.717 354.344 o
6 3 7 15.696 13.681 1.147 75.050 o
6 3 8 10.692 11.008 1.203 86.409 o
6 3 9 5.880 5.835 1.121 119.219 o
6 4 0 10.672 11.055 0.821 136.435 o
6 4 1 1.574 0.979 0.614 432.503 o
6 4 2 18.188 21.273 1.176 59.772 o
6 4 3 29.937 33.825 1.408 31.310 o
6 4 4 11.931 11.300 1.021 101.588 o
6 4 5 6.361 8.134 1.157 108.275 o
6 4 6 19.033 16.383 1.681 41.997 o
6 4 7 4.026 4.617 1.236 107.132 o
6 4 8 13.337 13.424 1.745 45.958 o
6 4 9 3.525 2.406 1.246 108.981 o
6 5 0 72.497 69.296 2.084 8.373 o
6 5 1 15.096 15.378 1.021 83.816 o
6 5 2 8.759 9.228 1.103 106.497 o
6 5 3 32.502 35.711 1.431 28.443 o
6 5 4 50.300 53.288 1.797 14.429 o
6 5 5 12.725 11.255 1.273 75.198 o
6 5 6 10.516 7.050 1.195 92.942 o
6 5 7 48.445 49.333 2.205 13.582 o
6 5 8 11.521 9.327 1.693 51.700 o
6 6 0 12.107 13.225 1.319 71.033 o
6 6 1 1.201 1.401 0.875 225.879 o
6 6 2 62.448 69.793 2.312 9.161 o
6 6 3 4.909 3.642 0.950 167.092 o
6 6 4 5.837 5.033 1.199 107.832 o
6 6 5 4.449 4.202 1.054 140.849 o
6 6 6 6.956 6.500 1.406 78.900 o
6 6 7 0.358 0.265 1.184 129.359 o
6 7 0 15.274 14.055 1.490 55.006 o
6 7 1 24.308 26.076 2.001 27.681 o
6 7 2 1.890 2.349 1.176 125.423 o
6 7 3 7.582 11.302 1.700 53.982 o
6 7 4 6.270 5.152 1.297 93.242 o
6 7 5 16.351 19.504 1.974 34.359 o
6 8 0 3.931 3.492 1.396 86.788 o
6 8 1 8.792 9.320 1.492 66.903 o
6 8 2 8.093 16.172 2.525 25.933 o
6 8 3 5.612 4.410 1.802 52.463 o
7 -7 -4 0.653 0.725 1.375 95.501 o
7 -7 -3 0.241 1.591 1.187 127.575 o
7 -7 -2 8.140 11.705 1.810 47.910 o
7 -7 -1 5.533 4.360 1.253 101.537 o
7 -6 -7 12.613 11.032 2.082 35.606 o
7 -6 -6 4.402 2.419 1.874 49.811 o
7 -6 -5 12.333 12.353 1.883 41.850 o
7 -6 -4 10.173 11.020 1.828 45.918 o
7 -6 -3 11.251 12.759 1.965 39.530 o
7 -6 -2 2.444 2.328 0.952 183.878 o
7 -6 -1 16.184 17.441 1.489 51.713 o
7 -5 -8 17.723 18.698 2.534 23.023 o
7 -5 -7 8.606 10.904 1.599 59.001 o
7 -5 -6 9.492 8.169 1.761 50.551 o
7 -5 -5 17.915 21.126 2.201 28.170 o
7 -5 -4 6.561 4.489 1.729 55.911 o
7 -5 -3 5.731 5.503 1.508 72.027 o
7 -5 -2 14.262 12.615 1.338 66.260 o
7 -5 -1 27.567 30.717 1.819 27.628 o
7 -4 -9 14.157 13.913 1.762 44.412 o
7 -4 -8 35.223 36.546 2.285 18.090 o
7 -4 -7 1.306 1.127 1.285 107.810 o
7 -4 -6 2.614 1.607 1.226 115.129 o
7 -4 -5 15.525 20.192 2.283 27.709 o
7 -4 -4 24.740 25.910 1.874 29.704 o
7 -4 -3 32.679 35.329 2.214 19.685 o
7 -4 -2 13.707 12.745 1.683 48.521 o
7 -4 -1 28.067 28.257 1.684 30.235 o
7 -3 -10 6.076 9.711 2.164 36.119 o
7 -3 -9 0.069 0.068 1.399 93.174 o
7 -3 -8 36.997 35.677 2.529 15.895 o
7 -3 -7 23.866 21.275 1.990 29.328 o
7 -3 -6 4.006 4.114 1.296 98.927 o
7 -3 -5 30.404 29.445 2.064 23.214 o
7 -3 -4 18.217 17.355 1.605 44.920 o
7 -3 -3 16.198 17.893 1.505 50.740 o
7 -3 -2 0.201 0.099 0.927 211.281 o
7 -3 -1 2.424 2.969 1.008 164.039 o
7 -2 -10 23.858 23.439 2.853 17.342 o
7 -2 -9 5.291 8.879 2.263 33.576 o
7 -2 -8 7.888 5.346 1.942 44.235 o
7 -2 -7 12.766 13.435 2.311 29.314 o
7 -2 -6 5.345 4.756 1.216 106.867 o
7 -2 -5 17.863 17.976 1.614 44.614 o
7 -2 -4 9.377 8.727 1.424 71.675 o
7 -2 -3 65.495 76.221 2.487 8.086 o
7 -2 -2 46.170 45.078 2.787 11.833 o
7 -2 -1 13.400 15.157 1.687 47.506 o
7 -1 -11 8.495 7.940 1.934 43.572 o
7 -1 -10 0.661 0.076 1.611 69.922 o
7 -1 -9 7.168 6.920 1.702 56.078 o
7 -1 -8 1.720 -0.581 1.387 93.058 o
7 -1 -7 30.689 34.486 2.183 20.812 o
7 -1 -6 15.357 13.471 1.581 50.966 o
7 -1 -5 5.203 5.906 1.604 64.763 o
7 -1 -4 15.480 13.229 1.870 39.862 o
7 -1 -3 15.294 17.004 2.882 19.165 o
7 -1 -2 2.975 1.307 1.198 119.747 o
7 -1 -1 3.488 1.554 1.173 123.090 o
7 0 0 10.540 11.819 1.295 77.460 o
7 0 1 8.850 10.507 1.153 97.760 o
7 0 2 34.483 31.676 2.058 21.218 o
7 0 3 0.001 0.076 0.818 272.502 o
7 0 4 12.132 11.411 1.207 81.918 o
7 0 5 5.093 4.767 1.285 97.541 o
7 0 6 0.127 -0.645 1.134 141.615 o
7 0 7 0.246 -0.363 1.169 132.973 o
7 1 0 38.318 40.764 2.502 15.194 o
7 1 1 43.034 41.997 4.191 7.513 o
7 1 2 1.870 1.416 0.782 272.638 o
7 1 3 3.002 1.853 1.031 157.456 o
7 1 4 9.781 7.247 1.374 76.415 o
7 1 5 6.010 7.408 1.564 66.148 o
7 1 6 6.970 6.023 1.483 72.266 o
7 1 7 2.392 3.314 1.479 79.750 o
7 2 0 16.052 15.745 1.393 57.571 o
7 2 1 45.529 47.217 2.385 13.590 o
7 2 2 6.357 7.478 1.035 130.049 o
7 2 3 18.102 19.615 1.399 51.558 o
7 2 4 1.287 0.387 1.221 119.877 o
7 2 5 11.121 10.900 1.651 53.455 o
7 2 6 6.404 3.354 1.586 66.155 o
7 2 7 0.350 -0.484 1.218 122.492 o
7 3 0 2.007 3.255 1.220 115.708 o
7 3 1 12.901 6.294 3.455 14.492 o
7 3 2 5.245 3.649 1.067 136.078 o
7 3 3 16.001 15.860 1.445 55.007 o
7 3 4 6.152 6.202 1.275 95.049 o
7 3 5 16.343 13.834 1.770 42.362 o
7 3 6 7.250 5.046 1.302 90.720 o
7 3 7 9.866 9.440 1.517 63.643 o
7 4 1 23.006 12.296 7.534 3.121 o
7 4 2 18.334 16.927 1.749 40.204 o
7 4 3 19.399 22.367 2.058 30.016 o
7 4 4 13.751 13.394 1.490 57.481 o
7 4 5 11.113 9.914 1.709 51.017 o
7 4 6 1.455 1.219 1.296 105.718 o
7 5 0 0.904 0.400 1.016 172.814 o
7 5 1 0.994 1.046 1.404 91.115 o
7 5 2 1.115 0.426 1.242 116.213 o
7 5 3 7.168 4.952 1.342 86.437 o
7 5 4 3.114 4.720 1.298 99.643 o
7 5 5 3.252 2.891 1.377 90.460 o
7 6 0 47.997 59.120 3.376 8.709 o
7 6 1 19.606 21.754 1.857 34.561 o
7 6 2 0.485 0.083 1.006 178.311 o
7 6 3 1.622 1.293 1.251 112.965 o
7 7 0 0.148 0.741 1.290 109.007 o
7 7 1 1.120 2.436 1.275 108.718 o
8 -5 -2 1.449 5.089 2.064 41.867 o
8 -4 -5 17.136 17.611 1.976 34.389 o
8 -4 -4 5.300 5.133 1.850 49.905 o
8 -4 -3 24.879 25.308 2.774 17.710 o
8 -4 -2 1.918 2.602 1.469 81.681 o
8 -4 -1 13.612 15.027 1.992 36.704 o
8 -3 -7 40.427 37.934 3.552 9.869 o
8 -3 -6 15.986 17.512 2.377 26.266 o
8 -3 -5 6.578 8.777 2.814 22.013 o
8 -3 -4 8.706 13.973 2.535 25.848 o
8 -3 -3 14.911 17.048 2.204 30.178 o
8 -3 -2 12.023 12.953 2.015 37.420 o
8 -3 -1 9.257 9.718 1.625 57.407 o
8 -2 -7 8.291 6.853 3.961 11.334 o
8 -2 -6 23.827 23.935 2.561 20.357 o
8 -2 -5 20.776 23.891 2.788 18.545 o
8 -2 -4 21.603 29.208 3.238 14.100 o
8 -2 -3 33.837 28.843 3.023 13.832 o
8 -2 -2 18.501 24.118 2.344 24.887 o
8 -2 -1 3.466 3.355 1.567 70.431 o
8 -1 -8 2.674 2.247 2.016 43.904 o
8 -1 -7 45.540 46.025 3.782 8.325 o
8 -1 -6 13.267 9.802 2.791 21.265 o
8 -1 -5 12.873 16.475 2.971 18.566 o
8 -1 -4 2.096 3.432 1.671 63.246 o
8 -1 -3 7.166 4.559 2.182 36.033 o
8 -1 -2 21.016 26.538 3.015 16.114 o
8 -1 -1 1.570 2.783 1.215 118.034 o
8 0 0 2.578 4.350 2.582 26.884 o
8 0 1 30.028 30.729 3.781 10.176 o
8 0 2 53.272 66.090 4.621 5.529 o
8 0 3 13.203 14.018 3.256 15.814 o
8 0 4 29.513 29.605 2.870 15.568 o
8 1 1 6.235 5.195 1.820 50.850 o
8 1 2 8.215 10.785 2.810 21.702 o
8 1 3 6.980 -0.890 1.518 72.847 o
8 1 4 12.990 11.002 1.987 38.322 o
8 2 0 18.768 16.633 4.202 9.523 o
8 2 1 3.628 4.985 3.245 17.063 o
8 2 2 24.853 24.058 4.766 7.229 o
8 2 3 5.586 11.496 4.257 9.859 o
8 2 4 10.856 11.761 2.823 21.062 o
8 4 0 9.885 11.206 2.490 26.767 o
8 4 1 4.147 4.766 1.986 44.211 o
8 4 2 2.749 5.800 2.112 39.568 o
;
_iucr_refine_instructions_details
;
TITL 
CELL 0.71073 5.1533 7.2436 9.4682 90 97.235 90
ZERR 2 0.0006 0.0009 0.0011 0 0.009 0
LATT -1
SYMM -X,0.5+Y,-Z
SFAC C H N O
UNIT 12 18 6 4

L.S. 4
PLAN  20
CONF
FMAP 2
MORE -1
BOND $H
ACTA
OMIT 7 4 0
WGHT 0.054917 0.028919
FVAR 1.351903
REM <olex2.extras>
REM <HklSrc "%.\\fk03416_intdb_v128.hkl">
REM </olex2.extras>

O1    4     0.68536  0.48787 -0.01482  11.00000  0.01110  0.01719  0.01512 =
 -0.00492  0.00382 -0.00062
O2    4     0.25925  0.48262 -0.09900  11.00000  0.01291  0.02259  0.00874 =
 -0.00275  0.00105 -0.00114
N2    3     0.12499  0.67111  0.12664  11.00000  0.01132  0.01068  0.00946 =
 0.00050  0.00211  0.00161
H2a   2     0.00276  0.61326  0.06979  11.00000  0.02960
H2b   2     0.06181  0.68069  0.20874  11.00000  0.01587
H2c   2     0.15135  0.77152  0.09566  11.00000  0.01879
N     3     0.27889  0.48108  0.61230  11.00000  0.01539  0.01394  0.00766 =
 -0.00042  0.00257 -0.00057
H     2     0.30918  0.47864  0.70438  11.00000  0.01891
N1    3     0.07786  0.55225  0.39859  11.00000  0.01394  0.01441  0.00905 =
 0.00078  0.00321  0.00251
C     1     0.44695  0.51061 -0.00418  11.00000  0.01222  0.00998  0.00840 =
 -0.00028  0.00288 -0.00054
C3    1     0.30132  0.45037  0.38347  11.00000  0.01334  0.01001  0.00790 =
 0.00106  0.00211  0.00071
C1    1     0.38046  0.57169  0.14266  11.00000  0.00907  0.01047  0.00831 =
 -0.00085  0.00159  0.00075
H1    2     0.51883  0.66112  0.18309  11.00000  0.01963
C4    1     0.36919  0.40177  0.23916  11.00000  0.01754  0.01044  0.00885 =
 0.00040  0.00409  0.00271
H4a   2     0.54166  0.34947  0.24144  11.00000  0.02038
H4b   2     0.24638  0.32079  0.20075  11.00000  0.03189
C5    1     0.42663  0.40573  0.51552  11.00000  0.01395  0.01209  0.00912 =
 0.00029  0.00217  0.00179
H5    2     0.58194  0.34385  0.54141  11.00000  0.01908
C6    1     0.07374  0.56709  0.53775  11.00000  0.01473  0.01511  0.01004 =
 0.00005  0.00371  0.00086
H6    2    -0.05182  0.63310  0.58075  11.00000  0.01663
HKLF 4

END
Q1 1 0.388889 0.56 0.0625 11 0.05 0.43
Q2 1 0.055556 0.56 0.46875 11 0.05 0.41
Q3 1 0.388889 0.42 0.4375 11 0.05 0.37
Q5 1 0.333333 0.52 -0.0625 11 0.05 0.36
Q4 1 0.166667 0.5 0.375 11 0.05 0.37
Q7 1 0.555556 0.52 -0.03125 11 0.05 0.33
Q6 1 0.166667 0.52 0.5625 11 0.05 0.34
Q8 1 0.388889 0.48 0.59375 11 0.05 0.33
Q9 1 0.388889 0.44 0.3125 11 0.05 0.31
Q10 1 0.333333 0.48 0.1875 11 0.05 0.26

  REM The information below was added by Olex2.
  REM
  REM R1 = 0.0408 for 3227 Fo > 4sig(Fo) and 0.0481 for all 3581 data
  REM 136 parameters refined using 1 restraints
  REM Highest difference peak 0.4300, deepest hole -0.2542
  REM Mean Shift 0.0003, Max Shift 0.0010.

  REM +++ Tabular Listing of Refinement Information +++
  REM R1_all = 0.0481
  REM R1_gt = 0.0408
  REM wR_ref = 0.0997
  REM GOOF = 1.0971
  REM Shift_max = 0.0010
  REM Shift_mean = 0.0003
  REM Reflections_all = 3581
  REM Reflections_gt = 3227
  REM Parameters = 136
  REM Hole = -0.2542
  REM Peak = 0.4300
  REM Flack = 0.2(3)

  
;
_olex2_exptl_crystal_mounting_method  'Cryo loop'
_olex2_submission_special_instructions  'No special instructions were received'
