data_fk_03426_intdb_v128
_audit_creation_date               2024-03-13
_audit_creation_method
;
Olex2 1.5-alpha
(compiled 2023.11.24 svn.r209d9fb2 for OlexSys, GUI svn.r6869)
;
_audit_contact_author_address      ?
_audit_contact_author_email        ?
_audit_contact_author_name         ''
_audit_contact_author_phone        ?
_publ_contact_author_id_orcid      ?
_publ_section_references
;
Bourhis, L.J., Dolomanov, O.V., Gildea, R.J., Howard, J.A.K., Puschmann, H.
 (2015). Acta Cryst. A71, 59-75.

Dolomanov, O.V., Bourhis, L.J., Gildea, R.J, Howard, J.A.K. & Puschmann, H.
 (2009), J. Appl. Cryst. 42, 339-341.
;
_chemical_name_systematic          'Pyrrolidine-2-carboxylic acid'
_chemical_formula_moiety           'C5 H9 N O2'
_chemical_formula_sum              'C5 H9 N O2'
_chemical_formula_weight           115.133
_chemical_absolute_configuration   unk
loop_
  _atom_type_symbol
  _atom_type_scat_dispersion_real
  _atom_type_scat_dispersion_imag
  _atom_type_scat_Cromer_Mann_a1
  _atom_type_scat_Cromer_Mann_a2
  _atom_type_scat_Cromer_Mann_a3
  _atom_type_scat_Cromer_Mann_a4
  _atom_type_scat_Cromer_Mann_b1
  _atom_type_scat_Cromer_Mann_b2
  _atom_type_scat_Cromer_Mann_b3
  _atom_type_scat_Cromer_Mann_b4
  _atom_type_scat_Cromer_Mann_c
  _atom_type_scat_source
  _atom_type_scat_dispersion_source
 C 0.00313 0.00162 2.31000 1.02000 1.58860 0.86500 20.84390 10.20750 0.56870
 51.65120 0.21560 'International Tables Volume C Table 6.1.1.4 (pp. 500-502)'
 'Brennan, Cowan, Rev. Sci. Instrum., 1992, 63, 850'
 H 0.00000 0.00000 0.49300 0.32291 0.14019 0.04081 10.51090 26.12570 3.14236
 57.79970 0.00304 'International Tables Volume C Table 6.1.1.4 (pp. 500-502)'
 'Brennan, Cowan, Rev. Sci. Instrum., 1992, 63, 850'
 N 0.00612 0.00332 12.21260 3.13220 2.01250 1.16630 0.00570 9.89330 28.99750
 0.58260 -11.52900 'International Tables Volume C Table 6.1.1.4 (pp. 500-502)'
 'Brennan, Cowan, Rev. Sci. Instrum., 1992, 63, 850'
 O 0.01085 0.00610 3.04850 2.28680 1.54630 0.86700 13.27710 5.70110 0.32390
 32.90890 0.25080 'International Tables Volume C Table 6.1.1.4 (pp. 500-502)'
 'Brennan, Cowan, Rev. Sci. Instrum., 1992, 63, 850'

_space_group_crystal_system        'orthorhombic'
_space_group_IT_number             19
_space_group_name_H-M_alt          'P 21 21 21'
_space_group_name_Hall             ' P 2ac 2ab'
loop_
  _space_group_symop_id
  _space_group_symop_operation_xyz
 1 x,y,z
 2 x+1/2,-y+1/2,-z
 3 -x,y+1/2,-z+1/2
 4 -x+1/2,-y,z+1/2

_symmetry_Int_Tables_number        19
_cell_length_a                     5.2782(11)
_cell_length_b                     8.8690(18)
_cell_length_c                     11.525(2)
_cell_angle_alpha                  90
_cell_angle_beta                   90
_cell_angle_gamma                  90
_cell_volume                       539.49(19)
_cell_formula_units_Z              4
_cell_measurement_temperature      100
_exptl_absorpt_coefficient_mu      0.110
_exptl_absorpt_correction_T_max    1.0000
_exptl_absorpt_correction_T_min    1.0000
_exptl_absorpt_correction_type     multi-scan
_exptl_crystal_colour              'clear colourless'
_exptl_crystal_colour_lustre       clear
_exptl_crystal_colour_modifier     .
_exptl_crystal_colour_primary      colourless
_exptl_crystal_density_diffrn      1.417
_exptl_crystal_description         block
_exptl_crystal_F_000               248.187
_exptl_crystal_size_max            0.08
_exptl_crystal_size_mid            0.07
_exptl_crystal_size_min            0.06
_diffrn_reflns_av_R_equivalents    0.0317
_diffrn_reflns_av_unetI/netI       0.0223
_diffrn_reflns_Laue_measured_fraction_full  1.0000
_diffrn_reflns_Laue_measured_fraction_max  1.0000
_diffrn_reflns_limit_h_max         9
_diffrn_reflns_limit_h_min         -8
_diffrn_reflns_limit_k_max         15
_diffrn_reflns_limit_k_min         -12
_diffrn_reflns_limit_l_max         19
_diffrn_reflns_limit_l_min         -20
_diffrn_reflns_number              29441
_diffrn_reflns_point_group_measured_fraction_full  1.0000
_diffrn_reflns_point_group_measured_fraction_max  1.0000
_diffrn_reflns_theta_full          25.2417
_diffrn_reflns_theta_max           38.60
_diffrn_reflns_theta_min           2.90
_diffrn_ambient_temperature        100
_diffrn_detector                   Pilatus200K
_diffrn_detector_area_resol_mean   5.81
_diffrn_detector_type              'DECTRIS PILATUS 200K'
_diffrn_measured_fraction_theta_full  1.0000
_diffrn_measured_fraction_theta_max  1.0000
_diffrn_measurement_device         'Eulerian 4-circle diffractometer'
_diffrn_measurement_device_type    'STOE STADIVARI'
_diffrn_measurement_method         'rotation method, \w scans'
_diffrn_radiation_collimation      '0.6 mm diameter'
_diffrn_radiation_monochromator    'Graded multilayer mirror'
_diffrn_radiation_probe            x-ray
_diffrn_radiation_type             'Mo K\a'
_diffrn_radiation_wavelength       0.71073
_diffrn_source                     'Genix Mo'
_reflns_Friedel_coverage           1.000
_reflns_limit_h_max                9
_reflns_limit_h_min                -9
_reflns_limit_k_max                15
_reflns_limit_k_min                -15
_reflns_limit_l_max                20
_reflns_limit_l_min                -20
_reflns_number_gt                  2719
_reflns_number_total               3065
_reflns_threshold_expression       I>=2u(I)
_computing_molecular_graphics      'Olex2 1.5-alpha (Dolomanov et al., 2009)'
_computing_publication_material    'Olex2 1.5-alpha (Dolomanov et al., 2009)'
_computing_structure_refinement   
 'olex2.refine 1.5-alpha (Bourhis et al., 2015)'
_computing_structure_solution     
 'olex2.solve 1.5-alpha (Bourhis et al., 2015)'
_refine_diff_density_max           0.3601
_refine_diff_density_min           -0.2254
_refine_diff_density_rms           0.0609
_refine_ls_abs_structure_details  
 'Hooft, R.W.W., Straver, L.H., Spek, A.L. (2010). J. Appl. Cryst., 43, 665-668.'
_refine_ls_abs_structure_Flack     -0.0(2)
_refine_ls_d_res_high              0.5696
_refine_ls_d_res_low               7.0286
_refine_ls_goodness_of_fit_ref     1.0525
_refine_ls_hydrogen_treatment      constr
_refine_ls_matrix_type             full
_refine_ls_number_constraints      9
_refine_ls_number_parameters       100
_refine_ls_number_reflns           3065
_refine_ls_number_restraints       0
_refine_ls_R_factor_all            0.0439
_refine_ls_R_factor_gt             0.0360
_refine_ls_restrained_S_all        1.0525
_refine_ls_shift/su_max            -0.0006
_refine_ls_shift/su_mean           0.0001
_refine_ls_structure_factor_coef   Fsqd
_refine_ls_weighting_details      
 'w=1/[\s^2^(Fo^2^)+(0.0566P)^2^+0.0371P] where P=(Fo^2^+2Fc^2^)/3'
_refine_ls_weighting_scheme        calc
_refine_ls_wR_factor_gt            0.0888
_refine_ls_wR_factor_ref           0.0945
_olex2_refinement_description
;
1. Fixed Uiso
 At 1.2 times of:
  All C(H) groups, All C(H,H) groups, All N(H,H) groups
;
_atom_sites_solution_primary       iterative
loop_
  _atom_site_label
  _atom_site_type_symbol
  _atom_site_fract_x
  _atom_site_fract_y
  _atom_site_fract_z
  _atom_site_U_iso_or_equiv
  _atom_site_adp_type
  _atom_site_occupancy
  _atom_site_refinement_flags_posn
 O1 O 1.20560(10) 0.38632(6) 0.31260(5) 0.01486(11) Uani 1.000000 .
 N N 0.71046(11) 0.40507(7) 0.35037(5) 0.01097(10) Uani 1.000000 .
 Ha H 0.557(3) 0.4091(15) 0.3272(11) 0.01316(12) Uiso 1.000000 R
 Hb H 0.797(3) 0.3186(14) 0.3276(11) 0.01316(12) Uiso 1.000000 R
 O3 O 1.24239(12) 0.61408(7) 0.23093(7) 0.02213(14) Uani 1.000000 .
 C5 C 0.83929(12) 0.54435(7) 0.30576(6) 0.00987(10) Uani 1.000000 .
 H5 H 0.751(3) 0.5765(13) 0.2368(10) 0.01184(12) Uiso 1.000000 R
 C2 C 1.11951(13) 0.51202(8) 0.27982(6) 0.01129(11) Uani 1.000000 .
 C3 C 0.81232(15) 0.65508(8) 0.40655(6) 0.01338(11) Uani 1.000000 .
 H3a H 0.919(3) 0.7382(14) 0.4014(11) 0.01606(14) Uiso 1.000000 R
 H3b H 0.643(3) 0.6947(14) 0.4049(11) 0.01606(14) Uiso 1.000000 R
 C1 C 0.70380(16) 0.41280(8) 0.48165(6) 0.01528(12) Uani 1.000000 .
 H1a H 0.528(3) 0.4243(16) 0.5050(12) 0.01834(14) Uiso 1.000000 R
 H1b H 0.771(3) 0.3245(16) 0.5122(12) 0.01834(14) Uiso 1.000000 R
 C4 C 0.85161(15) 0.55469(9) 0.51292(6) 0.01476(12) Uani 1.000000 .
 H4a H 1.025(3) 0.5261(15) 0.5237(12) 0.01772(15) Uiso 1.000000 R
 H4b H 0.795(3) 0.5958(14) 0.5821(12) 0.01772(15) Uiso 1.000000 R

loop_
  _atom_site_aniso_label
  _atom_site_aniso_U_11
  _atom_site_aniso_U_22
  _atom_site_aniso_U_33
  _atom_site_aniso_U_12
  _atom_site_aniso_U_13
  _atom_site_aniso_U_23
 O1 0.00915(19) 0.01132(19) 0.0241(3) 0.00102(16) -0.00006(19) 0.00212(18)
 N 0.0080(2) 0.0103(2) 0.0146(2) -0.00042(18) 0.00058(18) -0.00112(18)
 O3 0.0129(2) 0.0171(2) 0.0364(3) 0.00065(19) 0.0067(2) 0.0114(2)
 C5 0.0082(2) 0.0100(2) 0.0114(2) 0.00043(17) 0.00001(18) 0.00017(19)
 C2 0.0085(2) 0.0116(2) 0.0138(3) 0.00002(19) 0.0004(2) -0.0000(2)
 C3 0.0172(3) 0.0100(2) 0.0129(2) 0.0000(2) 0.0011(2) -0.0011(2)
 C1 0.0181(3) 0.0139(3) 0.0139(3) -0.0018(2) 0.0018(2) 0.0022(2)
 C4 0.0178(3) 0.0149(3) 0.0117(3) -0.0008(2) -0.0011(2) -0.0002(2)

loop_
  _geom_bond_atom_site_label_1
  _geom_bond_atom_site_label_2
  _geom_bond_distance
  _geom_bond_site_symmetry_2
  _geom_bond_publ_flag
 O1 C2 1.2618(9) . ?
 N Ha 0.853(14) . ?
 N Hb 0.930(13) . ?
 N C5 1.5009(9) . ?
 N C1 1.5149(10) . ?
 O3 C2 1.2480(9) . ?
 C5 H5 0.965(12) . ?
 C5 C2 1.5359(10) . ?
 C5 C3 1.5277(10) . ?
 C3 H3a 0.930(14) . ?
 C3 H3b 0.961(14) . ?
 C3 C4 1.5293(11) . ?
 C1 H1a 0.973(14) . ?
 C1 H1b 0.930(14) . ?
 C1 C4 1.5239(11) . ?
 C4 H4a 0.960(14) . ?
 C4 H4b 0.926(13) . ?

loop_
  _geom_angle_atom_site_label_1
  _geom_angle_atom_site_label_2
  _geom_angle_atom_site_label_3
  _geom_angle
  _geom_angle_site_symmetry_1
  _geom_angle_site_symmetry_3
  _geom_angle_publ_flag
 Hb N Ha 114.3(12) . . ?
 C5 N Ha 106.8(9) . . ?
 C5 N Hb 111.1(8) . . ?
 C1 N Ha 106.8(8) . . ?
 C1 N Hb 109.3(8) . . ?
 C1 N C5 108.39(5) . . ?
 H5 C5 N 107.8(8) . . ?
 C2 C5 N 110.44(5) . . ?
 C2 C5 H5 111.2(8) . . ?
 C3 C5 N 103.08(5) . . ?
 C3 C5 H5 113.0(7) . . ?
 C3 C5 C2 110.96(5) . . ?
 O3 C2 O1 126.07(7) . . ?
 C5 C2 O1 116.97(6) . . ?
 C5 C2 O3 116.93(6) . . ?
 H3a C3 C5 113.9(8) . . ?
 H3b C3 C5 107.8(8) . . ?
 H3b C3 H3a 105.9(12) . . ?
 C4 C3 C5 102.86(5) . . ?
 C4 C3 H3a 115.5(8) . . ?
 C4 C3 H3b 110.8(8) . . ?
 H1a C1 N 107.7(8) . . ?
 H1b C1 N 109.4(8) . . ?
 H1b C1 H1a 110.4(12) . . ?
 C4 C1 N 105.17(6) . . ?
 C4 C1 H1a 109.7(8) . . ?
 C4 C1 H1b 114.2(9) . . ?
 C1 C4 C3 102.82(6) . . ?
 H4a C4 C3 112.8(8) . . ?
 H4a C4 C1 107.5(8) . . ?
 H4b C4 C3 114.6(8) . . ?
 H4b C4 C1 111.3(8) . . ?
 H4b C4 H4a 107.5(12) . . ?

loop_
  _geom_torsion_atom_site_label_1
  _geom_torsion_atom_site_label_2
  _geom_torsion_atom_site_label_3
  _geom_torsion_atom_site_label_4
  _geom_torsion
  _geom_torsion_site_symmetry_1
  _geom_torsion_site_symmetry_2
  _geom_torsion_site_symmetry_3
  _geom_torsion_site_symmetry_4
  _geom_torsion_publ_flag
 O1 C2 C5 N -8.94(7) . . . . ?
 O1 C2 C5 C3 104.73(7) . . . . ?
 N C5 C2 O3 172.83(6) . . . . ?
 N C5 C3 C4 38.54(6) . . . . ?
 N C1 C4 C3 28.23(6) . . . . ?
 O3 C2 C5 C3 -73.49(7) . . . . ?
 C5 C3 C4 C1 -41.47(6) . . . . ?

loop_
  _diffrn_refln_index_h
  _diffrn_refln_index_k
  _diffrn_refln_index_l
  _diffrn_refln_intensity_net
  _diffrn_refln_intensity_u
 0 1 1 20.86 1.12
 0 1 2 4035.64 10.13
 0 1 5 1411.19 6.74
 0 1 6 112.16 2.25
 0 2 -3 437.97 4.75
 0 2 -2 323.42 4.26
 0 2 -1 5.97 1.59
 0 2 0 5498.91 15.91
 0 2 1 4.68 1.48
 0 2 2 337.15 4.41
 0 2 3 438.19 4.95
 0 2 5 1165.81 8.38
 0 2 6 482.03 5.72
 0 2 7 1492.52 9.59
 0 3 -4 340.4 5.23
 0 3 -3 995.09 8.93
 0 3 -2 344.57 5.54
 0 3 -1 396.21 5.79
 0 3 0 0.28 1.69
 0 3 1 415.09 5.97
 0 3 6 227.12 5.17
 0 3 7 25.78 2.44
 0 3 8 105.92 3.61
 0 4 -4 15.76 2.28
 0 4 -3 1168.27 11.52
 0 4 1 3.53 1.78
 0 4 3 1136.75 11.58
 0 4 5 12.69 2.17
 0 4 6 19.77 2.65
 0 4 7 28.28 3.02
 0 4 8 -0.45 1.76
 0 4 9 138.63 4.74
 0 5 -3 57.64 3.72
 0 5 -2 178.47 5.68
 0 5 -1 34.84 3.27
 0 5 0 -0.06 2.12
 0 5 2 184.24 5.65
 0 5 3 58.07 3.94
 0 5 4 27.7 3.33
 0 5 5 890.24 12.22
 0 5 6 53.11 3.95
 0 5 7 16.3 2.93
 0 5 8 719.7 11.34
 0 6 -4 29.2 3.32
 0 6 -3 12.13 2.67
 0 6 4 36.31 4.11
 0 6 5 267.55 7.77
 0 6 6 474.37 10.16
 0 6 7 241.27 7.59
 0 6 8 20.24 3.28
 0 6 9 178.14 6.85
 0 7 -4 2.28 2.41
 0 7 -3 376.11 9.27
 0 7 -2 9.8 3.33
 0 7 -1 619.31 11.95
 0 7 0 0.59 2.32
 0 7 2 6.25 2.95
 0 7 4 4.95 2.89
 0 7 5 629.8 12.72
 0 7 6 11.58 3.62
 0 7 7 20.77 3.7
 0 7 8 141.02 6.74
 0 8 -3 36.12 4.76
 0 8 -2 442.04 10.87
 0 8 -1 339.73 10
 0 8 0 71.46 5.75
 0 8 1 338.48 9.9
 0 8 2 453.48 11.47
 0 8 3 39.73 4.73
 0 8 4 -1.26 3.7
 0 9 5 51.7 5.94
 0 9 6 12.05 4.52
 0 9 7 -1.61 3.45
 0 10 -1 39.95 5.74
 0 10 2 108.8 7.71
 0 10 4 0.43 4.26
 0 10 5 37.49 5.69
 1 0 7 17.92 1.5
 1 0 8 -0.02 0.92
 1 0 9 248.25 3.1
 1 1 -5 360.68 3.58
 1 1 -4 232.83 3.06
 1 1 -3 274.4 3.53
 1 1 -2 3882.92 13.02
 1 1 2 3865.91 14.61
 1 1 3 292.29 4.49
 1 1 5 363.88 5.01
 1 1 6 602.63 6.37
 1 1 8 85.99 2.5
 1 1 9 531.06 5.46
 1 1 10 15.05 1.39
 1 2 -7 991.01 5.75
 1 2 -6 13.98 1.2
 1 2 -5 141.23 2.8
 1 2 -4 117.23 2.81
 1 2 -2 134.16 3.28
 1 2 -1 337.17 5.03
 1 2 0 884.57 7.98
 1 2 1 351.92 5.42
 1 2 2 136.19 3.73
 1 2 3 1018.5 8.92
 1 2 5 146.32 3.76
 1 2 6 15.62 1.94
 1 2 7 977.87 8.71
 1 2 8 102.85 3.22
 1 2 9 140.99 3.59
 1 2 10 17.95 1.96
 1 3 -7 60.48 2.28
 1 3 -6 144.53 3.31
 1 3 -5 365.57 5.19
 1 3 -4 398.21 5.62
 1 3 -3 55.7 2.72
 1 3 -2 408.6 5.89
 1 3 -1 122.26 3.71
 1 3 0 27.88 2.49
 1 3 2 416.91 6.35
 1 3 4 388.79 6.39
 1 3 6 158.3 4.34
 1 3 7 56.57 2.99
 1 3 9 736.32 8.84
 1 3 10 0.58 1.55
 1 4 -5 382.7 6.38
 1 4 -4 204.83 4.77
 1 4 -3 50.74 3.04
 1 4 -2 104.53 3.81
 1 4 -1 91.59 3.69
 1 4 0 539.19 8.11
 1 4 1 87.53 3.86
 1 4 2 98.47 4.07
 1 4 3 50.02 3.34
 1 4 5 388.37 7.27
 1 4 6 122.19 4.45
 1 4 7 55.16 3.44
 1 4 9 6.39 2.24
 1 4 10 246.58 6.08
 1 4 11 17.69 2.81
 1 4 12 105.3 4.3
 1 5 -8 123.35 4.12
 1 5 -7 5.05 1.83
 1 5 -6 104.64 4.04
 1 5 0 5.96 2.26
 1 5 1 34.65 3.21
 1 5 2 506.2 8.78
 1 5 3 312.22 7.08
 1 5 4 181.52 5.75
 1 5 5 29.34 3.3
 1 5 7 3.43 2.17
 1 5 9 24.34 3.39
 1 5 10 57.5 4.21
 1 5 11 37.7 3.99
 1 5 12 -0.28 2.37
 1 6 -8 54.39 3.59
 1 6 -7 184.2 5.86
 1 6 -6 59.87 3.89
 1 6 -3 113.48 4.78
 1 6 -2 17.85 2.49
 1 6 3 115.02 5.3
 1 6 4 129.61 5.63
 1 6 5 10.83 3.06
 1 6 6 59.51 4.39
 1 6 7 184.68 6.51
 1 6 8 51.55 4.49
 1 6 9 11.29 3.5
 1 6 10 164.67 6.85
 1 6 12 81.43 5.19
 1 7 -8 79.49 4.71
 1 7 -7 54.07 4.3
 1 7 -5 9.32 2.93
 1 7 -2 40.29 3.9
 1 7 -1 126.69 5.7
 1 7 0 435.21 9.5
 1 7 1 122.56 5.73
 1 7 2 36.62 4.08
 1 7 8 86.06 5.73
 1 8 -7 105.39 5.91
 1 8 -6 36.59 4.65
 1 8 -4 111.93 6.31
 1 8 -3 11.74 3.42
 1 8 -2 46.68 4.7
 1 8 0 40.59 4.35
 1 8 1 184.92 7.52
 1 8 3 7.24 3.43
 1 8 9 3.87 3.78
 1 8 10 58.64 6.58
 1 8 11 45.55 5.34
 1 9 4 129.86 7.58
 1 9 5 21.93 5.01
 1 9 7 52.71 6.58
 1 9 8 53.77 6.38
 1 9 9 -2.41 3.84
 1 9 11 27.55 5.62
 1 10 -6 14.63 4.51
 1 10 -5 72.98 6.83
 1 10 -4 12.51 4.62
 1 10 -3 32.33 6.1
 1 10 -2 21.44 4.77
 1 10 -1 18.38 4.6
 1 10 0 0.76 4.06
 1 10 1 21.1 4.69
 1 10 2 32.18 5.63
 1 10 3 29.98 5.18
 1 10 5 79.88 7.65
 1 10 6 7.31 4.49
 1 10 8 163.21 9.56
 1 10 9 10.22 5
 1 10 10 82.29 8.23
 1 11 -5 34.55 6.49
 1 11 -4 13.43 5.58
 1 11 -2 12.39 5.66
 1 11 1 41.12 6.31
 1 11 2 16.28 5.12
 1 11 3 3.8 4.62
 1 11 5 25.44 6.16
 1 11 6 20.22 5.85
 1 11 8 27.33 6.22
 1 12 -3 10 5.48
 1 12 -2 26.32 6.88
 1 12 -1 42.56 7.48
 1 12 0 -1.12 4.52
 1 12 1 44.51 7.54
 1 12 4 14.2 5.84
 1 12 5 18.45 7.06
 1 12 6 10.72 6.3
 1 12 7 30.14 7.62
 1 13 0 91.47 10.25
 1 13 1 33.49 7.32
 1 13 2 2.78 6.87
 1 13 3 0.87 6.24
 1 13 5 24.62 8.54
 2 -1 10 81.65 3.34
 2 -1 11 38.47 2.51
 2 0 -9 12.98 1.13
 2 0 8 0.15 1.69
 2 0 9 11.93 2.1
 2 0 10 22.09 2.41
 2 1 -9 144.72 2.28
 2 1 -8 165.67 3.17
 2 1 -7 45.16 2.07
 2 1 -6 48.4 2.31
 2 1 6 50.08 3.13
 2 1 7 42 2.84
 2 1 8 164.79 4.72
 2 1 9 146.32 4.53
 2 1 10 92.54 3.63
 2 1 11 37.89 2.6
 2 2 -9 26.64 1.41
 2 2 -8 1.33 0.97
 2 2 -7 666.12 7.06
 2 2 -6 89.74 3.07
 2 2 -5 613.53 7.39
 2 2 -4 190.11 4.41
 2 2 -3 287.06 5.63
 2 2 -2 707.06 8.63
 2 2 -1 0.04 1.77
 2 2 0 321.54 6.35
 2 2 1 2.42 2.21
 2 2 2 730.75 9.4
 2 2 3 284.05 6.19
 2 2 5 617.44 8.88
 2 2 6 83.93 3.87
 2 2 7 675.96 9.61
 2 2 8 0.92 1.73
 2 2 9 28.22 2.91
 2 2 10 24.95 2.75
 2 2 11 67.19 3.45
 2 2 12 15.76 2.19
 2 3 -5 439.84 6.86
 2 3 -4 22.67 2.5
 2 3 -3 365.57 6.65
 2 3 -1 243.52 5.8
 2 3 0 1624.33 14.17
 2 3 2 182.89 5.44
 2 3 3 383.2 7.65
 2 3 4 22.5 2.66
 2 3 5 442.29 8.16
 2 3 6 419.05 8.01
 2 3 7 108.91 4.47
 2 3 8 1.86 1.87
 2 3 9 6.74 2.38
 2 3 10 72.28 3.87
 2 3 11 30.25 3.19
 2 3 12 34.06 3.1
 2 4 -9 103.61 3.23
 2 4 -7 125.99 4.05
 2 4 -2 374.61 7.39
 2 4 -1 48.17 3.38
 2 4 0 2355.05 18.08
 2 4 3 233.41 6.34
 2 4 4 228.52 6.27
 2 4 5 100.13 4.64
 2 4 6 9.33 2.28
 2 4 7 125.57 5.06
 2 4 8 22.75 2.92
 2 4 10 16.5 2.88
 2 4 11 36.83 3.67
 2 5 -9 2.32 1.46
 2 5 -8 214.98 5.38
 2 5 -7 88.69 3.88
 2 5 -6 193.26 5.56
 2 5 -5 223.97 6.09
 2 5 -4 138 5.06
 2 5 -3 59.33 3.73
 2 5 3 61.5 4.03
 2 5 4 136.99 5.42
 2 5 5 220.89 6.7
 2 5 6 194.06 6.45
 2 5 7 91.57 5.09
 2 5 9 3.62 2.44
 2 5 11 2.47 2.66
 2 5 12 13.8 3.21
 2 6 -8 6.97 2.3
 2 6 -6 130.25 5.17
 2 6 -5 188.37 6.27
 2 6 -4 50.03 4.01
 2 6 -3 17.4 2.87
 2 6 -2 82.6 4.78
 2 6 -1 41.51 3.71
 2 6 2 77.6 4.59
 2 6 3 12.53 2.97
 2 6 4 48.22 4.45
 2 6 6 135.83 6.3
 2 6 7 198.85 7.27
 2 6 8 5.96 2.91
 2 6 9 62.53 5.09
 2 7 -8 39.64 3.88
 2 7 -7 4.73 2.4
 2 7 -6 4.45 2.55
 2 7 -5 151.4 6.13
 2 7 -3 343.75 9
 2 7 -2 17.82 3.07
 2 7 -1 197.77 7.1
 2 7 0 9.03 2.94
 2 7 2 20.72 3.45
 2 7 4 8.88 2.95
 2 7 5 139.15 6.74
 2 7 13 61.63 6.37
 2 8 -8 60.01 5.03
 2 8 -7 42.86 4.92
 2 8 -6 19.44 4.11
 2 8 -4 15.63 3.97
 2 8 7 49 5.71
 2 8 8 62.44 6.03
 2 8 11 2.48 4.19
 2 9 0 5.24 3.18
 2 9 1 276.2 9.79
 2 9 2 4.69 4.01
 2 9 3 22.27 4.42
 2 9 4 26.41 4.74
 2 9 5 6.14 3.57
 2 9 6 9.55 4.03
 2 9 7 13.1 5.05
 2 9 8 133.26 8.24
 2 9 9 89.09 7.58
 2 9 11 7.9 5.66
 2 9 12 5.01 5.27
 2 9 13 15.2 5.41
 2 10 -7 1.52 3.79
 2 10 -6 39.86 6.2
 2 10 -5 104.69 7.77
 2 10 -4 9.77 4.36
 2 10 -3 24.04 5.16
 2 10 -2 25.2 4.96
 2 10 -1 166.74 8.7
 2 10 0 64.08 6.92
 2 10 3 30.92 5.1
 2 10 4 7.7 4.82
 2 10 5 104.98 7.9
 2 10 6 48.53 6.49
 2 10 7 -1.06 5.23
 2 10 8 3.98 4.66
 2 10 9 97.79 8.89
 2 10 10 33.12 6.44
 2 10 11 22.29 6.51
 2 11 -6 22.48 5.73
 2 11 -5 9.91 5.86
 2 11 -3 56.48 6.97
 2 11 -2 19.61 5.38
 2 11 -1 123.47 8.87
 2 11 0 26.14 6
 2 11 3 59.83 7.34
 2 11 4 13.49 5.91
 2 11 5 9.03 5.03
 2 11 6 26.64 6.18
 2 11 7 17.18 5.88
 2 11 8 106.14 9.9
 2 11 9 16.59 7.08
 2 11 10 13.21 6.92
 2 11 11 3.84 5.7
 2 11 12 6.48 6.61
 2 12 -6 0.03 6.03
 2 12 -5 103.17 9.43
 2 12 -4 15.19 7.04
 2 12 -3 12.22 5.74
 2 12 -1 41.03 7.11
 2 12 0 1.85 5.44
 2 12 1 26.37 6.5
 2 12 2 76.84 9.39
 2 12 3 21.46 6.73
 2 12 4 16.49 6.35
 2 12 5 107.72 10.33
 2 12 6 9.91 7.3
 2 12 7 1.71 6.32
 2 12 9 9.39 6.13
 2 12 10 0.67 6.11
 2 12 11 -3.85 5.75
 2 13 -5 25.51 7.1
 2 13 -4 76.84 9.33
 2 13 -3 25.53 7.65
 2 13 -2 1.72 7.47
 2 13 -1 26.54 8.19
 2 13 1 30.48 8.65
 2 13 2 3.44 7.47
 2 13 3 15.25 8.17
 2 13 6 1.76 6.96
 2 13 7 17.08 8.11
 2 13 8 8.78 7.95
 2 13 9 8.66 7.14
 2 14 -1 6.73 7.51
 2 14 0 44.45 9.17
 2 14 1 0.33 7.12
 2 14 2 30.51 7.88
 2 14 3 4.87 7.34
 2 14 5 5.13 6.73
 2 14 7 8.12 7.55
 2 15 2 34.66 9.37
 3 -1 11 113.29 4.9
 3 -1 12 -1.11 2.13
 3 0 10 229.2 6.39
 3 0 11 15 2.8
 3 0 12 78.64 4.23
 3 1 -9 139.09 3.88
 3 1 -8 19.02 2.3
 3 1 7 185.76 6.13
 3 1 8 20.22 3.21
 3 1 9 141.62 5.5
 3 1 10 12.44 2.74
 3 1 11 121.07 5.2
 3 1 12 0.3 2.29
 3 2 -9 114.75 3.64
 3 2 -8 91.11 3.67
 3 2 -7 352.28 6.66
 3 2 -6 24.45 2.69
 3 2 4 7.76 2.52
 3 2 5 32.91 3.71
 3 2 7 349.09 8.12
 3 2 8 91.08 4.82
 3 2 9 127.15 5.52
 3 2 11 5.68 2.54
 3 2 12 27.2 3.4
 3 3 -7 11.69 2.23
 3 3 -6 28.23 3.06
 3 3 -5 188.44 5.68
 3 3 -4 131.34 4.99
 3 3 3 5.21 2.79
 3 3 4 124.11 5.27
 3 3 5 194.04 6.56
 3 3 6 33.81 3.78
 3 3 7 13.38 2.84
 3 3 9 142.47 5.94
 3 3 10 6.4 2.64
 3 3 11 38.7 3.87
 3 4 -7 85.29 4.05
 3 4 -6 241.6 6.47
 3 4 -5 2.64 1.96
 3 4 -4 148.61 5.71
 3 4 -2 15.29 2.71
 3 4 -1 48.63 3.92
 3 4 4 159.72 6.48
 3 4 5 3.16 2.54
 3 4 6 241.21 7.66
 3 4 7 89.4 5.44
 3 4 9 63.89 4.73
 3 4 10 26.1 3.55
 3 4 11 7.07 2.99
 3 4 12 9.85 3.18
 3 5 -8 19.49 2.86
 3 5 -7 19.89 2.83
 3 5 -6 134.75 5.39
 3 5 -5 37.91 3.81
 3 5 -4 417.23 8.96
 3 5 -3 57.86 4.54
 3 5 -2 362.66 8.73
 3 5 0 133.43 6.03
 3 5 2 377.44 9.22
 3 5 3 62.11 4.92
 3 5 4 423.02 10.02
 3 5 6 144.21 6.51
 3 5 7 19.12 3.33
 3 5 8 19.72 3.89
 3 6 -7 32.77 3.73
 3 6 -6 104.96 5.4
 3 6 -5 53.09 4.41
 3 6 -4 80.34 5.07
 3 6 -3 72.82 4.96
 3 6 -2 46.54 4.47
 3 6 -1 70.72 5.13
 3 6 0 142.11 6.28
 3 6 1 68.69 4.86
 3 6 2 43.48 4.29
 3 6 3 83.92 5.52
 3 6 4 73.73 5.38
 3 6 11 19.63 3.9
 3 6 12 9.38 3.81
 3 6 13 21.79 4.38
 3 7 -7 37.62 4.24
 3 7 -4 110.72 6.29
 3 7 -3 26.19 3.86
 3 7 7 34.87 4.72
 3 7 9 90.81 6.72
 3 7 13 7.93 4.22
 3 8 1 44.18 5.5
 3 8 2 28.69 4.87
 3 8 3 3.25 3.2
 3 8 4 3.74 4.09
 3 8 5 23 4.96
 3 8 7 27.45 4.7
 3 8 8 94.74 7.12
 3 8 9 1.96 3.93
 3 8 10 152.07 8.44
 3 8 12 52.58 6.59
 3 8 13 17.98 5.36
 3 9 -6 27.97 5.15
 3 9 -5 5.26 3.81
 3 9 -4 2.1 3.73
 3 9 -3 15.61 4.71
 3 9 -2 33.07 5.6
 3 9 0 13.29 4.01
 3 9 1 104.09 7.65
 3 9 2 35.36 5.59
 3 9 3 12.82 4.21
 3 9 4 5.18 4.52
 3 9 5 2.64 4.04
 3 9 6 18.59 5.27
 3 9 7 16.23 5.01
 3 9 8 91.89 7.82
 3 9 9 9.21 5.17
 3 9 10 6.94 5.41
 3 9 11 23.73 6.12
 3 9 12 4.06 5.1
 3 9 13 4.39 5.62
 3 10 -8 1.4 3.29
 3 10 -7 7.86 4.6
 3 10 -4 19.63 4.79
 3 10 -3 38.3 6.31
 3 10 -2 22.83 4.98
 3 10 0 21.36 5.18
 3 10 1 34.92 6.05
 3 10 2 25.46 5.39
 3 10 3 34.34 6.26
 3 10 4 18.13 4.92
 3 10 6 18.36 5.48
 3 10 7 4.8 4.57
 3 10 8 -2.06 5.37
 3 10 9 18.5 6.4
 3 10 11 -3.38 4.95
 3 10 12 51.21 7.91
 3 11 -7 39.48 6.35
 3 11 -6 13.37 5.83
 3 11 -5 43.44 6.56
 3 11 -4 7.03 5.63
 3 11 -3 -0.91 4.45
 3 11 0 84.71 8.1
 3 11 2 23.92 5.66
 3 11 3 1.95 4.51
 3 11 4 8.03 5.68
 3 11 7 44.45 7.25
 3 11 8 16.17 7.05
 3 11 9 17.14 7.21
 3 11 10 15.44 7.06
 3 11 11 14.44 7.28
 3 11 12 12.91 7.36
 3 12 -7 95.35 8.91
 3 12 -4 4.12 7.07
 3 12 -3 8.75 5.72
 3 12 0 9.47 7.1
 3 12 1 16.72 6.12
 3 12 2 30.53 6.91
 3 12 3 9.29 5.92
 3 12 4 6.63 7.27
 3 12 6 5.17 6.01
 3 12 7 106.77 10.48
 3 12 9 8.92 7.04
 3 12 10 26.32 7.63
 3 13 -7 11.86 6.07
 3 13 -6 -0.33 6.88
 3 13 -5 99.88 10.6
 3 13 -4 9.86 7.86
 3 13 -3 14.23 7.44
 3 13 -2 22.52 7.42
 3 13 -1 -0.59 6.96
 3 13 2 28.2 7.71
 3 13 3 13.05 7.36
 3 13 4 12.42 8.27
 3 13 6 -2.4 6.6
 3 13 7 5.98 7.18
 3 13 8 14.4 8.71
 3 13 9 18.55 7.61
 3 14 -5 3.39 7.35
 3 14 -3 9.21 7.9
 3 14 -1 -0.81 7.54
 3 14 0 27.33 9.02
 3 14 1 5.36 8.49
 3 14 2 -1.79 7.43
 3 14 4 4.01 8.66
 3 14 5 1.07 7.52
 4 -1 12 49.82 4.78
 4 0 10 83.64 5.57
 4 0 11 14.34 3.44
 4 0 12 17.22 3.77
 4 1 -8 281.45 7.08
 4 1 8 292.56 8.9
 4 1 9 123.81 6.43
 4 1 10 37.58 4.67
 4 1 11 3.01 3.11
 4 2 -8 2.41 2.03
 4 2 -6 32.33 3.69
 4 2 -5 184.45 6.51
 4 2 5 185.72 7.45
 4 2 6 28.7 4.35
 4 2 7 104.37 6.07
 4 2 8 1.77 2.78
 4 2 9 31.36 4.72
 4 3 -6 252.55 7.41
 4 3 -5 279.93 7.87
 4 3 -4 81.65 5.04
 4 3 0 870.44 14.18
 4 3 1 231.47 7.77
 4 3 3 150.76 6.57
 4 3 4 76.38 5.51
 4 3 5 279.63 8.64
 4 3 6 246.72 8.37
 4 3 7 77.97 5.79
 4 4 -8 33.84 3.45
 4 4 -5 230.18 7.76
 4 4 -4 252.32 8.02
 4 4 -2 334.94 9.26
 4 4 -1 70.42 5.25
 4 4 0 707.31 13.31
 4 4 2 321.87 9.3
 4 4 3 73.99 5.75
 4 4 4 244.74 8.68
 4 4 5 220.99 8.46
 4 4 11 0.87 3.19
 4 4 12 1.36 3.33
 4 4 13 10.6 3.78
 4 5 -8 12.43 2.76
 4 5 -7 74.8 4.93
 4 5 -6 87.48 5.43
 4 5 -4 97.53 6.06
 4 5 -3 2.64 2.82
 4 5 -2 54.49 5.19
 4 5 -1 274.64 9.09
 4 5 0 8.99 3.86
 4 5 10 -2.81 3.15
 4 5 11 12.07 4.44
 4 5 12 4.16 3.84
 4 5 13 6.89 4.32
 4 6 5 36.35 4.81
 4 6 6 2.86 4.1
 4 6 7 40.6 5.21
 4 6 8 7.47 4.06
 4 6 9 4.92 4.33
 4 6 10 -2.29 3.94
 4 6 12 4.44 3.99
 4 6 13 10.15 4.33
 4 7 -2 5.31 3.31
 4 7 1 5.3 3.83
 4 7 2 4.04 3.85
 4 7 4 2.94 3.63
 4 7 5 5.68 4.13
 4 7 7 2.26 4.43
 4 7 8 -0.01 4.74
 4 7 9 23.8 5.36
 4 7 10 80.87 7.32
 4 7 11 8.35 4.29
 4 7 12 12.79 5.07
 4 8 -7 7.94 3.68
 4 8 -6 13.34 4.72
 4 8 -5 62.41 6.2
 4 8 -4 28.35 5.03
 4 8 -3 77.4 6.67
 4 8 -2 -0.77 4.03
 4 8 0 62.03 6.5
 4 8 1 21.5 4.49
 4 8 2 7.37 3.83
 4 8 4 18.52 4.58
 4 8 5 62.62 6.55
 4 8 6 10.98 4.67
 4 8 7 12.71 5.08
 4 8 8 148.39 9.19
 4 8 9 23.26 6.06
 4 8 10 18.69 5.25
 4 8 11 22.57 6.08
 4 8 13 27.29 5.76
 4 9 -7 51.85 5.99
 4 9 -5 21.13 5.5
 4 9 -3 4.81 4.16
 4 9 -2 16.91 4.69
 4 9 0 3.05 4.83
 4 9 1 146.54 9.13
 4 9 2 14.82 5.41
 4 9 3 5.2 4.7
 4 9 4 2.54 4.7
 4 9 5 24.54 5.42
 4 9 11 -1.32 5.07
 4 9 12 22.93 6.46
 4 9 13 3.88 5.32
 4 10 -8 -0.28 3.08
 4 10 -7 8.93 4.01
 4 10 -5 16.24 5.58
 4 10 -3 28.08 5.61
 4 10 -2 4.04 4.63
 4 10 -1 131.91 9.26
 4 10 1 135.16 9.57
 4 10 3 24.21 6.37
 4 10 4 33.97 6.12
 4 10 5 14.08 5.36
 4 10 8 9.58 6.37
 4 10 9 17.93 6.72
 4 10 11 45.42 7.36
 4 10 12 1.51 6.51
 4 11 -7 60.75 7.38
 4 11 -6 32.5 6.45
 4 11 -5 18.02 5.49
 4 11 -4 1.86 5.6
 4 11 -3 47.23 6.83
 4 11 -2 41.12 6.79
 4 11 -1 33.95 6.23
 4 11 2 49.43 6.97
 4 11 3 49.35 7.59
 4 11 4 1.99 5.78
 4 11 5 34.49 7.85
 4 11 6 28.85 7.41
 4 11 7 61.56 8.77
 4 11 8 34.11 7.01
 4 11 9 2.59 6.77
 4 11 10 17.12 7.83
 4 11 11 23.41 7.22
 4 12 -7 18.32 5.88
 4 12 -6 35.16 8.16
 4 12 -5 27.49 7.97
 4 12 -3 1.91 6.78
 4 12 -2 23.1 7.22
 4 12 0 -0.07 5.31
 4 12 2 23.08 7.76
 4 12 3 1.41 6.01
 4 12 5 17.19 6.72
 4 12 7 28.65 7.75
 4 12 8 23.81 7.81
 4 12 9 -3.44 6.62
 4 13 -6 2.86 6.59
 4 13 -5 -3.45 6.12
 4 13 -2 -3.71 6.35
 4 13 0 9.02 7.92
 4 13 1 4.66 6.48
 4 13 2 -5.82 5.93
 4 13 3 16.19 7.23
 4 13 4 1.47 8.31
 4 13 5 -2.54 6.42
 4 13 6 7.94 7.13
 4 14 -1 8.6 8.44
 4 14 0 27.24 9.02
 4 14 1 14.24 9.38
 5 -1 12 3.09 4.26
 5 0 11 0.96 3.7
 5 0 12 55.65 6
 5 1 -8 4.18 3.04
 5 1 8 4.43 4.33
 5 1 10 46.17 5.46
 5 1 11 107.36 7.12
 5 1 12 4.42 4.08
 5 2 -7 40.95 4.65
 5 2 -6 5.02 3.25
 5 2 -5 7.28 3.49
 5 2 8 72.42 6.45
 5 2 9 16.3 4.84
 5 2 10 50.39 6.03
 5 2 11 40.13 5.92
 5 2 12 20.8 4.95
 5 3 5 0.81 3.25
 5 3 7 55.35 6.34
 5 3 8 82.93 6.83
 5 3 9 22.01 5.59
 5 3 10 21.4 5.49
 5 3 12 1.43 4.37
 5 3 13 8.97 4.24
 5 4 2 1.63 3
 5 4 3 42.25 5.26
 5 4 5 88.49 6.86
 5 4 6 68.3 6.77
 5 4 9 118.52 8.12
 5 4 11 31.65 5.5
 5 4 12 1.86 4.22
 5 4 13 0.91 4.17
 5 5 -6 42.82 5.26
 5 5 -5 51.13 6.02
 5 5 -4 110.95 7.29
 5 5 -3 21.8 4.3
 5 5 -2 52.11 5.84
 5 5 -1 23.84 5.16
 5 5 1 25.92 4.68
 5 5 2 52.03 6.31
 5 5 4 105.15 7.4
 5 5 5 50.45 6.19
 5 5 7 138.72 8.71
 5 5 8 32.95 6.12
 5 5 10 -2.98 4.46
 5 5 11 0.59 4.36
 5 5 13 29.38 5.7
 5 6 -7 4.65 3.32
 5 6 -5 118.04 7.46
 5 6 -4 5.64 4.12
 5 6 -3 123.74 7.77
 5 6 -2 18.64 5.07
 5 6 -1 23.94 5.18
 5 6 1 19.68 5
 5 6 2 16.99 5.09
 5 6 3 123.81 7.82
 5 6 4 6.31 4.18
 5 6 5 122.77 8.18
 5 6 7 6.47 4.31
 5 6 8 50.81 6.53
 5 6 9 50.3 6.32
 5 6 10 11.69 5.43
 5 6 11 6.5 4.83
 5 6 12 4.22 5.15
 5 6 13 26.99 5.49
 5 7 -7 40.85 4.91
 5 7 -6 38.12 5.75
 5 7 -3 8.87 4.67
 5 7 -2 4.54 4.68
 5 7 0 11.56 4.55
 5 7 1 54.67 6.21
 5 7 2 4.88 4.37
 5 7 3 9.14 4.59
 5 7 5 31.86 6.33
 5 7 6 40.66 6.53
 5 7 7 46.88 6.24
 5 7 8 46.83 6.36
 5 7 9 85.63 8.08
 5 7 10 46.2 6.9
 5 7 11 26.88 5.79
 5 7 13 -0.29 5.18
 5 8 -6 47.39 6.04
 5 8 -5 15.58 4.8
 5 8 -3 2.32 4.05
 5 8 -2 4.54 4.21
 5 8 -1 7.59 4.69
 5 8 1 6.26 4.78
 5 8 2 5.27 4.45
 5 8 3 1.37 4.09
 5 8 4 34.85 5.99
 5 8 5 12.3 5.67
 5 8 7 33.41 6.27
 5 8 10 38 6.54
 5 8 11 8.37 6.47
 5 8 12 8.87 5.87
 5 9 -7 -0.01 3.89
 5 9 -6 30.98 6.34
 5 9 -5 2.06 5.46
 5 9 -2 28.44 6.38
 5 9 -1 15.65 6.19
 5 9 0 32.34 5.97
 5 9 1 11.82 4.96
 5 9 3 -0.98 4.83
 5 9 4 17.93 5.58
 5 9 5 1.2 5.93
 5 9 6 35.2 7.15
 5 9 7 0.29 5.17
 5 9 8 28.26 7.52
 5 9 9 18.26 6.83
 5 9 11 10.6 5.95
 5 9 12 0.89 6.3
 5 10 -7 8.39 4.65
 5 10 -6 15.55 6.21
 5 10 -5 0.29 5.89
 5 10 -4 36.01 6.56
 5 10 -3 15.12 6.93
 5 10 -2 25.21 7.13
 5 10 0 93.15 9.21
 5 10 1 21.44 6.07
 5 10 2 23.83 6.12
 5 10 3 15.98 6
 5 10 4 24.95 6.93
 5 10 5 6.24 7
 5 10 6 27.13 7.78
 5 10 7 8.31 7.12
 5 10 8 27.39 6.65
 5 10 9 20.78 6.71
 5 10 10 2.49 5.95
 5 10 11 -2.92 5.34
 5 11 -5 19.49 6.62
 5 11 -4 21.51 7
 5 11 -3 10.75 6.79
 5 11 -2 36.8 7.85
 5 11 0 84.8 9.38
 5 11 1 37.46 7.38
 5 11 2 35.26 7.48
 5 11 3 15.63 6.3
 5 11 4 27.54 8.3
 5 11 5 18.55 6.7
 5 11 6 30.76 7.08
 5 11 7 -2.01 5.81
 5 11 8 32.1 8.39
 5 11 9 12.73 6.66
 5 12 -6 11.98 6.24
 5 12 -5 24.69 6.67
 5 12 -3 18.46 6.59
 5 12 -2 16.67 6.44
 5 12 -1 62.14 8.92
 5 12 0 5.38 6.76
 5 12 1 46.75 9.18
 5 12 2 9.99 7.52
 5 12 3 10.56 8.03
 5 12 4 19.65 7
 5 12 5 21.84 8.56
 5 12 6 6.62 8.12
 5 13 -2 40.63 9.41
 5 13 1 2.79 6.59
 5 13 2 32.51 7.95
 6 -2 12 9.61 5.12
 6 -1 11 4.39 4.99
 6 -1 12 4.76 5.26
 6 0 9 57.13 7.16
 6 0 10 103.02 8.46
 6 0 12 3.38 5.03
 6 1 -8 41.57 5.15
 6 1 7 90.91 8.15
 6 1 9 16.85 6
 6 1 10 -0.14 4.86
 6 1 11 4.72 5.51
 6 1 12 6.23 5.04
 6 2 -8 13.93 3.98
 6 2 -7 60.28 6
 6 2 -5 33.92 5.52
 6 2 -4 48.51 5.89
 6 2 3 42.63 5.64
 6 2 4 52.13 6.81
 6 2 5 37.52 6.68
 6 2 7 60.86 7.08
 6 2 8 19.04 5.38
 6 2 10 19.38 6.05
 6 2 12 9.07 5.08
 6 3 -8 6.88 3.74
 6 3 -7 21.08 5.05
 6 3 -6 55.75 6.6
 6 3 -3 64.74 6.68
 6 3 -2 10.77 4.5
 6 3 -1 87.72 7.29
 6 3 0 166.15 9.15
 6 3 1 79.77 7.06
 6 3 2 12.55 4.84
 6 3 3 62.47 6.56
 6 3 5 47.09 6.37
 6 3 6 58.04 7.11
 6 3 8 6.04 5.83
 6 3 9 19.94 5.48
 6 3 10 11.35 6.15
 6 3 11 3.16 5.68
 6 3 12 -0.83 4.56
 6 4 -7 10 4.25
 6 4 -5 119.64 8
 6 4 -3 76.43 7.17
 6 4 -2 56.08 6.89
 6 4 -1 26.64 5.42
 6 4 0 18.98 5.49
 6 4 1 29.77 5.79
 6 4 2 55.2 6.25
 6 4 4 49.38 7.15
 6 4 5 114.52 8.61
 6 4 7 7.94 5.08
 6 4 8 46.24 6.98
 6 4 9 23.6 5.69
 6 4 10 25.11 6.84
 6 4 11 -1.4 5.53
 6 4 12 -0.1 5.18
 6 5 -7 36.12 5.27
 6 5 -6 12.28 4.97
 6 5 -5 80.06 7.45
 6 5 -4 8.74 5.13
 6 5 -2 2.15 4.69
 6 5 -1 251.28 11.21
 6 5 0 15.59 5.85
 6 5 1 257.59 11.5
 6 5 2 2.54 4.51
 6 5 3 10.39 5.4
 6 5 4 3.74 4.37
 6 5 5 77.13 8.15
 6 5 6 13.31 6.36
 6 5 7 37.55 6.38
 6 5 8 15.48 5.55
 6 5 11 16.19 5.83
 6 5 12 12.15 5.72
 6 6 -8 -1.77 3.06
 6 6 -7 5.37 3.87
 6 6 -6 19.92 5.66
 6 6 -5 44.96 6.79
 6 6 -2 44.63 6.32
 6 6 -1 176.35 10.39
 6 6 2 42.28 7.19
 6 6 3 82.39 8.25
 6 6 4 48.85 7.65
 6 6 5 38.98 7.46
 6 6 6 18.2 5.93
 6 6 10 19.51 6.43
 6 6 11 -3.72 4.67
 6 6 12 11.02 5.45
 6 7 -8 -1.37 2.95
 6 7 -6 136.51 8.69
 6 7 -5 8.23 5.21
 6 7 -3 2.98 5.62
 6 7 -2 4.98 5.49
 6 7 -1 54.72 7.02
 6 7 0 93.63 8.75
 6 7 2 1.28 4.89
 6 7 3 -1.25 4.63
 6 7 5 -0.88 5.22
 6 7 7 4.63 5.48
 6 7 8 -1.87 4.95
 6 7 9 1.24 5.27
 6 7 10 -2.67 4.88
 6 7 11 42.56 7.82
 6 7 12 3.45 6.11
 6 8 -7 4.32 3.99
 6 8 -5 3.41 5.02
 6 8 -4 63.95 7.92
 6 8 -3 15.24 5.31
 6 8 -2 27.51 5.87
 6 8 -1 42.15 7.71
 6 8 0 82.72 8.48
 6 8 1 29.77 6.25
 6 8 3 7.51 5.87
 6 8 4 66.19 8.21
 6 8 5 7.6 6.02
 6 8 6 1.98 5.51
 6 8 7 1.88 5.5
 6 8 9 47.17 8.57
 6 8 10 2.98 6.77
 6 8 11 12.17 6.03
 6 9 -6 39.2 6.51
 6 9 -5 11.16 5.58
 6 9 -3 16.98 6.09
 6 9 -1 27.95 7.7
 6 9 1 26.43 6.49
 6 9 2 9.87 5.71
 6 9 3 15.55 6.88
 6 9 4 -0.24 5.49
 6 9 5 16.28 7.47
 6 9 8 9.44 7.24
 6 9 9 5.82 6.37
 6 9 10 28.72 7.07
 6 10 -6 13.71 6
 6 10 -5 9.73 5.89
 6 10 -4 32.29 7.85
 6 10 -3 11.26 6.43
 6 10 -1 22.51 8.14
 6 10 0 103.12 9.89
 6 10 1 20.5 6.62
 6 10 2 6.8 6.09
 6 10 3 10.85 6.34
 6 10 4 33.19 8.35
 6 10 6 9.76 7.35
 6 10 7 36.74 8.95
 6 10 8 14.66 6.73
 6 11 -5 7.61 6.09
 6 11 -4 17.54 7.5
 6 11 -2 26.38 7.36
 6 11 -1 3.82 7.3
 6 11 0 17.83 6.87
 6 11 1 7.62 7.53
 6 11 2 28.16 8.35
 6 11 3 21.27 7.31
 6 11 4 17.04 8.18
 6 11 5 11.57 6.76
 7 -2 11 33.98 7.35
 7 -2 12 -0.99 5.66
 7 -1 10 9.23 6.28
 7 -1 11 6.49 6.59
 7 -1 12 5.37 5.84
 7 0 8 10.16 6.89
 7 0 9 21.68 6.36
 7 0 10 -0.77 6.43
 7 0 11 3.16 6.33
 7 0 12 2.17 5.3
 7 1 -7 25.68 6.18
 7 1 -6 27.8 6.13
 7 1 6 27.69 7.19
 7 1 7 24.67 6.46
 7 1 8 23.41 6.39
 7 1 10 16.73 6.05
 7 1 11 9.94 5.73
 7 1 12 -1.76 5.24
 7 2 -6 30.56 6.32
 7 2 -5 -1.46 5.26
 7 2 -4 51.59 7.91
 7 2 -3 15.45 6.41
 7 2 -2 16.98 5.7
 7 2 0 1.59 5.53
 7 2 2 19.45 5.67
 7 2 3 15.8 6.32
 7 2 4 37.49 7.61
 7 2 5 5.53 5.79
 7 2 6 33.79 6.91
 7 2 7 7.04 5.52
 7 2 8 54.21 7.95
 7 2 9 3.28 5.43
 7 2 10 48.38 8.38
 7 2 11 44.29 8.07
 7 2 12 1.06 6.31
 7 3 -5 34.55 6.27
 7 3 -4 59.72 7.43
 7 3 -1 81.33 8.48
 7 3 0 5.43 5.92
 7 3 1 68.05 8.2
 7 3 2 18.16 5.65
 7 3 3 51.15 7.52
 7 3 6 60.23 7.68
 7 3 7 18.35 6.97
 7 3 8 84.74 9.59
 7 3 9 27.36 7.74
 7 4 -7 -0.74 5.02
 7 4 -5 21.56 6.62
 7 4 -4 82.69 8.73
 7 4 -3 40.76 6.96
 7 4 0 12.34 5.25
 7 4 1 42.64 7.02
 7 4 2 2.68 5.3
 7 4 4 79.94 8.94
 7 4 9 83.82 9.7
 7 4 10 58.56 8.89
 7 4 11 10 6.47
 7 4 12 10.09 6.49
 7 5 -7 78.07 7.85
 7 5 -6 -2.15 4.82
 7 5 -5 5.82 5.28
 7 5 -4 3.31 5.6
 7 5 -2 -0.73 5.02
 7 5 -1 19.88 7.07
 7 5 0 0.38 5.17
 7 5 1 12.53 6.01
 7 5 2 9.2 6.74
 7 5 4 1.14 6.55
 7 5 5 4.7 7.04
 7 5 7 81.77 9.78
 7 5 8 36.2 7.43
 7 5 9 3.42 5.91
 7 5 10 18.09 6.76
 7 5 11 14.89 6.39
 7 6 -7 9.66 5.14
 7 6 -6 9.23 5.87
 7 6 -5 36.42 7.4
 7 6 -4 6.17 5.53
 7 6 -3 39.08 7.08
 7 6 -1 -3.78 6.19
 7 6 0 41.66 8.2
 7 6 2 14.83 7.35
 7 6 3 32.78 7.1
 7 6 4 12.49 7.34
 7 6 5 46.81 8.94
 7 6 6 6.16 6.75
 7 6 7 11.38 6.39
 7 6 9 23.6 7.95
 7 6 10 2.34 6.19
 7 7 -5 8.6 5.63
 7 7 -4 0.12 5.96
 7 7 -2 16.19 7.13
 7 7 -1 36.4 7.53
 7 7 1 34.39 8.25
 7 7 3 1.88 5.68
 7 7 4 5.82 7.1
 7 7 6 52.71 9.22
 7 7 7 29.34 7.4
 7 7 9 11.58 6.58
 7 8 -6 26.65 6.76
 7 8 -5 9.48 5.67
 7 8 -4 2.4 6.58
 7 8 -3 11.75 6.78
 7 8 -2 -2.34 6.78
 7 8 -1 25.89 6.97
 7 8 0 64.95 9.53
 7 8 1 37.38 8.25
 7 8 2 0.38 7.05
 7 8 3 3.64 6.13
 7 8 4 7.88 7.38
 7 8 5 2.52 6.12
 7 8 6 28.56 7.58
 7 8 8 5.14 6.48
 7 9 -5 31.7 7.07
 7 9 -4 36.56 8.27
 7 9 -3 2.2 6.65
 7 9 -2 32.45 8.44
 7 9 -1 34.04 7.76
 7 9 0 -1.9 6.88
 7 9 1 28.07 7.72
 7 9 2 26.79 7.78
 7 9 3 3.03 7.55
 7 9 4 22.66 7.43
 7 9 5 32.9 7.68
 7 9 6 8.79 7
 7 10 -1 8.17 7.97
 7 10 0 21.93 7.63
 7 10 1 -0.59 6.29
 7 10 2 6.04 6.91
 8 -1 8 6.46 6.44
 8 -1 9 12.72 7.96
 8 -1 10 -1.13 6.14
 8 0 -7 15.72 6.96
 8 0 6 33.35 9.12
 8 0 7 10.57 6.77
 8 0 8 23.14 7.22
 8 0 9 -0.16 6.43
 8 0 10 4.51 7.33
 8 1 -7 38.75 7.52
 8 1 -6 6.56 6.98
 8 1 -5 27.66 6.93
 8 1 -3 14.61 6.39
 8 1 -2 16.43 7.76
 8 1 -1 116.28 10.13
 8 1 0 9.88 5.92
 8 1 1 114.38 10.33
 8 1 2 25.43 7.74
 8 1 3 10.89 7.48
 8 1 4 4.52 6.44
 8 1 5 22.12 8
 8 1 6 8.57 7.51
 8 1 7 34.22 8.01
 8 1 9 13.94 6.95
 8 1 10 1.96 7.37
 8 2 -6 16.3 6.64
 8 2 -4 22.54 7.55
 8 2 -3 47.41 8.12
 8 2 -2 38.07 7.72
 8 2 -1 77.07 9.45
 8 2 0 15.09 7.54
 8 2 1 70.11 9.44
 8 2 2 35.43 7.58
 8 2 3 43.25 8.22
 8 2 5 32.37 8.37
 8 2 6 14.81 6.71
 8 2 7 5.45 7.63
 8 2 8 11.88 7.18
 8 2 9 13.53 7.48
 8 3 -6 22.61 7.01
 8 3 -5 5.54 6.5
 8 3 -4 34.33 8.39
 8 3 -3 -3.92 6.75
 8 3 -2 26.43 7.08
 8 3 0 6.58 6.4
 8 3 1 11.46 7.39
 8 3 4 21.76 7.06
 8 3 5 12.7 6.67
 8 3 7 7.87 7.27
 8 3 8 34.02 9.22
 8 3 9 11.43 8.3
 8 4 -7 25.13 6.55
 8 4 -4 3.89 7.1
 8 4 -3 2.46 7.12
 8 4 0 48.25 8.1
 8 4 1 17.87 6.97
 8 4 2 0.66 7.11
 8 4 3 5.5 6.54
 8 4 4 5.27 7.8
 8 4 7 27.25 7.96
 8 4 8 22.62 7.85
 8 5 -7 10.84 5.78
 8 5 -6 37.45 7.57
 8 5 -5 13.62 7.6
 8 5 -4 40.13 8.74
 8 5 -2 27.71 8.58
 8 5 -1 43.35 8.25
 8 5 1 40.59 8.28
 8 5 2 32.4 7.96
 8 5 3 8.45 8.55
 8 5 6 42.93 8.95
 8 6 -6 31.87 7.19
 8 6 -5 4.45 7.15
 8 6 -4 80.2 9.78
 8 6 -2 44.71 9.33
 8 6 -1 44.58 8.29
 8 6 0 16.45 8.42
 8 6 1 49.84 9.66
 8 6 2 52.47 9.36
 8 6 5 9.03 8.26
 8 7 -4 5.8 6.22
 8 7 -3 7.8 6.33
 8 7 -2 5.66 6.73
 8 7 -1 10.68 7.79
 8 7 0 101.15 10.98
 8 7 1 5.1 7.34
 8 7 3 10.07 7.27
 8 7 4 9.49 7.77
 9 0 -4 23.03 8.04
 9 0 -3 23.32 8.98
 9 0 -2 -4.72 6.42
 9 0 -1 3.8 8.49
 9 0 0 -0.52 8.36
 9 0 1 -4.4 7.54
 9 0 2 1.28 6.96
 9 0 4 25.41 9.9
 9 1 -4 4.02 7.26
 9 1 -3 0.69 7.9
 9 1 -2 -0.63 6.67
 9 1 -1 31.43 9.65
 9 1 0 8.78 8.68
 9 1 2 0.68 7.1
 9 1 3 4.51 8.5
 9 1 4 1.58 7.74
 9 2 -4 -3.63 7.78
 9 2 -3 3.6 8.29
 9 2 -2 3.99 6.7
 9 2 0 -1.43 8.1
 9 2 1 -1.92 8.24
 9 2 4 -0.53 7
 9 3 1 10.14 8.32
 -5 1 -12 2.87 2.29
 -5 1 -10 52.02 3.81
 -5 1 -9 25.45 3.15
 -5 1 -8 3.92 1.72
 -5 1 -7 49.47 2.92
 -5 1 -6 35.07 2.25
 -5 2 -13 -1.2 2.38
 -5 2 -12 16.24 3.15
 -5 2 -11 39.64 4.04
 -5 2 -9 13.18 2.62
 -5 2 -8 74.49 4.03
 -5 2 -7 48.98 3.27
 -5 2 -6 1.27 1.49
 -5 3 -14 25.91 4.25
 -5 3 -13 6.42 3.51
 -5 3 -12 2.57 3.04
 -5 3 -11 13.47 3.15
 -5 3 -10 17.83 3.33
 -5 3 -8 84.97 4.77
 -5 3 -6 116.21 4.74
 -5 4 -15 20.46 4.42
 -5 4 -14 1.86 3.34
 -5 4 -13 0.89 2.92
 -5 4 -12 3.98 3.06
 -5 4 -11 37.5 4.61
 -5 4 -10 11.73 3.21
 -5 4 -9 111.67 5.93
 -5 4 -7 31.09 3.61
 -5 5 -15 14.79 5.05
 -5 5 -14 11.32 3.85
 -5 5 -13 26.91 5.03
 -5 5 -12 0.54 3.23
 -5 5 -11 3.4 3.16
 -5 5 -10 1.08 2.74
 -5 5 -9 41.58 5.11
 -5 5 -8 39.87 4.55
 -5 6 -15 22.38 5.12
 -5 6 -14 20.73 4.99
 -5 6 -13 27.27 4.94
 -5 6 -12 -1.5 3.19
 -5 6 -11 10.62 4.39
 -5 6 -10 11.18 3.76
 -5 6 -9 43.26 5.31
 -5 6 -8 45.82 4.93
 -5 7 -13 -1.33 4.3
 -5 7 -12 53.8 6.63
 -5 7 -11 30.23 4.94
 -5 7 -10 48.58 6.07
 -5 8 -13 14.74 4.75
 -5 8 -12 14.01 4.59
 -5 8 -11 16.4 4.76
 -4 -4 -13 13.28 3.25
 -4 -3 -15 15.01 3.72
 -4 -3 -14 4.96 2.62
 -4 -3 -13 31.08 3.91
 -4 -3 -11 1.2 2.17
 -4 -3 -10 19.89 2.75
 -4 -3 -9 37.1 2.91
 -4 -3 -8 18.41 2.3
 -4 -3 -7 73.86 2.81
 -4 -3 -6 249.33 4.02
 -4 -3 -5 280.02 3.18
 -4 -2 -16 8.53 3.4
 -4 -2 -15 8.1 3.42
 -4 -2 -13 10.84 2.77
 -4 -2 -10 46.39 3.44
 -4 -2 -9 28.5 2.66
 -4 -2 -8 0.26 1.29
 -4 -2 -7 106.46 3.31
 -4 -2 -6 31.59 1.75
 -4 -2 -5 195.07 2.8
 -4 -1 -17 4.36 3.35
 -4 -1 -16 11.95 4.04
 -4 -1 -15 19.49 4
 -4 -1 -14 11.92 3.49
 -4 -1 -13 9.26 3.11
 -4 -1 -11 -0.46 2
 -4 -1 -10 44.39 3.52
 -4 -1 -9 132.21 4.68
 -4 -1 -8 288.3 6.08
 -4 -1 -7 89.38 3.2
 -4 -1 -6 123.15 3.19
 -4 -1 -5 101.6 2.42
 -4 -1 -4 72.77 1.45
 -4 0 -18 1.98 3.8
 -4 0 -17 -0.58 3.46
 -4 0 -16 1.98 3.22
 -4 0 -15 0.16 3.08
 -4 0 -14 8.09 3.51
 -4 0 -13 0.52 2.35
 -4 0 -12 13.94 3.02
 -4 0 -10 90.41 4.66
 -4 0 -9 82.41 4.01
 -4 0 -8 7.15 1.81
 -4 0 -7 124.28 3.96
 -4 0 -6 1.21 1.26
 -4 0 -4 4.7 0.93
 -4 1 -18 12.86 4.45
 -4 1 -17 4.38 3.46
 -4 1 -16 16.78 4.26
 -4 1 -15 24.11 4.63
 -4 1 -14 5.52 3.07
 -4 1 -13 14.93 3.26
 -4 1 -12 53.57 4.44
 -4 1 -10 41.38 3.58
 -4 1 -9 124.48 4.88
 -4 1 -8 282.37 6.68
 -4 1 -7 93.6 3.88
 -4 1 -6 129.1 4.03
 -4 1 -5 99.67 3.31
 -4 1 -4 72.27 2.66
 -4 2 -18 3.65 4.52
 -4 2 -17 4.24 4.25
 -4 2 -16 14.17 3.94
 -4 2 -15 8.74 4.13
 -4 2 -14 16.8 4.01
 -4 2 -13 8.17 3.54
 -4 2 -12 32.23 3.94
 -4 2 -9 25.54 3.16
 -4 2 -8 1.9 1.86
 -4 2 -6 29.71 2.57
 -4 2 -5 198.02 5.09
 -4 3 -17 6.35 4.26
 -4 3 -16 2.1 3.51
 -4 3 -15 13.49 4.58
 -4 3 -13 34.23 4.71
 -4 3 -12 6.81 3.24
 -4 3 -8 24.14 3.03
 -4 3 -5 304.09 7.01
 -4 3 -4 74.95 3.59
 -4 4 -17 -1.12 3.82
 -4 4 -16 6.48 4.64
 -4 4 -13 11.74 3.68
 -4 4 -12 -0.94 2.82
 -4 4 -11 1.64 2.71
 -4 4 -10 1.29 3.02
 -4 4 -7 37.42 3.82
 -4 4 -6 30.04 3.23
 -4 4 -5 241.24 6.95
 -4 5 -17 4.1 4.38
 -4 5 -16 20.74 5.59
 -4 5 -15 23.86 5.47
 -4 5 -14 9.92 4.65
 -4 5 -12 9.04 3.53
 -4 5 -11 15.28 3.78
 -4 5 -10 2.98 2.77
 -4 5 -9 16.44 3.23
 -4 5 -5 63.67 4.68
 -4 6 -15 15.39 5.2
 -4 6 -14 31.49 5.73
 -4 6 -13 13.1 4.28
 -4 6 -12 3.94 3.45
 -4 6 -11 5.73 3.59
 -4 6 -10 1.16 2.92
 -4 6 -9 7.1 3.12
 -4 6 -8 6.39 3.34
 -4 6 -7 37.54 4.44
 -4 7 -14 30.53 6.3
 -4 7 -12 9.83 4.09
 -4 7 -11 9.24 4.07
 -4 7 -10 80.33 6.72
 -4 7 -9 18.91 4.15
 -4 7 -8 2.58 3.05
 -4 7 -7 2.46 2.75
 -4 7 -6 68.74 5.28
 -4 8 -15 6.06 4.63
 -4 8 -14 11.22 5.13
 -4 8 -12 9.22 4.39
 -4 8 -11 22.1 4.98
 -4 8 -10 21.71 5.24
 -4 8 -9 24.25 5.28
 -4 9 -14 37.82 6.64
 -4 9 -13 2.26 4.42
 -4 9 -12 16.42 5.38
 -4 9 -11 -1.97 3.79
 -4 9 -10 97.45 8.31
 -4 9 -9 55.04 6.77
 -4 10 -12 -2.21 4.64
 -4 10 -11 42.66 7.41
 -3 -5 -18 7.44 4.85
 -3 -4 -18 3.17 3.88
 -3 -4 -17 10.07 4.36
 -3 -3 -18 20.56 4.87
 -3 -3 -17 -2.99 3.11
 -3 -3 -16 9.28 4.24
 -3 -2 -18 1.27 3.74
 -3 -2 -17 11.4 4.4
 -3 -2 -16 31.38 5.15
 -3 -2 -15 32.29 4.99
 -3 -2 -14 43.38 5.16
 -3 -2 -13 63.12 4.99
 -3 -1 -19 0.52 3.96
 -3 -1 -18 12.79 4.54
 -3 -1 -17 3.65 3.48
 -3 -1 -16 40.05 5.61
 -3 -1 -15 21.33 4.55
 -3 -1 -13 27.76 3.8
 -3 -1 -10 9.52 2.43
 -3 -1 -9 132.21 5.14
 -3 -1 -8 20.08 2.42
 -3 -1 -6 38.08 2.32
 -3 -1 -5 266.49 4.38
 -3 -1 -3 120.87 1.92
 -3 0 -19 38.66 6
 -3 0 -17 9.21 4.39
 -3 0 -15 68.56 5.69
 -3 0 -14 168.17 7.78
 -3 0 -13 14.92 3.32
 -3 0 -10 235.9 7.08
 -3 0 -9 713.41 10.86
 -3 0 -8 8.52 1.9
 -3 0 -7 2.5 1.47
 -3 0 -5 1.11 0.95
 -3 0 -4 0.94 0.9
 -3 0 -3 278.28 3.57
 -3 1 -19 6.52 5.01
 -3 1 -18 15.12 4.52
 -3 1 -12 0.68 3
 -3 1 -10 10.77 2.55
 -3 1 -9 136.17 5.24
 -3 1 -7 192.01 5.15
 -3 1 -6 40.5 2.62
 -3 1 -5 273.26 5.23
 -3 1 -4 130.45 3.42
 -3 1 -3 117.64 2.98
 -3 2 -18 7.39 4.61
 -3 2 -17 14.88 5.18
 -3 2 -16 29.74 5.72
 -3 2 -15 27.58 4.65
 -3 2 -14 30.2 4.54
 -3 2 -13 68.37 5.28
 -3 2 -12 24.91 3.7
 -3 2 -9 125.84 5.45
 -3 2 -8 81.75 4.31
 -3 2 -7 366.43 7.59
 -3 2 -6 25.87 2.56
 -3 2 -5 30.61 2.64
 -3 2 -4 6.92 1.67
 -3 2 -3 364.86 6.02
 -3 3 -18 15.3 5.71
 -3 3 -17 4.43 4.83
 -3 3 -16 3.89 3.83
 -3 3 -15 37.56 5.39
 -3 3 -14 3.29 3.3
 -3 3 -13 1.69 2.99
 -3 3 -12 16.2 3.58
 -3 3 -9 141 6.16
 -3 3 -8 7.92 2.77
 -3 3 -6 36.26 3.29
 -3 3 -5 186.23 5.41
 -3 3 -4 135.66 4.54
 -3 3 -3 4.69 1.49
 -3 4 -18 7.27 5.14
 -3 4 -17 10.21 5.54
 -3 4 -16 4.64 3.99
 -3 4 -15 16.14 5.02
 -3 4 -14 43.6 5.91
 -3 4 -13 28.64 4.93
 -3 4 -11 9.99 3.14
 -3 4 -10 20.33 3.41
 -3 4 -8 18.58 3.08
 -3 4 -7 81.69 4.5
 -3 4 -5 3.71 2.23
 -3 4 -4 152.7 5.16
 -3 4 -3 28.2 2.93
 -3 5 -18 10.99 5.37
 -3 5 -16 0.45 3.9
 -3 5 -15 1.33 3.63
 -3 5 -14 78.82 6.58
 -3 5 -13 35.22 5.2
 -3 5 -12 10.82 3.68
 -3 5 -11 43.85 5.39
 -3 5 -10 30.94 4.2
 -3 5 -9 45.6 4.22
 -3 5 -6 138.19 5.96
 -3 5 -5 31.9 3.31
 -3 5 -4 414.67 9.15
 -3 6 -17 7.13 5.57
 -3 6 -16 44.15 6.8
 -3 6 -15 85.19 7.6
 -3 6 -13 24.68 5.11
 -3 6 -12 9.28 4.05
 -3 6 -11 27.62 4.98
 -3 6 -10 106.31 6.43
 -3 6 -8 130.18 6.39
 -3 6 -4 76.05 4.81
 -3 7 -16 12.71 5.42
 -3 7 -13 4.67 3.9
 -3 7 -12 20.15 4.56
 -3 7 -11 -0.69 3.12
 -3 7 -10 61.06 6.26
 -3 7 -8 162.73 7.97
 -3 7 -7 39.3 4.35
 -3 7 -6 83.34 5.49
 -3 8 -16 7.2 5.55
 -3 8 -14 13.22 4.86
 -3 8 -13 19.29 5.45
 -3 8 -11 16.53 4.63
 -3 8 -10 140.58 8.45
 -3 8 -9 8.06 4.13
 -3 8 -8 91.1 7.18
 -3 8 -7 33.31 4.7
 -3 8 -6 32.78 4.39
 -3 9 -15 23.18 6.87
 -3 9 -14 23.49 5.88
 -3 9 -13 1.01 5.2
 -3 9 -12 4.37 4.71
 -3 9 -11 23.75 5.88
 -3 9 -10 15.93 4.51
 -3 9 -9 11.26 4.92
 -3 9 -8 98.65 7.64
 -3 9 -7 21.96 4.42
 -3 10 -14 3.32 4.89
 -3 10 -13 8.02 6.07
 -3 10 -11 6.58 5.7
 -3 10 -10 33.12 5.93
 -3 10 -9 14.59 5.46
 -3 10 -8 -3.07 3.9
 -3 11 -12 15.5 6.24
 -3 11 -11 23.65 6.79
 -3 11 -10 14.4 5.29
 -2 -4 -19 8.26 4.75
 -2 -3 -19 18.52 5.93
 -2 -3 -18 21.82 5.33
 -2 -2 -19 6.43 4.68
 -2 -2 -18 5.81 4.58
 -2 -2 -17 17.19 4.84
 -2 -1 -19 80.37 7.37
 -2 -1 -18 10.16 4.48
 -2 -1 -17 4.96 4
 -2 -1 -16 26.27 4.95
 -2 -1 -15 106.68 7.08
 -2 -1 -2 764.61 4.07
 -2 0 -19 -0.53 4.49
 -2 0 -18 21.63 5.65
 -2 0 -16 5.4 3.54
 -2 0 -14 0.84 2.75
 -2 0 -13 14.73 4.02
 -2 0 -10 21.96 3.25
 -2 0 -6 79.24 3.46
 -2 0 -5 80.48 3
 -2 0 -3 262.99 3.6
 -2 0 -2 813.37 5.03
 -2 1 -19 74.65 7.37
 -2 1 -18 10.34 4.93
 -2 1 -17 0.27 3.81
 -2 1 -16 24.25 4.9
 -2 1 -15 113.58 7.04
 -2 1 -14 0.58 2.77
 -2 1 -13 5.13 2.98
 -2 1 -10 86.86 4.73
 -2 1 -8 164.1 5.38
 -2 1 -5 510.99 6.98
 -2 1 -4 99.43 3.12
 -2 1 -3 311.86 4.59
 -2 1 -2 768.45 6.28
 -2 2 -19 4.91 4.78
 -2 2 -18 8.66 4.87
 -2 2 -17 28.85 5.29
 -2 2 -16 4.19 3.86
 -2 2 -14 -1.14 2.69
 -2 2 -9 22.37 3.24
 -2 2 -8 1.97 1.94
 -2 2 -7 684.18 10.27
 -2 2 -5 619.69 8.32
 -2 2 -3 278.06 5.04
 -2 2 -1 -0.14 1.05
 -2 3 -19 20.45 6.22
 -2 3 -18 23.6 5.73
 -2 3 -17 26.31 5.38
 -2 3 -16 9.93 4
 -2 3 -15 68.79 6.61
 -2 3 -14 7.5 3.55
 -2 3 -13 25.26 4.45
 -2 3 -12 34.19 4.53
 -2 3 -11 24.73 3.91
 -2 3 -9 6.9 2.42
 -2 3 -8 -0.2 1.7
 -2 3 -6 429.95 8.3
 -2 3 -5 446.41 7.73
 -2 3 -4 23.47 2.49
 -2 3 -3 374.7 6.43
 -2 3 -2 179.4 4.49
 -2 4 -19 -0.86 5.49
 -2 4 -18 2.45 4.63
 -2 4 -17 -4.62 4.06
 -2 4 -16 10.48 5.01
 -2 4 -15 64.97 6.14
 -2 4 -13 72.43 6.28
 -2 4 -12 16.55 3.67
 -2 4 -11 40.19 4.91
 -2 4 -7 124.02 5.24
 -2 4 -6 7.82 2.3
 -2 4 -5 95.62 4.3
 -2 4 -4 222.04 5.79
 -2 4 -2 383.34 7.28
 -2 5 -18 1.98 5.19
 -2 5 -17 26.39 6.08
 -2 5 -16 54.73 6.4
 -2 5 -12 18.66 3.85
 -2 5 -11 -0.32 2.5
 -2 5 -10 17.35 3.39
 -2 5 -7 91.74 4.92
 -2 5 -6 187.12 6.54
 -2 5 -5 235.04 6.95
 -2 5 -4 141.24 5.37
 -2 5 -3 69.12 3.87
 -2 5 -2 182.49 5.67
 -2 6 -18 0.77 5.64
 -2 6 -17 19.04 5.44
 -2 6 -16 3.16 5.04
 -2 6 -15 14.97 4.98
 -2 6 -14 73.22 7.15
 -2 6 -12 2.81 3.31
 -2 6 -10 39.88 4.67
 -2 6 -9 64.76 5.05
 -2 6 -5 198.59 7.1
 -2 6 -3 17.49 2.84
 -2 7 -17 16.68 5.62
 -2 7 -16 11.8 4.98
 -2 7 -15 13.3 5.07
 -2 7 -14 0.9 3.86
 -2 7 -13 67.76 7.01
 -2 7 -12 8.66 3.83
 -2 7 -11 2.61 3.07
 -2 7 -10 71.46 5.78
 -2 7 -7 1.81 2.89
 -2 8 -16 -1.83 4.47
 -2 8 -15 13.17 4.98
 -2 8 -14 24.2 5.88
 -2 8 -13 21.1 5.12
 -2 8 -12 16.95 5.37
 -2 8 -11 6.46 4.5
 -2 8 -10 57.52 5.58
 -2 8 -9 18.95 4.36
 -2 8 -7 43.09 5.14
 -2 8 -6 16.23 3.57
 -2 9 -15 1.58 5.37
 -2 9 -14 12.54 5.26
 -2 9 -13 9.13 4.79
 -2 9 -12 4.25 4.12
 -2 9 -11 3.68 3.86
 -2 9 -10 24.4 5.5
 -2 9 -9 84.69 6.77
 -2 9 -8 139.78 8.04
 -2 9 -7 13.88 4.63
 -2 9 -6 5.62 3.16
 -2 9 -5 6.5 3.14
 -2 10 -14 13.13 5.42
 -2 10 -13 1.7 5.05
 -2 10 -12 14.31 5.55
 -2 10 -11 13.92 5.84
 -2 10 -10 45.48 6.32
 -2 10 -9 89.58 8.24
 -2 10 -8 7.28 4.42
 -2 10 -7 6.93 4.28
 -2 11 -13 1.11 4.83
 -2 11 -12 2.89 5.05
 -2 11 -9 13.07 5.27
 -2 12 -12 7.11 5.36
 -2 12 -11 2.82 4.89
 -1 -2 -19 9.33 5.3
 -1 -1 -20 34.71 6.31
 -1 -1 -19 18.97 5.83
 -1 -1 -17 1.42 4.05
 -1 0 -20 14.67 5.61
 -1 0 -19 5.48 4.67
 -1 0 -18 22.85 5.32
 -1 0 -16 9.72 4.2
 -1 0 -15 8.24 4.21
 -1 1 -20 25.85 5.87
 -1 1 -19 19.84 5.16
 -1 1 -18 45.45 6.32
 -1 1 -17 -0.86 3.96
 -1 1 -16 1.07 3.6
 -1 1 -15 43.86 5.17
 -1 1 -14 4.96 3.09
 -1 1 -13 5.32 3.04
 -1 1 -12 53.24 4.68
 -1 1 -6 629.67 9.07
 -1 1 -5 379.06 6.45
 -1 1 -4 247.6 4.46
 -1 1 -3 280.42 4.2
 -1 1 -2 3888.67 13.01
 -1 1 -1 244.59 3.11
 -1 2 -19 7.61 4.84
 -1 2 -18 2.02 4.11
 -1 2 -17 21.08 5.64
 -1 2 -16 12.76 4.37
 -1 2 -15 -0.58 3.04
 -1 2 -14 32.1 4.59
 -1 2 -13 77.04 5.55
 -1 2 -12 7.2 2.58
 -1 2 -9 144.35 5.82
 -1 2 -8 109.26 4.59
 -1 2 -6 19.36 2.07
 -1 2 -5 143.45 4.26
 -1 2 -4 118.26 3.48
 -1 2 -3 1003.57 8.72
 -1 2 -1 350.62 4.65
 -1 3 -19 32.85 6.27
 -1 3 -18 5.78 4.87
 -1 3 -17 -0.48 3.64
 -1 3 -16 108.62 7.7
 -1 3 -15 229.1 9.93
 -1 3 -14 6.87 3.4
 -1 3 -12 5.49 2.68
 -1 3 -8 17.81 2.68
 -1 3 -7 58.81 3.46
 -1 3 -6 159.51 5.14
 -1 3 -5 369.53 7
 -1 3 -4 399 6.92
 -1 3 -3 54.16 3.01
 -1 3 -2 420.22 6.3
 -1 3 -1 128.5 3.53
 -1 4 -19 7.67 5.1
 -1 4 -18 7.26 5.62
 -1 4 -17 22.37 5.83
 -1 4 -16 -0.75 4.49
 -1 4 -15 40.18 5.55
 -1 4 -14 226.26 9.79
 -1 4 -12 115.22 6.44
 -1 4 -8 23.36 3.08
 -1 4 -7 53.5 3.96
 -1 4 -6 122.84 4.87
 -1 4 -5 384.1 7.84
 -1 4 -4 208.73 5.67
 -1 4 -3 49.56 2.86
 -1 4 -2 102.65 3.74
 -1 4 -1 88.37 3.52
 -1 5 -19 7.84 5.31
 -1 5 -18 -3.59 4.16
 -1 5 -17 2.41 4.22
 -1 5 -16 37.81 5.86
 -1 5 -15 79.03 7.41
 -1 5 -14 92.38 7.27
 -1 5 -13 71.88 6.22
 -1 5 -12 0.79 2.86
 -1 5 -11 35.19 4.32
 -1 5 -10 50.35 4.41
 -1 5 -7 8.12 2.53
 -1 5 -5 31.81 3.08
 -1 5 -4 177.9 5.66
 -1 5 -2 521.09 8.95
 -1 6 -18 0.88 4.64
 -1 6 -17 7.96 5.07
 -1 6 -16 11.24 4.61
 -1 6 -15 70.02 7.71
 -1 6 -14 10.2 4.21
 -1 6 -13 -0.63 3.08
 -1 6 -12 89.28 6.6
 -1 6 -11 4.63 3.36
 -1 6 -10 169.24 7.83
 -1 6 -9 15.75 3.2
 -1 6 -5 12.26 2.84
 -1 6 -4 136.06 5.29
 -1 6 -3 111.62 4.83
 -1 6 -2 18.39 2.47
 -1 7 -17 -1.1 4.51
 -1 7 -16 2.61 4.86
 -1 7 -15 31.42 5.8
 -1 7 -14 29.37 5.39
 -1 7 -13 1.15 4.07
 -1 7 -12 1.08 3
 -1 7 -11 10.02 3.52
 -1 7 -10 5.65 2.99
 -1 7 -4 239.7 7.61
 -1 8 -16 -2.76 4.08
 -1 8 -15 11.16 4.84
 -1 8 -14 33.48 5.88
 -1 8 -13 0.99 3.87
 -1 8 -12 26.99 5
 -1 8 -11 46.51 5.45
 -1 8 -10 57.1 5.94
 -1 8 -9 2.16 2.8
 -1 8 -8 13.93 3.37
 -1 8 -5 23.98 4.14
 -1 9 -16 7.22 5.46
 -1 9 -14 4.49 5.49
 -1 9 -13 14 4.9
 -1 9 -12 0.24 3.73
 -1 9 -11 25.09 5.01
 -1 9 -10 173.97 8.99
 -1 9 -9 -1.9 2.78
 -1 9 -7 52.78 5.18
 -1 9 -6 15.08 3.68
 -1 9 -5 19.4 3.73
 -1 9 -4 126.99 7.01
 -1 10 -15 2.67 4.96
 -1 10 -13 5.61 5.3
 -1 10 -11 0.82 4.96
 -1 10 -10 78.63 7.42
 -1 10 -9 9.77 4.72
 -1 10 -8 157.61 9.2
 -1 10 -7 1.61 3.46
 -1 10 -6 10.86 3.67
 -1 11 -14 -2.46 5.71
 -1 11 -13 4.53 4.9
 -1 11 -12 11.28 5.09
 -1 11 -10 84.75 8.37
 -1 11 -9 -1.03 3.8
 -1 11 -8 26.86 5.27
 -1 12 -12 21.11 7.11
 -1 12 -11 -0.82 5.61
 -1 12 -10 9.23 5.05
 -1 12 -9 3.48 4.79
 0 -2 -20 4.22 4.93
 0 -1 -19 0.39 5.44
 0 -1 -18 20.58 5.76
 0 0 -20 2.48 5.1
 0 0 -19 0.05 4.31
 0 0 -18 21.41 5.32
 0 0 -17 0.15 3.91
 0 1 -20 6.57 4.83
 0 1 -19 3.49 4.61
 0 1 -18 27.61 5.54
 0 1 -16 19.14 4.88
 0 1 -15 0.05 3.49
 0 1 -14 5.94 3.48
 0 1 -2 4134.03 12.86
 0 1 -1 21.35 1.01
 0 1 0 1.25 0.54
 0 2 -18 -1.7 3.98
 0 2 -17 48.14 6.74
 0 2 -16 1.27 3.41
 0 2 -15 19.69 4.81
 0 2 -12 11.46 2.92
 0 2 -10 47.56 4.52
 0 2 -9 92.9 5.01
 0 2 -8 4.64 2.2
 0 2 -7 1510.44 15.08
 0 2 -5 1184.96 11.32
 0 2 -4 1250.65 10.37
 0 2 -3 439.95 5.62
 0 2 -2 325.87 4.4
 0 2 -1 5.69 1.46
 0 2 0 5411.82 15.62
 0 3 -19 -1.22 4.22
 0 3 -18 -1.16 4.38
 0 3 -17 1.41 3.79
 0 3 -16 5.03 3.97
 0 3 -15 15.57 4.76
 0 3 -14 25.58 4.72
 0 3 -13 24.38 3.98
 0 3 -12 119.27 6.39
 0 3 -9 12.97 2.52
 0 3 -8 105.18 4.72
 0 3 -7 23.9 2.63
 0 3 -6 226.22 5.93
 0 3 -5 220.34 5.48
 0 3 -4 355.91 6.3
 0 3 -3 967.23 9.29
 0 3 -2 347.57 5.5
 0 3 -1 407.16 5.66
 0 4 -19 5.9 4.87
 0 4 -17 5.78 5.25
 0 4 -16 6.63 4.91
 0 4 -13 181.49 8.63
 0 4 -12 79.74 5.84
 0 4 -11 2.33 2.37
 0 4 -8 0.04 1.74
 0 4 -7 32.01 3.45
 0 4 -6 21.36 2.59
 0 4 -5 13.49 2.05
 0 4 -3 1139.6 11.51
 0 4 -2 209.02 4.95
 0 4 -1 5.02 1.74
 0 5 -19 5.94 5.32
 0 5 -18 -3.5 4.28
 0 5 -17 12.85 4.97
 0 5 -15 45.79 6.01
 0 5 -14 0.54 3.3
 0 5 -13 9.9 3.49
 0 5 -12 77.36 5.71
 0 5 -11 -0.82 2.46
 0 5 -10 61.18 4.67
 0 5 -7 16.87 2.75
 0 5 -6 53.89 3.67
 0 5 -5 899.69 12.24
 0 5 -4 23.27 2.58
 0 5 -2 171.9 4.97
 0 6 -18 3.53 5.54
 0 6 -17 0.32 4.37
 0 6 -16 5.12 4.32
 0 6 -15 28.41 5.54
 0 6 -14 3.8 4.32
 0 6 -12 8.9 3.43
 0 6 -10 27.18 4.13
 0 6 -9 163.18 7.26
 0 6 -6 468.78 9.99
 0 6 -5 265.36 7.36
 0 6 -3 15.82 2.45
 0 6 -2 5.2 1.8
 0 7 -18 0.59 4.79
 0 7 -17 6.49 5.43
 0 7 -16 3.08 4.49
 0 7 -15 0.1 4.69
 0 7 -13 2.16 3.44
 0 7 -12 2.72 3.43
 0 7 -10 -0.06 2.49
 0 7 -8 149.4 7.11
 0 7 -5 602.84 11.88
 0 7 -4 4.21 2.24
 0 7 -3 372.29 8.92
 0 7 -2 8.24 2.34
 0 8 -17 -0.68 4.67
 0 8 -16 8.4 6.06
 0 8 -15 11.95 5.78
 0 8 -14 -0.26 4.83
 0 8 -13 13.45 4.58
 0 8 -12 4.77 4.33
 0 8 -11 10.73 4.39
 0 8 -10 12.57 3.98
 0 8 -8 7.21 2.87
 0 8 -6 84.37 5.64
 0 9 -16 12.57 5.79
 0 9 -15 -4.44 4.39
 0 9 -13 11.66 4.66
 0 9 -12 -2.33 4.21
 0 9 -11 -4.84 4.07
 0 9 -9 21.26 4.82
 0 9 -7 0.41 2.74
 0 9 -6 9.37 3.36
 0 9 -5 43.34 4.45
 0 9 -4 22.29 4.06
 0 10 -15 33.24 6.54
 0 10 -14 16.19 5.42
 0 10 -13 4.19 4.56
 0 10 -12 10.75 5.49
 0 10 -11 -3.79 4.53
 0 10 -10 112.58 7.79
 0 10 -9 59.76 7.34
 0 10 -7 -0.39 3.07
 0 10 -6 19.13 4.66
 0 11 -14 79.41 8.11
 0 11 -13 -4.06 4.75
 0 11 -12 2.97 4.59
 0 11 -10 68.25 8.42
 0 11 -9 1.98 4.08
 0 11 -7 3.3 3.85
 0 11 -6 -0.41 3.28
 0 12 -12 5.73 5
 0 12 -11 9.09 4.84
 0 12 -10 10.14 5.39
 0 12 -9 8.08 4.65
 0 12 -8 32.3 6.13
 1 -1 -20 24.29 6.18
 1 -1 -19 11.61 5.76
 1 0 -20 17.32 6.72
 1 0 -19 5.46 4.92
 1 0 -18 35.49 6.53
 1 1 -20 28.66 6.35
 1 1 -19 11.91 4.77
 1 1 -17 1.11 3.77
 1 1 -16 2.91 3.79
 1 2 -19 5.59 4.46
 1 2 -18 2.57 4.46
 1 2 -17 16.55 5.39
 1 2 -15 3.2 3.8
 1 2 -14 30.98 4.59
 1 2 -13 74.74 6.08
 1 2 -12 2.39 3.3
 1 2 -4 120.58 3.53
 1 2 -3 1014.83 8.26
 1 2 -2 133.46 2.81
 1 2 -1 334.37 3.69
 1 3 -18 14.05 5.3
 1 3 -17 -0.34 3.8
 1 3 -16 107.71 7.73
 1 3 -15 233.99 10.29
 1 3 -14 9.81 3.99
 1 3 -13 15.53 3.88
 1 3 -12 3.38 2.59
 1 3 -11 16.89 3.2
 1 3 -8 16.84 2.79
 1 3 -7 60.81 3.81
 1 3 -6 151.14 4.88
 1 3 -5 385.29 6.9
 1 3 -4 396.59 6.54
 1 3 -3 52.42 2.46
 1 3 -2 421.43 5.64
 1 3 -1 119.67 2.88
 1 3 0 23.34 1.53
 1 4 -18 8.2 4.79
 1 4 -17 24.09 5.36
 1 4 -16 -0.89 3.75
 1 4 -15 39.52 5.73
 1 4 -13 50.93 5.28
 1 4 -12 107.52 6.23
 1 4 -11 12.37 3.01
 1 4 -8 19.77 2.84
 1 4 -6 119.02 4.48
 1 4 -5 380.36 7.37
 1 4 -4 206.62 5.29
 1 4 -3 47.47 2.58
 1 4 -2 97.99 3.49
 1 4 -1 91.72 3.29
 1 5 -19 6.22 4.76
 1 5 -18 6.05 5.26
 1 5 -17 -1.99 4.76
 1 5 -15 74.95 6.67
 1 5 -14 73.08 6.92
 1 5 -11 31.76 4.31
 1 5 -10 50.52 4.26
 1 5 -8 125.21 5.9
 1 5 -6 107.34 4.93
 1 5 -5 29.35 3.15
 1 5 -4 177.58 5.34
 1 5 -3 308.76 6.66
 1 5 -2 509.9 7.94
 1 5 -1 30.17 2.32
 1 6 -18 -2.95 4.07
 1 6 -17 6.16 4.81
 1 6 -16 13.15 5.37
 1 6 -15 58.78 6.23
 1 6 -13 3.77 3.47
 1 6 -11 8.12 3.71
 1 6 -10 164.61 7.6
 1 6 -9 9.37 3
 1 6 -7 184.96 6.71
 1 6 -6 58.73 3.95
 1 6 -5 11.76 2.53
 1 6 -3 114.8 4.52
 1 6 -2 16.45 2.36
 1 7 -17 6.23 4.81
 1 7 -16 4.8 5.31
 1 7 -15 25.3 5.32
 1 7 -14 21.1 4.8
 1 7 -13 6.49 3.69
 1 7 -12 2.05 3.48
 1 7 -9 25.14 3.9
 1 7 -8 81.49 5.2
 1 7 -5 6.26 2.39
 1 7 -4 250.3 7.45
 1 7 -3 19.19 2.73
 1 7 -2 34.31 3.15
 1 8 -17 52.38 7.43
 1 8 -16 3.43 4.91
 1 8 -15 14.46 5.09
 1 8 -14 32.25 5.83
 1 8 -13 4.16 4.58
 1 8 -12 15.39 4.4
 1 8 -11 48.09 5.41
 1 8 -10 59.95 5.84
 1 8 -9 5.54 3.05
 1 8 -8 11.78 3.32
 1 8 -7 99.87 6.22
 1 8 -3 6.61 2.6
 1 9 -16 2.92 4.85
 1 9 -15 18.4 5.4
 1 9 -14 4.35 4.65
 1 9 -13 14.58 4.86
 1 9 -11 28.74 5.74
 1 9 -10 174.12 8.97
 1 9 -9 -0.99 3.39
 1 9 -8 49.14 5.75
 1 9 -7 59.91 5.23
 1 9 -6 7.21 2.99
 1 9 -5 23.68 3.85
 1 10 -15 5.67 4.85
 1 10 -14 52.5 7.51
 1 10 -13 5.56 4.44
 1 10 -11 6.45 4.68
 1 10 -10 87.11 6.94
 1 10 -9 6.54 4.06
 1 10 -8 153.02 8.65
 1 10 -7 -1.02 2.98
 1 10 -5 76.46 5.76
 1 11 -14 -1.72 4.45
 1 11 -13 2.45 4.8
 1 11 -11 16.32 5.83
 1 11 -10 93.2 7.71
 1 11 -9 4.99 4.55
 1 11 -8 28.03 5.53
 1 11 -7 139.48 8.26
 1 11 -6 13.34 4.6
 1 12 -12 16.95 6.23
 1 12 -11 1.13 5.39
 1 12 -10 11.16 4.96
 1 12 -9 5.1 4.94
 1 12 -8 38.96 6.56
 2 0 -19 1.29 5.51
 2 0 -18 19.55 5.66
 2 1 -18 11.2 5.07
 2 1 -17 -3.92 3.86
 2 1 -16 19.01 5.17
 2 2 -19 4.32 5.3
 2 2 -18 15.28 5.89
 2 2 -17 24.22 5.25
 2 2 -16 2.89 3.77
 2 2 -15 37.22 5.75
 2 2 -14 2.14 3.09
 2 2 -13 33.91 4.64
 2 2 -3 272.97 4.39
 2 2 -1 1.32 0.57
 2 3 -19 17.66 6.16
 2 3 -18 21.43 5.41
 2 3 -17 18.75 5.58
 2 3 -16 6.12 3.99
 2 3 -15 75.05 6.84
 2 3 -14 3.96 3.76
 2 3 -9 11.57 2.58
 2 3 -8 1.9 1.89
 2 3 -7 109.17 4.47
 2 3 -6 400.63 7.6
 2 3 -5 445.4 7.32
 2 3 -4 22.41 2.09
 2 3 -2 174.03 3.52
 2 4 -19 8.43 5.08
 2 4 -18 1.15 5.12
 2 4 -17 0.33 4.1
 2 4 -16 6.87 4.16
 2 4 -14 40.61 5.22
 2 4 -12 11.86 3.29
 2 4 -11 41.19 4.16
 2 4 -8 17.16 2.88
 2 4 -7 132.57 5.33
 2 4 -6 9.68 2.09
 2 4 -4 224.81 5.25
 2 4 -3 232.87 5.01
 2 4 -2 388.56 5.77
 2 5 -17 20.53 5.18
 2 5 -16 57.14 6.51
 2 5 -15 12.51 4.55
 2 5 -14 -0.37 3.22
 2 5 -12 19.43 4.03
 2 5 -11 -0.84 3.11
 2 5 -10 19.67 3.42
 2 5 -8 212.16 7.23
 2 5 -7 88.37 4.58
 2 5 -6 196.2 6.05
 2 5 -5 225.62 6.15
 2 5 -4 138.45 4.56
 2 5 -3 67.09 3.31
 2 5 -2 177.92 4.53
 2 5 -1 49.65 2.45
 2 6 -17 17.37 5.08
 2 6 -16 2.2 4.01
 2 6 -15 9.24 4.83
 2 6 -14 74.62 7.07
 2 6 -13 1.99 3.24
 2 6 -12 1.25 3.47
 2 6 -11 34.39 4.51
 2 6 -10 36.59 4.37
 2 6 -9 67.66 4.9
 2 6 -6 137.07 5.77
 2 6 -5 190.25 6.21
 2 6 -4 43.71 3.38
 2 6 -3 15.33 2.21
 2 6 -2 82.68 3.79
 2 7 -17 6.66 4.7
 2 7 -15 10.82 4.37
 2 7 -14 0.72 3.82
 2 7 -13 70.9 6.33
 2 7 -12 15.69 4.27
 2 7 -11 5.11 3.2
 2 7 -10 63.66 5.57
 2 7 -9 41.99 5.12
 2 7 -8 39.85 4.24
 2 7 -5 150.75 6.17
 2 7 -4 12.53 2.64
 2 7 -3 336.32 7.92
 2 7 -2 16.22 2.53
 2 8 -16 -0.53 4.28
 2 8 -15 15.49 5.03
 2 8 -14 12.22 4.56
 2 8 -13 29.47 5.68
 2 8 -12 14.96 4.22
 2 8 -11 5.62 3.47
 2 8 -10 45.25 5.45
 2 8 -9 18.65 3.89
 2 8 -7 40.02 4.71
 2 8 -3 113.37 5.44
 2 9 -15 1.1 4.37
 2 9 -14 4.92 4.54
 2 9 -11 1.81 4.14
 2 9 -10 21.46 4.38
 2 9 -9 84.17 6.68
 2 9 -8 130.04 7.22
 2 9 -7 16.46 4
 2 9 -6 6.1 3.58
 2 9 -5 10.26 3.04
 2 10 -14 20.48 6.22
 2 10 -13 5.45 4.2
 2 10 -12 6.89 4.44
 2 10 -11 17.78 4.64
 2 10 -10 41.88 6.04
 2 10 -9 77.14 6.66
 2 10 -8 7.2 3.73
 2 10 -7 2.76 3.17
 2 10 -6 42.88 5.03
 2 10 -5 96.72 6.34
 2 11 -13 7.83 4.91
 2 11 -11 5.75 4.18
 2 11 -10 19.08 5.62
 2 11 -9 18.17 5.04
 2 11 -8 84.66 7.53
 2 11 -7 19.15 4.4
 2 12 -12 5.83 4.6
 2 12 -11 0.78 4.22
 2 12 -10 -0.6 4.77
 2 12 -9 8.68 5.05
 3 -1 -19 7.7 5.21
 3 0 -19 29.55 6.11
 3 0 -18 5.27 5.6
 3 1 -19 3.79 4.9
 3 1 -18 12.06 5.55
 3 1 -17 4.27 4.91
 3 1 -16 42.65 6.52
 3 2 -18 6.54 4.63
 3 2 -17 16.81 4.91
 3 2 -15 35.04 5.22
 3 2 -14 31.04 5.22
 3 2 -12 23.57 3.99
 3 2 -4 7.51 1.35
 3 2 -2 174.56 2.83
 3 2 -1 126.7 1.71
 3 3 -16 4.34 4.52
 3 3 -15 45.36 5.74
 3 3 -14 0.84 3.19
 3 3 -13 1.66 2.85
 3 3 -11 40.57 4.99
 3 3 -8 6.45 2.15
 3 3 -7 12.7 2.29
 3 3 -6 32.71 2.84
 3 3 -5 189.76 4.85
 3 3 -4 135.79 3.73
 3 3 -2 388.01 4.69
 3 3 -1 59.89 1.63
 3 4 -17 1.82 4.22
 3 4 -16 6.92 4.89
 3 4 -15 9.33 4.61
 3 4 -14 42.12 5.51
 3 4 -13 26 4.31
 3 4 -12 14.97 3.83
 3 4 -11 4.87 3.35
 3 4 -10 17.85 3.24
 3 4 -8 14.91 3.03
 3 4 -7 83.39 4.24
 3 4 -6 230.64 5.94
 3 4 -5 3.77 1.49
 3 4 -4 149.76 4.23
 3 4 -3 26.34 1.98
 3 5 -18 11.36 5.07
 3 5 -17 18.5 5.87
 3 5 -16 0.08 4.31
 3 5 -15 8.39 4.11
 3 5 -14 76.81 6.95
 3 5 -13 30.98 4.59
 3 5 -12 4.86 3.07
 3 5 -10 26.2 3.76
 3 5 -6 136.41 5.1
 3 5 -5 35.18 2.97
 3 5 -3 57.24 2.83
 3 6 -17 3.89 5.15
 3 6 -16 64.32 7.72
 3 6 -15 87.85 7.84
 3 6 -14 7.77 3.95
 3 6 -13 17.62 4.2
 3 6 -12 4.89 3.19
 3 6 -11 21.09 3.98
 3 6 -10 98.56 5.97
 3 6 -7 30.74 3.35
 3 6 -6 106.49 5.04
 3 6 -5 55.76 3.58
 3 6 -4 78.18 3.91
 3 6 -3 82.38 3.81
 3 6 -2 47.74 2.82
 3 7 -15 77.16 7.61
 3 7 -13 5.62 3.69
 3 7 -12 24.7 4.88
 3 7 -11 0.43 2.88
 3 7 -10 60.12 5.68
 3 7 -9 84.66 5.51
 3 7 -8 140.01 6.65
 3 7 -5 52.23 3.66
 3 7 -4 111.94 4.95
 3 7 -3 28.32 2.94
 3 8 -16 8.88 5.01
 3 8 -15 19.07 5.06
 3 8 -13 17.72 5.22
 3 8 -12 46.76 5.88
 3 8 -11 13.52 3.99
 3 8 -10 138.02 7.68
 3 8 -8 83.95 5.83
 3 8 -7 31.21 4.18
 3 8 -4 0.68 1.97
 3 9 -15 28.97 6.14
 3 9 -14 26.43 6.11
 3 9 -13 4.96 3.99
 3 9 -12 4.59 3.71
 3 9 -11 18.14 4.37
 3 9 -10 14.27 4.36
 3 9 -9 10.3 3.75
 3 9 -7 22.87 4.29
 3 9 -6 24.63 3.74
 3 9 -5 1.97 2.38
 3 10 -14 9.73 4.64
 3 10 -13 7.4 4.82
 3 10 -12 39.41 6.05
 3 10 -11 2 4.55
 3 10 -10 37.92 5.48
 3 10 -9 12.75 4.05
 3 10 -7 5.6 3.21
 3 11 -10 23.11 5.7
 3 11 -9 9.28 4.53
 3 11 -8 15.75 4.42
 3 12 -11 6.12 4.29
 3 12 -10 26.94 5.51
 4 0 -18 4.35 4.42
 4 0 -17 -0.21 4.49
 4 1 -18 13.62 5.06
 4 1 -17 6.14 4.3
 4 1 -16 19.67 4.97
 4 2 -18 8.1 5.31
 4 2 -17 2.05 4.17
 4 2 -16 10.49 4.11
 4 2 -15 10.08 4.64
 4 2 -13 8.68 3.55
 4 2 -12 35.22 4.73
 4 2 -11 -0.24 2.75
 4 2 -8 -0.67 1.88
 4 2 -7 107.88 4.72
 4 2 -6 30.21 2.63
 4 2 -3 65.72 2.1
 4 2 -2 504.78 3.89
 4 3 -17 4.91 5.15
 4 3 -16 2.03 3.72
 4 3 -15 10.61 3.99
 4 3 -14 6.8 3.67
 4 3 -13 38.44 4.85
 4 3 -12 3.49 2.99
 4 3 -11 1.84 2.59
 4 3 -10 16.11 3.32
 4 3 -8 17.52 2.85
 4 3 -7 79.88 3.89
 4 3 -6 255.1 5.92
 4 3 -5 283.87 5.68
 4 3 -3 158.88 3.24
 4 3 -2 26.08 1.1
 4 4 -17 -2.02 4.3
 4 4 -16 7.46 4.47
 4 4 -15 13.83 4.62
 4 4 -14 17.45 4.79
 4 4 -13 6.71 3.22
 4 4 -12 -1.65 2.62
 4 4 -11 1.28 2.74
 4 4 -10 2.42 2.28
 4 4 -8 39.71 3.61
 4 4 -6 31.49 2.6
 4 4 -5 236.42 5.36
 4 4 -3 68.11 2.41
 4 4 -2 324 4.11
 4 5 -16 15.15 5.33
 4 5 -15 26.56 5.01
 4 5 -14 5.63 4.06
 4 5 -13 4.69 3.26
 4 5 -11 12.52 3.6
 4 5 -10 -1.18 2.69
 4 5 -7 78.94 4.27
 4 5 -5 67.26 3.34
 4 5 -3 2.69 1.09
 4 6 -15 10.67 4.72
 4 6 -14 30.9 5.08
 4 6 -13 12.2 4.08
 4 6 -12 7.35 3.73
 4 6 -11 4.53 3.12
 4 6 -10 1.67 3.08
 4 6 -9 7.5 2.63
 4 6 -7 38.75 3.53
 4 6 -6 -0.53 1.55
 4 6 -5 37.07 2.81
 4 7 -15 61.55 7.4
 4 7 -14 24.88 5.01
 4 7 -12 8.76 3.53
 4 7 -11 11.18 3.48
 4 7 -10 83.7 5.89
 4 7 -9 17.47 3.42
 4 7 -8 -0.91 1.95
 4 7 -6 68.34 4.16
 4 7 -5 3.44 1.81
 4 7 -4 8.42 1.9
 4 8 -15 5.43 4.39
 4 8 -14 11.37 4.89
 4 8 -13 27.01 4.91
 4 8 -12 12.75 3.87
 4 8 -11 21.06 4.12
 4 8 -10 12.95 3.69
 4 8 -8 142.32 6.68
 4 8 -7 5.01 2.4
 4 9 -14 39.35 6.1
 4 9 -13 2.23 3.63
 4 9 -12 19.47 4.4
 4 9 -11 2.15 3.06
 4 9 -10 101.25 6.64
 4 9 -9 60.43 5.25
 4 9 -8 60.19 5.11
 4 9 -7 40.34 4.08
 4 10 -12 5.16 4.23
 4 10 -11 54.98 5.91
 4 10 -10 11.51 4.05
 4 10 -9 14.89 3.67
 4 10 -8 -0.58 2.52
 5 0 -17 3.17 4.79
 5 0 -16 0.4 4.39
 5 1 -16 17 4.59
 5 1 -15 -3.47 3.56
 5 1 -14 35.15 5.23
 5 1 -13 78.12 6.58
 5 1 -3 21.61 1.19
 5 2 -15 39 5.72
 5 2 -14 64.12 6.32
 5 2 -13 1.35 2.93
 5 2 -12 16.85 3.74
 5 2 -11 42.16 4.51
 5 2 -10 43.63 4
 5 2 -8 68.48 3.98
 5 2 -7 43.91 3
 5 2 -5 5.55 1.09
 5 3 -16 35.6 5.69
 5 3 -15 10.51 4.03
 5 3 -14 21.44 4.4
 5 3 -13 6.1 3.53
 5 3 -12 -1.2 2.37
 5 3 -11 8.25 2.88
 5 3 -8 75.12 3.94
 5 3 -7 50.41 3.05
 5 4 -16 2.33 4.38
 5 4 -14 7.93 3.53
 5 4 -13 1.25 3.12
 5 4 -11 34.2 4.23
 5 4 -10 16.47 3.03
 5 5 -15 26.39 5.09
 5 5 -14 7.56 3.37
 5 5 -12 3.76 2.58
 5 5 -11 3.62 2.19
 5 5 -10 -1.33 1.64
 5 6 -15 17.59 4.31
 5 6 -14 21.34 4.17
 5 6 -12 0.26 2.26
 6 0 -14 3.07 3.13
 6 0 -13 1.76 3
 -1 1 -10 14.96 0.86
 -1 1 -9 531.02 3.92
 -1 1 -8 81.54 1.45
 0 1 -11 49.34 2.33
 0 1 -8 0.22 0.73
 0 1 -7 52.59 1.98
 0 1 -5 1447.92 7.84
 0 1 -4 1902.3 8
 0 1 -3 546.53 3.79
 0 1 -2 4029.42 8.79
 0 1 0 0.56 0.4
 0 2 -8 2.24 0.95
 0 2 -7 1525.24 9.42
 0 2 -6 472.34 4.99
 0 2 -5 1186.71 7.33
 0 2 -4 1279.31 7.16
 0 2 -3 426.14 4.01
 0 2 -2 334.08 3.52
 0 2 -1 5.05 1.11
 0 3 -10 95.72 2.81
 0 3 -8 100.95 2.78
 0 3 -7 25.95 1.56
 0 3 -6 227.47 3.78
 0 3 -5 219.99 3.65
 0 3 -3 980.6 7.31
 0 3 -2 343.99 4.48
 0 3 -1 395.8 4.9
 0 4 -9 132.71 3.35
 0 4 -6 18.24 1.52
 0 4 -5 12.02 1.42
 0 4 -4 16.37 1.52
 0 4 -3 1125.74 9.19
 0 4 -2 216.35 4.35
 0 4 -1 3.47 1.24
 0 5 -9 10.48 1.38
 0 5 -8 724.97 8.26
 0 5 -7 14.16 1.69
 0 5 -3 63.51 2.72
 0 5 -2 183.11 4.63
 0 6 -8 17.42 1.88
 0 6 -7 233.06 5.25
 0 6 -6 460.89 7.31
 0 6 -5 273.11 5.71
 0 6 -4 33.89 2.37
 0 7 -8 143.44 4.59
 0 7 -7 23.3 2.24
 1 0 -13 22.58 2.5
 1 0 1 916.05 4.56
 1 1 -12 49.81 3.05
 1 1 -11 23.05 2.41
 1 1 -10 15.14 2.13
 1 1 -9 533.45 8.04
 1 1 -7 121.42 3.59
 1 1 -6 622.41 7.57
 1 1 -5 368.78 5.53
 1 1 -3 280.7 4.21
 1 1 -2 3931.79 13.98
 1 1 0 991.74 6.3
 1 1 1 254.63 3.14
 1 1 2 3860.83 11.47
 1 2 -12 3.34 1.54
 1 2 -11 133.53 4.43
 1 2 -10 20.39 2.16
 1 2 -9 138.06 4.19
 1 2 -6 15.84 1.57
 1 2 -5 142.31 3.65
 1 2 -4 117.22 3.28
 1 2 -3 1030.91 8.33
 1 2 -2 137.54 3.28
 1 2 0 880.35 6.9
 1 2 1 344.37 4.5
 1 2 2 133.96 2.98
 1 3 -12 2.2 1.15
 1 3 -11 18.48 2.3
 1 3 -10 -0.32 1.2
 1 3 -9 746.09 9.46
 1 3 -6 144.35 3.93
 1 3 -5 379.35 5.93
 1 3 -4 395.58 5.97
 1 3 -2 419.89 5.84
 1 3 -1 127.09 3.27
 1 3 0 26.4 1.87
 1 3 1 123.69 3.39
 1 3 2 430.54 5.94
 1 4 -11 10.59 1.7
 1 4 -9 3.63 1.46
 1 4 -8 22.82 2.21
 1 4 -7 52.56 2.8
 1 4 -4 199.08 4.65
 1 4 -2 99.52 3.3
 1 4 0 530.86 7.32
 1 4 1 90.89 3.28
 1 4 2 102.18 3.59
 1 5 -10 53.37 3.08
 1 5 -9 26.2 2.36
 1 5 -8 127.88 4.43
 1 5 -7 6.23 1.77
 1 5 -6 107.08 3.8
 1 5 -5 26.52 2.27
 1 5 -1 34.55 2.78
 1 5 0 9.36 1.66
 1 5 1 30.81 2.28
 1 6 -10 159.76 5.11
 1 6 -9 12.92 2.21
 1 6 -8 54.18 3.08
 1 6 -7 185.89 5.41
 1 6 -6 60.71 3.26
 1 6 -5 11.16 2.03
 1 6 -4 126.09 4.44
 1 6 -3 116.32 4.4
 1 6 -2 21.04 2.47
 1 7 -10 4.34 1.51
 1 7 -9 32.94 2.76
 1 7 -8 80.64 4.14
 1 7 -7 50.02 3.3
 1 7 -6 150.81 5.24
 1 7 -5 10.14 2.48
 1 7 -3 16.58 2.64
 1 7 -2 38.25 3.04
 1 7 -1 116.21 4.71
 1 8 -9 4.36 2.02
 1 8 -8 10.38 2.41
 1 8 -7 99.27 4.82
 1 8 -6 35.97 3.24
 1 8 -4 113.69 5.15
 1 8 -3 6.93 2.27
 1 8 -2 50.16 3.72
 2 -2 4 195.85 2.13
 2 -1 3 308.61 3.22
 2 -1 4 96.51 1.48
 2 0 -12 30.95 3.44
 2 0 0 9912.58 25.18
 2 0 1 44.84 2
 2 0 2 837.79 6.37
 2 0 3 260.84 3.31
 2 0 4 134.41 2.26
 2 1 -12 79.29 4.41
 2 1 -11 35.89 3.03
 2 1 -10 84.27 4.3
 2 1 -9 143.01 5.05
 2 1 -8 155.55 5.17
 2 1 -7 43.15 2.82
 2 1 -5 511.17 7.88
 2 1 -3 301.22 5.55
 2 1 -2 788.62 8.2
 2 1 -1 454.3 6.21
 2 1 0 1068.65 8.84
 2 1 1 441.97 5.48
 2 1 2 770.68 6.78
 2 1 3 307.13 4.19
 2 1 4 100.97 2.47
 2 2 -12 20.51 2.8
 2 2 -11 77 4.29
 2 2 -10 28.53 3.12
 2 2 -9 25.3 2.85
 2 2 -8 1.63 1.59
 2 2 -7 682.13 9.81
 2 2 -4 197.48 4.78
 2 2 -3 290.28 5.74
 2 2 -1 2.05 1.32
 2 2 0 316.87 5.32
 2 2 2 693.65 7.22
 2 2 3 277.54 4.72
 2 2 4 203.14 4.08
 2 3 -12 28.08 3.18
 2 3 -11 27.14 3.16
 2 3 -9 7.44 1.96
 2 3 -8 0.67 1.5
 2 3 -7 107.81 4.39
 2 3 -6 400.03 7.64
 2 3 -4 20.93 2.26
 2 3 0 1686.26 12.8
 2 3 1 232.62 4.89
 2 3 2 184.28 4.31
 2 3 3 370.52 6.15
 2 3 4 18.86 2.13
 2 4 -12 14.34 2.42
 2 4 -11 37.09 3.11
 2 4 -10 17.88 2.69
 2 4 -8 19.09 2.62
 2 4 -7 128.72 4.68
 2 4 -6 11.21 2.02
 2 4 -5 99.36 3.95
 2 4 -2 384.63 7.07
 2 4 -1 43.79 2.9
 2 4 0 2419.23 16.8
 2 4 1 47.14 2.89
 2 4 2 403.34 7.03
 2 5 -10 17.84 2.6
 2 5 -9 2.61 2.11
 2 5 -8 210.62 6.18
 2 5 -7 94.08 4.49
 2 5 -6 186.94 5.66
 2 5 -5 217.09 6.1
 2 5 -4 135.03 4.81
 2 5 2 187.14 5.5
 2 5 3 64.43 3.48
 2 6 -9 65.57 4.27
 2 6 -8 11.02 2.45
 2 6 -7 203.5 6.47
 2 6 -6 137.24 5.45
 2 6 -5 197.94 6.17
 2 6 -4 46.98 3.31
 2 6 -3 13.21 2.49
 2 6 -2 71.17 3.92
 2 6 -1 37.12 3.24
 2 6 2 79.18 3.89
 2 6 3 17.26 2.83
 2 7 -7 2.63 2.5
 2 7 -6 4.3 2.35
 2 7 -5 141.91 5.61
 2 7 -4 10.63 2.42
 2 7 -3 339.66 8.25
 2 7 -2 21.25 2.9
 2 7 -1 197.77 6.39
 2 7 0 6.97 2.11
 2 7 2 19.37 2.66
 2 8 -9 17.52 2.98
 2 9 -11 0.92 1.69
 2 9 -10 25.69 3.68
 2 9 -7 18.17 3.34
 2 9 -6 9.08 3.23
 2 9 -5 9.36 3.16
 2 9 -3 23.3 3.68
 2 9 -2 3.67 2.48
 2 9 -1 269.95 8.71
 2 10 -9 77.12 5.14
 2 10 -8 5.01 2.71
 2 10 -7 1.26 2.56
 2 10 -6 49.07 4.57
 2 10 -4 9.39 3.07
 2 10 -3 24.71 3.95
 3 -3 -17 -1.6 2.94
 3 -3 5 184.81 2.71
 3 -2 -16 34.55 4.52
 3 -2 3 355.66 4.99
 3 -2 4 9.62 1.03
 3 -2 5 31.25 1.18
 3 -1 -14 44.11 4.58
 3 -1 1 178.71 4.14
 3 -1 2 161.05 3.69
 3 -1 3 122.98 2.99
 3 -1 4 124.69 2.75
 3 -1 5 276.47 3.36
 3 -1 6 34 0.96
 3 0 -15 74.78 5.38
 3 0 -14 174.5 7.49
 3 0 -13 13.67 3.46
 3 0 -12 78.55 5.43
 3 0 -2 96.05 3.83
 3 0 -1 758.55 9.31
 3 0 0 -0.73 1.23
 3 0 2 91.48 3.08
 3 0 3 286.6 4.67
 3 0 4 1.77 0.88
 3 0 5 0.22 0.68
 3 0 6 16.73 1.16
 3 1 -15 25.4 3.87
 3 1 -14 39.35 3.99
 3 1 -13 33.09 3.72
 3 1 -12 -1.37 2.01
 3 1 -9 126.22 5.62
 3 1 -8 22.56 2.91
 3 1 -7 187.78 5.98
 3 1 -2 157.46 4.55
 3 1 -1 183.9 4.87
 3 1 0 -0.24 1.21
 3 1 1 187.61 4.5
 3 1 2 159 3.95
 3 1 3 119.51 3.39
 3 1 4 127.38 3.35
 3 1 5 275.6 4.58
 3 1 6 37.32 1.89
 3 2 -14 41.53 4.37
 3 2 -13 60.72 4.79
 3 2 -12 24.12 3.42
 3 2 -9 112.57 5.4
 3 2 -7 362.61 8.19
 3 2 -6 28.45 2.95
 3 2 -5 30.71 2.99
 3 2 -2 172.68 4.97
 3 2 0 499.17 7.74
 3 2 1 131.2 4.11
 3 2 2 168.75 4.4
 3 2 3 361.15 6.05
 3 2 4 7.16 1.62
 3 2 6 24.92 1.99
 3 3 -13 1.01 2.56
 3 3 -12 15.07 3.13
 3 3 -9 125.73 5.48
 3 3 -8 8.17 2.34
 3 3 -7 12.38 2.6
 3 3 -6 35.5 3.07
 3 3 -5 197.55 6.13
 3 3 -4 136.57 4.9
 3 3 -1 60.51 3.22
 3 3 0 128.41 4.28
 3 3 1 60.33 3.03
 3 3 2 390.61 7.11
 3 3 3 6.01 1.58
 3 3 4 135.89 4.16
 3 3 5 191.56 4.95
 3 3 6 29.72 2.48
 3 4 -13 28.94 3.91
 3 4 -8 15.36 2.69
 3 4 -7 90.29 4.87
 3 4 -6 242.14 7.05
 3 4 -5 4.87 2.08
 3 4 -4 149.88 5.48
 3 4 0 370.87 7.47
 3 4 1 52.3 3.28
 3 4 2 10.37 1.99
 3 4 3 29.57 2.6
 3 4 5 1.58 1.47
 3 5 -13 36.35 4.05
 3 5 -12 9.66 3.01
 3 5 -11 43.26 4.46
 3 5 -7 16.59 2.92
 3 5 -4 411 8.86
 3 5 -3 57.78 3.83
 3 5 -2 373 8.16
 3 5 -1 28.98 2.54
 3 5 0 145.02 5.38
 3 5 2 368.4 7.91
 3 5 3 58.15 3.63
 3 5 4 432.67 8.54
 3 5 5 35.49 3.28
 3 6 -12 3.31 2.33
 3 6 -11 19.98 3.66
 3 6 -9 40.34 3.89
 3 6 -3 73.82 4.3
 3 6 -2 43.34 3.78
 3 6 -1 72.53 4.31
 3 6 2 41.38 3.28
 3 6 3 76.36 4.3
 3 6 4 81.61 4.46
 3 7 -12 21.25 3.34
 3 7 -11 -0.47 2.27
 3 7 -10 66.51 5.24
 3 7 -7 45.65 4.5
 3 8 -11 9.69 3.14
 3 8 -10 143.3 6.78
 3 8 -9 6.24 2.86
 3 8 -8 92.91 5.85
 3 8 -7 38.26 4.44
 3 8 -6 33.4 4.36
 3 8 -5 20.74 3.48
 3 8 -4 0.2 2.26
 3 8 -3 3.06 2.31
 3 8 -2 26.46 3.5
 3 8 -1 41.39 3.93
 3 8 0 43.87 3.97
 3 8 1 48.9 4.34
 3 8 2 27.63 3.53
 3 8 3 3.79 2.37
 3 9 -12 -0.18 1.88
 3 9 -11 21.37 3.98
 3 9 -10 10.27 3.18
 3 9 -9 8.07 3.01
 3 9 -8 95.98 6.05
 3 9 -6 23.54 3.93
 3 9 -5 3.48 2.88
 3 9 -4 3.89 3.07
 3 9 -3 14.75 3.24
 3 9 -2 37.21 4.18
 3 9 -1 100.73 5.8
 3 9 0 8.84 3.09
 3 9 1 97 5.7
 3 10 -11 -1.88 2.14
 3 10 -10 42.73 5.28
 3 10 -9 18.43 4.45
 3 10 -8 3.16 3.77
 3 10 -7 2.69 2.87
 3 10 -5 65.94 5.92
 3 10 -4 16.51 3.89
 3 10 -3 44.36 4.69
 3 10 -2 24.12 4.07
 3 11 -10 19.86 3.95
 3 11 -9 9.81 3.55
 3 11 -8 20 4.16
 3 11 -7 38.32 5.14
 3 11 -6 11.49 4.05
 3 11 -4 9.64 4.31
 3 11 -3 1 3.15
 4 -4 -17 -2.94 4.13
 4 -4 5 243.33 4.37
 4 -4 6 28.6 1.35
 4 -3 -17 6.8 4.21
 4 -3 -16 0.15 4.36
 4 -3 4 81.54 2.95
 4 -3 6 252.83 3.13
 4 -2 -17 7.86 3.71
 4 -2 -16 9.86 4.53
 4 -2 -15 6.82 3.7
 4 -2 3 62.93 2.86
 4 -2 4 185.16 4.11
 4 -2 5 195.29 3.75
 4 -2 6 33.95 1.42
 4 -1 -16 17.15 3.96
 4 -1 -15 26.48 4.94
 4 -1 -14 12.49 4.48
 4 -1 -11 1.03 2.88
 4 -1 -1 134.2 4.98
 4 -1 0 428.93 7.87
 4 -1 1 127.11 4.2
 4 -1 2 1.51 1.25
 4 -1 4 72.95 2.82
 4 -1 5 98.17 2.83
 4 -1 6 130.57 2.85
 4 0 -17 -1.86 2.41
 4 0 -16 3.62 3.24
 4 0 -15 3.36 3.9
 4 0 -14 9.81 3.96
 4 0 -13 4.38 3.07
 4 0 -12 14.91 3.52
 4 0 -11 19.48 3.61
 4 0 -10 81.41 5.56
 4 0 -6 0.99 1.81
 4 0 -4 4.54 1.88
 4 0 -3 44.34 3.55
 4 0 -2 53.79 3.37
 4 0 -1 0.47 1.63
 4 0 0 80.37 3.6
 4 0 1 -1.07 1.27
 4 0 2 52.52 3.08
 4 0 3 42.16 2.5
 4 0 4 3.6 1.33
 4 0 5 35.4 2.15
 4 0 6 -0.07 0.8
 4 1 -16 17.01 3.74
 4 1 -14 7.72 3.24
 4 1 -12 53.19 5.11
 4 1 -10 40.51 4.59
 4 1 -5 93.82 4.76
 4 1 -3 33.65 2.93
 4 1 -2 1.46 1.61
 4 1 -1 123.69 4.6
 4 1 0 439.12 8.29
 4 1 1 132.27 4.48
 4 1 2 1.29 1.38
 4 1 3 33.1 2.67
 4 1 5 100.59 3.42
 4 1 6 129.03 3.63
 4 1 7 89.44 2.92
 4 2 -13 7.2 3.24
 4 2 -12 41.44 4.85
 4 2 -11 3.98 3.02
 4 2 -10 42.99 4.12
 4 2 -6 29.92 3.26
 4 2 -5 187.1 6.47
 4 2 -4 184.99 6.15
 4 2 -2 508.91 9.52
 4 2 -1 0.64 1.54
 4 2 0 71.75 3.96
 4 2 1 0.97 1.46
 4 2 2 508.17 8.43
 4 2 3 64.53 3.33
 4 2 4 176.86 4.96
 4 2 5 194.2 5
 4 2 6 32.83 2.47
 4 2 7 105.57 3.59
 4 3 -14 8.9 3.6
 4 3 -13 34.2 4.41
 4 3 -12 4.79 2.96
 4 3 -11 2.93 2.72
 4 3 -10 18.96 3.65
 4 3 -9 36.74 3.96
 4 3 -5 291.43 8.05
 4 3 -1 253.02 6.97
 4 3 0 883.73 12.2
 4 3 2 26.14 2.62
 4 3 3 155.65 5.16
 4 3 4 72.19 3.76
 4 3 5 292.29 6.52
 4 3 6 246.45 6.01
 4 4 -14 12.1 3.74
 4 4 -13 12.19 3.58
 4 4 -12 2.4 2.72
 4 4 -11 0.01 2.54
 4 4 -10 -0.52 2.72
 4 4 -9 30 4.35
 4 4 -8 38.99 4.46
 4 4 -4 244.44 7.7
 4 4 -1 62.45 4.16
 4 4 0 718.16 11.58
 4 4 1 62.98 3.93
 4 4 2 320.01 7.56
 4 4 3 72.58 3.83
 4 4 5 227.65 6.34
 4 4 6 28.21 3.05
 4 5 -14 8.57 3.2
 4 5 -13 7.46 3.12
 4 5 -12 8.07 3.12
 4 5 -11 12.14 3.56
 4 5 -9 14.44 3.21
 4 5 -8 10.82 2.93
 4 5 0 8.32 2.33
 4 5 1 272.12 7.69
 4 5 2 57.42 4.2
 4 5 3 2.96 2.05
 4 5 4 103.85 5.1
 4 6 -14 32.2 4.66
 4 6 -13 20.13 3.75
 4 6 -12 6.04 3.09
 4 6 -10 0.28 2.68
 4 6 -9 4.11 2.9
 4 6 -7 45.27 4.24
 4 6 -6 0.61 2.39
 4 6 -5 37.25 3.79
 4 6 -4 8.43 2.81
 4 7 -13 32.65 4.45
 4 7 -12 9.28 3.44
 4 7 -11 10.64 4.08
 4 7 -10 87.75 6.3
 4 7 -9 22.82 4.02
 4 7 -8 -3 2.68
 4 7 -7 5.33 2.87
 4 7 -6 76.72 5.51
 4 7 -5 3.62 2.56
 4 7 -4 10.12 3
 4 7 -3 84.51 5.25
 4 7 -2 4.75 2.52
 4 7 -1 4.87 2.75
 4 7 0 18.42 3.14
 4 7 1 4.16 2.35
 4 7 2 6.72 2.83
 4 7 3 88.9 5.21
 4 7 4 5.38 2.46
 4 7 5 2.08 2.27
 4 8 -13 31.93 4.58
 4 8 -12 10.86 3.52
 4 8 -10 15.89 3.69
 4 8 -9 32.09 4.58
 4 8 -8 138.36 7.44
 4 8 -7 9.35 3.35
 4 8 -6 6.81 3.51
 4 8 -5 59.21 5.51
 4 8 -4 27.66 3.98
 4 8 -3 76.43 5.78
 4 8 -2 4.21 2.93
 4 8 -1 21.54 3.91
 4 8 0 63.68 4.82
 4 8 1 23.62 3.75
 4 8 2 3.22 2.52
 4 8 3 84.07 5.38
 4 8 4 21.08 3.95
 4 9 -13 -3.79 2.64
 4 9 -12 20.4 4.58
 4 9 -11 2.08 3.32
 4 9 -10 97.91 7.2
 4 9 -9 61.68 6.32
 4 9 -8 48.16 5.56
 4 9 -7 56.75 5.85
 4 9 -6 55.4 5.31
 4 9 -4 6.48 3.19
 4 9 -3 5.24 3.18
 4 9 -1 141.4 7.58
 4 9 0 0.38 2.65
 4 9 1 147.24 7.31
 4 9 2 19.32 3.74
 4 9 3 6.82 3.2
 4 10 -12 6.54 3.43
 4 10 -11 48.02 6.2
 4 10 -10 12.97 4.09
 4 10 -9 21.12 4.6
 4 10 -8 3.58 3.43
 4 10 -7 17.14 4.84
 4 10 -6 72.23 6.45
 4 10 -5 18 4.13
 4 10 -4 39.83 5.14
 4 10 -3 27.34 5.01
 4 10 -2 0.25 3.02
 4 10 -1 132.14 7.42
 4 10 0 110.95 6.78
 4 10 1 136.36 7.73
 4 11 -11 11.82 3.85
 4 11 -10 13.39 4.73
 4 11 -9 6.51 3.97
 4 11 -8 36.54 5.7
 4 11 -7 64.43 6.99
 4 11 -6 34.11 5.4
 4 11 -4 -1.44 3.25
 4 11 -3 56.29 6.78
 4 11 -2 41.39 5.65
 4 11 -1 38.26 5.56
 4 12 -9 0.1 3.74
 4 12 -7 24.75 5.64
 4 12 -6 36.91 5.39
 4 12 -5 25.08 5.24
 4 12 -4 24.7 5.13
 4 12 -3 5.13 4.01
 5 -5 4 106.12 4.08
 5 -4 -16 4.09 5.36
 5 -4 3 38.82 3.05
 5 -4 4 12.01 1.91
 5 -4 5 84.93 3.11
 5 -3 -16 26.86 5.31
 5 -3 -15 10.62 5.08
 5 -3 1 120.34 4.98
 5 -3 2 54.77 3.59
 5 -3 3 49.54 3.16
 5 -3 4 33.02 2.46
 5 -3 5 1.01 1.21
 5 -2 -16 48.01 6.71
 5 -2 -15 34.44 5.81
 5 -2 -14 61.83 6.96
 5 -2 -13 3.39 4.11
 5 -2 -12 19.53 4.53
 5 -2 -11 43.28 5.3
 5 -2 -2 66.43 4.23
 5 -2 0 98.06 4.73
 5 -2 2 65.63 3.72
 5 -2 3 6.27 1.9
 5 -2 4 21.16 2.28
 5 -2 5 5.08 1.36
 5 -2 6 1.38 1
 5 -1 -16 29.09 5.64
 5 -1 -15 2.53 4.03
 5 -1 -13 81.31 6.91
 5 -1 -12 6.46 3.84
 5 -1 -11 110.43 7.19
 5 -1 -10 54.71 5.41
 5 -1 -9 23.97 4.37
 5 -1 -7 46.83 4.76
 5 -1 -2 14.57 2.71
 5 -1 -1 72.8 4.23
 5 -1 0 136.92 5.2
 5 -1 1 68.07 3.9
 5 -1 2 14.48 2.49
 5 -1 3 22.18 2.4
 5 -1 4 112.25 3.98
 5 -1 5 14.35 1.87
 5 -1 6 37.63 2.16
 5 0 -17 6.24 4.07
 5 0 -16 -2.35 4.2
 5 0 -15 80.64 7.39
 5 0 -14 91.63 7.02
 5 0 -13 10.61 4.25
 5 0 -12 52.52 5.3
 5 0 -11 8.44 3.44
 5 0 -10 144.47 7.3
 5 0 -9 293.64 10.01
 5 0 -8 0.87 2.31
 5 0 -6 9.46 2.65
 5 0 -2 -0.19 2.33
 5 0 -1 14.87 2.63
 5 0 0 -1.05 1.75
 5 0 1 16.28 2.62
 5 0 2 -0.37 1.58
 5 0 3 1.24 1.59
 5 0 4 -0.9 1.42
 5 0 5 0.67 1.47
 5 0 6 8.37 1.49
 5 0 7 0.56 1.02
 5 1 -16 26.79 5.1
 5 1 -15 5.23 3.84
 5 1 -14 27.02 5.35
 5 1 -13 80.93 6.72
 5 1 -12 5.42 3.45
 5 1 -10 47.85 5.25
 5 1 -8 5.8 3.33
 5 1 -7 55.75 4.88
 5 1 -2 14.56 2.78
 5 1 2 12.59 2.6
 5 1 4 101.59 4.11
 5 1 5 17.6 2.18
 5 1 6 37.57 2.65
 5 1 7 49.88 2.72
 5 2 -16 52.75 5.98
 5 2 -15 39.81 5.51
 5 2 -13 -0.32 3.3
 5 2 -12 17.04 4.02
 5 2 -11 41.82 5.08
 5 2 -10 50.68 5.86
 5 2 -9 12.28 3.38
 5 2 -8 67.34 5.1
 5 2 -7 43.63 4.6
 5 2 -6 3.6 2.22
 5 2 -5 5.31 2.56
 5 2 -1 79.94 4.55
 5 2 0 93.86 4.7
 5 2 1 74.35 4.42
 5 2 2 65.51 3.85
 5 2 3 6.48 1.89
 5 2 4 16.66 2.49
 5 2 6 2.33 1.7
 5 2 7 44.33 2.93
 5 3 -15 6.3 3.79
 5 3 -14 25.42 5.24
 5 3 -13 4.84 3.85
 5 3 -12 0.83 3.42
 5 3 -10 21.71 4.04
 5 3 -9 23.15 3.87
 5 3 -8 78.4 5.48
 5 3 -7 53.87 4.76
 5 3 -6 123.58 6.23
 5 3 -5 -0.01 2.03
 5 3 1 119.17 5.31
 5 3 2 53.02 3.73
 5 3 3 46.21 3.79
 5 3 4 31.33 3.08
 5 3 5 0.7 1.7
 5 3 6 113.53 4.77
 5 3 7 50.46 3.4
 5 4 -16 -0.8 2.71
 5 4 -15 20.81 4.86
 5 4 -14 9.05 3.75
 5 4 -13 5.64 3.88
 5 4 -12 3.57 3.4
 5 4 -11 32.26 4.61
 5 4 -10 10.42 3.67
 5 4 -9 120.03 6.99
 5 4 -7 33.7 4.25
 5 4 -4 17.9 3.15
 5 4 -3 41.91 3.95
 5 4 7 23.63 2.89
 5 5 -15 20.9 4.7
 5 5 -14 10.44 4.08
 5 5 -12 0.1 3.34
 5 5 -11 6.26 3.83
 5 5 -10 -1.36 2.99
 5 5 -9 42.7 5.06
 5 5 -8 28.78 4.63
 5 5 -7 145.92 7.23
 5 5 -5 55.87 5.21
 5 5 -4 113.98 6.09
 5 5 -3 26.13 3.64
 5 5 -2 55.06 4.65
 5 6 -15 22.36 4.27
 5 6 -14 17.67 4.65
 5 6 -13 30.84 5.49
 5 6 -12 -0.51 3.51
 5 6 -11 14.25 4.12
 5 6 -10 9.09 3.72
 5 6 -9 44.65 5.28
 5 6 -8 48.15 4.83
 5 6 -6 26.27 4.26
 5 6 -5 120.78 6.85
 5 6 -4 5 2.67
 5 6 -3 132.29 6.87
 5 6 -2 12.96 3.25
 5 6 -1 19.63 3.72
 5 6 0 -2.5 2.19
 5 6 1 22.51 3.57
 5 6 2 16.72 3.69
 5 6 3 139.48 6.42
 5 6 5 109.52 6.04
 5 7 -14 22.12 4.66
 5 7 -13 -0.5 3.21
 5 7 -12 50.14 5.97
 5 7 -11 28.68 5.26
 5 7 -10 46.66 5.95
 5 7 -9 82.9 6.88
 5 7 -8 48.36 6.12
 5 7 -7 37.44 4.82
 5 7 -6 34.57 4.69
 5 7 -5 33.49 4.61
 5 7 -4 32.81 4.5
 5 7 -3 5.7 2.81
 5 7 -2 -0.76 2.68
 5 7 -1 59.99 5.26
 5 7 1 55.58 4.8
 5 7 2 4.44 2.83
 5 7 4 26.75 3.92
 5 7 5 35.17 4.06
 5 8 -13 14.35 4.62
 5 8 -11 14.22 4.25
 5 8 -10 41.22 5.52
 5 8 -9 5.22 3.53
 5 8 -8 64.39 6.05
 5 8 -7 29.47 5.14
 5 8 -6 47.37 5.73
 5 8 -5 16.33 3.93
 5 8 -4 49.15 5.72
 5 8 -3 2.49 3.02
 5 8 -2 7.54 3.7
 5 8 -1 8.43 3.55
 5 8 0 9.08 3.38
 5 8 1 5.86 3.63
 5 8 2 2.1 3.03
 5 8 3 -0.07 3.15
 5 9 -12 8.41 3.96
 5 9 -11 8.92 4.44
 5 9 -10 55.22 5.95
 5 9 -9 27.9 4.89
 5 9 -8 27.08 4.9
 5 9 -7 2.41 4.16
 5 9 -6 33.96 5.23
 5 9 -5 6.54 3.58
 5 9 -4 9.81 3.98
 5 9 -3 3.91 3.38
 5 9 -2 18.35 4.5
 5 9 -1 10.31 3.74
 5 9 1 16.69 3.9
 5 9 2 22.63 4.88
 5 9 3 -2.17 3.07
 5 10 -11 -0.93 4.42
 5 10 -8 28.71 5.49
 5 10 -7 10.13 4.49
 5 10 -6 20.55 4.85
 5 10 -5 3.58 3.7
 5 10 -4 41 5.85
 5 10 -3 18.4 5.16
 5 10 -2 19.98 4.43
 5 10 -1 26.64 4.65
 5 10 0 80.11 6.44
 5 10 1 31.14 4.91
 5 10 2 33.31 5.62
 5 11 -9 10.09 4.63
 5 11 -8 29.01 5.91
 5 11 -7 -0.85 4.38
 5 11 -6 32.8 5.65
 5 11 -5 15.75 4.76
 5 11 -4 15.1 4.57
 5 11 -3 13.46 4.41
 5 11 -2 40.99 6.55
 5 11 -1 38.87 5.96
 5 11 0 79.65 6.96
 5 12 -6 11.42 4.58
 5 12 -5 18.4 5.29
 5 12 -4 19.79 5.74
 5 12 -3 10.98 4.89
 5 12 -2 14.96 4.71
 6 -4 -14 10.44 5.11
 6 -4 -13 14.46 5.11
 6 -4 -12 4.02 4.64
 6 -4 0 15.55 3.13
 6 -4 3 75.37 4.15
 6 -4 4 38.47 3.05
 6 -3 -14 33.2 6.01
 6 -3 -13 12.79 4.83
 6 -3 -12 4.87 4.15
 6 -3 -11 4.27 4.44
 6 -3 -10 11.26 4.55
 6 -3 -9 16.67 4.37
 6 -3 -8 10.74 4
 6 -3 -7 19.16 4.08
 6 -3 -5 37.76 4.65
 6 -3 -4 22.26 4.4
 6 -3 -3 68.1 5.62
 6 -3 -2 11.78 3.4
 6 -3 -1 91.28 5.7
 6 -3 3 61.14 3.91
 6 -3 4 31.13 2.92
 6 -2 -15 0.22 4.08
 6 -2 -14 19.56 4.94
 6 -2 -13 2.48 4.86
 6 -2 -12 6.94 4.31
 6 -2 -11 28.55 5.18
 6 -2 -10 19.08 4.88
 6 -2 -9 55.2 6.45
 6 -2 -8 16.36 4.07
 6 -2 -7 59.2 5.41
 6 -2 -6 57.92 5.23
 6 -2 -5 36.6 4.91
 6 -2 -4 47.63 4.65
 6 -2 -1 37.03 4.33
 6 -2 3 50.06 3.69
 6 -2 4 51.17 3.32
 6 -2 5 30.62 2.6
 6 -1 -15 -2.31 4.14
 6 -1 -14 12.91 4.91
 6 -1 -13 1.13 4.15
 6 -1 -12 4.33 3.94
 6 -1 -11 1.86 3.41
 6 -1 -10 2.9 3.52
 6 -1 -9 13.01 3.9
 6 -1 -8 34.78 5.26
 6 -1 -7 89.3 6.51
 6 -1 -6 41.01 5.48
 6 -1 -3 8.2 2.95
 6 -1 4 52.58 3.49
 6 0 -14 4.27 4.7
 6 0 -13 8 4.45
 6 0 -12 -0.74 3.41
 6 0 -11 26.32 5.15
 6 0 -10 93.25 7.36
 6 0 -9 63.76 5.82
 6 0 -7 192.06 8.34
 6 0 -6 46.19 5.09
 6 0 -4 7.47 2.92
 6 0 -3 2.08 2.36
 6 0 -2 54.15 4.83
 6 0 3 1.87 2.19
 6 0 4 6.3 1.99
 6 0 5 94.47 4.11
 6 0 6 48.17 3.06
 6 1 -15 -0.52 3.84
 6 1 -14 1.77 3.95
 6 1 -13 5.22 4.76
 6 1 -12 4.05 4.75
 6 1 -11 5.42 3.83
 6 1 -10 7.36 3.7
 6 1 -9 9.71 3.65
 6 1 -8 28.98 4.61
 6 1 -7 86.04 6.25
 6 1 -6 37.29 4.64
 6 1 -5 67.84 5.2
 6 1 -3 6.84 3.14
 6 1 4 49.95 3.75
 6 1 5 62.09 3.81
 6 1 6 31.19 2.86
 6 2 -15 4.28 4.62
 6 2 -14 26.01 5.35
 6 2 -13 0.76 3.64
 6 2 -12 7.74 4.18
 6 2 -11 34.93 5.79
 6 2 -10 12.46 4.03
 6 2 -9 59.47 6.24
 6 2 -8 13.71 4.14
 6 2 -5 30.33 4.2
 6 2 -4 47.04 5.05
 6 2 -3 48.79 4.9
 6 2 0 20.65 3.45
 6 2 6 53.8 3.75
 6 2 7 57.14 3.6
 6 3 -14 34.07 5.49
 6 3 -12 3.88 3.82
 6 3 -11 4.25 3.73
 6 3 -10 8.66 3.95
 6 3 -9 20.01 4.88
 6 3 -8 8.07 3.88
 6 3 -7 20.97 4.02
 6 3 -6 56.66 5.58
 6 3 -5 45.24 5.56
 6 3 -4 31.17 4.51
 6 3 -3 71.95 5.38
 6 3 -2 11.73 3.03
 6 3 -1 82.29 5.68
 6 3 0 157.72 6.74
 6 3 1 73.91 5.1
 6 3 2 8.86 2.69
 6 3 3 61.04 4.31
 6 4 -12 3.07 4.14
 6 4 -11 2.15 3.54
 6 4 -9 22.56 5
 6 4 -7 11.73 3.73
 6 4 -6 11.84 3.5
 6 4 -5 123.17 7.15
 6 4 -4 41.55 4.5
 6 4 -3 75.94 5.92
 6 4 -1 24.25 3.91
 6 4 0 17.91 3.59
 6 4 1 24.24 3.89
 6 4 2 54.09 4.64
 6 4 3 77.1 5.22
 6 4 4 45.88 3.98
 6 4 5 115.19 5.71
 6 4 6 11.32 2.83
 6 4 7 6.74 2.46
 6 5 -13 16.17 4.89
 6 5 -12 9.82 4.76
 6 5 -10 40.13 5.72
 6 5 -8 13.31 3.95
 6 5 -5 77.07 5.85
 6 5 -4 8.19 3.34
 6 5 -3 11.4 3.47
 6 5 -2 1.84 3.25
 6 5 -1 253.46 9.27
 6 5 0 16.62 3.69
 6 5 1 261.23 9.1
 6 5 2 1.76 2.9
 6 5 3 10.17 3.11
 6 5 4 6.81 2.78
 6 5 5 73.83 5.24
 6 5 6 13.71 3.38
 6 6 -12 -2.04 4.41
 6 6 -11 0.53 3.43
 6 6 -10 15.59 4.48
 6 6 -9 14.04 4.6
 6 6 -8 -2.94 2.95
 6 6 -7 6.06 3.8
 6 6 -6 16.36 3.98
 6 6 -5 37.29 4.89
 6 6 -4 38.06 5.17
 6 6 -3 79.63 6.15
 6 6 -1 179.28 8.22
 6 6 0 -0.04 2.71
 6 6 1 171.21 7.69
 6 6 3 88 6.23
 6 6 4 47.89 4.83
 6 6 5 42.34 5.08
 6 6 6 15.18 3.42
 6 7 -12 -0.02 4.66
 6 7 -11 45.41 6.16
 6 7 -10 -1.2 3.54
 6 7 -9 3.75 3.72
 6 7 -8 2.66 3.57
 6 7 -7 1.43 3.87
 6 7 -6 140.57 7.94
 6 7 -5 5.39 3.58
 6 7 -4 15.09 4.18
 6 7 -3 -0.43 3.02
 6 7 -2 -0.35 3.74
 6 7 -1 49.35 6.16
 6 7 0 80.42 6.39
 6 7 1 48.12 5.76
 6 7 2 5.76 3.36
 6 7 3 3.47 3.71
 6 7 4 10.53 3.5
 6 7 5 0.23 2.75
 6 7 6 129.88 6.97
 6 8 -11 15.19 4.61
 6 8 -10 0.52 3.71
 6 8 -9 53.59 6.63
 6 8 -8 61.13 6.4
 6 8 -7 1.58 3.99
 6 8 -6 1.03 3.28
 6 8 -5 8.53 3.95
 6 8 -4 72.67 6.54
 6 8 -3 8.54 4.47
 6 8 1 36.38 5.18
 6 8 2 23.12 4.95
 6 8 3 8.55 3.9
 6 8 5 7.75 3.49
 6 9 -10 20.61 4.91
 6 9 -9 -4.81 3.63
 6 9 -8 8.32 4.21
 6 9 -7 15.55 4.9
 6 9 -6 43.79 6.1
 6 9 -5 14.06 4.49
 6 9 -4 -2.15 3.47
 6 9 -3 11.24 4.38
 6 9 -1 21.44 5.24
 6 9 0 3 3.81
 6 9 1 21.69 4.63
 6 9 2 13.68 4.88
 6 9 3 11.49 4.23
 6 9 4 -0.86 3.35
 6 10 -8 19.33 5.25
 6 10 -7 30.82 5.64
 6 10 -6 9.97 4.6
 6 10 -5 5.67 4.96
 6 10 -4 34.12 6.45
 6 10 -3 15.22 4.64
 6 10 -2 6.13 4.09
 6 10 -1 22.69 5.01
 6 10 0 94.29 7.34
 6 10 1 17.84 4.52
 6 10 2 6.76 4.61
 6 11 -4 16.61 4.92
 6 11 -3 24.69 5.65
 6 11 -2 31.25 5.73
 6 11 -1 7.03 4.5
 6 11 0 20.22 4.92
 6 11 1 9.89 4.61
 7 -7 0 6.53 3.16
 7 -6 -2 8.98 3.84
 7 -6 -1 -4.32 2.91
 7 -6 0 47.05 5.24
 7 -6 1 3.22 2.65
 7 -5 -11 4.95 4.54
 7 -5 -10 13.68 5.15
 7 -5 -9 2.66 4.73
 7 -5 -8 36.06 6.11
 7 -5 -7 80.46 7.76
 7 -5 -6 -0.15 4.62
 7 -5 -5 9.26 4.19
 7 -5 -4 3.94 3.6
 7 -5 -3 24.63 4.6
 7 -5 -2 7.72 3.62
 7 -5 -1 17.28 3.95
 7 -5 0 0.21 2.61
 7 -5 1 11.39 3.35
 7 -5 2 7.57 2.68
 7 -4 -11 19.37 6.11
 7 -4 -10 46.58 6.59
 7 -4 -9 88.4 8.05
 7 -4 -7 -2.49 4.5
 7 -4 -6 44.49 6.28
 7 -4 -5 25.79 4.94
 7 -4 -3 38.56 5.2
 7 -4 -2 7.49 3.98
 7 -4 -1 45.53 5.06
 7 -4 0 6.18 3.17
 7 -4 1 39.47 4.26
 7 -4 2 4.98 2.77
 7 -4 3 45.04 4.03
 7 -3 -12 22.61 6.24
 7 -3 -11 7.6 5.31
 7 -3 -10 25.01 5.39
 7 -3 -9 26.91 5.39
 7 -3 -8 90.1 7.57
 7 -3 -7 11.26 4.3
 7 -3 -5 29.56 4.8
 7 -3 -4 57.42 5.54
 7 -3 -3 44.38 5.44
 7 -3 -2 19 4.05
 7 -3 -1 75.1 5.45
 7 -3 0 6.23 3.1
 7 -3 1 69.43 5.15
 7 -3 2 16.44 3.19
 7 -3 3 51.59 4.15
 7 -2 -13 9.88 5.02
 7 -2 -12 1.39 4.79
 7 -2 -11 43.15 6.3
 7 -2 -10 47.62 6.45
 7 -2 -9 6.85 5.05
 7 -2 -7 4.95 3.66
 7 -2 -5 4.5 3.36
 7 -2 -4 44.51 5.34
 7 -2 -3 10.54 3.26
 7 -2 -2 15.66 3.77
 7 -2 0 2.13 2.99
 7 -2 1 39.46 4.47
 7 -2 2 14.23 2.99
 7 -2 3 11.64 2.78
 7 -1 -13 21.99 5.45
 7 -1 -12 5.52 4.21
 7 -1 -11 12.65 4.91
 7 -1 -10 14.67 5.53
 7 -1 -9 33.46 5.57
 7 -1 -8 19.49 4.73
 7 -1 -7 28.45 4.82
 7 -1 -6 19.01 4.7
 7 -1 -5 68.06 5.9
 7 -1 -3 -0.36 2.83
 7 -1 -1 103.44 6.5
 7 -1 0 187.12 7.59
 7 -1 1 109.39 5.97
 7 -1 2 38.18 4.1
 7 -1 3 0.39 2.02
 7 0 -13 13.33 5.19
 7 0 -12 11.23 5.17
 7 0 -11 5.18 4.29
 7 0 -10 -4.06 3.67
 7 0 -9 18.86 4.65
 7 0 -8 10.84 4.08
 7 0 -7 5.12 3.78
 7 0 -6 2.22 3.93
 7 0 -5 11.49 3.85
 7 0 -4 -1.98 2.78
 7 0 -3 1.16 3.32
 7 0 -2 27.46 4.23
 7 0 -1 5.77 3.03
 7 0 0 2.81 2.76
 7 0 1 4.38 2.75
 7 0 3 -0.11 2.29
 7 0 4 2.3 2.13
 7 1 -13 17.41 5.81
 7 1 -12 2.45 4.94
 7 1 -11 3.16 4.02
 7 1 -10 11.57 4.99
 7 1 -9 28.55 5.29
 7 1 -8 23.45 4.94
 7 1 -7 22.84 4.93
 7 1 -6 29.96 4.97
 7 1 -5 71.93 6.78
 7 1 -4 63.91 6.2
 7 1 -3 3.83 2.98
 7 1 -2 34.23 4.49
 7 1 -1 107.09 6.27
 7 1 0 193.51 8.09
 7 1 1 105.78 6.23
 7 1 2 30.37 3.84
 7 1 3 5.37 2.52
 7 1 4 59.76 4.27
 7 1 5 72.17 4.45
 7 2 -13 16.39 6.05
 7 2 -12 0.49 4.29
 7 2 -11 36.53 6.11
 7 2 -10 44.71 6.7
 7 2 -9 5.06 4.46
 7 2 -8 50.78 6.96
 7 2 -7 -0.58 3.3
 7 2 -6 23.86 4.88
 7 2 -5 -0.56 3.01
 7 2 -4 50.44 5.76
 7 2 -3 8.34 3.5
 7 2 -2 13.86 4.12
 7 2 -1 34.35 4.81
 7 2 0 2.57 2.73
 7 2 1 43.05 4.74
 7 2 2 14.85 3.68
 7 2 3 15.26 3.5
 7 2 4 44.47 4.17
 7 2 5 6.72 2.75
 7 3 -12 26.14 5.45
 7 3 -11 18.86 5.53
 7 3 -10 20.1 4.9
 7 3 -9 25.21 5.01
 7 3 -7 12.19 4.46
 7 3 -6 53.18 5.65
 7 3 -5 29.5 4.77
 7 3 -2 14.52 3.76
 7 3 -1 72.74 5.97
 7 3 0 2.97 2.92
 7 3 1 75.04 5.89
 7 3 2 15.44 3.32
 7 3 3 41.09 4.34
 7 3 4 61.19 4.83
 7 3 5 28.01 3.58
 7 3 6 60.41 4.56
 7 4 -12 8.27 4.77
 7 4 -11 13.94 4.84
 7 4 -9 74.17 7.42
 7 4 -8 25.01 5.64
 7 4 -6 61.19 6.89
 7 4 -5 20.62 4.88
 7 4 -4 74.75 6.71
 7 4 -3 39.93 5.18
 7 4 -2 2.47 3.09
 7 4 -1 45.92 4.91
 7 4 0 8.49 3.67
 7 4 2 5.31 3.43
 7 4 3 52.34 4.72
 7 4 4 87.32 5.66
 7 4 5 26.02 3.93
 7 4 6 56.32 4.65
 7 5 -11 13.2 4.98
 7 5 -10 16.27 4.83
 7 5 -9 5 4.08
 7 5 -8 38.2 5.9
 7 5 -6 0.33 3.55
 7 5 -5 13.96 4.06
 7 5 -4 1.01 3.46
 7 5 -3 18.5 4.24
 7 5 -2 2.3 3.89
 7 5 -1 14.83 4.56
 7 5 0 -0.22 2.95
 7 5 1 10.17 4.02
 7 5 2 2.99 3.33
 7 5 3 17.3 3.77
 7 5 4 5.56 3.12
 7 5 5 7.91 3.15
 7 5 6 3.72 2.63
 7 6 -10 -0.26 4.75
 7 6 -8 51.51 6.42
 7 6 -7 9.94 4.32
 7 6 -6 9.83 4.28
 7 6 -5 32.74 5.2
 7 6 -3 32.48 5.55
 7 6 -2 6.69 3.55
 7 6 -1 -2.51 2.96
 7 6 0 33.62 5.39
 7 6 1 -1.79 2.91
 7 6 2 9.97 3.51
 7 6 3 27.46 4.43
 7 6 4 7.56 3.7
 7 6 5 48.34 5.47
 7 6 6 8.31 3.18
 7 7 -9 9.27 4.74
 7 7 -8 5.42 4.59
 7 7 -7 17.93 4.92
 7 7 -4 -2.48 4.23
 7 7 -3 5.74 3.92
 7 7 -2 15.77 5.11
 7 7 -1 31.69 5.61
 7 7 0 10.68 4.36
 7 7 1 34.63 5.22
 7 7 3 5.44 3.59
 7 7 4 1.6 3.3
 7 7 5 10.27 3.5
 7 8 -8 6.23 4.23
 7 8 -6 25.47 5.37
 7 8 -4 5.43 3.92
 7 8 -3 8.91 4.41
 7 8 -2 0.31 3.54
 7 8 -1 30.84 5.29
 7 8 0 57.47 6.9
 7 8 1 31.75 5.34
 7 8 2 3.65 3.7
 7 8 3 7.41 4.07
 7 8 4 8.54 3.74
 7 8 5 3.66 3.75
 7 9 -6 10.94 5.24
 7 9 -5 28.91 6.48
 7 9 -4 17.81 5.76
 7 9 -3 2.73 3.93
 7 9 -1 36.49 5.9
 7 9 0 3.18 3.81
 7 9 1 30.91 5.63
 7 9 2 22.17 4.97
 7 9 4 26.47 5.6
 7 10 -2 12.07 5.6
 7 10 -1 1.14 4.2
 7 10 0 33.4 5.89
 7 10 1 2.94 4.15
 7 10 2 12.81 5.34
 8 -7 -4 8.06 4.38
 8 -7 -3 7.99 4.4
 8 -7 -2 6.69 3.58
 8 -7 -1 3.25 3.85
 8 -6 -6 31.83 5.73
 8 -6 -5 2.69 4.06
 8 -6 -4 79.99 7.18
 8 -6 -1 41.76 5.23
 8 -5 -7 14.86 4.93
 8 -5 -6 38.65 5.86
 8 -5 -5 12.49 5.18
 8 -5 -4 35.46 5.62
 8 -5 -3 6.63 4.02
 8 -5 -2 19.44 4.78
 8 -5 -1 41.45 5.41
 8 -5 0 26.83 4.64
 8 -4 -8 25.29 6.26
 8 -4 -7 22.47 6.01
 8 -4 -6 8.95 4.53
 8 -4 -5 -3.17 3.67
 8 -4 -4 4.29 3.66
 8 -4 -3 5.99 3.61
 8 -4 -2 3.19 3.91
 8 -4 -1 16.18 4.03
 8 -4 0 45.48 5.68
 8 -4 1 21.99 4.15
 8 -3 -9 10.25 5.67
 8 -3 -8 30.93 6.02
 8 -3 -7 15.28 5.24
 8 -3 -6 20.19 5.36
 8 -3 -5 7.44 4.21
 8 -3 -4 28.35 5.12
 8 -3 -3 1.42 3.57
 8 -3 -2 24.58 4.77
 8 -3 -1 13.37 4.21
 8 -3 0 7.84 3.4
 8 -3 1 13.73 3.29
 8 -2 -9 10.04 5.68
 8 -2 -8 13.83 5.16
 8 -2 -7 10.41 5.3
 8 -2 -6 12 4.6
 8 -2 -5 28.87 5.75
 8 -2 -4 13.63 4.49
 8 -2 -3 37.72 5.75
 8 -2 -2 45.75 5.64
 8 -2 -1 70.48 5.99
 8 -2 0 9.07 4.03
 8 -2 1 64.71 5.56
 8 -1 -10 4.54 4.54
 8 -1 -9 8.67 4.69
 8 -1 -8 12.4 5.08
 8 -1 -7 39.15 6.29
 8 -1 -6 9.76 4.48
 8 -1 -5 27.49 5.4
 8 -1 -4 13.27 4.21
 8 -1 -3 12.11 4.24
 8 -1 -2 18.4 4.16
 8 -1 0 7.77 3.57
 8 -1 1 113.38 6.64
 8 0 -10 7.98 5.28
 8 0 -9 2.12 4.49
 8 0 -8 18.77 5.24
 8 0 -7 12.65 5.39
 8 0 -6 27.93 5.32
 8 0 -5 98.76 8.02
 8 0 -4 79.77 7.22
 8 0 -3 27.11 4.73
 8 0 -2 34.14 5.33
 8 0 -1 88.04 6.7
 8 0 0 0.84 2.93
 8 0 1 89.2 6.08
 8 0 2 31.17 4.36
 8 0 3 31.72 4.1
 8 1 -10 -0.79 4.2
 8 1 -9 9.03 4.55
 8 1 -8 4.76 4.33
 8 1 -7 30.61 5.68
 8 1 -4 2.49 4.09
 8 1 -3 9.86 4.06
 8 1 -2 23.09 4.91
 8 1 -1 116.41 7.43
 8 1 0 7.63 3.44
 8 1 1 110.73 6.68
 8 1 2 19.09 4.19
 8 1 3 10.37 3.43
 8 2 -9 19.28 5.44
 8 2 -8 22.4 5.28
 8 2 -7 6 4.25
 8 2 -5 38.49 6.19
 8 2 -4 13.63 4.67
 8 2 -3 39.23 5.52
 8 2 -2 43.42 5.51
 8 2 -1 68.71 6.18
 8 2 0 8.48 3.71
 8 2 1 68.56 5.72
 8 2 2 37.81 5.02
 8 2 3 48.6 4.97
 8 2 4 19.39 3.88
 8 3 -9 7.74 4.68
 8 3 -7 17.52 5.03
 8 3 -6 21.43 5.1
 8 3 -5 4.58 4.11
 8 3 -4 25.88 5.16
 8 3 -3 1.55 3.77
 8 3 -2 25.39 4.74
 8 3 -1 11.61 3.94
 8 3 0 3.69 3.54
 8 3 1 12.98 3.81
 8 3 2 22.24 4.27
 8 3 3 0.33 2.73
 8 3 4 30.37 4
 8 4 -8 31.19 5.72
 8 4 -6 4.89 4.19
 8 4 -5 3.53 3.9
 8 4 -4 12.5 4.35
 8 4 -3 6.26 4.36
 8 4 -2 2.45 3.61
 8 4 2 5.55 3.37
 8 4 3 3.34 3.61
 8 4 4 4.89 3.58
 8 5 -6 48.56 6.62
 8 5 -5 16.37 4.82
 8 5 -4 35.31 5.81
 8 5 -3 -2.71 3.99
 8 5 -2 29.31 5.35
 8 5 -1 49.51 6.34
 8 5 0 30.43 5.57
 8 5 1 48.8 5.72
 8 5 2 19.57 4.15
 8 5 4 34.66 4.69
 8 5 5 14.47 3.72
 8 6 -6 30.59 6.2
 8 6 -5 4.6 4.55
 8 6 -4 80.76 7.98
 8 6 -3 10.27 4.44
 8 6 -1 36.16 5.93
 8 6 0 10.38 4.95
 8 6 1 45.73 5.71
 8 6 2 42.57 5.37
 8 6 3 11.55 3.77
 8 6 4 68.79 6.37
 8 6 5 7.56 3.24
 8 7 -4 5.35 4.5
 8 7 -3 6.5 4.29
 8 7 -2 5.39 4.66
 8 7 -1 0.45 4.47
 8 7 0 121.16 8.66
 8 7 1 6.94 4.08
 8 7 2 4.19 4.37
 8 7 3 5.42 4.42
 8 7 4 6.37 3.48
 9 -3 -2 3.97 3.67
 9 -3 -1 0.37 3.24
 9 -2 -4 -0.06 3.61
 9 -2 -3 6.09 4.24
 9 -2 -2 -2.81 2.95
 9 -2 0 4.92 3.73
 9 -1 -4 1.71 3.92
 9 -1 -3 2.35 4.64
 9 -1 -2 5.34 3.95
 9 -1 -1 29.82 5.14
 9 -1 0 14.19 3.89
 9 0 -4 30.33 5.92
 9 0 -3 20.16 4.85
 9 0 -2 -0.67 4.24
 9 0 -1 -2.23 3.59
 9 0 0 2.09 3.32
 9 0 1 1.03 3
 9 1 -4 4.92 4.16
 9 1 -3 1.9 4.13
 9 1 -2 3.33 3.71
 9 1 -1 29.43 5.14
 9 1 0 10.37 4.29
 9 1 1 17.29 4.14
 9 2 -4 4.02 4.87
 9 2 -3 4.63 3.91
 9 2 -2 -1.21 3.76
 9 2 -1 4.47 3.97
 9 2 0 2.15 3.42
 9 2 1 -1.8 2.89
 9 2 2 -4.9 2.7
 9 3 -2 2.88 3.94
 9 3 -1 7.61 4.18
 9 3 0 -0.44 3.47
 9 3 1 10.84 4.35
 9 3 2 1.55 3.67
 -6 11 1 0.42 3.51
 -6 11 2 29.8 5.35
 -5 9 4 11.52 3.05
 -5 10 3 20.21 4.04
 -5 10 4 28.04 4.37
 -5 11 0 81.78 7.31
 -5 11 2 42.75 5.76
 -5 11 3 12.91 3.95
 -5 12 -6 14.17 5.51
 -5 12 -5 23.35 6.41
 -5 12 -3 14.83 5.78
 -5 12 -2 8.53 4.67
 -5 12 -1 45.44 6.53
 -5 12 0 7.67 4.17
 -5 12 1 45.97 5.88
 -5 12 2 13.44 4.79
 -5 13 -2 38.01 6.87
 -5 13 -1 0 3.93
 -5 13 0 35.78 5.84
 -5 13 1 1.03 3.5
 -4 7 6 75.89 3.88
 -4 8 5 65.84 4.39
 -4 9 3 4.55 2.54
 -4 9 4 8.78 2.84
 -4 10 1 144.75 7.71
 -4 10 2 -2.05 3.06
 -4 10 3 24.5 4.34
 -4 10 4 40.54 4.56
 -4 10 5 18.57 3.26
 -4 11 -11 22.24 6.74
 -4 11 -2 48.45 6.57
 -4 11 -1 32.98 5.37
 -4 11 0 2.31 3.63
 -4 11 1 41.33 5.24
 -4 11 2 45.97 5.72
 -4 11 3 49.79 5.34
 -4 11 4 2.48 2.98
 -4 12 -9 1.81 5.23
 -4 12 -8 28.76 6.32
 -4 12 -7 29.68 6.87
 -4 12 -4 29.82 6.61
 -4 12 -3 0.53 4.58
 -4 12 -2 30.99 6.34
 -4 12 -1 15.2 4.59
 -4 12 0 -1.03 4.07
 -4 12 1 17.85 4.39
 -4 12 2 36.57 5.42
 -4 12 3 -1.81 3.33
 -4 13 -6 -0.01 4.72
 -4 13 -3 13.62 4.87
 -4 13 -2 0.91 4.19
 -4 13 -1 4.9 4.8
 -4 13 1 9.07 4.82
 -4 13 2 2.28 3.5
 -4 13 3 20.17 4.25
 -4 14 -1 12.16 5.11
 -4 14 0 19.6 5.01
 -4 14 1 14.03 4.56
 -3 4 7 83.04 1.78
 -3 5 6 140.89 3.65
 -3 5 7 20.44 1.37
 -3 6 5 56.73 3.14
 -3 6 6 103.16 3.57
 -3 6 7 30.45 1.91
 -3 7 4 104.44 4.64
 -3 7 6 73.45 3.41
 -3 7 7 40.39 2.46
 -3 8 -16 12.22 4.85
 -3 8 3 2.07 2.1
 -3 8 4 4.7 2.38
 -3 8 5 32.97 3.21
 -3 8 6 29.22 2.86
 -3 9 -15 17.27 5.63
 -3 9 -14 24.38 6.18
 -3 9 1 98.43 5.98
 -3 10 -14 5.88 5.39
 -3 10 -13 3.41 5.75
 -3 10 -11 -0.16 3.83
 -3 10 -1 28.59 4.97
 -3 10 0 23.47 4.51
 -3 10 2 26.63 4.39
 -3 10 4 13.43 3.02
 -3 10 5 65.12 4.63
 -3 11 -11 20.13 5.92
 -3 11 -10 21.73 5.91
 -3 11 -8 24.79 5.72
 -3 11 -7 42.81 6.35
 -3 11 -6 14.77 4.73
 -3 11 -5 38.83 5.95
 -3 11 -4 1.8 3.69
 -3 11 -3 1.55 3.64
 -3 11 -2 15.68 4.44
 -3 11 -1 97.12 7.46
 -3 11 0 83.8 6.5
 -3 11 1 82.21 6.62
 -3 11 2 14.05 3.52
 -3 11 3 4.25 3.08
 -3 11 4 7.61 2.86
 -3 11 5 44.91 4.48
 -3 12 -11 0.25 4.67
 -3 12 -10 22.88 6.43
 -3 12 -9 20.71 5.97
 -3 12 -8 6.75 5.47
 -3 12 -5 75.33 8.02
 -3 12 -3 13.9 4.56
 -3 12 -1 26.41 4.99
 -3 12 0 13.94 4.41
 -3 12 1 17.91 4.29
 -3 12 2 27.68 4.84
 -3 12 3 11.63 3.91
 -3 12 4 9.51 3.42
 -3 12 5 58.07 5.17
 -3 13 -9 19.47 5.84
 -3 13 -8 7.22 6.28
 -3 13 -7 7.89 5.74
 -3 13 -6 -1.09 4.57
 -3 13 -5 78.7 7.72
 -3 13 -4 13.43 5.26
 -3 13 -3 18.33 5.88
 -3 13 -2 28.45 5.49
 -3 13 -1 0.06 3.77
 -3 13 0 111.94 7.88
 -3 13 1 1.46 3.6
 -3 13 2 26.99 4.81
 -3 13 3 13.2 3.77
 -3 13 4 15.34 3.9
 -3 14 -5 2.1 4.81
 -3 14 -4 8.28 4.69
 -3 14 -3 10.1 4.7
 -3 14 -2 -0.95 3.91
 -3 14 -1 8.36 5.11
 -3 14 0 19.57 5.13
 -3 14 2 2.5 3.46
 -3 14 3 4.7 3.67
 -2 4 5 96.38 2.63
 -2 4 6 9.62 0.98
 -2 5 4 138.85 3.9
 -2 5 5 227.97 4.56
 -2 5 6 189.53 3.72
 -2 6 -16 1.18 3.07
 -2 6 3 16.13 2.26
 -2 6 4 44.39 3.02
 -2 6 5 193.28 4.71
 -2 6 6 138.36 3.72
 -2 6 7 210 4.05
 -2 7 -17 9.54 4.28
 -2 7 -16 10 4.59
 -2 7 -15 15.88 4.42
 -2 7 2 16.82 2.68
 -2 7 4 12 2.11
 -2 7 5 146.65 4.72
 -2 7 6 3.04 1.6
 -2 7 7 2.87 1.29
 -2 8 -16 6.68 4.64
 -2 8 -15 10.19 4.63
 -2 8 -14 13.37 4.53
 -2 8 -13 25.44 4.99
 -2 8 2 119.41 5.69
 -2 8 3 114.41 5.29
 -2 8 4 9.29 2.2
 -2 8 5 211.92 6.07
 -2 8 6 21.26 2.63
 -2 8 7 39.25 2.8
 -2 9 -15 4.95 5.03
 -2 9 -13 16.14 4.96
 -2 9 -12 10.43 4.96
 -2 9 -11 4.24 3.71
 -2 9 -10 25.38 4.64
 -2 9 -3 24.35 3.72
 -2 9 -2 4.02 3.08
 -2 9 -1 265.34 9.01
 -2 9 5 7.86 2.25
 -2 9 6 6.65 2.07
 -2 9 7 20.37 2.8
 -2 10 -14 15.82 5.45
 -2 10 -13 0.6 5.23
 -2 10 -12 14.4 5.11
 -2 10 -11 18.7 5.14
 -2 10 -9 96.65 8.32
 -2 10 -8 4.82 3.78
 -2 10 -7 4.37 3.76
 -2 10 -5 112.58 7.3
 -2 10 -4 8.67 3.53
 -2 10 -3 31.06 4.69
 -2 10 -2 17.22 3.87
 -2 10 0 59 5.43
 -2 10 1 166.23 7.25
 -2 10 2 21.6 3.51
 -2 10 3 22.91 3.79
 -2 10 4 9.56 3
 -2 11 -13 1.01 4.39
 -2 11 -12 -1.86 3.99
 -2 11 -11 2.87 4.29
 -2 11 -10 23.38 5.51
 -2 11 -9 19.27 5.4
 -2 11 -8 101.05 8.1
 -2 11 -7 23.13 5.01
 -2 11 -6 15.99 4.44
 -2 11 -5 11.03 4.34
 -2 11 -4 11.24 3.84
 -2 11 -3 62.03 5.79
 -2 11 -2 13.09 3.88
 -2 11 -1 120.87 7.13
 -2 11 0 38.16 4.94
 -2 11 1 117.03 6.91
 -2 11 2 16.67 3.54
 -2 11 3 59.28 5.14
 -2 11 4 10.1 2.8
 -2 11 5 7.14 2.89
 -2 11 6 21.36 3.56
 -2 12 -11 1.32 5.56
 -2 12 -10 5.23 4.51
 -2 12 -9 11.63 5.33
 -2 12 -8 64.11 7.19
 -2 12 -7 5.5 4.41
 -2 12 -6 4.04 3.96
 -2 12 -5 112.28 8.71
 -2 12 -4 16.96 4.49
 -2 12 -3 17.96 4.4
 -2 12 -2 68.55 7.03
 -2 12 -1 34.98 5.04
 -2 12 0 -0.73 3.13
 -2 12 1 34.82 4.81
 -2 12 2 70.19 6.11
 -2 12 3 15.35 3.64
 -2 12 4 9.92 3.74
 -2 12 5 99.61 6.11
 -2 12 6 3.88 2.83
 -2 13 -10 31.59 7.08
 -2 13 -9 -2.05 4.2
 -2 13 -8 4.36 4.75
 -2 13 -7 9.22 4.8
 -2 13 -6 5.18 4.55
 -2 13 -5 18.39 5.98
 -2 13 -4 64.4 7.49
 -2 13 -3 21.72 4.94
 -2 13 -2 0.38 3.74
 -2 13 -1 34.59 5.33
 -2 13 1 28.42 4.83
 -2 13 2 4.4 4.12
 -2 13 3 26.51 4.99
 -2 13 4 64.65 5.61
 -2 13 5 20.37 3.79
 -2 14 -7 4.74 4.88
 -2 14 -6 19.5 5.42
 -2 14 -5 12.81 5.75
 -2 14 -4 45.57 6.77
 -2 14 -3 2.57 4.19
 -2 14 -1 5.51 4.1
 -2 14 1 9.76 4.32
 -2 14 2 43.63 6.01
 -2 14 3 8.46 3.78
 -2 14 4 49.03 6.1
 -2 15 -3 13.98 5.19
 -2 15 -2 36.15 6.45
 -2 15 -1 0.65 4.28
 -2 15 0 20.47 5.82
 -2 15 1 4.95 4.82
 -2 15 2 49.3 6.31
 -2 15 3 13.86 4.37
 -1 3 3 52.95 1.9
 -1 3 4 384.72 3.96
 -1 4 3 46.23 2.28
 -1 4 4 204.13 3.77
 -1 4 5 376.19 4.58
 -1 4 6 121.7 2.44
 -1 5 -15 81.08 5.78
 -1 5 3 313.12 5.75
 -1 5 4 170.65 4.05
 -1 5 5 31.56 1.95
 -1 5 6 105.87 2.87
 -1 5 7 4.96 0.94
 -1 6 -15 73.63 6.12
 -1 6 -14 12.59 3.53
 -1 6 -13 3.74 3.47
 -1 6 1 63 3.77
 -1 6 2 19.85 2.27
 -1 6 3 113.52 4.14
 -1 6 4 126.83 3.98
 -1 6 5 8.8 1.66
 -1 6 6 57.49 2.63
 -1 6 7 178.97 4
 -1 6 8 50.17 2.15
 -1 7 -16 2.71 2.9
 -1 7 -15 27.35 4.88
 -1 7 -14 24.02 4.48
 -1 7 -13 2.47 3.2
 -1 7 -12 -1.17 2.89
 -1 7 -11 9.64 3.57
 -1 7 -2 40.68 3.52
 -1 7 -1 127.02 5.34
 -1 7 2 37.71 3.29
 -1 7 3 20.05 2.71
 -1 7 4 246.85 6.01
 -1 7 5 8.7 2.09
 -1 7 6 145.21 4.43
 -1 7 7 53.04 2.8
 -1 7 8 85.65 3.12
 -1 8 -16 -1.24 3.18
 -1 8 -15 17.83 4.8
 -1 8 -14 35.07 5.38
 -1 8 -13 3.82 3.66
 -1 8 -12 23.43 4.96
 -1 8 -10 56.31 5.96
 -1 8 -9 4.54 3.44
 -1 8 -8 12.71 3.42
 -1 8 -7 112.37 6.8
 -1 8 -6 43.7 4.74
 -1 8 -5 31.87 3.94
 -1 8 -1 203.84 7.23
 -1 8 0 37.47 3.95
 -1 8 1 202.55 6.88
 -1 8 2 49.51 3.54
 -1 8 3 5.4 2.16
 -1 8 4 109.66 4.84
 -1 8 5 28.16 2.8
 -1 8 6 37.03 3.14
 -1 8 7 104.3 4.13
 -1 8 8 12.82 1.93
 -1 9 -16 2.12 4.52
 -1 9 -15 18.87 4.73
 -1 9 -14 0.59 3.78
 -1 9 -13 15.02 5.01
 -1 9 -12 4.82 3.96
 -1 9 -11 28.45 5.1
 -1 9 -10 162.01 8.61
 -1 9 -9 2.82 3.26
 -1 9 -8 54.34 5.97
 -1 9 -7 58.49 5.98
 -1 9 -6 13.31 3.87
 -1 9 -5 20.87 3.76
 -1 9 -3 70.11 5.13
 -1 9 -2 139.96 7
 -1 9 4 116.38 5.46
 -1 9 5 26.02 3.23
 -1 9 6 7.26 2.35
 -1 9 7 55.17 3.57
 -1 9 8 55.21 3.42
 -1 10 -15 1.03 4.17
 -1 10 -14 33.35 5.83
 -1 10 -13 3.84 4.26
 -1 10 -12 41.2 6.38
 -1 10 -11 0.16 3.9
 -1 10 -10 78.45 7.53
 -1 10 -9 11.92 4.21
 -1 10 -8 158.27 9.03
 -1 10 -7 2.5 3.38
 -1 10 -6 13.81 4.33
 -1 10 -5 87.66 6.23
 -1 10 -4 17.94 3.95
 -1 10 -3 38.07 4.76
 -1 10 -2 23.99 3.82
 -1 10 -1 14.85 3.28
 -1 10 0 -1.74 2.24
 -1 10 1 22.48 3.86
 -1 10 2 27.26 3.99
 -1 10 3 38.76 3.92
 -1 11 -14 2.06 4.71
 -1 11 -13 1.47 4.23
 -1 11 -12 9.6 4.97
 -1 11 -11 16.75 5.37
 -1 11 -10 97.5 7.74
 -1 11 -9 1.6 3.88
 -1 11 -8 28.99 5.2
 -1 11 -7 148.07 8.48
 -1 11 -6 14.14 4.17
 -1 11 -5 25.33 4.81
 -1 11 -4 13.56 4.17
 -1 11 -3 5.11 4.05
 -1 11 -2 10.3 3.41
 -1 11 -1 46.83 5.69
 -1 11 0 0.16 3.27
 -1 11 1 46.15 4.75
 -1 11 2 13.07 3.56
 -1 11 3 3.21 2.54
 -1 11 4 10.75 3.26
 -1 11 5 32.13 3.9
 -1 11 6 13.77 3.06
 -1 11 7 135.66 6.01
 -1 12 -11 -0.72 4.07
 -1 12 -10 5.37 4.68
 -1 12 -9 4.55 4.14
 -1 12 -8 37.74 6.52
 -1 12 -7 39.54 6.49
 -1 12 -6 6.57 4.08
 -1 12 -5 14.73 4.41
 -1 12 -4 18.71 4.44
 -1 12 -3 8.15 3.84
 -1 12 -2 34.34 5.4
 -1 12 0 2.15 3.1
 -1 12 1 46.29 5.37
 -1 12 2 33 4.74
 -1 12 3 7.03 3.17
 -1 12 4 16.53 3.97
 -1 12 5 9.36 3.22
 -1 12 6 8.45 2.89
 -1 12 7 40.76 4.73
 -1 13 -10 17.04 5.32
 -1 13 -9 1.86 4.73
 -1 13 -8 -3.21 3.73
 -1 13 -7 7.59 4.59
 -1 13 -6 9.24 4.96
 -1 13 -5 18.41 5.09
 -1 13 -4 -2.88 4.31
 -1 13 -3 -0.18 4.36
 -1 13 -2 6.06 3.91
 -1 13 0 75.87 7.06
 -1 13 1 37.32 5.66
 -1 13 2 2.27 3.17
 -1 13 3 0.7 3.05
 -1 13 4 -2.19 2.83
 -1 13 5 14 3.51
 -1 13 6 11.15 3.44
 -1 14 -8 1.06 5.15
 -1 14 -6 2.11 4.36
 -1 14 -5 160.87 10.64
 -1 14 -4 8.86 4.65
 -1 14 -3 7.85 4.41
 -1 14 -2 0.27 4.15
 -1 14 -1 33.48 5.73
 -1 14 0 5.92 4.4
 -1 14 1 44.9 5.98
 -1 14 2 -0.8 3.62
 -1 14 3 6.98 3.67
 -1 14 4 15.94 4.42
 -1 14 5 158.58 8.05
 -1 15 -4 5.71 4.95
 -1 15 -3 4.93 5.02
 -1 15 -2 8.89 4.78
 -1 15 -1 17.66 5.6
 -1 15 1 21.27 5.13
 -1 15 2 4.14 4.6
 -1 15 3 11.53 4.56
 -1 15 4 6.43 3.95
 0 1 0 0.13 0.53
 0 2 0 5301.44 15.42
 0 2 1 4.09 0.89
 0 2 2 329.68 3.52
 0 3 -12 119.42 4.75
 0 3 -1 417.12 5.76
 0 3 0 0.49 1.08
 0 3 2 348.76 4.54
 0 3 3 964.32 7.24
 0 3 5 223.75 3.44
 0 4 -12 76.48 4.58
 0 4 -11 1.77 2.31
 0 4 -2 207.15 5.09
 0 4 -1 3.17 1.53
 0 4 0 2860.99 16.42
 0 4 1 3.41 1.36
 0 4 2 199.05 4.17
 0 4 3 1108.66 9.17
 0 4 4 16.54 1.66
 0 4 5 11.13 1.32
 0 4 6 19.03 1.53
 0 5 -14 0.84 1.97
 0 5 -10 66.9 4.48
 0 5 -9 11.45 2.54
 0 5 -7 16.27 2.71
 0 5 -5 865.42 11.92
 0 5 -3 65.65 3.58
 0 5 0 1.07 1.48
 0 5 1 32.28 2.59
 0 5 3 57.77 2.92
 0 5 4 24.39 1.94
 0 5 5 892.15 9.15
 0 5 6 49.64 2.46
 0 6 -14 -0.26 2.39
 0 6 -13 30.57 3.99
 0 6 -12 4.46 2.72
 0 6 -11 6.15 2.95
 0 6 -8 17.52 3.63
 0 6 -7 246.17 7.68
 0 6 -6 488.03 10.43
 0 6 -5 277.74 7.68
 0 6 -4 30.92 3.02
 0 6 -3 10.83 2.43
 0 6 -2 3.19 1.99
 0 6 0 458.4 8.37
 0 6 1 195.4 5.36
 0 6 3 10.24 1.8
 0 6 4 28.73 2.58
 0 6 5 276.96 5.96
 0 6 6 470.49 7.36
 0 7 -15 1.88 2.43
 0 7 -14 10.11 3.76
 0 7 -13 0.77 3.06
 0 7 -12 3.72 3.35
 0 7 -11 10.88 3.38
 0 7 -10 -0.08 2.53
 0 7 -9 57.38 5.2
 0 7 -5 613.48 12.11
 0 7 -4 2.54 2.17
 0 7 -2 9.59 2.72
 0 7 -1 605.3 10.76
 0 7 0 0.39 1.7
 0 7 1 588.24 10
 0 7 2 6.79 1.97
 0 7 4 2.16 1.64
 0 7 5 615 9.46
 0 7 6 12.74 2.05
 0 7 7 20.13 2.51
 0 7 8 135.61 4.38
 0 8 -14 0.81 3.13
 0 8 -13 14.14 3.85
 0 8 -12 5.83 3.52
 0 8 -11 11.26 3.45
 0 8 -10 13.96 3.63
 0 8 -9 17.53 3.87
 0 8 -8 12.68 3.32
 0 8 -7 45.77 4.28
 0 8 -6 91.19 5.46
 0 8 -1 335.26 8.83
 0 8 0 72.05 4.42
 0 8 1 343.05 8.55
 0 8 3 33.8 3.11
 0 8 4 1.81 2.08
 0 8 5 38.81 3.14
 0 8 6 90.88 4.36
 0 8 7 46 3.51
 0 8 8 12.82 2.29
 0 9 -15 -1.74 3.27
 0 9 -14 4.21 3.71
 0 9 -13 13.57 4.55
 0 9 -12 0 3.07
 0 9 -11 0.3 3.15
 0 9 -10 5.04 3.07
 0 9 -9 12.69 3.83
 0 9 -8 140.96 7.42
 0 9 -7 2.68 2.77
 0 9 -6 5.47 2.83
 0 9 -3 21 3.39
 0 9 -2 10.44 3.18
 0 9 6 5.5 2.28
 0 9 7 0.76 2.15
 0 9 8 140.34 5.38
 0 10 -15 38.03 6.11
 0 10 -14 15.83 4.69
 0 10 -12 9.97 4.21
 0 10 -11 -0.41 3.66
 0 10 -10 102.38 7.14
 0 10 -9 67.61 6.7
 0 10 -8 4.23 3.28
 0 10 -7 3.24 3.13
 0 10 -6 10.02 3.64
 0 10 -5 45.06 4.85
 0 10 -4 2.59 2.82
 0 10 -3 29.85 4.18
 0 10 -2 104.74 6.5
 0 10 -1 39.87 4.47
 0 10 0 41.43 4.62
 0 10 1 43.88 4.19
 0 10 2 107.05 5.74
 0 10 3 25.52 3.66
 0 10 4 1.67 2.12
 0 10 5 46.45 4.29
 0 10 6 13.71 2.95
 0 11 -14 92.69 8.12
 0 11 -13 -1.63 3.8
 0 11 -11 22.21 5.71
 0 11 -10 72.05 6.96
 0 11 -9 -0.93 3.6
 0 11 -8 93.66 7.16
 0 11 -7 0.99 3.21
 0 11 -6 -0.82 3.39
 0 11 -4 3.75 3.13
 0 11 -3 32.38 4.63
 0 11 -2 6.94 3.22
 0 11 -1 65.93 5.34
 0 11 0 -0.67 2.63
 0 11 1 61.03 5.69
 0 11 2 10.38 3.2
 0 11 3 25.22 3.95
 0 11 4 5.53 2.81
 0 11 5 -0.66 2.35
 0 11 6 -2.03 2.25
 0 11 7 5.69 2.7
 0 11 8 92.76 5.24
 0 12 -12 2.61 4.78
 0 12 -11 12.51 5.42
 0 12 -10 11.49 4.55
 0 12 -9 13.08 5.15
 0 12 -8 30.47 5.54
 0 12 -7 13.47 4.36
 0 12 -6 2.21 4.23
 0 12 -5 75.42 6.62
 0 12 -4 21.35 4.57
 0 12 -3 63.67 6.23
 0 12 -2 55.53 5.78
 0 12 -1 8.2 3.64
 0 12 0 0.97 3.1
 0 12 1 12.27 3.72
 0 12 2 55.21 5.82
 0 12 4 16.98 3.73
 0 12 5 70.64 5.8
 0 12 6 0.36 2.74
 0 12 7 9.83 3.26
 0 12 8 26.88 4.11
 0 13 -11 3.47 5.07
 0 13 -10 42.91 6.79
 0 13 -9 -2.1 4.35
 0 13 -8 19.61 5.28
 0 13 -7 62.91 7.31
 0 13 -6 2.65 4.75
 0 13 -5 34.45 5.68
 0 13 -4 70.17 7.2
 0 13 -3 -2.54 3.42
 0 13 -2 2.11 3.7
 0 13 -1 76.33 7.15
 0 13 0 -2.63 3.78
 0 13 1 74.51 6.95
 0 13 2 0.57 3.23
 0 13 3 -0.78 3.03
 0 13 4 67.74 5.83
 0 13 5 34.91 5.07
 0 13 6 1.39 3.36
 0 13 7 72.15 5.61
 0 14 -8 16.33 5.6
 0 14 -7 1.17 4.76
 0 14 -5 10.19 4.66
 0 14 -4 -2.38 3.66
 0 14 -2 52.75 6.58
 0 14 -1 -0.03 4.51
 0 14 0 41.89 6.24
 0 14 1 -5.45 3.42
 0 14 2 40.6 5.78
 0 14 3 -1.16 3.73
 0 14 4 -4.53 3.38
 0 14 5 4.52 3.48
 0 14 6 21.97 4.75
 0 15 -5 11.17 5.33
 0 15 -4 5.54 4.7
 0 15 -3 38.78 6.49
 0 15 -2 30.95 6.02
 0 15 -1 4.66 5.03
 0 15 0 -0.23 4.25
 0 15 1 6.7 4.45
 0 15 2 32.22 6.19
 0 15 3 29.71 5.22
 0 15 4 1.54 3.59
 0 15 5 6.09 4.18
 1 0 -9 243.09 2.52
 1 0 -8 0.25 0.36
 1 0 -7 18.88 0.79
 1 0 -6 111.94 1.62
 1 0 -5 3.43 0.44
 1 1 -11 22.4 1.37
 1 1 -10 16.97 1.28
 1 1 -9 519.55 5.6
 1 1 -8 82.04 2.32
 1 1 -3 272.57 3.38
 1 1 -2 3873.65 12.01
 1 1 -1 246.66 3.25
 1 1 0 960.94 6.22
 1 2 -8 106.06 3.23
 1 2 -7 1015.06 9.07
 1 2 -6 16.02 1.45
 1 2 -5 144.75 3.4
 1 2 -4 119.18 3.11
 1 2 -3 1003.62 7.93
 1 2 -2 132.5 2.95
 1 2 -1 342.06 4.6
 1 2 0 855.44 7.05
 1 2 1 345.18 4.52
 1 3 -10 1.41 1.27
 1 3 -9 769.07 9.64
 1 3 -8 20.05 2.03
 1 3 -7 56.89 2.71
 1 3 -6 149.11 4.16
 1 3 -5 375.32 6.18
 1 3 -4 401.67 6.21
 1 3 -3 53.26 2.48
 1 3 -2 421.12 6.08
 1 3 -1 125.55 3.58
 1 3 0 24.58 1.78
 1 3 2 415.22 5.68
 1 3 3 56.58 2.53
 1 4 -11 13.08 2.16
 1 4 -10 242.74 6.36
 1 4 -9 2.59 1.74
 1 4 -8 20.49 2.43
 1 4 -7 54.97 3.39
 1 4 -5 374.77 6.99
 1 4 -3 49.39 2.76
 1 4 -2 101.12 3.66
 1 4 -1 86.88 3.36
 1 4 0 552.38 7.64
 1 4 1 90.14 3.21
 1 4 2 96.61 3.29
 1 4 3 47.19 2.79
 1 4 4 203.98 4.66
 1 4 5 382.19 6.18
 1 5 -10 54.07 3.96
 1 5 -9 20.82 3.06
 1 5 -7 4.33 1.82
 1 5 -6 106.13 4.66
 1 5 -5 25.3 2.74
 1 5 -4 177.38 5.36
 1 5 -2 516.74 8.42
 1 5 -1 33.91 2.75
 1 5 1 35.24 2.94
 1 5 2 517.99 8.15
 1 5 3 314.52 6.26
 1 5 4 169.33 4.68
 1 5 5 34.12 2.45
 1 6 -13 4.39 2.43
 1 6 -12 85.08 5.26
 1 6 -8 53.47 4.32
 1 6 -7 176.23 6.45
 1 6 -6 60.01 3.89
 1 6 -5 12.85 2.52
 1 6 -4 132.71 5.1
 1 6 -3 111.69 4.74
 1 6 -2 20.15 2.46
 1 6 -1 60.87 3.84
 1 6 0 144.29 4.93
 1 6 2 21.09 2.22
 1 6 3 115.08 4.37
 1 6 4 130.22 4.52
 1 6 5 9.39 1.85
 1 6 6 54.52 3.35
 1 7 -14 29.62 4.06
 1 7 -13 7.89 3.14
 1 7 -12 0.82 2.64
 1 7 -11 10.11 3.12
 1 7 -10 7.97 3.07
 1 7 -9 31.54 4.09
 1 7 -5 6.85 2.66
 1 7 -4 234.09 7.46
 1 7 -3 23.96 3.02
 1 7 -2 38.96 3.23
 1 7 -1 113.49 5.19
 1 7 0 451.21 9.29
 1 7 1 121.26 5.07
 1 7 2 38.38 3.62
 1 7 3 19.43 2.7
 1 7 5 8.43 2.47
 1 7 6 148.66 5.31
 1 7 7 58.11 3.76
 1 8 -14 34.05 4.42
 1 8 -13 2.57 2.92
 1 8 -12 21.36 4.26
 1 8 -11 47.18 4.9
 1 8 -10 62.88 5.37
 1 8 -9 2.46 3.14
 1 8 -8 10.78 3.1
 1 8 -7 108.07 6.13
 1 8 -6 33.64 4.28
 1 8 1 194.68 6.78
 1 8 2 48.65 4.17
 1 8 3 10.06 2.8
 1 8 4 107.71 5.17
 1 8 6 35.75 3.69
 1 8 7 108.6 4.88
 1 9 -15 13.74 3.99
 1 9 -14 7.21 3.78
 1 9 -13 14.57 4.51
 1 9 -12 -3.84 2.59
 1 9 -11 20.77 4.16
 1 9 -10 172.54 8.35
 1 9 -9 -2.16 3.1
 1 9 -7 56.48 5.42
 1 9 -6 10.99 3.22
 1 9 -5 23.22 4
 1 9 -4 127.51 6.71
 1 9 -3 69.32 5.32
 1 9 -2 126.23 6.47
 1 9 -1 63.22 4.65
 1 10 -15 2.03 3.52
 1 10 -14 42.49 5.71
 1 10 -13 -2.09 4.02
 1 10 -12 37.25 5.5
 1 10 -11 3.04 3.54
 1 10 -10 93.27 7.32
 1 10 -9 7.94 3.71
 1 10 -8 143.1 8.1
 1 10 -7 0.33 3.2
 1 10 -6 13.61 3.62
 1 10 -5 75.41 6.22
 1 10 -4 15.1 4.03
 1 10 -3 35.47 4.56
 1 10 -2 30.93 4.22
 1 10 -1 16.72 3.33
 1 10 0 1.99 2.52
 1 10 1 14.63 3.43
 1 10 2 32.81 4.47
 1 10 3 26.66 3.85
 1 10 4 12.84 3.07
 1 10 5 71.27 5.03
 1 10 6 9.96 3.26
 1 10 7 3.4 2.62
 1 11 -13 9.13 4.96
 1 11 -12 8.61 4.47
 1 11 -11 20.99 4.98
 1 11 -9 -0.17 3.43
 1 11 -8 33.86 5.26
 1 11 -7 144.58 8.07
 1 11 -6 8.84 3.89
 1 11 -5 33.92 4.8
 1 11 -4 11.49 3.63
 1 11 -3 -0.61 2.87
 1 11 -2 18.14 4.06
 1 11 -1 56.23 5.23
 1 11 0 1.14 2.78
 1 11 1 54.38 5.41
 1 11 2 12.3 3.29
 1 11 3 1.14 2.67
 1 11 4 10.39 3.16
 1 11 5 30.01 4.2
 1 11 6 12.37 3.18
 1 11 7 132.11 6.87
 1 12 -12 19.11 5.46
 1 12 -11 2.64 4.37
 1 12 -10 7.69 4.11
 1 12 -9 2.97 4.58
 1 12 -8 42.14 6.67
 1 12 -7 33.76 6.07
 1 12 -6 13.84 4.41
 1 12 -5 16.63 4.62
 1 12 -4 16.4 4.31
 1 12 -3 9.51 3.87
 1 12 -2 32.06 5.43
 1 12 0 1.97 3.04
 1 12 1 47.85 5.84
 1 12 2 38.6 5.34
 1 12 3 8.5 3.81
 1 12 4 13.18 4.2
 1 12 5 10.04 3.26
 1 12 6 11.1 3.46
 1 12 7 34.6 4.43
 1 13 -10 10.04 5.69
 1 13 -9 -1.15 4
 1 13 -7 7.66 4.29
 1 13 -6 -0.76 4.05
 1 13 -5 20.28 4.99
 1 13 -4 1.53 4.52
 1 13 -3 -1.73 4.2
 1 13 -2 2.12 3.61
 1 13 -1 33.49 5.82
 1 13 0 66.87 6.73
 1 13 1 38.01 5.53
 1 13 2 6.98 4.32
 1 13 3 1.25 3.39
 1 13 4 2.8 3.35
 1 13 5 20.97 4.73
 1 13 6 4.69 3.23
 1 13 7 9.86 3.58
 1 14 -8 0.58 4.88
 1 14 -7 9.88 5.13
 1 14 -6 9.32 4.79
 1 14 -5 151.46 10.29
 1 14 -4 10.79 4.8
 1 14 -3 4.15 4.33
 1 14 -2 8.25 4.82
 1 14 -1 38.95 6.03
 1 14 0 10.85 5.26
 1 14 1 36.13 6.2
 1 14 2 4.6 3.87
 1 14 3 8.75 4.29
 1 14 4 9.9 4.04
 1 14 5 155.72 8.77
 1 14 6 6.21 3.59
 1 14 7 23.4 4.91
 1 15 -4 12.4 5.11
 1 15 -3 10.51 4.93
 1 15 -2 5.18 4.58
 1 15 -1 20.07 5.7
 1 15 0 19.96 5.12
 1 15 1 24.47 5.27
 1 15 2 4.41 4.03
 1 15 3 12.7 5.14
 1 15 4 9.15 4.44
 2 1 -10 80.17 1.83
 2 1 -9 143.51 2.64
 2 1 -8 155.49 2.89
 2 1 -7 44.41 1.71
 2 1 -4 92.96 2.55
 2 1 -3 305.88 4.48
 2 2 -10 25.67 1.7
 2 2 -7 662.55 7.3
 2 2 -6 82.96 2.78
 2 2 -5 611.88 6.99
 2 2 -4 195 4.17
 2 2 -3 285.95 5.05
 2 2 -2 713.43 7.68
 2 2 -1 1.44 1.56
 2 2 0 324.62 5.37
 2 3 -9 10.23 1.59
 2 3 -8 2.36 1.42
 2 3 -7 101.32 3.62
 2 3 -6 412.87 6.77
 2 3 -5 446.05 6.93
 2 3 -4 19.9 2
 2 3 -3 387.06 6.48
 2 3 0 1645.99 12.98
 2 3 1 235.99 5.11
 2 3 2 178.41 4.5
 2 4 -11 35.12 2.73
 2 4 -10 19.66 2.42
 2 4 -9 106.57 4.22
 2 4 -8 22.66 2.55
 2 4 -7 127.1 4.57
 2 4 -6 7.71 1.73
 2 4 -5 95.96 3.92
 2 4 -3 233.66 5.57
 2 4 -2 387.95 7.01
 2 4 -1 46.9 2.78
 2 4 0 2450.23 17.18
 2 4 3 229.67 5.69
 2 5 -11 1.94 1.74
 2 5 -10 16.89 2.44
 2 5 -9 1.9 1.79
 2 5 -8 219.93 6.45
 2 5 -7 95.58 4.33
 2 5 -6 194.37 6.08
 2 5 -5 219.08 6.19
 2 5 -4 141.76 4.91
 2 5 -3 63.53 3.51
 2 5 -1 55.52 3.25
 2 5 0 64.24 3.6
 2 5 1 50.84 3.15
 2 5 3 67.05 3.75
 2 5 4 134.7 4.89
 2 6 -13 -0.48 1.32
 2 6 -12 3.4 2.03
 2 6 -7 205.48 6.91
 2 6 -6 141.43 5.56
 2 6 -4 49.24 3.43
 2 6 -3 19.44 2.62
 2 6 -2 75.94 4.02
 2 6 -1 39.85 3.44
 2 6 0 330.47 7.74
 2 6 1 37.17 3.28
 2 6 2 77.39 4.09
 2 6 3 19.66 2.84
 2 6 4 44.86 3.33
 2 6 5 199.72 6.28
 2 7 -13 78.27 5.08
 2 7 -12 13.35 2.99
 2 7 -11 4.33 3.02
 2 7 -9 41.45 4.15
 2 7 -2 17.58 3.14
 2 7 -1 188.04 6.6
 2 7 0 9.84 2.51
 2 7 1 189.05 6.44
 2 7 2 15.18 2.87
 2 7 3 331.27 8.35
 2 7 4 11.65 2.67
 2 7 5 145.46 5.8
 2 8 -13 23.8 3.77
 2 8 -12 16.69 3.75
 2 8 -11 3.56 2.7
 2 8 -10 48.54 4.84
 2 8 -9 19.72 3.92
 2 8 -5 197.85 7.73
 2 8 -4 10.09 3.08
 2 9 -14 10.72 3.47
 2 9 -13 14.22 4.08
 2 9 -12 9.64 3.54
 2 9 -11 5.51 3.25
 2 9 -10 25.33 4.32
 2 9 -9 80.7 6.29
 2 9 -6 3.78 2.73
 2 9 -5 8.99 3.43
 2 9 -3 19.37 3.51
 2 9 -2 4.58 2.45
 2 9 -1 277.76 8.94
 2 9 0 5.96 2.65
 2 9 1 276.74 8.7
 2 9 2 4.22 2.7
 2 9 4 23.75 3.63
 2 9 5 6.8 2.65
 2 9 6 7.6 2.61
 2 10 -14 16.69 4.49
 2 10 -11 23.43 4.94
 2 10 -10 50.82 6.31
 2 10 -8 3.48 3.25
 2 10 -7 6.89 3.32
 2 10 -5 103.59 6.66
 2 10 -4 6.57 3.18
 2 10 -3 24.25 3.94
 2 10 -1 164.7 7.53
 2 10 1 160.85 7.58
 2 10 2 20.61 3.65
 2 10 3 24.75 3.96
 2 10 4 7.47 2.92
 2 10 5 101.52 6.16
 2 10 6 45.73 4.99
 2 11 -13 4.3 3.87
 2 11 -12 4.22 3.8
 2 11 -11 1.52 3.69
 2 11 -10 17.38 4.63
 2 11 -9 13.39 4.81
 2 11 -8 92.87 7.55
 2 11 -7 14.72 4.73
 2 11 -6 20.54 4.43
 2 11 -5 9.3 3.78
 2 11 -4 9.5 3.64
 2 11 -3 60.41 6.05
 2 11 -1 106.36 7.1
 2 11 0 32.86 4.69
 2 11 1 124.29 7.42
 2 11 2 14.46 3.92
 2 11 3 64.82 5.94
 2 11 4 13.04 4.05
 2 11 5 8.62 3.17
 2 11 6 24.36 4.53
 2 12 -11 -0.5 4.22
 2 12 -10 4.16 3.95
 2 12 -9 7.33 4.81
 2 12 -7 4.72 4.16
 2 12 -6 6.1 4.71
 2 12 -5 105.68 7.75
 2 12 -4 20.69 4.65
 2 12 -3 13.13 4.17
 2 12 -2 71.26 6.67
 2 12 -1 27.42 4.83
 2 12 0 -1.59 3.88
 2 12 1 31.69 5.42
 2 12 2 73.37 6.19
 2 12 4 11.84 4.18
 2 12 5 95.14 7.15
 2 12 6 3.09 3.18
 2 13 -10 30.76 5.84
 2 13 -9 2.72 5.28
 2 13 -8 5.71 4.67
 2 13 -7 14.78 5.41
 2 13 -6 2.1 4.77
 2 13 -5 24.04 5.22
 2 13 -4 70.14 6.81
 2 13 -3 19.49 4.87
 2 13 -2 2.38 3.83
 2 13 -1 34.59 6.07
 2 13 0 12.58 4.26
 2 13 1 34.75 5.42
 2 13 2 0.57 3.64
 2 13 3 21.87 4.83
 2 13 4 67.52 6.94
 2 13 5 13.15 4.74
 2 13 6 4.29 3.59
 2 14 -7 7.87 5.63
 2 14 -6 20.44 5.45
 2 14 -5 10.14 4.94
 2 14 -2 33.98 5.85
 2 14 -1 5.16 4.74
 2 14 0 41.17 6.05
 2 14 1 5.81 4.12
 2 14 2 38.07 5.8
 2 14 4 46.41 6.17
 2 14 5 6.88 4.02
 2 15 -3 9.48 4.97
 2 15 -2 48.59 7.14
 2 15 -1 -0.88 4.96
 2 15 0 27.82 5.93
 2 15 1 4.17 4.28
 2 15 2 44.69 6.22
 2 15 3 10.2 4.89
 3 3 -9 139.58 4.26
 3 3 -8 10.89 1.72
 3 3 -7 12.65 1.85
 3 3 -6 29.86 2.52
 3 3 -5 184.47 4.96
 3 3 -4 134.06 4.47
 3 3 -3 1.95 1.43
 3 3 -2 386.82 7.31
 3 4 -10 22.34 2.5
 3 4 -9 65.83 3.57
 3 4 -8 15.65 2.45
 3 4 -7 86.16 4.1
 3 4 -5 2.47 1.75
 3 4 -4 149.88 4.97
 3 4 -3 26.76 2.85
 3 4 -1 51.46 3.32
 3 4 0 377.92 7.82
 3 5 -10 28.3 3.36
 3 5 -9 45.19 3.64
 3 5 -8 14.69 2.5
 3 5 -6 145.91 5.58
 3 5 -5 39.05 3.46
 3 5 -2 366.67 8.14
 3 5 -1 27.22 2.97
 3 5 0 136.99 5.17
 3 5 1 29.71 2.8
 3 5 2 362.56 8.2
 3 6 -11 20.71 3.19
 3 6 -2 49 4.11
 3 6 -1 71.75 4.62
 3 6 0 129.66 5.45
 3 6 1 65.77 4.1
 3 6 2 41.8 3.51
 3 7 -12 24.87 3.5
 3 7 -11 2.46 2.39
 3 7 -10 64.92 4.81
 3 7 -9 84.27 5.44
 3 7 -8 147.16 6.49
 3 7 -7 43.99 4.04
 3 7 -6 76.38 5.15
 3 8 -12 53.2 4.97
 3 8 -11 12.69 3.55
 3 8 -10 149.87 7.44
 3 8 -9 5.45 2.86
 3 8 -8 86.09 5.96
 3 8 -6 24.1 3.67
 3 8 -5 26.16 4.14
 3 8 -3 2.94 2.31
 3 8 -2 26.81 3.63
 3 8 0 42.7 4.12
 3 8 1 47.89 4.46
 3 8 2 28.63 3.7
 3 8 3 0.19 2.09
 3 8 4 -0.69 2.28
 3 9 -11 22.14 4.49
 3 9 -10 8.95 4.06
 3 9 -9 11.55 3.47
 3 9 -8 89.72 6.6
 3 9 -7 16.74 3.82
 3 9 -6 23.26 3.94
 3 9 -5 2.38 3
 3 9 -4 0.26 3.21
 3 9 -2 38.61 4.39
 3 9 -1 99.62 6.17
 3 9 0 12.64 3.33
 3 9 2 41.87 5.21
 3 9 3 10.99 3.07
 3 9 4 2.23 2.65
 3 10 -13 4.74 4
 3 10 -12 41.3 5.41
 3 10 -11 5.21 3.5
 3 10 -10 40.7 5.35
 3 10 -9 12.6 4.62
 3 10 -8 1.82 3.43
 3 10 -7 6.02 3.55
 3 10 -6 21.71 4.74
 3 10 -5 63 5.63
 3 10 -4 17.74 3.9
 3 10 -3 46.38 5.02
 3 10 -2 22.65 4.35
 3 10 -1 33.86 4.51
 3 10 0 25.34 4.16
 3 10 1 41.67 4.67
 3 10 2 26.4 4.18
 3 10 3 39.32 4.7
 3 11 -12 13.68 4.19
 3 11 -11 22.87 4.7
 3 11 -10 20.28 4.62
 3 11 -9 10.56 4.8
 3 11 -7 42.54 5.94
 3 11 -6 14.82 5.01
 3 11 -5 38.86 5.28
 3 11 -4 10.93 3.78
 3 11 -3 5.38 3.59
 3 11 -2 16.23 4.04
 3 11 0 84.16 6.9
 3 11 1 87.53 6.99
 3 11 2 18.9 4.79
 3 11 3 -0.28 3.01
 3 11 4 5.21 3.49
 3 12 -11 0.53 3.74
 3 12 -9 16.22 4.82
 3 12 -8 1.3 4.7
 3 12 -7 102.18 8.48
 3 12 -5 64.52 6.94
 3 12 -3 16.2 4.45
 3 12 -2 27.93 5.11
 3 12 -1 23.49 5.39
 3 12 0 6.89 3.72
 3 12 1 20.57 4.53
 3 12 2 28.29 4.95
 3 12 3 10.99 4.77
 3 12 4 1.6 3.44
 3 13 -9 19.18 5.5
 3 13 -8 9.13 4.87
 3 13 -7 9.09 4.75
 3 13 -6 0.88 4.24
 3 13 -5 91.03 8.3
 3 13 -4 21.88 5.64
 3 13 -3 19.32 5.19
 3 13 -2 29.97 5.79
 3 13 -1 1.67 3.9
 3 13 0 112.19 8.73
 3 13 1 4.31 4.04
 3 13 2 31.07 5.41
 3 13 3 14.07 4.97
 3 13 4 19.72 4.88
 3 14 -5 -3.49 4.42
 3 14 -3 10.98 4.92
 3 14 -2 4.96 4.41
 3 14 -1 7.79 4.78
 3 14 0 24.97 5.65
 3 14 1 3.3 5.16
 3 14 2 2.39 4.94
 3 14 3 12.45 5.13
 4 6 -10 2.31 2.1
 4 6 -9 8.77 2.8
 4 6 -8 2.56 2.48
 4 6 -7 42.49 4.29
 4 6 -6 -0.53 1.98
 4 6 -5 35.4 3.79
 4 7 -11 13.76 3.09
 4 7 -9 22.76 3.69
 4 7 -8 -0.27 2.48
 4 7 -7 2.29 2.97
 4 7 -6 71.91 5.22
 4 7 -5 6.51 2.89
 4 7 -4 5.34 2.64
 4 7 -3 80.52 5.14
 4 7 -2 7.89 3.16
 4 7 -1 4.03 2.39
 4 7 0 17.79 3.21
 4 8 -11 26.73 3.99
 4 8 -10 12.86 3.66
 4 8 -8 137.02 7.52
 4 8 -7 6.59 3.43
 4 8 -6 9.92 3.62
 4 8 -5 56.05 4.99
 4 8 -4 30.91 4.19
 4 8 -3 73.05 5.41
 4 8 -2 1.34 2.51
 4 8 -1 25.35 3.87
 4 8 0 59.35 5.43
 4 8 1 25.93 4.28
 4 9 -12 14.65 3.8
 4 9 -11 -0.06 3.04
 4 9 -9 62.69 6.2
 4 9 -8 55.38 5.41
 4 9 -7 49.11 5.61
 4 9 -6 51.38 5.3
 4 9 -5 23.58 4.9
 4 9 -4 9.83 3.49
 4 9 -3 6.7 3.19
 4 9 -2 18.45 4.29
 4 9 -1 137.41 7.27
 4 9 0 2.63 3.38
 4 10 -12 3.7 3.32
 4 10 -11 55.3 6.18
 4 10 -10 6.87 3.73
 4 10 -9 15.32 4.35
 4 10 -7 15.92 4.26
 4 10 -6 61.05 5.86
 4 10 -5 14.92 4.46
 4 10 -4 36.08 4.91
 4 10 -3 30.62 4.83
 4 10 -2 2.29 3.1
 4 10 -1 144.95 8.39
 4 11 -10 11.31 4.46
 4 11 -9 5.8 4.77
 4 11 -8 31.51 5.39
 4 11 -7 62.79 6.74
 4 11 -5 25.86 5.07
 4 11 -4 5.09 4.07
 4 11 -3 47.22 6.21
 4 11 -1 43.12 5.98
 4 11 0 -4.01 3.34
 4 11 1 36.64 5.46
 4 12 -9 -2.79 4.01
 4 12 -8 29.41 5.57
 4 12 -7 16.67 4.95
 4 12 -6 39.25 5.93
 4 12 -5 31.7 6.23
 4 12 -4 24.59 5.21
 4 12 -3 -0.39 3.66
 4 12 -2 28.13 5.36
 4 12 -1 22.96 5.23
 4 12 0 -1.79 3.72
 4 12 1 10.56 4.8
 4 13 -6 1.83 4.45
 4 13 -5 -0.67 4.88
 4 13 -4 4.85 4.32
 4 13 -3 16.6 5.11
 4 13 -2 1.91 4.12
 4 13 -1 7.69 4.41
 4 13 0 11.09 5.62
 4 13 1 10.64 4.81
 4 14 -1 17.31 5.8
 4 14 0 22.87 6.13
 5 9 -7 -1.11 3.67
 5 9 -6 30.99 5.05
 5 9 -5 4.75 3.49
 5 10 -9 25.07 4.98
 5 10 -8 26.42 5.33
 5 10 -7 5.34 3.81
 5 10 -6 19.33 4.71
 5 10 -4 28.11 5.03
 5 11 -9 12.51 4.57
 5 11 -8 29.12 5.51
 5 11 -7 1.4 3.82
 5 11 -6 32.91 5.7
 5 11 -4 17.49 4.9
 5 12 -6 16.82 5.72
 5 12 -5 20.67 5.63
 -6 -1 1 37.02 2.42
 -6 0 0 34.27 2.79
 -6 0 1 89.97 3.55
 -6 1 -1 41.23 3.09
 -6 1 0 110.35 4.47
 -6 1 1 38.82 2.7
 -6 2 -2 193.07 6.66
 -6 2 -1 41.91 3.4
 -6 2 0 18.08 2.55
 -6 2 1 43.53 3.05
 -6 3 -1 84.68 4.75
 -6 3 0 160.84 5.98
 -6 3 1 85.93 4.37
 -5 -4 3 41.14 1.45
 -5 -1 2 12.58 1.42
 -5 0 1 17.53 1.97
 -5 0 2 0 0.78
 -5 1 0 134.72 4.52
 -5 1 1 68.07 3.22
 -5 2 -1 77.3 3.86
 -5 2 0 100.61 4.2
 -5 2 1 78.96 3.62
 -5 2 2 68.76 3.28
 -5 3 -3 51.18 3.86
 -5 3 -2 57.66 3.76
 -5 3 -1 112.24 5
 -5 3 0 11.6 2.11
 -5 3 1 124.61 4.79
 -5 4 -2 3.7 2.05
 -5 4 -1 130.6 5.54
 -5 4 0 19.3 2.76
 -4 -8 2 2.74 1.38
 -4 -7 2 6.87 1.62
 -4 -7 4 7.05 1.4
 -4 -6 3 119.45 3.67
 -4 -6 4 7.24 1.26
 -4 -5 3 1.83 0.85
 -4 -5 4 102.02 2.47
 -4 -4 3 77.01 2.3
 -4 -1 3 34.39 1.12
 -4 0 2 55.3 2.09
 -4 1 1 124.61 3.67
 -4 1 2 -0.09 0.77
 -4 2 0 74.7 3.37
 -4 2 1 0.9 1.17
 -4 2 2 512.28 7.51
 -4 3 -2 30.46 2.8
 -4 3 -1 231.12 6.11
 -4 3 0 873.8 11.22
 -4 4 -4 257.71 7.57
 -4 4 -3 66.96 4.03
 -4 4 -2 329.16 7.9
 -4 4 0 724.1 11.11
 -4 5 -2 60.05 4.08
 -4 5 -1 270.7 7.75
 -4 5 0 8.35 2.56
 -4 6 -1 188.47 6.79
 -3 -9 3 8.92 2.18
 -3 -9 4 2.39 1.71
 -3 -8 2 27.38 2.6
 -3 -8 3 3.05 1.37
 -3 -8 4 1.21 1.15
 -3 -7 2 34.69 2.75
 -3 -7 3 28 2.44
 -3 -7 4 104.38 3.78
 -3 -6 3 80.59 3.24
 -3 -5 3 60.94 2.51
 -3 -5 4 422.87 5.7
 -3 -4 3 30.23 1.64
 -3 -3 3 3.06 0.56
 -3 0 2 95.01 2.18
 -3 1 2 156.59 3.28
 -3 2 0 500.43 7.18
 -3 2 1 128.73 3.69
 -3 3 -2 383.86 7.38
 -3 3 -1 60.58 3.24
 -3 3 0 134.02 4.35
 -3 3 1 55.82 3.07
 -3 4 -4 152.64 5.51
 -3 4 -3 27.8 2.99
 -3 4 -2 12.81 2.19
 -3 4 0 362.65 7.42
 -3 5 -6 139.87 5.91
 -3 5 -5 31.73 3.78
 -3 5 -4 409.11 9.12
 -3 5 -2 366.99 8.38
 -3 5 -1 30.21 3.43
 -3 6 -4 72.77 4.96
 -3 6 -3 80.92 4.64
 -3 6 -2 47.25 3.92
 -2 -9 0 6.46 2.38
 -2 -9 1 269.74 7.76
 -2 -9 2 3.96 2.34
 -2 -9 3 17.76 2.74
 -2 -8 2 119.05 5.04
 -2 -8 4 12.81 2.27
 -2 -7 2 18.35 2.35
 -2 -7 4 12.19 2.01
 -2 -6 2 78.55 3.38
 -2 -6 3 14.57 1.81
 -2 -6 4 43.91 2.63
 -2 -5 2 181.49 4.42
 -2 -5 3 62.47 2.61
 -2 -5 4 130.48 3.55
 -2 -4 3 228.42 4.13
 -2 0 2 828.25 4.53
 -2 1 1 440.25 4.85
 -2 2 0 319.54 5.12
 -2 2 1 0.55 0.86
 -2 3 -2 176.44 4.87
 -2 3 -1 240.73 5.22
 -2 3 0 1640.76 12.97
 -2 4 -4 214.85 5.92
 -2 4 -3 220.87 5.74
 -2 4 -1 47.81 2.81
 -2 4 0 2384.76 17.51
 -2 5 -7 97.28 4.84
 -2 5 -6 187.95 6.23
 -2 5 -5 219.78 6.54
 -2 5 -4 131.44 5.05
 -2 5 -2 188.95 5.95
 -2 5 -1 54.75 3.28
 -2 6 -7 210.98 7.17
 -2 6 -6 144.11 5.87
 -2 6 -5 190.77 6.68
 -2 6 -4 48 3.66
 -2 6 -3 14.3 2.77
 -2 7 -5 137.72 6.03
 -2 7 -4 10.96 2.49
 -1 -9 1 62.59 4.18
 -1 -9 2 136.72 5.76
 -1 -9 3 66.55 4.57
 -1 -8 0 37.41 3.37
 -1 -8 1 211.04 6.84
 -1 -8 2 53.75 3.63
 -1 -8 3 8.09 2.05
 -1 -7 1 120.26 4.91
 -1 -7 2 40.56 3.08
 -1 -7 3 18.05 2.39
 -1 -6 2 22.98 2.59
 -1 -5 2 521.95 7.68
 -1 -5 3 314.17 5.97
 -1 -4 2 101.85 3.11
 -1 -2 2 138.45 2.33
 -1 1 0 960.4 6.19
 -1 2 -1 331.51 4.72
 -1 2 0 850.91 7.26
 -1 3 -3 51.34 2.59
 -1 3 -2 414.47 6.31
 -1 3 -1 122.29 3.52
 -1 4 -5 379.76 7.36
 -1 4 -4 199.95 5.19
 -1 4 -3 45.87 2.76
 -1 4 -2 96.26 3.61
 -1 4 -1 88.61 3.53
 -1 5 -10 56.14 3.85
 -1 5 -9 22.91 2.99
 -1 5 -8 116.69 5.06
 -1 5 -7 6.63 1.99
 -1 5 -5 28.21 2.82
 -1 5 -2 489.94 8.56
 -1 6 -9 10.52 2.49
 -1 6 -8 61.52 4.41
 -1 6 -7 183.64 6.47
 -1 6 -6 61.46 3.91
 -1 6 -5 11.35 2.24
 -1 6 -4 134.07 5.34
 -1 7 -7 56.3 4.18
 -1 7 -6 140.45 6
 -1 7 -5 6.4 2.25
 0 -8 -1 339.45 8.58
 0 -8 0 71.09 4.54
 0 -8 1 357.67 8.67
 0 -8 3 36.45 3.2
 0 -7 0 2.42 1.73
 0 -7 1 615.34 10.54
 0 -7 2 6.1 2.08
 0 -6 0 472.08 8.74
 0 -6 2 6.87 1.76
 0 -6 3 13.32 2.07
 0 -5 0 -0.08 1.29
 0 -5 1 33.48 2.38
 0 -4 1 3.41 1.42
 0 -2 1 5.02 0.88
 0 1 -1 19.56 0.87
 0 2 -2 330.12 4.26
 0 2 -1 4.93 0.92
 0 3 -4 346.86 5.56
 0 3 -3 965.72 8.78
 0 3 -2 348.18 5.26
 0 4 -7 27.71 2.44
 0 4 -3 1124.28 10.76
 0 5 -11 -0.38 1.48
 0 5 -10 68.96 3.88
 0 5 -9 10.7 2.14
 0 5 -7 12.24 2.02
 0 5 -6 57.48 3.34
 0 5 -5 867.06 10.93
 0 5 -4 27.49 2.39
 0 6 -10 30.02 3.42
 0 6 -9 162.06 5.96
 0 6 -8 21.16 3.02
 0 6 -7 248.08 6.74
 0 6 -6 461.7 8.99
 0 7 -8 146.02 5.94
 1 -8 -4 107.05 5.67
 1 -8 -1 194.77 6.7
 1 -8 0 33.75 3.79
 1 -8 1 207.77 6.84
 1 -7 -3 19.96 2.83
 1 -7 -2 36.8 3.08
 1 -7 -1 116.6 4.97
 1 -7 1 127.55 5.09
 1 -6 -2 20.24 2.56
 1 -5 -2 506.38 8.38
 1 -5 -1 34.9 2.55
 1 -5 0 7.87 2.15
 1 -4 -1 93.86 3.5
 1 -4 0 545.1 7.75
 1 -4 1 94.52 3.49
 1 -3 -1 129.11 3.49
 1 -3 0 24.38 1.76
 1 -2 0 867.02 7.17
 1 -1 -1 244.19 2.94
 1 3 -7 57.73 2.4
 1 3 -6 145.51 3.51
 1 3 -4 399.17 5.22
 1 4 -13 53.92 3.41
 1 4 -11 11.34 1.79
 1 4 -10 244.95 5.8
 1 4 -9 1.41 1.31
 1 4 -8 23.54 1.98
 1 4 -7 51.66 2.66
 1 4 -5 393.35 6.21
 1 5 -12 1.6 1.3
 1 5 -11 33.16 2.82
 1 5 -10 50.44 3.12
 1 5 -9 25.35 2.54
 1 5 -8 124.89 4.26
 1 5 -7 4.98 1.42
 1 6 -11 8.41 1.92
 1 6 -10 167.15 5.64
 1 6 -9 10.85 2.06
 2 -8 -1 108.04 5.44
 2 -8 0 50.73 4.09
 2 -7 -6 3.32 2.08
 2 -7 -4 14.32 2.57
 2 -7 -2 19.66 2.93
 2 -7 -1 191.97 6.49
 2 -7 0 9.58 2.27
 2 -6 -5 193.28 6.38
 2 -6 -4 47.54 3.34
 2 -6 -3 15.41 2.33
 2 -6 -2 77.01 4.24
 2 -6 -1 39.22 2.99
 2 -6 0 328.93 7.6
 2 -4 -2 385.74 6.91
 2 -4 -1 43.05 2.62
 2 -3 -4 20.47 1.95
 2 -3 -3 383.79 6.11
 2 -3 -2 179.78 4.28
 2 -2 -4 200.58 3.98
 2 -2 -3 294.04 4.54
 2 -2 -2 712.89 6.93
 2 -1 -4 94.37 2.15
 2 -1 -3 322.6 3.76
 2 2 -8 1.04 0.55
 2 2 -7 682.12 5.34
 2 3 -10 66.71 2.51
 2 3 -9 9.02 1.13
 2 3 -8 0.89 0.62
 2 4 -10 19.11 1.61
 3 -7 -5 46.15 3.62
 3 -7 -4 108.34 4.99
 3 -7 -3 28.34 3.08
 3 -6 -10 100.23 4.81
 3 -6 -8 121.66 5.24
 3 -6 -7 30.77 3.26
 3 -6 -6 96.5 4.49
 3 -6 -5 58.44 3.66
 3 -6 -4 80.76 4.35
 3 -6 -3 85.05 4.25
 3 -5 -10 31.22 2.84
 3 -5 -9 41.63 3.24
 3 -5 -8 17.93 2.41
 3 -5 -6 142.7 5.07
 3 -5 -5 37.77 2.85
 3 -5 -4 424.95 8.2
 3 -5 -3 59.58 3.3
 3 -4 -8 15.11 2.03
 3 -4 -7 88.29 3.76
 3 -4 -6 241.23 5.72
 3 -4 -5 3.48 1.31
 3 -4 -3 29.11 2.33
 3 -3 -8 6.51 1.24
 3 -3 -7 12.67 1.58
 3 -3 -6 31.95 2.13
 3 -2 -5 28.05 1.68
 3 -1 -8 19.02 1.21
 3 -1 -7 195.39 3.06
 4 -6 -7 36.29 3.18
 4 -5 -7 81.89 3.8
 -1 -10 3 28.28 3.59
 -1 -10 4 18.21 3.34
 -1 -10 5 75.91 4.48
 -1 -9 -1 61.57 4.77
 -1 -9 0 566.48 12.04
 -1 -9 1 63.98 4.84
 -1 -9 2 131.11 6.03
 -1 -9 3 66.76 4.45
 -1 -9 4 118.55 5.39
 -1 -9 5 23.25 2.81
 -1 -9 6 11.16 2.11
 -1 -8 -4 100.71 5.95
 -1 -8 -2 47.35 4.1
 -1 -8 -1 200.4 7.04
 -1 -8 0 40.69 3.63
 -1 -8 2 52.02 3.59
 -1 -8 3 6.62 1.9
 -1 -8 4 114.1 4.69
 -1 -8 5 27.45 2.78
 -1 -8 6 36.06 2.67
 -1 -8 7 101.36 3.56
 -1 -7 -6 143.48 6.91
 -1 -7 -5 7.22 2.72
 -1 -7 -4 244.04 7.92
 -1 -7 -3 18.52 3.09
 -1 -7 -2 39.71 3.97
 -1 -7 -1 122.21 5.28
 -1 -7 0 451.11 9.25
 -1 -7 2 34.18 2.88
 -1 -7 3 21.94 2.58
 -1 -7 4 246.33 5.97
 -1 -7 5 6.25 1.56
 -1 -7 6 155.87 4.24
 -1 -7 7 53.05 2.36
 -1 -6 -6 59.03 4.5
 -1 -6 -5 8.84 2.68
 -1 -6 -3 113.53 5.32
 -1 -6 -2 18.22 2.65
 -1 -6 -1 63.67 3.67
 -1 -6 3 109.02 3.91
 -1 -6 4 133.35 4.02
 -1 -6 5 14.46 1.76
 -1 -6 6 61.2 2.41
 -1 -5 -2 513.5 9.18
 -1 -5 -1 33.01 2.64
 -1 -5 0 8.57 2.05
 -1 -5 1 32.49 2.65
 -1 -5 2 498.19 7.27
 -1 -5 3 307.13 5.49
 -1 -5 5 27.78 1.63
 -1 -5 6 107.38 2.47
 -1 -4 -4 205.17 6.1
 -1 -4 -3 48.18 3.42
 -1 -4 -2 98.02 4.01
 -1 -4 -1 87.14 3.89
 -1 -4 0 523.65 7.54
 -1 -4 1 85.88 3.07
 -1 -4 2 97.51 3.12
 -1 -4 3 47.59 2.06
 -1 -4 4 198.37 3.43
 -1 -4 5 386.49 4.1
 -1 -3 -1 128.83 3.9
 -1 -3 0 24.77 1.85
 -1 -3 1 129.59 3.36
 -1 -3 3 53.1 1.73
 0 -10 3 26.17 3.8
 0 -10 4 -0.12 2.29
 0 -10 5 48.54 3.97
 0 -9 -1 173.88 7.51
 0 -9 1 175.9 6.96
 0 -9 2 8.46 2.46
 0 -9 3 22.1 3.23
 0 -9 4 27.98 3.22
 0 -9 5 51.64 3.8
 0 -9 6 9.42 2.12
 0 -9 7 1.55 1.62
 0 -8 -4 -0.73 2.22
 0 -8 -3 33.58 3.78
 0 -8 -2 431.8 10.26
 0 -8 -1 348.01 9.08
 0 -8 0 67.11 4.55
 0 -8 1 353.13 8.72
 0 -8 3 40.49 3.68
 0 -8 4 -0.45 1.47
 0 -8 5 41.97 3.15
 0 -8 6 87.49 4.09
 0 -8 7 45.43 2.93
 0 -8 8 10.94 1.73
 0 -7 -6 11.78 3.64
 0 -7 -5 628.13 12.53
 0 -7 -4 1.94 2.1
 0 -7 -2 7.24 2.31
 0 -7 -1 604.23 11.17
 0 -7 0 -1.05 2.02
 0 -7 1 596.5 10.31
 0 -7 2 6.89 1.92
 0 -7 3 376.77 7.81
 0 -7 4 4.05 1.59
 0 -7 5 625.27 9.41
 0 -7 6 13.67 1.97
 0 -7 7 20.45 2.05
 0 -7 8 136.22 3.91
 0 -7 9 51.67 2.34
 0 -6 -8 14.87 3.12
 0 -6 -7 243.19 8.22
 0 -6 -6 464.6 10.34
 0 -6 -5 269.53 7.67
 0 -6 -4 29.19 3.1
 0 -6 -3 13.8 2.52
 0 -6 -2 6.6 2.11
 0 -6 -1 194.74 5.96
 0 -6 1 196.96 5.62
 0 -6 2 5.49 2
 0 -6 3 11.77 1.86
 0 -6 4 32.47 2.43
 0 -6 8 15.58 1.46
 0 -6 9 172.28 3.59
 0 -6 10 26.17 1.35
 0 -5 -9 8.69 3.33
 0 -5 -8 711.7 12.68
 0 -5 -7 16.04 2.9
 0 -5 -6 55.98 4.02
 0 -5 -3 61.71 3.56
 0 -5 -2 174.71 5.28
 0 -5 -1 30.99 2.8
 0 -5 0 2.01 1.46
 0 -5 1 34.47 2.57
 0 -4 -8 0.67 1.78
 0 -4 -7 30.98 2.97
 0 -4 -6 18.66 2.45
 0 -4 -5 10.43 2.06
 0 -4 -4 12.95 1.97
 0 -4 -3 1109.41 12.07
 0 -4 -2 198.64 5.03
 0 -4 -1 2.42 1.48
 0 -4 0 2800.77 16.59
 0 -3 -6 230.12 5.84
 0 -3 -5 225.71 5.74
 0 -3 -4 352.6 6.52
 0 -3 -2 342.1 5.75
 0 -3 -1 404.48 5.86
 0 -3 0 1.12 0.81
 0 -3 9 11.09 1.28
 0 -3 10 90.81 2.23
 0 -3 11 38.86 1.48
 0 -2 -6 485.35 7.71
 0 -2 -5 1176.09 11.19
 0 -2 -4 1268.89 10.78
 0 -2 -3 423.41 5.98
 0 -2 -2 326.92 4.82
 0 -2 -1 5.24 1.03
 0 -2 8 2.74 0.87
 0 -2 9 91 2.55
 0 -2 10 44.04 1.98
 0 -2 11 4.69 1.04
 0 -1 -4 1888.85 11.43
 0 -1 -2 4139.14 13.41
 0 -1 -1 21.99 1.1
 0 -1 6 113.74 2.62
 0 -1 8 0.06 0.86
 0 -1 9 22.52 1.76
 0 -1 10 51.64 2.35
 0 -1 11 49.38 2.4
 0 0 3 0.12 0.63
 0 0 4 1757.42 8.98
 0 0 5 1.84 0.85
 0 0 6 533.4 6.09
 0 0 7 0.1 0.86
 0 0 8 9.11 1.51
 0 0 9 -0.49 0.86
 0 0 10 359.41 6.26
 0 0 11 -0.86 1.17
 0 1 2 4143.42 13.22
 0 1 4 1904.13 11.14
 0 1 5 1453.04 10.67
 0 1 6 109.51 3.28
 0 1 7 51.56 2.61
 0 1 8 -0.39 1
 0 1 9 22.08 2.34
 0 1 10 53.65 3.05
 0 2 2 337 4.83
 0 2 3 434.38 5.98
 0 2 4 1289.23 10.51
 0 2 5 1177.33 10.8
 0 2 7 1538.7 13.55
 0 3 4 351.12 6.1
 0 3 5 216.18 5.12
 0 3 6 232.28 5.51
 0 3 7 27.99 2.82
 1 -9 1 61.89 4.95
 1 -9 2 137.96 6.31
 1 -9 3 67.51 4.4
 1 -9 4 126.63 5.71
 1 -8 -3 8.06 2.88
 1 -8 -2 50.35 4.1
 1 -8 -1 210.07 7.51
 1 -8 0 35.62 4.24
 1 -7 -6 155.49 7.14
 1 -7 -4 238.82 7.62
 1 -7 -3 18.54 3.07
 1 -7 -2 38.01 3.49
 1 -7 -1 117.27 5.03
 1 -6 -9 12.69 3.09
 1 -6 -8 55.91 4.37
 1 -6 -7 174.46 6.73
 1 -6 -6 56.41 4.15
 1 -6 -5 9.69 2.45
 1 -6 -4 127.33 5.67
 1 -6 -3 114.82 5.02
 1 -5 -11 36.02 3.91
 1 -5 -10 59.05 4.93
 1 -5 -8 125.5 5.52
 1 -5 -7 8 2.79
 1 -5 -6 107.48 4.85
 1 -5 -5 32.65 3.08
 1 -5 -4 184.75 6.11
 1 -5 -3 306.29 6.87
 1 -4 -11 16.39 2.96
 1 -4 -10 249.9 7.71
 1 -4 -9 3 2.42
 1 -4 -7 51.04 3.68
 1 -4 -6 129.32 5.02
 1 -4 -4 198.21 5.61
 1 -3 -10 0.91 2
 1 -3 -9 755.49 11.49
 1 -3 -8 16.76 2.5
 1 -3 -5 365.92 6.77
 1 -3 -4 381.6 6.71
 1 -3 12 4.98 1.54
 1 -2 -9 138.9 4.68
 1 -2 -8 107.4 4.05
 1 -2 -7 983.67 10.7
 1 -2 -6 16.23 1.96
 1 -2 -5 139.22 3.93
 1 -2 11 130.66 4.45
 1 -2 12 3.11 1.5
 1 -1 -8 82.38 3.07
 1 -1 -7 121.93 3.43
 1 -1 -6 597.89 7.02
 1 -1 -5 355.83 5.09
 1 -1 9 518.81 8.27
 1 -1 10 14.75 2.01
 1 -1 11 21.18 2.57
 1 -1 12 49.88 3.19
 1 -1 13 5.34 1.86
 1 0 8 -0.37 1.17
 1 0 9 246.56 6
 1 0 11 5.08 1.86
 1 0 12 7.12 1.93
 1 0 13 19.2 2.64
 1 1 5 356.67 6.45
 1 1 6 630.88 8.7
 1 1 7 125.82 4.5
 1 1 8 84.8 3.69
 1 1 9 535.8 9.17
 1 1 10 13.1 2.18
 1 1 13 5 1.94
 1 2 -1 348.7 4.17
 1 2 1 343.71 5.27
 1 2 3 1029.52 10.15
 1 2 4 117.83 3.85
 1 2 5 141.16 4.4
 1 2 7 981.53 11.86
 1 2 9 137.62 5.32
 1 2 10 19.46 2.58
 1 2 11 126.29 5.15
 1 2 12 3.54 1.9
 1 2 14 30.19 3.63
 1 3 -2 418.81 4.85
 1 3 -1 121.17 3.08
 1 3 0 25.36 1.83
 1 3 1 124.37 3.52
 1 3 2 417.97 6.8
 1 3 3 56.45 2.96
 1 3 4 387.39 7.35
 1 3 5 366.64 7.25
 1 3 6 158.32 5.38
 1 3 8 16.41 2.73
 1 3 9 748.25 11.99
 1 3 10 1.82 1.86
 1 3 11 16.73 2.78
 1 3 12 4.45 2.16
 1 4 -1 88.72 3.09
 1 4 0 525.9 7.43
 1 4 2 98.89 4.12
 1 4 3 45.28 3
 1 4 4 200.06 5.54
 1 4 5 381.76 7.9
 1 4 7 54.39 3.83
 1 4 8 25.34 3.07
 1 4 9 2.04 2.31
 1 4 11 14.02 2.85
 1 5 6 103.52 4.98
 1 5 7 9.17 2.37
 1 5 9 19.27 3.03
 1 6 4 135.56 5.14
 1 6 5 9.36 2.3
 1 6 6 53.81 4.01
 1 6 8 51.01 4.07
 2 -6 -8 11.28 2.88
 2 -6 -7 205.28 7.51
 2 -6 -6 142.27 6.48
 2 -6 -5 198.02 6.86
 2 -5 -10 14.33 2.98
 2 -5 -9 0.99 2
 2 -5 -8 199.2 6.82
 2 -5 -7 91.74 4.72
 2 -5 -6 192.61 6.5
 2 -4 -12 15.69 2.98
 2 -4 -11 36.55 3.41
 2 -4 -9 106.84 4.94
 2 -4 -7 132.11 5.3
 2 -4 -6 9.95 2.03
 2 -3 -12 37.36 3.15
 2 -3 -10 69.03 3.95
 2 -3 -9 10.29 1.99
 2 -3 -8 0.38 1.82
 2 -3 -7 107.28 4.26
 2 -2 -11 76.59 3.72
 2 -2 -10 25.27 2.39
 2 -2 -9 26.64 2.51
 2 -2 -8 2.14 1.31
 2 -2 -7 683.4 9.18
 2 -2 12 19 2.68
 2 -2 13 28 3.5
 2 -1 -7 44.65 2.23
 2 -1 11 38.12 3.35
 2 -1 12 82.54 4.45
 2 -1 13 4.13 2.03
 2 0 -9 11.3 1.27
 2 0 -8 1.25 0.65
 2 0 -7 -0.65 0.61
 2 0 11 149.92 6.05
 2 0 12 33.66 3.57
 2 0 13 19.58 2.91
 2 1 8 158.05 5.69
 2 1 9 141.34 5.79
 2 1 10 88.58 4.68
 2 1 11 37.3 3.69
 2 1 12 86.56 5.07
 2 2 6 91.4 4.35
 2 2 7 689.25 11.28
 2 2 8 -0.8 1.77
 2 2 11 66.52 4.35
 2 3 -4 20.28 1.15
 2 3 -3 379.06 5.05
 2 3 -1 237.87 4.93
 2 3 0 1665.07 13.35
 2 3 1 232.35 5.41
 2 3 2 178.99 5.26
 2 3 3 369.43 7.53
 2 3 8 2.54 1.99
 2 3 9 9.31 2.98
 2 3 10 70.56 4.53
 2 4 -4 220.89 3.77
 2 4 -3 227.46 4.33
 2 4 -1 47.73 2.62
 2 4 0 2394.33 16.81
 2 4 1 42.72 2.81
 2 4 2 385.59 7.67
 2 4 6 8.27 2.14
 2 4 8 17.04 2.93
 2 5 4 141.37 5.48
 2 5 5 230.01 7.28
 2 5 6 181.39 6.66
 2 5 7 96.78 5.37
 2 5 8 202.95 7.62
 2 6 0 328.13 7.44
 2 6 1 34.35 3.27
 2 6 2 73.33 4.04
 2 6 3 14.56 2.5
 2 6 4 45.39 3.94
 2 6 6 128.84 5.78
 2 6 7 204.94 7.57
 2 7 1 186.42 6.1
 2 7 2 18.29 2.77
 2 7 3 325.88 8.62
 2 7 4 8.55 2.86
 3 -5 -9 46.51 4.01
 3 -5 -8 15.24 2.92
 3 -4 -11 5.34 2.02
 3 -4 -10 20.05 2.88
 3 -4 -9 63.99 4.1
 3 -3 -11 37.95 3.22
 3 -3 -10 0.38 1.77
 3 -3 -9 140.98 5.38
 3 -3 -8 7.24 1.88
 3 -2 -10 71.54 3.59
 3 -1 -10 8.97 1.4
 3 0 -9 688.38 7.45
 3 0 -8 8.03 1.17
 3 1 -8 21.03 1.22
 3 1 10 11.46 2.89
 3 2 8 82.15 5.2
 3 2 9 126.87 6.04
 3 3 -6 32.12 1.36
 3 3 -5 187.98 3.79
 3 3 6 32.21 3.35
 3 3 7 14.93 2.91
 3 3 8 10.57 3.32
 3 4 -6 241.35 3.29
 3 4 -5 1.06 0.74
 3 4 0 364.84 7.73
 3 4 1 49.92 3.6
 3 4 2 11.3 2.62
 3 4 3 33.72 3.19
 3 4 4 153.18 5.94
 3 4 5 1.69 2.1
 3 4 6 234.32 7.66
 3 5 -2 371.76 7.36
 3 5 -1 26.47 2.58
 3 5 0 132.98 4.95
 3 5 1 28.05 3.04
 3 5 2 353.97 8.35
 3 5 3 55.07 3.93
 3 5 5 28.86 3.5
 3 5 6 136.26 6.09
 3 6 -4 77.49 3.14
 3 6 -2 45.62 3.13
 3 6 -1 67.53 3.89
 3 6 0 133.6 5.49
 3 6 1 68.87 4.35
 3 6 2 49.21 4.25
 3 6 4 80.3 4.9
 3 7 -1 86.34 4.52
 3 7 0 0.87 1.72
 3 7 1 77.3 4.8
 3 7 2 35.86 3.8
 3 7 3 24.94 3.67
 3 8 0 41.01 3.77
 3 8 1 52.29 4.2
 4 -4 -9 29.02 3.46
 4 -3 -10 20.86 2.83
 4 -2 -10 48.21 3.13
 4 4 -5 229.82 5.2
 4 4 -4 252.04 5.91
 4 4 -3 73.7 3.68
 4 4 -2 331.59 7.65
 4 4 2 334.83 8.76
 4 4 3 66.09 4.62
 4 4 4 252.81 8.2
 4 4 5 220.18 7.91
 4 5 -4 100.3 3.89
 4 5 -3 2.94 1.35
 4 5 -2 54.15 3.6
 4 5 -1 270.07 7.27
 4 5 0 5.23 2.06
 4 5 1 274.41 8.12
 4 5 2 62.01 4.79
 4 5 4 97.11 5.86
 4 6 -4 8.47 1.51
 4 6 -3 119.2 4.72
 4 6 -2 129.73 5.18
 4 6 -1 196.47 6.54
 4 6 0 152.12 6.09
 4 7 -3 85.72 4.17
 4 7 -2 3.48 1.68
 4 7 -1 5.07 2.48
 4 7 0 14.81 2.85
 4 7 1 3.34 2.9
 4 8 -2 4.24 2.14
 4 8 -1 18.97 3.01
 5 5 -3 23.3 2.91
 5 5 -2 55.49 3.87
 5 5 -1 22.99 3.15
 5 5 0 39.13 3.9
 5 6 -2 16.27 2.81
 5 6 -1 21.06 3.05
 -2 -6 -13 4.09 3.18
 -2 -6 -12 1.86 2.46
 -2 -6 -11 37.22 4.11
 -2 -6 -9 65.97 4
 -2 -6 -8 11.95 2.51
 -2 -5 -14 3.93 3.23
 -2 -5 -13 47.24 4.85
 -2 -5 -12 21.08 3.5
 -2 -5 -11 0.18 2.56
 -2 -5 -9 1.02 2.21
 -2 -5 -8 204.99 5.92
 -2 -5 -7 95.46 4.1
 -2 -4 -14 42.31 5.22
 -2 -4 -13 62.19 5.41
 -2 -4 -12 9.21 3.03
 -2 -4 -11 34.39 3.86
 -2 -4 -9 107.12 4.68
 -2 -4 -8 18.9 2.56
 -2 -4 -7 131.13 4.49
 -2 -3 -14 7.54 3.74
 -2 -3 -13 25.48 4.34
 -2 -3 -12 36.25 3.92
 -2 -3 -11 22.76 3.3
 -2 -3 -9 10.26 2.4
 -2 -3 -8 1.55 1.7
 -2 -2 -14 -1.74 2.6
 -2 -2 -13 33.65 4.13
 -2 -2 -12 20.63 3.83
 -2 -2 -11 64.6 4.38
 -2 -2 -8 1.27 1.58
 -2 -1 -12 88.2 5.6
 -2 -1 -11 41.63 4.24
 -2 -1 -9 146.71 5.62
 -1 -9 -16 -0.19 3.22
 -1 -9 -15 11.85 3.74
 -1 -9 -14 6.58 3.18
 -1 -9 -13 8.69 2.92
 -1 -9 -12 -0.93 2.47
 -1 -9 -11 20.26 3.16
 -1 -9 -9 0.72 1.93
 -1 -9 -8 59.87 3.33
 -1 -9 -7 57.69 2.97
 -1 -9 -6 7.61 1.38
 -1 -8 -16 -0.71 2.97
 -1 -8 -15 10.92 3.73
 -1 -8 -14 35.81 4.65
 -1 -8 -13 3.93 2.88
 -1 -8 -12 21.34 3.29
 -1 -8 -11 48.08 4.12
 -1 -8 -9 3.68 1.9
 -1 -8 -8 10.09 2.06
 -1 -8 -7 103.05 3.8
 -1 -8 -6 36.84 2.33
 -1 -8 -5 26.98 1.85
 -1 -8 -4 108.3 2.49
 -1 -7 -17 0.45 3.55
 -1 -7 -16 1.88 3.54
 -1 -7 -15 30.14 5.08
 -1 -7 -13 2.14 2.95
 -1 -7 -12 5.01 2.56
 -1 -7 -11 8.65 2.86
 -1 -7 -8 80.94 3.72
 -1 -7 -7 55.31 3.13
 -1 -7 -6 147.89 4.09
 -1 -7 -5 7.08 1.23
 -1 -7 -4 247.84 4.01
 -1 -7 -3 20.25 1.13
 -1 -6 -18 -5.81 3.3
 -1 -6 -17 7.41 3.88
 -1 -6 -16 16.77 4.21
 -1 -6 -15 68.89 6.23
 -1 -6 -14 16.14 4.01
 -1 -6 -13 2.55 2.65
 -1 -6 -12 81.8 5.35
 -1 -6 -11 7.29 2.52
 -1 -6 -9 12.16 2.26
 -1 -6 -8 49.89 3.25
 -1 -6 -7 190.93 5.13
 -1 -6 -6 62.69 2.99
 -1 -6 -5 11.47 1.44
 -1 -6 -4 129.98 3.04
 -1 -6 -3 116.95 2.44
 -1 -5 -19 8.14 4.72
 -1 -5 -18 6.13 4.33
 -1 -5 -17 3.32 3.99
 -1 -5 -16 55.14 6.29
 -1 -5 -15 74.67 6.38
 -1 -5 -14 79.98 5.72
 -1 -5 -13 70.23 5.37
 -1 -5 -12 2.71 2.32
 -1 -5 -11 36.49 3.94
 -1 -5 -9 23.71 2.79
 -1 -5 -8 126.26 4.62
 -1 -5 -7 4.33 1.87
 -1 -5 -6 107.1 3.64
 -1 -5 -4 177.94 3.58
 -1 -5 -3 307.03 3.89
 -1 -5 -2 498.7 3.84
 -1 -4 -19 10.62 4.61
 -1 -4 -18 6.76 4
 -1 -4 -17 23.88 4.81
 -1 -4 -16 0.87 3.17
 -1 -4 -15 50.24 5.93
 -1 -4 -14 234.52 9
 -1 -4 -13 54.67 4.94
 -1 -4 -12 104.08 5.82
 -1 -4 -9 2.7 1.78
 -1 -4 -7 50.79 3.05
 -1 -4 -5 386.48 5.84
 -1 -4 -4 201.03 3.86
 -1 -4 -3 49.43 1.79
 -1 -4 -2 100.25 1.94
 -1 -3 -19 32.24 5.9
 -1 -3 -18 10.74 4.27
 -1 -3 -17 -0.27 3.49
 -1 -3 -16 102.17 7.39
 -1 -3 -15 214.47 9.2
 -1 -3 -14 8.47 3.07
 -1 -3 -13 10.44 3.53
 -1 -3 -12 7.19 2.45
 -1 -3 -8 18.98 2.76
 -1 -3 -7 61.38 3.09
 -1 -3 -6 142.49 4.12
 -1 -3 -5 383.62 5.83
 -1 -3 -4 381.53 5.2
 -1 -3 -3 52.95 1.92
 -1 -3 -2 408.32 3.83
 -1 -2 -19 4.86 5.2
 -1 -2 -18 -1 4.14
 -1 -2 -17 15.21 4.38
 -1 -2 -16 11.54 3.66
 -1 -2 -15 4.05 3.42
 -1 -2 -14 29.26 4.11
 -1 -2 -13 81.71 5.53
 -1 -2 -12 4.01 2.19
 -1 -2 -10 23.64 3.37
 -1 -2 -8 108.93 4.2
 -1 -2 -7 1032.33 11.3
 -1 -2 -5 148.03 3.73
 -1 -2 -4 115.55 2.94
 -1 -2 -3 1011.04 7.26
 -1 -2 -2 132.85 2.4
 -1 -1 -18 53.86 7.11
 -1 -1 -17 -2.03 3.39
 -1 -1 -16 0.51 2.91
 -1 -1 -15 43.03 5.46
 -1 -1 -14 4 2.69
 -1 -1 -13 3.74 3.19
 -1 -1 -10 17.59 2.63
 -1 -1 -9 532.22 9.59
 -1 -1 -8 89.2 3.89
 -1 -1 -7 131.29 4.36
 -1 -1 -6 622.68 8.12
 -1 -1 -5 369.62 5.84
 -1 -1 -3 271.64 4.06
 -1 0 -18 24.2 5.21
 -1 0 -17 12.83 4.21
 -1 0 -16 8.5 4.33
 -1 0 -15 11.16 3.55
 -1 0 -14 58.1 5.37
 -1 0 -13 22.26 3.5
 -1 0 -12 11.17 2.69
 -1 0 -10 14.78 2.58
 -1 0 -9 240.37 6.58
 -1 0 -8 -0.42 1.77
 -1 0 -6 112.23 3.84
 -1 0 -5 3.53 1.41
 -1 0 -4 34.25 2.15
 -1 1 -17 -1.23 3.2
 -1 1 -16 1.4 3.42
 -1 1 -15 48.34 5.12
 -1 1 -13 6.01 3.29
 -1 1 -12 46.61 4.44
 -1 1 -10 12.2 2.38
 -1 1 -8 87.61 3.87
 -1 1 -7 124.15 4.38
 -1 1 -5 372.71 5.92
 -1 1 -4 240.76 4.48
 -1 2 -15 -0.05 3.02
 -1 2 -14 30.79 4.26
 -1 2 -13 69.36 4.87
 -1 2 -12 5.52 2.49
 -1 2 -9 141.47 5.36
 -1 2 -8 103.39 4.24
 -1 2 -7 1009.76 11.39
 -1 3 -9 762.11 11.83
 0 -10 -12 9.58 3.19
 0 -10 -11 1.68 2.15
 0 -10 -10 96.43 4.91
 0 -9 -16 6.05 3.87
 0 -9 -15 0.84 3.63
 0 -9 -14 1.87 3.16
 0 -9 -13 11.47 3.61
 0 -9 -12 1.75 2.74
 0 -9 -11 -0.56 2.44
 0 -9 -10 12.98 2.99
 0 -9 -8 143.62 5
 0 -9 -7 0.75 1.35
 0 -9 -6 10.63 1.91
 0 -9 -5 43.66 2.45
 0 -9 -4 23.2 1.69
 0 -9 -3 19.25 1.41
 0 -8 -17 3.59 3.55
 0 -8 -16 4.26 4.02
 0 -8 -15 13.65 4.25
 0 -8 -14 1.7 2.95
 0 -8 -13 14.58 3.3
 0 -8 -12 8.75 2.72
 0 -8 -11 10.12 2.69
 0 -8 -10 12.94 2.69
 0 -8 -8 11.12 2.45
 0 -8 -7 46.03 3.16
 0 -8 -6 95.26 3.65
 0 -8 -5 43.06 2.5
 0 -8 -4 1.23 1.08
 0 -8 -3 38.99 1.87
 0 -8 -2 440.72 4.62
 0 -8 -1 346.64 3.49
 0 -8 0 71.14 1.41
 0 -7 -18 3.14 4
 0 -7 -17 7.37 4.21
 0 -7 -15 2.95 3.19
 0 -7 -14 4.81 3.56
 0 -7 -13 3.73 3
 0 -7 -12 5.42 2.71
 0 -7 -11 10.94 2.74
 0 -7 -8 140.91 5.06
 0 -7 -7 19.64 2.38
 0 -7 -6 12.43 1.88
 0 -7 -5 627.58 7.92
 0 -7 -4 2.33 1.2
 0 -7 -3 370.57 5.01
 0 -7 -2 6.05 0.94
 0 -7 -1 609.37 4.94
 0 -6 -17 3.72 3.99
 0 -6 -16 11.34 3.85
 0 -6 -15 18.09 4.06
 0 -6 -14 1.17 3.32
 0 -6 -13 34.74 4.37
 0 -6 -12 5.3 2.46
 0 -6 -11 9.44 2.7
 0 -6 -9 167.01 5.71
 0 -6 -8 16.27 2.6
 0 -6 -7 235.36 5.76
 0 -6 -5 272.32 5.25
 0 -6 -4 35.32 2.11
 0 -6 -3 14.92 1.42
 0 -6 -2 5.09 0.92
 0 -6 -1 199.07 2.85
 0 -5 -19 2.27 4.71
 0 -5 -18 -3.27 3.49
 0 -5 -17 12.76 4.37
 0 -5 -16 28.94 5.18
 0 -5 -15 54.72 5.72
 0 -5 -14 0.21 2.58
 0 -5 -13 12.88 3.46
 0 -5 -12 73.33 5.2
 0 -5 -11 -2.3 1.85
 0 -5 -9 9.03 2.11
 0 -5 -8 735.03 10.69
 0 -5 -7 14.65 2.05
 0 -5 -6 53.16 2.7
 0 -5 -5 897.57 9.17
 0 -5 -4 23.89 1.75
 0 -5 -3 63.48 2.16
 0 -5 -2 179.85 3.04
 0 -4 -19 6.54 4.56
 0 -4 -18 21.81 5
 0 -4 -17 2.7 4.24
 0 -4 -16 0.99 3.48
 0 -4 -15 108.9 6.71
 0 -4 -14 13.93 3.49
 0 -4 -13 163.37 7.37
 0 -4 -12 69.46 5.16
 0 -4 -8 2.78 1.9
 0 -4 -7 28.9 2.33
 0 -4 -6 20.51 1.95
 0 -4 -5 11.9 1.74
 0 -4 -4 17.13 1.68
 0 -4 -3 1139.1 8.11
 0 -4 -2 206.45 3.1
 0 -3 -19 1.33 4.67
 0 -3 -18 2.24 3.86
 0 -3 -17 0.17 3.23
 0 -3 -16 10.49 4.34
 0 -3 -15 20.41 4.37
 0 -3 -14 25.97 4.08
 0 -3 -13 25.3 3.66
 0 -3 -12 118.34 5.89
 0 -3 -9 8.63 2.05
 0 -3 -7 28.19 2.63
 0 -3 -6 225.89 5.07
 0 -3 -5 217.88 4.56
 0 -3 -4 356.57 5.16
 0 -3 -3 968.71 7.28
 0 -3 -2 337.68 3.71
 0 -2 -20 0.43 4.42
 0 -2 -19 18.69 5.15
 0 -2 -18 -0.35 3.8
 0 -2 -17 54.25 6.54
 0 -2 -16 -2.47 2.95
 0 -2 -13 14.28 3.08
 0 -2 -12 10.33 2.71
 0 -2 -10 48.64 3.72
 0 -2 -9 91.55 4.18
 0 -2 -8 3.54 1.9
 0 -2 -7 1515.32 13.44
 0 -2 -6 485.22 7.15
 0 -2 -5 1161.09 9.87
 0 -2 -4 1278.55 9.15
 0 -2 -3 420.4 4.61
 0 -2 -2 319.58 3.41
 0 -1 -20 10.04 4.95
 0 -1 -19 7.67 4.42
 0 -1 -18 23.59 4.97
 0 -1 -17 3.27 4.12
 0 -1 -16 20.22 4.72
 0 -1 -15 0.13 2.86
 0 -1 -14 6.65 2.71
 0 -1 -13 2.63 2.36
 0 -1 -12 35.21 3.55
 0 -1 -10 58.97 3.7
 0 -1 -9 23.87 2.57
 0 -1 -8 -1.62 1.38
 0 -1 -7 48.21 2.87
 0 -1 -6 112.23 3.5
 0 -1 -5 1417.7 10.64
 0 -1 -4 1918.67 10.94
 0 -1 -3 549.33 5.11
 0 -1 -2 4084.6 11.2
 0 0 -20 5.58 5.43
 0 0 -18 23.26 5.01
 0 0 -16 22.56 4.29
 0 0 -15 -1.15 2.76
 0 0 -14 22.89 3.77
 0 0 -13 -1.31 2.01
 0 0 -12 35.76 3.56
 0 0 -10 362.82 8.34
 0 0 -9 -0.47 1.74
 0 0 -8 10.91 1.94
 0 0 -7 0.24 1.33
 0 0 -6 533.79 7.28
 0 0 -5 1.23 1.19
 0 0 -4 1762.99 10.4
 0 0 -3 -0.43 0.8
 0 0 -2 1627.32 6.78
 0 1 -19 5.12 4.26
 0 1 -18 26.45 5.06
 0 1 -17 3.53 3.48
 0 1 -16 23.14 4.42
 0 1 -15 0.56 2.73
 0 1 -14 8.83 2.93
 0 1 -12 37.46 4
 0 1 -10 53.92 3.86
 0 1 -8 0.31 1.46
 0 1 -7 48.36 2.71
 0 1 -6 117.25 3.58
 0 1 -5 1488.95 10.79
 0 1 -4 1894.09 10.6
 0 1 -3 564.26 5.11
 0 1 -2 4089.67 10.7
 0 2 -19 10.57 4.46
 0 2 -18 4.04 3.93
 0 2 -16 -0.56 3.08
 0 2 -15 20.35 4.3
 0 2 -13 13.14 3.08
 0 2 -12 11.56 2.62
 0 2 -10 45.62 3.43
 0 2 -8 0.68 1.4
 0 2 -7 1475.14 13.01
 0 2 -6 489.96 6.91
 0 2 -5 1136.63 9.42
 0 2 -4 1268.19 8.83
 0 2 -3 432.46 4.48
 0 2 -2 322.59 3.23
 0 3 -17 0.28 3.3
 0 3 -16 8.34 3.6
 0 3 -14 19.96 3.6
 0 3 -13 29.13 4.03
 0 3 -12 118.26 5.96
 0 3 -10 92.09 4.71
 0 3 -9 9.86 2.26
 0 3 -8 106.11 4.21
 0 3 -7 25.56 2.31
 0 3 -5 219.46 4.43
 0 3 -4 351.26 4.77
 0 3 -3 971.46 6.81
 0 4 -16 -0.64 3.44
 0 4 -14 14.51 3.56
 0 4 -13 172.41 7.29
 0 4 -12 70.66 4.93
 0 4 -10 7.27 2.3
 0 4 -9 142.56 5.05
 0 4 -8 0.35 1.49
 0 4 -7 32.64 2.35
 0 4 -6 19.13 1.83
 0 4 -5 12.08 1.47
 0 5 -13 11.73 3.09
 0 5 -12 79.57 5.19
 0 5 -9 8 2.06
 1 -10 -15 1.17 3.22
 1 -10 -14 34.59 4.87
 1 -10 -13 2.61 2.74
 1 -10 -12 41.26 4.97
 1 -10 -11 2.97 2.49
 1 -10 -10 82.59 5.11
 1 -10 -9 14.06 2.89
 1 -10 -6 17.63 2.3
 1 -10 -5 77.01 3.51
 1 -10 -4 14.81 1.9
 1 -10 -3 32.61 2.32
 1 -10 -2 25.5 2.01
 1 -9 -16 2.95 3.62
 1 -9 -15 22.37 4.77
 1 -9 -14 2.89 3.11
 1 -9 -13 11.22 3.45
 1 -9 -12 3.29 3.21
 1 -9 -11 29.39 3.74
 1 -9 -9 -0.61 1.89
 1 -9 -7 58.14 3.62
 1 -9 -6 9.19 2.16
 1 -9 -5 26.06 2.57
 1 -9 -4 125.77 4.12
 1 -9 -3 72.99 3.11
 1 -8 -17 43.96 5.82
 1 -8 -16 -0.99 3.51
 1 -8 -15 17.39 4.67
 1 -8 -14 26.16 4.26
 1 -8 -13 2.58 2.85
 1 -8 -12 18.33 3.86
 1 -8 -11 43.97 4.48
 1 -8 -10 64.64 4.83
 1 -8 -7 104.1 4.56
 1 -8 -6 43.91 3.03
 1 -8 -5 30.39 2.66
 1 -8 -4 112.06 3.92
 1 -8 -3 5.35 1.42
 1 -7 -17 0.21 4.14
 1 -7 -16 1.71 3.61
 1 -7 -15 23.9 4.53
 1 -7 -14 28.27 4.81
 1 -7 -12 0.38 2.45
 1 -7 -11 8.95 2.79
 1 -7 -10 6.07 2.37
 1 -7 -8 85.29 4.34
 1 -7 -7 56.21 3.75
 1 -7 -6 151.94 4.95
 1 -7 -5 6.21 1.92
 1 -7 -4 236.71 5.3
 1 -6 -18 2.9 3.95
 1 -6 -17 10.17 4.94
 1 -6 -16 16.93 4.35
 1 -6 -15 69.78 6.05
 1 -6 -14 12.82 3.81
 1 -6 -13 1.34 3.27
 1 -6 -12 87.61 5.78
 1 -6 -11 11.22 2.92
 1 -6 -8 59.28 3.96
 1 -6 -6 56.37 3.19
 1 -5 -19 2.84 4.68
 1 -5 -18 -0.57 3.9
 1 -5 -17 0.45 3.56
 1 -5 -16 40.03 5.64
 1 -5 -15 81.67 6.76
 1 -5 -14 85.01 6.06
 1 -5 -13 71.54 5.21
 1 -5 -12 0.37 2.3
 1 -5 -11 32.18 3.5
 1 -5 -7 6.82 2.19
 1 -5 -6 104.69 3.96
 1 -5 -5 32.73 2.59
 1 -4 -18 13.25 5.26
 1 -4 -17 26.21 4.92
 1 -4 -16 1.91 3.36
 1 -4 -15 47.72 5.89
 1 -4 -14 227.35 8.95
 1 -4 -13 54.1 4.76
 1 -4 -12 106.73 5.62
 1 -4 -11 14.16 2.8
 1 -4 -9 6.2 2.01
 1 -4 -7 56.39 3.33
 1 -4 -6 123.21 4.34
 1 -4 -5 384.27 6.54
 1 -3 -18 8.98 4.22
 1 -3 -17 4.44 3.68
 1 -3 -16 97.16 7.36
 1 -3 -15 241.96 9.42
 1 -3 -12 5 2.66
 1 -3 -9 755.02 11.7
 1 -3 -8 19.18 2.46
 1 -3 -7 57.2 3.45
 1 -3 -6 149.66 4.42
 1 -3 -5 384.96 6.39
 1 -2 -19 4.67 4.07
 1 -2 -18 -0.44 4.64
 1 -2 -17 19.79 4.37
 1 -2 -16 12.5 4.03
 1 -2 -15 0.5 2.72
 1 -2 -14 26.41 3.97
 1 -2 -13 74.41 5.28
 1 -2 -12 5.08 2.53
 1 -2 -9 139.06 5.09
 1 -2 -8 102.2 4.2
 1 -2 -7 1013.43 11.55
 1 -2 -6 17.49 1.94
 1 -2 -5 137.77 4
 1 -1 -20 23.76 5.71
 1 -1 -19 17.5 5.02
 1 -1 -18 46.36 6.64
 1 -1 -16 4.07 4.02
 1 -1 -15 42.74 4.65
 1 -1 -14 7.98 2.9
 1 -1 -13 4.84 2.69
 1 -1 -12 52.76 4.14
 1 -1 -8 83.25 3.76
 1 -1 -6 625.24 8.37
 1 -1 -5 361.11 5.88
 1 -1 -4 240.43 4.46
 1 0 -20 20 5.33
 1 0 -19 5.72 5.27
 1 0 -18 28.8 5.17
 1 0 -17 14.29 4.82
 1 0 -16 10.8 3.62
 1 0 -14 64.49 4.99
 1 0 -13 19.52 3.77
 1 0 -12 8.67 2.45
 1 0 -10 15.21 2.53
 1 0 -9 253.26 6.66
 1 0 -8 -1.46 1.17
 1 0 -7 18.58 2.02
 1 0 -6 111.68 3.63
 1 0 -5 4.37 1.36
 1 1 -20 32.23 6.02
 1 1 -19 12.7 4.87
 1 1 -18 46.49 5.98
 1 1 -17 -1.61 3.89
 1 1 -16 2.5 3.23
 1 1 -15 50.21 5.33
 1 1 -14 5.56 3.02
 1 1 -13 7.29 2.67
 1 1 -12 54.64 4.51
 1 1 -10 13.92 2.59
 1 1 -9 546.66 9.49
 1 1 -8 80.98 3.8
 1 1 -7 126.17 4.15
 1 1 -6 635.27 8.05
 1 1 -5 374.36 5.62
 1 1 -4 235.82 4.19
 1 1 -3 280.96 3.99
 1 2 -19 8.26 5.02
 1 2 -18 2.78 3.84
 1 2 -17 16.27 4.27
 1 2 -16 9.39 4.13
 1 2 -15 -1.26 2.75
 1 2 -14 29.98 4.05
 1 2 -13 73.69 4.91
 1 2 -12 6.01 2.62
 1 2 -10 20.09 2.7
 1 2 -9 142.8 5.18
 1 2 -8 109.04 4.1
 1 2 -7 1003.07 10.79
 1 2 -6 14.96 1.92
 1 2 -5 145.16 3.49
 1 2 -4 114.52 2.86
 1 2 -3 1012.58 6.81
 1 3 -19 29.79 5.26
 1 3 -18 9.43 4.31
 1 3 -17 2.39 3.74
 1 3 -16 94.85 7.07
 1 3 -15 215.44 8.85
 1 3 -14 7.86 3.48
 1 3 -13 14.47 3.45
 1 3 -12 6.11 2.77
 1 3 -10 0.24 2.22
 1 3 -9 751.83 10.88
 1 3 -8 21.14 2.53
 1 3 -7 59.25 2.99
 1 3 -6 146.14 3.88
 1 3 -5 377.31 5.38
 1 3 -4 393.87 4.82
 1 3 -2 404.39 3.22
 1 4 -19 10.2 4.35
 1 4 -18 9.66 3.94
 1 4 -17 26.43 4.59
 1 4 -16 6.51 3.39
 1 4 -15 44.47 5.34
 1 4 -14 245.07 8.83
 1 4 -12 109.75 5.53
 1 4 -10 255.23 6.91
 1 4 -9 2.87 1.81
 1 4 -8 21.88 2.31
 1 4 -7 54.78 2.73
 1 4 -6 125.2 3.57
 1 4 -5 387.24 5.3
 1 4 -3 48.8 1.47
 1 4 -2 99.62 1.44
 1 5 -17 4.82 3.74
 1 5 -16 48.37 5.65
 1 5 -15 73.23 5.91
 1 5 -14 86.01 5.96
 1 5 -13 72.29 5.17
 1 5 -12 0.64 2.08
 1 5 -10 51.06 3.6
 1 5 -9 22.82 2.38
 1 5 -8 124.91 4.3
 1 5 -7 4.47 1.34
 1 5 -6 103.51 3.2
 1 5 -4 173.81 3
 1 6 -14 9.32 3.04
 1 6 -13 2.87 2.84
 1 6 -12 86.3 4.99
 1 6 -10 169.24 5.63
 1 6 -9 11.52 2.09
 1 6 -8 55.25 3.04
 1 6 -7 179.77 4.43
 2 -11 -11 6.38 3.3
 2 -11 -10 22.19 3.81
 2 -11 -9 16.8 3.46
 2 -11 -8 88.97 5.1
 2 -11 -7 27.8 3.38
 2 -11 -6 20.94 3.14
 2 -10 -14 13.58 4.14
 2 -10 -13 0.82 3.1
 2 -10 -12 11.43 3.73
 2 -10 -11 20.56 3.76
 2 -10 -10 45.25 4.42
 2 -10 -8 4.36 2.56
 2 -10 -7 3.32 2.43
 2 -10 -4 6.31 1.94
 2 -9 -15 -3.84 3.06
 2 -9 -14 15.3 4.04
 2 -9 -13 15.46 3.95
 2 -9 -12 8.16 3.47
 2 -9 -11 3.63 3.25
 2 -9 -10 28.71 3.95
 2 -9 -9 77.57 5.15
 2 -9 -8 144.8 5.97
 2 -9 -5 8.85 2.48
 2 -8 -16 0.17 3.62
 2 -8 -15 9.77 3.9
 2 -8 -14 19.11 4.1
 2 -8 -13 24.77 4.18
 2 -8 -12 19.44 4.19
 2 -8 -11 5.88 3.07
 2 -8 -10 54.12 4.64
 2 -8 -9 21.47 3.36
 2 -8 -8 51.82 4.23
 2 -7 -17 11.77 5.1
 2 -7 -15 12.16 4.69
 2 -7 -14 0.7 3.66
 2 -7 -13 73.02 6.04
 2 -7 -12 5.65 2.92
 2 -7 -11 5.74 3.12
 2 -7 -10 67.92 4.74
 2 -7 -6 3.48 2.05
 2 -6 -18 3.08 4.5
 2 -6 -17 16.53 4.89
 2 -6 -15 8.3 4.31
 2 -6 -14 65.3 6.43
 2 -6 -13 5.39 3.43
 2 -6 -12 -0.5 2.52
 2 -6 -11 33.05 4.43
 2 -6 -10 40.34 4.15
 2 -6 -9 58.91 4.19
 2 -6 -7 200.54 6.4
 2 -5 -18 4.26 4.1
 2 -5 -17 21.96 4.9
 2 -5 -16 58.41 6.53
 2 -5 -15 13.47 4
 2 -5 -14 2.43 2.97
 2 -5 -13 38.93 4.62
 2 -5 -12 15.38 3.73
 2 -5 -11 -1.94 2.11
 2 -5 -10 17.91 2.93
 2 -5 -7 95.33 4.45
 2 -4 -19 2.4 4.17
 2 -4 -18 -0.9 3.54
 2 -4 -16 12.06 4.19
 2 -4 -15 65.15 5.86
 2 -4 -14 50.45 5.24
 2 -4 -13 70.05 5.63
 2 -4 -12 11.62 3.09
 2 -4 -10 20.61 3.16
 2 -4 -8 20.98 3.19
 2 -3 -19 11.55 4.86
 2 -3 -18 20.05 5.34
 2 -3 -17 23.86 5.31
 2 -3 -16 5.67 4.17
 2 -3 -14 2.23 2.84
 2 -3 -13 27.54 3.9
 2 -3 -12 33.61 4.19
 2 -3 -11 25.53 3.35
 2 -3 -7 102.24 4.54
 2 -2 -19 5.35 4.17
 2 -2 -18 4.8 3.86
 2 -2 -17 19.83 4.66
 2 -2 -16 2.82 3.55
 2 -2 -15 48.74 5.86
 2 -2 -14 2.6 2.69
 2 -2 -13 29.24 3.86
 2 -2 -12 25.29 3.88
 2 -2 -11 70.59 4.59
 2 -2 -9 25.09 2.93
 2 -2 -8 0.51 2
 2 -1 -19 70.16 6.82
 2 -1 -18 11.08 4.43
 2 -1 -17 0.22 3.7
 2 -1 -16 27.49 5.1
 2 -1 -14 -0.19 2.71
 2 -1 -13 6.4 2.75
 2 -1 -12 80.3 5.06
 2 -1 -11 37.42 3.91
 2 -1 -7 45.33 3.07
 2 0 -19 -1.09 4.42
 2 0 -18 22.04 5.22
 2 0 -17 -2.29 3.24
 2 0 -16 8.61 3.65
 2 0 -14 -1.19 2.42
 2 0 -13 20.01 3.46
 2 0 -12 29.29 3.66
 2 0 -9 13.68 2.39
 2 0 -7 1.02 1.46
 2 1 -19 73.19 7.61
 2 1 -18 11.59 5.05
 2 1 -17 0.42 3.37
 2 1 -16 22.48 4.37
 2 1 -15 101.59 6.92
 2 1 -13 2.96 2.99
 2 1 -9 145.44 5.24
 2 1 -8 157.26 5.13
 2 1 -7 43.36 3.04
 2 2 -19 3.16 4.9
 2 2 -18 11.23 4.4
 2 2 -17 23.83 4.77
 2 2 -14 -0.89 2.55
 2 2 -13 27.84 4.16
 2 2 -9 23.43 2.58
 2 2 -8 0.71 1.49
 2 2 -7 660.51 9.18
 2 2 -6 87.73 3.28
 2 2 -5 604.72 7.6
 2 3 -19 17.1 4.99
 2 3 -18 19.27 5.03
 2 3 -17 29.6 5.05
 2 3 -14 5.88 3.52
 2 3 -13 23.13 3.52
 2 3 -12 32.07 3.9
 2 3 -10 61.43 4.08
 2 3 -9 12.01 2.32
 2 3 -8 1.72 1.72
 2 3 -7 106.27 3.95
 2 3 -6 407.48 6.6
 2 3 -5 447.8 6.3
 2 3 -4 19.63 1.49
 2 4 -19 4.17 4.12
 2 4 -18 5.59 3.75
 2 4 -17 1.18 4.06
 2 4 -16 11.99 3.69
 2 4 -15 71.19 5.58
 2 4 -14 47.43 5.03
 2 4 -13 66.02 4.89
 2 4 -12 12.25 2.69
 2 4 -10 15.75 2.52
 2 4 -7 126.95 4.03
 2 4 -6 8 1.51
 2 4 -5 96.97 2.94
 2 4 -2 388.12 3.87
 2 5 -18 2.6 3.84
 2 5 -17 26.05 4.98
 2 5 -16 57.43 5.87
 2 5 -15 11.48 3.43
 2 5 -14 3.63 2.65
 2 5 -13 37.31 3.93
 2 5 -12 20.92 3.03
 2 5 -10 15.86 2.38
 2 5 -9 1.05 1.48
 2 5 -8 215.94 5.43
 2 5 -7 95.51 3.48
 2 5 -4 138.03 2.79
 2 5 -3 62.98 1.6
 2 6 -17 9.7 3.59
 2 6 -16 -0.92 2.68
 2 6 -15 9.81 3.28
 2 6 -14 71.01 5.32
 2 6 -13 4.55 2.67
 2 6 -12 -0.1 1.87
 2 6 -10 37.74 3.18
 2 6 -9 65.54 3.44
 2 6 -8 9.42 1.81
 2 6 -5 184.96 3.36
 2 6 -4 42.5 1.41
 2 7 -12 4.87 1.88
 2 7 -9 34.75 2.46
 2 7 -7 3.43 0.87
 3 -11 -12 20.86 4.08
 3 -11 -11 25.9 4.42
 3 -11 -10 21.54 4.43
 3 -11 -9 15.53 3.5
 3 -11 -8 23.67 4.04
 3 -11 -7 38.29 4.56
 3 -11 -6 13.2 2.94
 3 -11 -5 40.99 3.99
 3 -10 -14 8.83 4.31
 3 -10 -13 6.87 3.9
 3 -10 -12 51.85 5.32
 3 -10 -11 0.72 3.33
 3 -10 -10 45.31 5.12
 3 -10 -9 19.46 4.08
 3 -10 -8 0.47 2.44
 3 -10 -7 5.03 2.7
 3 -10 -6 24.56 3.53
 3 -9 -15 28.86 5.4
 3 -9 -14 26.1 4.98
 3 -9 -13 2.11 3.18
 3 -9 -12 1.45 3.86
 3 -9 -11 23.78 4.17
 3 -9 -10 16.55 4.23
 3 -9 -9 8.82 3.15
 3 -9 -8 87.92 5.64
 3 -9 -7 16.33 3.11
 3 -8 -16 7.9 4.29
 3 -8 -15 17.43 5.17
 3 -8 -14 14.04 4.55
 3 -8 -13 18.54 4.12
 3 -8 -12 50.81 5.83
 3 -8 -11 11.86 3.52
 3 -8 -10 137.46 7.28
 3 -8 -9 10.84 3.54
 3 -8 -8 95.72 5.83
 3 -8 -7 33.19 3.79
 3 -7 -16 15.77 5.41
 3 -7 -14 61.65 5.88
 3 -7 -13 8.02 4.14
 3 -7 -12 25.33 4.38
 3 -7 -11 2.22 3.25
 3 -7 -10 57.01 5.46
 3 -7 -9 84.39 5.8
 3 -7 -8 157.18 7.01
 3 -6 -17 8.94 4.48
 3 -6 -16 63.39 7.44
 3 -6 -15 89.64 7.67
 3 -6 -14 5.79 3.51
 3 -6 -13 21.38 4.81
 3 -6 -12 4.87 3.2
 3 -6 -11 27.94 4.29
 3 -6 -10 108 6.51
 3 -6 -8 130.3 6.05
 3 -5 -18 9.53 5.14
 3 -5 -16 -1.69 3.51
 3 -5 -15 5.74 3.71
 3 -5 -14 81.24 6.81
 3 -5 -13 30.81 4.58
 3 -5 -12 10.18 3.63
 3 -5 -11 39.37 4.81
 3 -5 -10 31.11 4.09
 3 -5 -9 40.8 4.39
 3 -5 -8 14.67 2.87
 3 -4 -18 12.77 5.48
 3 -4 -17 7.76 4.78
 3 -4 -16 2.65 3.64
 3 -4 -15 16.45 4.38
 3 -4 -14 42.2 5.62
 3 -4 -13 29.93 4.38
 3 -4 -12 14.32 3.54
 3 -4 -11 6.4 3.17
 3 -4 -10 24.73 3.88
 3 -4 -9 69.26 4.57
 3 -3 -18 25.02 5.28
 3 -3 -17 2.85 4.01
 3 -3 -15 40.5 5.49
 3 -3 -14 2.37 2.94
 3 -3 -13 2.1 2.89
 3 -3 -12 14.99 3.85
 3 -3 -10 3.42 2.52
 3 -2 -17 13 4.95
 3 -2 -16 35.21 5.54
 3 -2 -15 34.31 4.93
 3 -2 -14 39.6 5.32
 3 -2 -13 63.09 5.19
 3 -2 -11 2.82 2.94
 3 -2 -10 73 4.94
 3 -1 -19 1.97 4.11
 3 -1 -18 14.69 4.82
 3 -1 -17 0.48 4.27
 3 -1 -16 48.12 6.53
 3 -1 -15 16.1 4.1
 3 -1 -14 42.71 4.82
 3 -1 -13 30.69 4.41
 3 -1 -12 1.21 2.24
 3 -1 -11 112.06 5.78
 3 -1 -10 10.31 2.54
 3 0 -19 38.09 6.34
 3 0 -17 9.24 4.03
 3 0 -16 6.24 3.64
 3 0 -15 72.71 6.23
 3 0 -14 175.98 8.4
 3 0 -13 19.42 3.64
 3 0 -12 71.48 5.38
 3 0 -11 18.49 3.11
 3 0 -8 10.23 2.62
 3 1 -19 5.15 4.43
 3 1 -18 17.49 4.59
 3 1 -17 1.88 3.61
 3 1 -15 21.49 4.1
 3 1 -13 27.8 4.45
 3 1 -12 -0.71 2.2
 3 1 -11 113.66 5.78
 3 1 -8 18.49 2.92
 3 1 -7 190.76 5.82
 3 2 -18 7.14 4.62
 3 2 -17 11.07 4.79
 3 2 -16 32.82 5.5
 3 2 -15 33.82 5.11
 3 2 -14 42.69 5.2
 3 2 -13 57.78 5.05
 3 2 -11 6.48 2.59
 3 2 -8 94.62 4.36
 3 2 -7 366.95 7.63
 3 2 -6 25.9 2.82
 3 3 -18 17.25 4.76
 3 3 -17 -0.15 3.96
 3 3 -16 3.16 3.87
 3 3 -15 44.5 5.53
 3 3 -14 -0.69 2.71
 3 3 -13 2.9 2.66
 3 3 -12 9.79 3.21
 3 3 -11 44.36 4.05
 3 3 -9 134.98 5.19
 3 3 -8 6.01 1.93
 3 3 -7 10.69 1.98
 3 3 -6 32.12 2.45
 3 4 -18 2.37 4.16
 3 4 -17 5.45 3.46
 3 4 -15 12.95 3.98
 3 4 -14 43.55 4.92
 3 4 -13 25.23 3.7
 3 4 -9 70.21 4.03
 3 4 -8 14.25 2.38
 3 4 -7 90.35 3.87
 3 4 -6 236.23 5.4
 3 4 -5 3.85 1.21
 3 4 -4 145.69 3.76
 3 5 -18 11.72 4.62
 3 5 -17 14.81 4.12
 3 5 -16 -0.76 3.2
 3 5 -15 2.85 2.89
 3 5 -14 82.24 5.72
 3 5 -13 26.82 3.79
 3 5 -12 7.94 2.48
 3 5 -11 47.18 3.99
 3 5 -9 43.91 3.22
 3 5 -8 17.77 2.28
 3 5 -7 20.19 2.17
 3 5 -6 141.13 4
 3 5 -3 58.75 2.07
 3 6 -15 88.72 5.62
 3 6 -13 18.28 3.37
 3 6 -12 4.37 2.23
 3 6 -11 20.61 2.69
 3 6 -9 37.12 2.83
 3 6 -8 132.3 4.28
 3 6 -5 54.41 2.15
 3 6 -4 77.56 2.17
 3 6 -3 75.59 1.83
 3 6 -2 45.63 1.24
 3 6 -1 67.24 1.29
 4 -11 -11 16.23 4.07
 4 -11 -10 20.98 4.72
 4 -11 -9 13.51 3.96
 4 -11 -8 29.51 4.74
 4 -11 -6 22.08 3.73
 4 -10 -12 3.57 4.01
 4 -10 -11 48.24 5.59
 4 -10 -10 4.14 3.66
 4 -10 -9 16.53 4.22
 4 -10 -8 5.78 3.24
 4 -10 -7 18.27 3.87
 4 -9 -14 34.53 5.39
 4 -9 -13 3 4.32
 4 -9 -12 13.94 4.23
 4 -9 -11 0.65 3.8
 4 -9 -10 114 7.31
 4 -9 -9 52.56 5.34
 4 -9 -8 53.41 5.4
 4 -8 -15 5.99 5.01
 4 -8 -13 31.99 5.36
 4 -8 -12 11.49 4.19
 4 -8 -11 21.46 5.06
 4 -8 -10 14.3 3.94
 4 -8 -9 32.26 4.56
 4 -8 -8 137.05 6.97
 4 -7 -15 47.81 6.47
 4 -7 -14 34.74 5.37
 4 -7 -13 32.18 5.52
 4 -7 -12 7.63 3.89
 4 -7 -11 9.72 3.63
 4 -7 -10 72.98 5.94
 4 -7 -9 15.51 3.82
 4 -6 -16 13.73 4.61
 4 -6 -15 13.75 5
 4 -6 -14 35.59 5.43
 4 -6 -13 12.14 4.61
 4 -6 -12 5.42 3.47
 4 -6 -10 0.38 2.71
 4 -6 -9 3.66 2.77
 4 -5 -17 8.82 4.68
 4 -5 -16 19.57 5.45
 4 -5 -14 12.2 4.67
 4 -5 -12 10.45 3.69
 4 -5 -10 -1.82 2.4
 4 -5 -9 9.8 3.02
 4 -4 -17 0.29 4
 4 -4 -16 8.85 4.73
 4 -4 -15 13.52 4.38
 4 -4 -14 13.55 4.35
 4 -4 -13 7.88 3.81
 4 -4 -12 2.29 2.97
 4 -4 -11 -0.27 2.71
 4 -4 -10 4.03 2.66
 4 -4 -9 31.64 4.32
 4 -3 -17 7.64 4.21
 4 -3 -16 -1.35 3.72
 4 -3 -15 11.03 4.15
 4 -3 -14 5.9 3.77
 4 -3 -12 6.76 3.25
 4 -3 -11 2.72 2.94
 4 -3 -10 19.88 3.55
 4 -2 -18 9.07 4.39
 4 -2 -17 9.2 4.4
 4 -2 -16 14.86 4.98
 4 -2 -15 9.58 3.81
 4 -2 -14 15.98 4.45
 4 -2 -13 4.69 3.3
 4 -2 -12 32.03 4.4
 4 -2 -11 1.39 2.52
 4 -2 -10 40.8 4.51
 4 -2 -9 28.24 3.75
 4 -1 -18 15.02 5.12
 4 -1 -17 4.04 3.94
 4 -1 -16 14.24 5.04
 4 -1 -15 28.47 4.94
 4 -1 -14 8.89 4.22
 4 -1 -13 12.23 3.51
 4 -1 -12 56.37 5.06
 4 -1 -11 -0.31 2.18
 4 -1 -10 38.93 4.02
 4 -1 -9 128.7 6.31
 4 0 -18 5.8 4.48
 4 0 -17 -3.53 3.84
 4 0 -16 0.5 3.41
 4 0 -15 0.4 3.5
 4 0 -14 5.1 3.31
 4 0 -13 3.44 3.65
 4 0 -12 10.78 3.23
 4 0 -11 15.63 3.27
 4 0 -10 86.51 5.61
 4 0 -9 77.79 4.86
 4 1 -18 12.91 5.2
 4 1 -17 8.23 4.64
 4 1 -16 17.85 4.49
 4 1 -15 23.74 4.49
 4 1 -13 12.02 3.49
 4 1 -12 51.42 4.67
 4 1 -11 -0.71 2.27
 4 1 -10 46.12 4.11
 4 2 -18 8.04 4.1
 4 2 -17 4.47 3.83
 4 2 -16 15.09 4.74
 4 2 -15 4.97 3.51
 4 2 -14 11.11 3.6
 4 2 -11 0.12 2.27
 4 2 -10 39.81 3.75
 4 3 -17 8.06 3.99
 4 3 -16 0.13 3.83
 4 3 -15 9.44 3.94
 4 3 -14 10.62 3.53
 4 3 -13 31.35 4.29
 4 3 -12 5.97 2.93
 4 3 -10 16.24 2.91
 4 3 -7 80.26 4.25
 4 4 -17 -0.32 3.63
 4 4 -16 8.73 3.89
 4 4 -15 16.97 3.96
 4 4 -13 7.61 2.95
 4 4 -12 -0.25 2.74
 4 4 -11 1.32 2.2
 4 4 -10 1.92 2.54
 4 4 -7 31.79 2.97
 4 4 -6 31.28 2.88
 4 5 -17 3.25 3.53
 4 5 -16 13.65 4.21
 4 5 -15 20.95 4.14
 4 5 -14 9.29 3.3
 4 5 -13 5.47 2.8
 4 5 -11 16.17 3.1
 4 5 -10 -1.06 1.61
 4 5 -8 10.12 2.07
 4 5 -7 83.56 3.82
 4 5 -6 93.21 3.72
 4 5 -5 70.99 3.17
 4 5 -4 101.03 3.53
 4 6 -12 0.77 1.64
 4 6 -10 0.59 1.24
 5 -12 -6 12.96 4.02
 5 -11 -8 26.58 4.8
 5 -11 -7 2.26 3.92
 5 -10 -11 1.5 3.69
 5 -10 -10 5.09 4.05
 5 -10 -9 28.58 5.24
 5 -10 -8 26.15 4.7
 5 -9 -12 6.89 4.18
 5 -9 -11 14.76 5.19
 5 -9 -10 53.32 6.6
 5 -9 -9 22.59 4.92
 5 -9 -8 17.23 4.73
 5 -8 -13 19.16 5.03
 5 -8 -12 8.31 4.35
 5 -8 -11 14.67 4.85
 5 -8 -10 35.68 5.35
 5 -8 -9 7.21 3.89
 5 -7 -13 2.21 4.85
 5 -7 -12 54.53 6.64
 5 -7 -11 32.49 5.5
 5 -7 -10 46.46 6.21
 5 -7 -9 79.71 6.97
 5 -6 -15 23.09 5.6
 5 -6 -14 20.89 5.21
 5 -6 -13 32.28 6.13
 5 -6 -12 5.47 3.88
 5 -6 -11 10.63 4
 5 -6 -10 10.96 4.05
 5 -5 -15 17.21 5.22
 5 -5 -14 13.18 4.91
 5 -5 -12 4.86 3.9
 5 -5 -11 8.52 4.44
 5 -5 -10 1.45 3.9
 5 -4 -16 -2.13 4.09
 5 -4 -15 26.47 5.57
 5 -4 -14 4.08 4.78
 5 -4 -13 1.06 3.63
 5 -4 -11 28.26 4.69
 5 -4 -10 17.3 4.04
 5 -3 -16 31.95 5.55
 5 -3 -15 9.77 5.14
 5 -3 -14 25.32 4.95
 5 -3 -12 -1.99 3.25
 5 -3 -11 10.88 4.02
 5 -3 -10 17.78 4.13
 5 -2 -16 41.91 6.34
 5 -2 -15 44.04 5.91
 5 -2 -14 57.07 6.74
 5 -2 -13 0.59 3.38
 5 -2 -12 16.07 4.06
 5 -2 -11 41.02 4.76
 5 -2 -10 49.74 4.93
 5 -1 -16 29.75 5.49
 5 -1 -15 7.36 4.24
 5 -1 -14 35.83 5.84
 5 -1 -13 79.16 6.22
 5 -1 -12 1.96 3.07
 5 -1 -11 111.94 6.68
 5 -1 -10 50.84 4.67
 5 0 -17 3.53 4.07
 5 0 -16 2.59 4.11
 5 0 -15 83.76 7.05
 5 0 -14 85.32 6.87
 5 0 -13 15.23 4.41
 5 0 -12 57.72 5.86
 5 0 -11 2.84 3.12
 5 0 -10 137.7 7.07
 5 0 -9 281.8 9.13
 5 1 -16 25.24 5.38
 5 1 -15 1.21 3.46
 5 1 -14 33.76 5.14
 5 1 -13 74.69 6.55
 5 1 -12 2 3.02
 5 1 -11 114.55 6.62
 5 1 -10 54.49 5.1
 5 1 -9 27.19 3.83
 5 2 -16 45.96 5.77
 5 2 -15 35.32 5.45
 5 2 -14 54.96 6.06
 5 2 -13 1.03 3.02
 5 2 -12 17.17 4.04
 5 2 -11 32.2 4.59
 5 2 -10 44.33 4.82
 5 2 -9 12.97 2.96
 5 2 -8 67.08 4.94
 5 3 -16 32.65 5.28
 5 3 -15 9.1 4.29
 5 3 -14 28.12 4.47
 5 3 -13 7.19 3.6
 5 3 -12 1.14 2.72
 5 3 -11 10.66 3.04
 5 3 -10 22.14 3.56
 5 3 -9 26.51 3.76
 5 3 -8 75 4.75
 5 4 -16 3.51 3.58
 5 4 -14 9.62 3.45
 5 4 -13 6.8 3.42
 5 4 -12 5.8 2.87
 5 4 -10 11.43 2.97
 5 4 -9 121.37 5.7
 5 4 -8 11.02 2.52
 5 5 -14 7.85 3.02
 5 5 -13 42.05 4.24
 5 5 -12 4.48 2.4
 5 5 -11 3.01 2.18
 5 5 -10 2.18 2.27
 5 5 -8 34.86 3.32
 5 5 -6 41.33 3.1
 5 5 -5 58.12 3.34
 6 -9 -10 30.98 5.95
 6 -9 -9 -3.21 3.38
 6 -8 -11 13.23 4.85
 6 -8 -10 1.31 4.83
 6 -8 -9 59.42 6.41
 6 -7 -12 9.45 4.91
 6 -7 -11 35.07 6.03
 6 -6 -13 19.43 5.15
 6 -6 -12 8.94 4.91
 6 -6 -11 2.06 3.86
 6 -6 -10 18.26 4.72
 6 -5 -13 16.39 5.56
 6 -5 -12 10.52 4.42
 6 -5 -11 11.57 4.43
 6 -5 -10 32.91 5.62
 6 -4 -14 19.21 4.97
 6 -4 -13 8.93 4.82
 6 -4 -12 -1.78 4.29
 6 -4 -11 3.84 3.89
 6 -4 -10 22.04 4.67
 6 -3 -14 25.63 5.61
 6 -3 -13 6.48 4.94
 6 -3 -12 0.89 3.53
 6 -3 -11 2.64 3.67
 6 -3 -10 14.17 4.23
 6 -2 -15 0.99 4.82
 6 -2 -14 27.6 5.33
 6 -2 -13 -0.54 3.64
 6 -2 -12 4.7 3.97
 6 -2 -11 27.22 5.38
 6 -2 -10 13.68 4.64
 6 -1 -15 2.5 4.92
 6 -1 -14 7.51 4.06
 6 -1 -13 3.05 3.89
 6 -1 -12 4.11 4.01
 6 -1 -11 6.17 4.28
 6 -1 -10 4.66 4.05
 6 0 -15 17.99 4.59
 6 0 -14 1.87 4.15
 6 0 -13 5.13 3.87
 6 0 -12 1.86 3.31
 6 0 -11 31.87 4.78
 6 0 -10 99.05 6.45
 6 1 -15 5.52 3.73
 6 1 -14 4.86 4.06
 6 1 -13 7.82 3.99
 6 1 -12 9.55 3.6
 6 1 -10 4.68 3.09
 6 1 -9 13 3.57
 6 2 -15 5.24 4.27
 6 2 -14 30.9 5.01
 6 2 -13 0.29 3.36
 6 2 -12 12.55 4.31
 6 2 -11 31.61 4.95
 6 2 -10 13.29 4.09
 6 2 -9 58.46 5.41
 6 2 -8 14.32 3.31
 6 3 -14 33.69 4.95
 6 3 -13 7.87 3.74
 6 3 -12 0.87 3.39
 6 3 -11 6.03 3.2
 6 3 -10 12.07 3.36
 6 3 -9 22.21 4.02
 6 3 -8 7.14 3.08
 6 4 -14 11.84 3.66
 6 4 -13 16.49 3.96
 6 4 -12 -0.23 3.15
 6 4 -11 4.72 2.77
 6 4 -10 24.46 3.74
 6 4 -9 17.31 3.31
 6 4 -8 46.29 4.35
 6 4 -7 11.62 2.63
 7 -6 -10 2.31 4.24
 7 -5 -11 15.2 4.97
 7 -5 -10 21.17 5.38
 7 -4 -12 2.82 4.63
 7 -4 -11 15.93 5.59
 7 -4 -10 61.47 6.69
 7 -3 -12 24.84 5.9
 7 -3 -11 10.35 4.51
 7 -3 -10 31.12 5.53
 7 -2 -13 7.78 4.69
 7 -2 -12 -1.03 3.62
 7 -2 -11 27.33 5.39
 7 -2 -10 40.57 6.35
 7 -1 -13 24.64 5.43
 7 -1 -12 1.88 3.79
 7 -1 -11 6.05 3.96
 7 -1 -10 10.77 4.64
 7 0 -13 17.09 4.88
 7 0 -12 2.51 4.34
 7 0 -11 6.38 4.28
 7 0 -10 0.08 3.53
 7 1 -13 19.37 4.75
 7 1 -12 5.52 4.2
 7 1 -11 7.78 4.54
 7 1 -10 11.15 4.14
 7 2 -13 15.57 4.78
 7 2 -12 -2.7 3
 7 2 -11 34.35 4.99
 7 2 -10 45.8 5.5
 7 2 -9 3 3.04
 7 2 -8 48.59 5.01
 7 3 -12 20.53 4.33
 7 3 -11 16.63 4.22
 7 3 -10 23.06 4.38
 7 3 -9 20.43 4.11
 7 3 -8 90.16 6.16
 7 4 -11 9.55 3.06
 7 4 -10 47.77 4.68
 7 4 -9 82.15 5.55
 7 4 -7 3.7 2.39
 8 -1 -10 2.02 4.38
 8 0 -10 9.29 4.27
 8 0 -9 -1.02 3.4
 8 1 -10 1.15 4.11
 8 1 -9 15.13 4.36
 8 2 -9 15.07 4.44
 8 2 -8 19.33 4.79
 8 3 -9 12.96 4.02
 8 3 -8 36.73 4.97
 8 3 -7 19.23 4.18
 -4 -7 -2 6.44 0.91
 -4 -7 -1 5.26 0.71
 -4 -4 -10 1.26 1.59
 -4 -4 -9 26.45 2.68
 -4 -4 -6 31.32 2.09
 -4 -4 -4 247.85 3.51
 -4 -3 -10 22.3 3.01
 -4 -3 -9 36.2 3.09
 -4 -3 -7 79.23 3.39
 -4 -3 -6 256.15 5.07
 -4 -3 -5 282.73 4.55
 -4 -2 -10 39.02 3.47
 -4 -2 -8 -0.2 1.38
 -4 -2 -7 109.01 3.82
 -4 -2 -6 33.65 2.22
 -4 -2 -5 183.84 3.89
 -4 -1 -10 45.06 3.63
 -4 -1 -9 120.19 4.72
 -4 -1 -8 282.78 6.61
 -4 -1 -7 94.12 3.63
 -4 -1 -6 132.28 4.03
 -4 0 -10 90.18 4.8
 -4 0 -9 81.46 4.35
 -4 0 -8 7.34 1.96
 -3 -9 0 9.59 1.9
 -3 -9 2 40.15 2.91
 -3 -9 3 12.31 2
 -3 -8 0 45.66 2.63
 -3 -8 1 46.69 2.64
 -3 -8 2 27.46 2.23
 -3 -7 0 0.01 1.09
 -3 -7 1 86.71 2.97
 -3 -7 2 36.16 2.19
 -3 -6 0 132.76 3.09
 -3 -6 1 70.86 2.47
 -3 -5 0 141.05 2.56
 -3 -2 -4 8.34 1.15
 -3 -2 -3 360.2 4.16
 -3 -1 -10 10.32 2.3
 -3 -1 -9 135.77 5.21
 -3 -1 -8 18.43 2.42
 -3 -1 -5 267.02 4.97
 -3 -1 -4 124.23 3.08
 -3 -1 -3 121.01 2.69
 -3 0 -10 238.44 7.12
 -3 0 -9 718.51 11.13
 -3 0 -8 5.56 2.15
 -3 0 -7 2.65 1.38
 -3 0 -6 15.28 2.08
 -3 0 -5 -0.15 1.01
 -3 1 -9 128.22 5.07
 -3 1 -8 23.22 2.74
 -3 1 -7 188.62 5.36
 -3 1 -6 35.31 2.55
 -3 2 -9 118.96 5.07
 -2 -10 1 158.78 5.57
 -2 -10 2 18.58 2.55
 -2 -9 2 2.23 1.39
 -2 -9 3 21.57 2.67
 -2 -9 4 26.6 2.61
 -2 -9 5 6.92 1.97
 -2 -8 2 107.1 4.12
 -2 -8 3 107.82 4.27
 -2 -8 4 14.65 2.12
 -2 -7 2 21.14 2.16
 -2 -7 3 348.58 6.78
 -2 -7 4 11.76 1.94
 -2 -6 2 81.81 3.02
 -2 -6 3 18.32 2.28
 -2 -6 4 45.15 2.65
 -2 -5 1 52.72 2.27
 -2 -5 2 187.98 3.95
 -2 -5 3 65.71 2.62
 -2 -4 1 45.91 1.81
 -2 -4 2 404.47 5.08
 -2 -1 -2 777.35 5.28
 -2 0 -11 143.6 5.97
 -2 0 -10 25.04 2.8
 -2 0 -7 2.01 1.7
 -2 0 -6 76.65 3.37
 -2 0 -5 79.97 3.06
 -2 0 -3 264.75 4.1
 -2 1 -10 88.74 4.63
 -2 1 -9 148.37 5.58
 -2 1 -8 157.46 5.16
 -2 1 -6 50.38 2.75
 -2 1 -5 520.32 7.32
 -2 1 -4 93.84 3
 -2 2 -10 26.21 3.33
 -2 2 -8 -0.13 1.52
 -2 2 -7 683.76 10.03
 -2 2 -6 82.46 3.77
 -2 3 -8 1.87 1.77
 -1 -9 3 70.06 4.22
 -1 -9 4 122.89 5.07
 -1 -8 3 7.51 1.84
 -1 -8 4 113.09 4.67
 -1 -8 5 29.44 2.93
 -1 -8 6 32.79 3.3
 -1 -7 3 18.07 2.4
 -1 -7 4 242.24 6.12
 -1 -7 5 7.86 2.03
 -1 -7 6 154.32 5.4
 -1 -6 3 110.83 4.02
 -1 -6 4 134.76 4.4
 -1 -6 5 11.01 1.9
 -1 -5 3 312.6 5.78
 -1 -5 4 183.26 4.92
 -1 -4 3 51.27 2.32
 -1 -4 4 211.48 4.67
 -1 -3 2 411.87 4.94
 -1 -2 1 345.99 3.36
 -1 0 -2 1324.72 7.05
 -1 0 -1 944.37 4.69
 -1 1 -11 18.64 2.98
 -1 1 -10 16.81 2.9
 -1 1 -7 126.27 4.26
 -1 1 -6 595.34 8.11
 -1 1 -3 289.06 4.35
 -1 1 -2 3871.39 13.79
 -1 2 -10 20.99 3.05
 -1 2 -8 106.93 4.32
 -1 2 -7 1024.89 11.94
 -1 2 -6 14.5 1.93
 -1 2 -5 140.8 4.04
 -1 3 -10 0.69 1.79
 -1 3 -9 729.8 11.76
 -1 3 -8 16.83 2.45
 -1 3 -7 58.04 3.56
 -1 3 -6 156.71 4.78
 -1 4 -9 3.52 2.6
 -1 4 -8 24.71 2.74
 0 -8 3 38.15 3.25
 0 -8 4 1.34 1.96
 0 -7 4 2.23 1.68
 0 -7 5 615.77 10.51
 0 -7 6 12.86 2.48
 0 -6 4 34.71 2.75
 0 -5 3 58.95 3.07
 0 -5 6 49.91 3.14
 0 -4 3 1177.36 10.85
 0 -4 4 14.08 2.11
 0 -4 5 13.1 1.91
 0 -3 2 343.84 5.08
 0 -3 3 981.93 8.97
 0 -3 4 344.65 5.72
 0 -2 2 338 4.39
 0 -2 3 424.3 5.28
 0 -1 1 19.41 0.9
 0 1 -2 4032.1 12.85
 0 2 -11 4.03 2.05
 0 2 -10 50.13 4
 0 2 -9 90.81 4.19
 0 2 -8 2.23 1.66
 0 2 -7 1512.84 14.06
 0 2 -6 466.47 7.48
 0 2 -4 1265.51 10.04
 0 2 -3 428.4 5.49
 0 3 -10 95.82 4.65
 0 3 -9 11.1 2.17
 0 3 -7 22.59 2.3
 0 3 -6 224.34 5.5
 0 4 -10 7.6 2.29
 0 4 -8 2.13 1.71
 0 4 -7 28.75 2.66
 1 -7 5 7.43 2.2
 1 -7 6 146.8 5.88
 1 -6 4 134.69 4.98
 1 -6 5 11.06 2.15
 1 -6 7 192.68 6.36
 1 -4 3 50.43 2.66
 1 -4 4 205.09 5.19
 1 -3 3 55.26 2.79
 1 -3 4 404.03 6.76
 1 -3 5 376.42 6.74
 1 -2 3 983.47 8.7
 1 -2 4 117.68 3.43
 1 -1 2 3873.23 13.72
 1 0 1 966.65 4.68
 1 2 -11 126.31 5.41
 1 2 -6 14.37 1.72
 1 2 -5 144.34 3.89
 1 2 -4 117.14 3.2
 1 2 -3 989 7.55
 1 2 -2 129.39 2.46
 1 3 -10 2.7 1.93
 1 3 -9 747.88 11.54
 1 3 -8 17.39 2.64
 1 3 -7 63.26 3.48
 1 3 -6 151.88 4.48
 1 3 -5 374.84 6.28
 1 3 -4 399.8 5.96
 1 4 -10 242.56 7.27
 1 4 -9 2.66 1.77
 1 4 -8 23.7 2.86
 1 4 -7 48.91 3.01
 1 4 -6 120.06 4.11
 1 5 -9 24.04 2.98
 2 -7 4 12.01 2.45
 2 -7 5 146.69 6.04
 2 -6 4 48.1 3.47
 2 -6 6 141.86 5.77
 2 -6 7 202.2 6.9
 2 -5 4 144.77 5.09
 2 -5 5 218.56 6.18
 2 -5 7 95.41 4.67
 2 -4 5 92.17 3.93
 2 -4 6 11.88 2.1
 2 -3 3 382.63 6.53
 2 -2 3 277.5 5.08
 2 -2 4 193.99 4.66
 2 -1 2 790.31 6.9
 2 -1 3 305.65 4.75
 2 0 1 46.11 1.33
 2 2 -4 197.79 3.79
 2 2 -2 698.72 4.82
 2 3 -9 9.08 2.35
 2 3 -8 0.71 1.47
 2 3 -7 107.78 3.97
 2 3 -5 440.48 6.26
 2 3 -4 20.1 1.49
 2 4 -9 104.9 4.51
 2 4 -7 122.59 4.4
 2 4 -6 9.22 1.81
 3 -6 3 81.68 4.34
 3 -6 5 54.64 4.08
 3 -5 3 57.88 3.52
 3 -5 4 411.84 8.7
 3 -5 5 32.38 3.35
 3 -5 6 144.99 5.61
 3 -4 3 31.32 2.53
 3 -4 4 152.59 4.92
 3 -4 5 4.14 2.23
 3 -4 6 240.5 6.72
 3 -3 4 134.08 4.51
 3 -3 5 186.6 5.24
 3 -2 2 177.17 4.22
 3 -1 3 118.68 3.24
 3 2 -3 353.51 3.94
 3 3 -10 1.89 1.68
 3 3 -9 140.4 5
 3 3 -8 8.72 2.02
 3 3 -7 12.16 1.87
 3 3 -6 31.4 2.13
 3 3 -5 184.97 3.96
 3 4 -10 17.79 2.85
 3 4 -9 69.07 3.76
 3 4 -8 16.35 2.17
 3 4 -7 88.15 3.45
 3 5 -10 28.32 3.08
 4 -6 3 118.94 5.25
 4 -5 3 2.29 2.06
 4 -5 4 109.37 4.88
 4 -5 5 68.18 4.28
 4 -5 6 87.99 4.6
 4 -4 3 71.07 3.59
 4 -4 4 250.99 6.5
 4 -3 2 27.26 2.44
 4 -3 3 147.19 4.63
 4 -3 4 83.31 3.93
 4 -3 5 282.98 6.78
 4 -2 2 512.37 7.33
 4 -2 4 182.11 4.82
 4 0 0 89.53 2.06
 4 0 1 0.53 0.57
 4 2 -10 40.66 3.23
 4 2 -5 192.08 3.74
 4 2 -4 181.5 3.11
 4 3 -8 21.18 2.14
 4 3 -5 280.96 4.32
 4 4 -10 0.87 1.57
 4 4 -9 30.32 2.52
 4 4 -8 36.86 2.42
 5 -5 2 56.42 3.89
 5 -5 3 27.77 3.01
 5 -4 3 40.81 2.93
 5 -4 4 15.62 2.58
 5 -4 5 82.62 4.15
 5 -3 1 121.74 4.15
 5 -3 2 54.71 2.98
 5 -3 3 51.67 3.17
 5 -2 1 80.16 3.12
 5 -2 2 68.76 3
 5 -1 0 131.91 3.25
 5 -1 1 76.58 2.63
 5 0 -1 15.13 0.93
 1 -3 3 53.12 1.6
 1 -3 6 146.99 2.42
 1 -3 7 56.04 1.68
 1 -3 8 18.86 1.3
 1 -3 9 743.91 6.67
 1 -3 10 0.43 0.79
 1 -3 11 20.64 1.62
 1 -2 1 335.23 4.02
 1 -2 2 138.12 2.61
 1 -2 3 994.65 6.27
 1 -2 4 116.79 2.4
 1 -1 -1 249.04 3.87
 1 -1 0 933.33 6.57
 1 -1 1 246.82 3.35
 1 -1 2 3875.51 12.7
 1 0 -2 1317 8
 1 0 1 958.74 6.52
 1 1 -3 281.24 3.78
 1 1 -2 3861.82 12.73
 1 1 -1 248.77 3.35
 1 3 -4 389.93 3.99
 1 4 -4 196.61 2.83
 1 5 -5 27.19 0.95
 1 5 -4 170.04 2.84
 1 6 -5 9.98 0.71
 1 6 -4 129.46 2.81
 1 7 -5 8.04 0.72
 1 7 -4 240.16 4.1
 1 8 -4 106.23 2.99
 2 -4 2 385.79 5.82
 2 -4 3 231.33 4.59
 2 -4 4 214.5 4.28
 2 -4 5 97.27 2.98
 2 -4 6 11.87 1.48
 2 -4 7 126.98 3.18
 2 -4 8 18.26 1.54
 2 -4 10 17.07 1.49
 2 -3 0 1676.79 12.9
 2 -3 1 235.74 5.02
 2 -3 2 176.99 4.29
 2 -3 3 386.97 6.07
 2 -3 4 20.24 1.93
 2 -3 5 439.81 6.12
 2 -3 6 402.77 5.96
 2 -3 7 102.02 3.24
 2 -3 8 1.75 1.28
 2 -3 9 8.29 1.41
 2 -3 10 67.02 2.97
 2 -3 11 28.29 2.28
 2 -2 -2 738.46 8.77
 2 -2 0 317.43 5.85
 2 -2 1 2.04 1.53
 2 -2 2 691.86 7.8
 2 -2 3 282.59 5.13
 2 -2 4 202.2 4.49
 2 -2 5 609.73 7.63
 2 -2 6 83.85 3.14
 2 -2 7 683.46 8.62
 2 -2 8 0.89 1.52
 2 -2 9 22.13 2.42
 2 -2 10 23.16 2.48
 2 -2 11 68.74 3.62
 2 -2 12 22.85 2.66
 2 -2 13 32.35 2.95
 2 -1 -3 311.86 6.05
 2 -1 -1 456.24 6.96
 2 -1 0 1019.45 9.6
 2 -1 2 768.65 8.37
 2 -1 3 302.08 5.57
 2 -1 5 501.23 7.21
 2 0 -4 130.94 3.93
 2 0 -3 260.65 5.44
 2 0 -2 826.12 9.07
 2 0 -1 45.53 2.51
 2 0 0 9999 29.32
 2 0 1 47 2.62
 2 0 2 828.65 8.89
 2 0 3 266.32 5.45
 2 1 -5 520.17 7.05
 2 1 -3 312.53 5.79
 2 1 -2 786.75 8.42
 2 1 -1 440.91 6.47
 2 1 0 1046.87 9.86
 2 1 1 458.81 6.93
 2 2 -5 611.23 7.61
 2 2 -4 190.53 4.45
 2 2 -3 282.28 5.16
 2 2 -2 696.52 7.89
 2 2 -1 1.41 1.5
 2 3 -6 401.91 5.9
 2 3 -5 430.87 6.23
 2 3 -4 21.36 1.92
 2 3 -3 365.91 5.88
 2 3 -2 180.01 4.4
 2 4 -4 212.56 4.51
 2 4 -3 230.71 4.8
 2 4 -2 393.91 6.56
 2 5 -6 188.85 3.88
 2 5 -3 61.23 2.87
 2 5 -2 181.5 4.79
 2 6 -6 138.69 3.23
 2 6 -5 193.71 4.16
 2 6 -3 16.28 1.91
 2 7 -5 137.16 3.57
 2 7 -3 348.45 6.76
 2 8 -3 107.67 4.16
 3 -5 3 57.24 3.08
 3 -5 4 421.51 7.55
 3 -5 5 33.52 2.55
 3 -5 6 144.09 4.31
 3 -5 8 20.96 2.05
 3 -5 9 42.69 2.48
 3 -4 0 375.91 7.69
 3 -4 1 48.05 3.33
 3 -4 2 11.34 2.02
 3 -4 3 28.76 2.66
 3 -4 4 150.24 4.85
 3 -4 5 4.05 1.96
 3 -4 6 242.26 5.84
 3 -4 7 85.33 3.71
 3 -4 8 18.29 2.28
 3 -4 9 68.72 3.36
 3 -4 10 19.82 2.29
 3 -3 -2 381.11 7.67
 3 -3 0 130.49 4.84
 3 -3 1 56.12 3.27
 3 -3 2 388.39 7.72
 3 -3 4 134.9 4.64
 3 -3 6 34.66 2.88
 3 -3 7 15.4 2.44
 3 -3 8 6.44 2
 3 -3 9 137.25 4.81
 3 -3 10 2.06 1.82
 3 -3 11 40.72 3.11
 3 -3 12 11.56 2.09
 3 -2 -1 130.93 4.74
 3 -2 0 513.25 8.99
 3 -2 2 174.25 5.27
 3 -2 4 8.32 2.07
 3 -2 5 27.04 2.8
 3 -2 6 29.97 2.9
 3 -2 7 362.56 7.67
 3 -2 8 87.57 4.34
 3 -2 10 71.13 3.93
 3 -2 11 1.51 2.18
 3 -2 12 27.28 3.4
 3 -2 13 65.5 4.31
 3 -1 -2 159.06 5.13
 3 -1 0 -0.52 1.59
 3 -1 1 179.16 5.16
 3 -1 2 163.7 4.97
 3 -1 5 268.92 6.55
 3 -1 6 37.04 3
 3 -1 7 190.14 6.07
 3 -1 8 21.09 3.07
 3 -1 9 129.47 5.42
 3 -1 10 11.16 2.8
 3 -1 12 -0.46 2.42
 3 0 -5 -0.31 1.45
 3 0 -3 285.64 6.72
 3 0 -2 97.09 4.25
 3 0 -1 748.39 10.3
 3 0 0 2.01 1.85
 3 0 1 742.44 10.37
 3 0 3 285.26 6.85
 3 0 4 0.23 1.62
 3 0 5 0.73 1.57
 3 0 6 14.8 2.44
 3 0 7 2.16 2.06
 3 1 -5 258.36 6.41
 3 1 -4 131.51 4.92
 3 1 -3 122.64 4.59
 3 1 -1 185.74 5.29
 3 1 0 0.2 1.64
 3 1 1 179.57 5.36
 3 1 3 121.4 4.71
 3 1 4 125.88 5.12
 3 2 -6 23.8 2.82
 3 2 -5 33.12 3.08
 3 2 -3 356 7.24
 3 2 -2 177.46 5.37
 3 2 0 509.39 8.77
 3 2 1 139.37 5.09
 3 3 -7 14 2.11
 3 3 -6 32.24 2.71
 3 3 -4 135.34 4.69
 3 3 -2 386.69 7.71
 3 3 -1 59.2 3.66
 3 3 1 62.45 3.72
 3 4 -7 88 3.69
 3 4 -6 238.49 5.93
 3 4 -5 3.59 1.62
 3 4 -4 146.92 4.91
 3 4 -3 29.19 2.72
 3 4 -2 10.31 2.27
 3 4 -1 49.71 3.39
 3 4 0 363.62 7.95
 3 5 -5 32.04 2.72
 3 5 -4 433.74 8.17
 3 5 -3 61.29 3.47
 3 5 -2 365.37 7.9
 3 6 -5 56.63 3.26
 3 6 -4 82.16 3.92
 3 6 -3 78.15 3.89
 3 6 -2 52.37 3.55
 3 6 -1 71.72 4.29
 3 7 -5 53.57 3.17
 3 7 -4 100.09 4.28
 3 7 -3 32.04 3.01
 3 7 -2 31.55 3.13
 3 7 -1 83.63 4.68
 3 8 -4 3.42 1.81
 3 8 -3 0.07 1.75
 3 8 -2 28.78 3.39
 3 8 -1 47.2 4.28
 3 9 -4 -0.93 1.07
 3 9 -3 12.64 2.56
 3 9 -2 32.09 3.45
 3 10 -1 29.31 3.7
 3 11 -1 84.53 5.35
 3 12 0 9.77 3.19
 4 -6 6 3.13 1.92
 4 -6 7 44.74 3.18
 4 -6 8 6.1 1.83
 4 -5 1 278.37 7.46
 4 -5 2 61.41 4.31
 4 -5 3 4.74 2.14
 4 -5 4 108.47 4.89
 4 -5 6 90.72 4.6
 4 -5 7 78.48 4.24
 4 -5 8 11.14 2.22
 4 -5 9 15.7 2.58
 4 -4 -1 70.8 4.36
 4 -4 0 745.87 12.53
 4 -4 1 68.25 4.69
 4 -4 2 328.22 8.46
 4 -4 3 72.59 4.72
 4 -4 4 249.3 7.33
 4 -4 5 243.29 7.24
 4 -4 7 36.83 3.64
 4 -4 8 35.81 3.52
 4 -4 9 29.87 3.32
 4 -4 10 1.07 2.06
 4 -3 -3 150.01 5.85
 4 -3 -1 239.7 7.44
 4 -3 0 874.92 13.66
 4 -3 1 242.36 7.32
 4 -3 3 160.12 6
 4 -3 4 80.74 4.49
 4 -3 5 284.34 7.79
 4 -3 6 255.55 7.26
 4 -3 8 17.68 3.22
 4 -3 10 16.9 3.1
 4 -3 11 1.57 2.11
 4 -2 -4 187.82 6.54
 4 -2 -3 69.24 4.59
 4 -2 -2 501.27 10.49
 4 -2 -1 1.87 1.86
 4 -2 1 3.44 2.47
 4 -2 2 505.93 10.26
 4 -2 5 191.84 6.48
 4 -2 6 33.54 3.65
 4 -2 7 106.42 5.42
 4 -2 13 7.3 2.7
 4 -1 -4 72.54 4.88
 4 -1 -3 30.87 3.2
 4 -1 -2 -0.08 2.05
 4 -1 -1 128.87 5.66
 4 -1 0 429.28 9.4
 4 -1 2 -0.4 2.2
 4 -1 3 32.58 3.33
 4 -1 4 76.01 4.62
 4 -1 5 95.61 5.07
 4 -1 7 93.31 5.27
 4 -1 8 288.19 8.51
 4 -1 12 52.23 5.03
 4 -1 13 12.21 3.18
 4 -1 14 8.88 3.06
 4 0 -6 1.93 1.96
 4 0 -5 37.48 3.35
 4 0 -4 3.2 2.58
 4 0 -3 44.32 3.87
 4 0 1 1.47 1.9
 4 0 2 53.12 3.77
 4 0 3 44.35 3.58
 4 0 4 5.86 2.26
 4 0 11 16.63 3.69
 4 0 12 10.13 3.45
 4 0 13 3.42 3.09
 4 0 14 7.63 3.17
 4 0 15 0.88 2.92
 4 1 -6 126.84 5.45
 4 1 -5 94.09 5.19
 4 1 -4 78.63 4.83
 4 1 -3 35.56 3.39
 4 1 -2 0.81 2
 4 1 -1 126.92 5.68
 4 1 0 444.16 9.68
 4 1 1 124.1 5.34
 4 1 2 0.92 1.97
 4 1 3 33.82 3.82
 4 1 4 77.31 4.95
 4 1 5 98.35 5.5
 4 1 6 131.8 6.5
 4 1 10 37.68 4.32
 4 1 11 1.89 2.65
 4 1 12 56.31 5.14
 4 1 13 11.14 4.08
 4 1 14 8.67 3.8
 4 1 16 19.01 4.28
 4 2 -5 195.45 6.74
 4 2 -2 506.6 10.36
 4 2 -1 2.2 1.98
 4 2 0 73.54 4.57
 4 2 1 2.61 1.86
 4 2 3 69.71 4.82
 4 2 5 190.83 7.19
 4 2 15 13.28 4.8
 4 2 16 9.48 3.89
 4 3 -7 73.98 4.43
 4 3 -6 248.21 7.26
 4 3 -4 79.17 4.53
 4 3 -3 146.21 5.79
 4 3 -1 244.77 7.33
 4 3 0 859.88 13.54
 4 3 3 150.1 6.51
 4 3 17 7.83 5.05
 4 4 -8 37.43 3.25
 4 4 -7 34.69 3.33
 4 4 -5 234 7.1
 4 4 -3 71.61 4.42
 4 4 -2 331.24 8.67
 4 4 -1 64.96 4.55
 4 5 -6 89.7 4.79
 4 5 -5 63.48 4.3
 4 5 -4 99.75 5.2
 4 5 -3 4.65 2.36
 4 5 -2 57.57 4.52
 4 5 -1 271.33 8.16
 4 5 0 7.41 3
 4 6 -7 45.64 3.37
 4 6 -6 -0.4 2.08
 4 6 -5 40.23 3.5
 4 6 -4 7.92 2.34
 4 6 -2 134.71 5.98
 4 7 -6 69.06 4.05
 4 7 -5 5.28 2.45
 4 7 -4 9.95 2.92
 4 7 1 4.79 2.95
 4 7 2 7.96 3.13
 4 8 0 65.81 5.59
 4 9 -3 7.97 2.54
 4 9 -2 13.73 3.17
 4 9 -1 133.72 7.12
 4 9 0 -1.98 2.67
 4 9 1 146.19 7.78
 4 10 -2 -0.74 2.47
 4 10 -1 135.03 7.08
 4 10 0 110.98 7.08
 4 10 1 127.5 7.59
 4 11 0 -5.51 2.73
 4 11 1 39.69 5.38
 4 11 2 41.9 5.64
 4 12 0 0.05 2.91
 4 12 1 10.35 4.07
 4 12 2 21.03 4.95
 4 12 3 2.83 4
 4 13 2 3.82 4.15
 4 13 3 15.42 4.73
 4 13 4 -0.5 3.93
 5 -5 1 29.85 4.07
 5 -4 -1 127.26 6.45
 5 -4 10 17.2 3.19
 5 -3 9 26.72 4.17
 5 -3 10 17.41 3.17
 5 -3 11 6.28 2.76
 5 -3 12 4.27 2.66
 5 -2 -4 21.84 3.83
 5 -2 8 61.84 5.33
 5 -2 9 9.39 3.4
 5 -2 10 50.56 5.09
 5 -2 11 30.67 4.47
 5 -2 12 12.36 3.54
 5 -2 13 -2.73 2.44
 5 -1 -5 15.02 3.18
 5 -1 8 6.46 3.14
 5 -1 10 51.74 5.34
 5 -1 11 120.44 7.12
 5 -1 12 0.38 3.06
 5 -1 13 83.89 6.31
 5 -1 14 34.69 5.01
 5 0 -6 7.78 2.8
 5 0 6 11.23 3.12
 5 0 7 -0.4 2.55
 5 0 8 2.48 2.82
 5 0 9 282.35 9.8
 5 0 10 152.01 8
 5 0 11 1.88 3
 5 0 12 52.69 5.7
 5 0 13 8.46 3.97
 5 0 14 84.22 6.83
 5 0 15 76.04 6.54
 5 1 -7 52.06 4.59
 5 1 -6 39.15 4.5
 5 1 5 13.72 3.18
 5 1 6 36.34 4.53
 5 1 7 44.97 5.41
 5 1 8 7.67 3.72
 5 1 9 22.92 4.72
 5 1 10 45.67 5.47
 5 1 11 117.5 7.74
 5 1 12 5.76 3.73
 5 1 13 89.29 7.07
 5 1 14 36.11 5.47
 5 1 15 4.97 3.9
 5 1 16 21.96 4.64
 5 2 -7 44.98 4.72
 5 2 4 18.05 3.7
 5 2 5 6.12 2.8
 5 2 6 2.54 2.99
 5 2 7 47.01 5.73
 5 2 9 12.48 3.85
 5 2 12 16.42 4.49
 5 2 13 -0.55 4.26
 5 2 15 35.55 5.71
 5 2 16 42.53 6.42
 5 3 -8 76.68 5.14
 5 3 -7 51.04 4.34
 5 3 2 56.35 5.06
 5 3 3 50.45 4.85
 5 3 4 29.57 4.25
 5 3 5 3.51 2.71
 5 3 8 74.31 6.72
 5 3 9 27.13 4.65
 5 3 11 6.02 3.95
 5 3 12 4.28 4.06
 5 3 13 3.24 4.6
 5 3 14 22.92 5.44
 5 3 15 6.52 4.61
 5 4 -8 9.77 2.73
 5 4 -7 36.31 4.34
 5 4 0 16.25 3.35
 5 4 1 129.38 7.08
 5 4 4 14.9 3.58
 5 4 5 77.68 6.02
 5 4 6 68.19 6.31
 5 4 7 28.22 4.64
 5 4 8 7.58 3.54
 5 4 9 120.93 8.22
 5 4 10 18.52 4.7
 5 4 11 33.09 5.56
 5 4 12 5.5 4.25
 5 4 13 2.91 4.45
 5 4 14 2.72 4.13
 5 4 15 18.25 5.22
 5 4 16 1.48 4.4
 5 5 -8 35.61 3.89
 5 5 -6 40.71 4.19
 5 5 -5 57.64 5.06
 5 5 -4 114.91 6.47
 5 5 -3 22.58 3.99
 5 5 -2 52.58 4.8
 5 5 0 41.05 5.13
 5 5 1 28.97 4.29
 5 5 5 53.53 5.5
 5 5 7 137.1 8.1
 5 5 8 33.62 5.39
 5 5 9 40.39 6.26
 5 5 10 2.56 4.06
 5 5 11 4.76 4.15
 5 5 12 1.3 4.24
 5 5 13 26.82 6.51
 5 5 14 14.93 5.59
 5 5 15 18.31 5.71
 5 6 -7 7.13 2.45
 5 6 -6 20.4 3.58
 5 6 -4 5.28 2.69
 5 6 -3 129.23 6.91
 5 6 -2 13.34 3.48
 5 6 0 0.57 2.68
 5 6 1 21.94 4.23
 5 6 2 19.68 4.13
 5 6 3 129.22 7.83
 5 6 4 3.7 3.84
 5 6 5 111.84 7.85
 5 6 6 23.89 4.8
 5 6 7 1.36 3.37
 5 6 8 47.61 6.41
 5 6 14 30.02 6.64
 5 6 15 22.33 6.12
 5 7 -6 37.37 4.09
 5 7 -4 24.1 4.13
 5 7 -3 5.31 3.19
 5 7 -2 2.16 3.4
 5 7 -1 53.73 5.65
 5 7 0 10.57 4.03
 5 7 2 6.24 3.58
 5 7 3 3.55 3.9
 5 7 4 24.95 5.1
 5 7 5 33.01 5.69
 5 7 7 39.31 5.95
 5 8 -5 14.5 2.98
 5 8 -4 42.14 4.38
 5 8 -3 4.41 3.33
 5 8 -2 10.64 3.4
 5 8 -1 2.11 3.48
 5 8 0 13.83 3.94
 5 8 1 8.34 4.09
 5 8 2 6.71 4.39
 5 8 3 7.14 3.86
 5 8 4 34.88 5.32
 5 8 5 12.32 4.46
 5 8 6 40.2 6.33
 5 9 -3 1.04 2.9
 5 9 -2 22.68 4.45
 5 9 0 32.32 5.36
 5 9 1 15.43 4.44
 5 9 3 4.01 3.94
 5 9 4 11.92 4.59
 5 9 5 4.3 4.05
 5 9 6 32.57 6.15
 5 10 -2 27.02 4.32
 5 10 -1 24.47 4.84
 5 10 0 94.19 7.01
 5 10 1 27.47 5.6
 5 10 3 12.68 4.71
 5 10 4 25.87 5.53
 5 10 5 0.28 4.77
 5 10 6 23.57 5.81
 5 10 7 3.36 4.92
 5 11 -1 34.47 5.37
 5 11 0 81.41 7.05
 5 11 2 33.37 6.22
 5 11 3 18.51 4.96
 5 11 4 16.54 5.11
 5 11 5 11.84 5.26
 5 11 6 28.69 6.13
 5 11 7 3.67 4.89
 5 11 8 21.23 6.13
 5 12 0 9.27 3.5
 5 12 2 10.6 4.47
 5 12 3 14.33 5.12
 5 12 4 17.45 5.41
 5 12 5 14.64 6.36
 5 12 6 16.01 5.59
 5 13 2 30 5.96
 6 -6 5 34.45 4.22
 6 -6 6 17.18 3.57
 6 -6 7 4.66 2.92
 6 -6 8 1.31 2.92
 6 -5 1 237.72 9.35
 6 -5 2 0.3 2.73
 6 -5 3 13.74 3.57
 6 -5 4 4.71 3.47
 6 -5 5 72.83 5.84
 6 -5 6 13.92 3.6
 6 -5 7 28.4 4.37
 6 -5 8 8.01 3.28
 6 -5 9 1.64 3.02
 6 -4 0 13.02 4.13
 6 -4 1 30.9 4.64
 6 -4 2 55.75 5.17
 6 -4 3 72.1 5.75
 6 -4 5 115.47 7.21
 6 -4 6 10.58 3.9
 6 -4 7 13.37 4.06
 6 -4 8 43.31 5.3
 6 -4 10 16.71 3.56
 6 -3 -3 61.91 5.33
 6 -3 0 166.24 8.45
 6 -3 1 80.37 6.09
 6 -3 2 10.05 3.97
 6 -3 3 66.31 6.17
 6 -3 4 25.04 4.68
 6 -3 6 59.68 5.61
 6 -3 7 17.67 3.96
 6 -3 8 9.8 3.44
 6 -3 9 15.09 4.25
 6 -3 10 8.34 3.51
 6 -3 11 4.58 3.21
 6 -2 -4 45.49 5.24
 6 -2 -3 35.99 5.15
 6 -2 -2 196.28 8.83
 6 -2 1 41.67 4.75
 6 -2 2 201.19 8.99
 6 -2 4 41.56 4.86
 6 -2 5 31.71 4.72
 6 -2 6 45.37 5.74
 6 -2 8 11.9 3.71
 6 -2 9 47.22 5.86
 6 -2 10 12.77 3.75
 6 -2 11 27.73 4.57
 6 -2 12 10.44 3.71
 6 -1 -5 67.72 5.92
 6 -1 -4 51.1 5.19
 6 -1 -3 8.32 3.8
 6 -1 -2 20.04 4.08
 6 -1 0 118.32 7.06
 6 -1 1 39.72 4.93
 6 -1 2 28.93 4.7
 6 -1 3 6.29 3.22
 6 -1 4 50.95 5.27
 6 -1 5 61.35 5.46
 6 -1 6 30.2 4.9
 6 -1 7 78.26 6.16
 6 -1 8 30.44 4.73
 6 -1 9 15.31 4.11
 6 -1 10 7.81 4.21
 6 -1 11 4.42 3.8
 6 -1 12 4.28 4.2
 6 -1 13 2.61 3.45
 6 0 -6 53.43 5.28
 6 0 -5 92.33 6.3
 6 0 -4 11.69 3.66
 6 0 -3 1.76 2.97
 6 0 -1 87.72 6.43
 6 0 0 33.67 4.97
 6 0 1 88.94 6.61
 6 0 2 55.11 5.15
 6 0 3 -0.79 3.32
 6 0 4 8.33 3.48
 6 0 6 57.47 6.07
 6 0 7 199.62 9.43
 6 0 9 60.12 6.96
 6 0 10 104.52 7.32
 6 0 11 33.21 5.47
 6 0 12 4.51 3.8
 6 0 13 4.51 3.85
 6 0 14 2.12 3.45
 6 1 -7 85.51 6.52
 6 1 -6 40.01 4.9
 6 1 -5 66.04 5.66
 6 1 -4 47.03 5.08
 6 1 -3 9.06 3.57
 6 1 -1 40.84 4.65
 6 1 0 114.26 7.04
 6 1 1 43.71 5.01
 6 1 2 25.04 4.35
 6 1 3 4.98 3.63
 6 1 4 47.59 5.63
 6 1 6 35.2 5.17
 6 1 7 82.1 6.96
 6 1 8 32.43 5.12
 6 1 9 15.86 4.92
 6 1 10 3.7 3.73
 6 1 11 3.89 4.08
 6 1 12 2.19 4.03
 6 1 13 1.92 3.62
 6 1 14 12.15 5.16
 6 1 15 4.12 4.75
 6 2 -7 59.57 5.39
 6 2 -6 58.56 5.99
 6 2 -5 31.39 4.52
 6 2 -4 48.71 5.24
 6 2 -3 43.17 5.12
 6 2 -2 187.03 8.55
 6 2 -1 38.94 5.35
 6 2 0 18.36 4.02
 6 2 1 37.44 4.81
 6 2 2 190.08 9.15
 6 2 3 42.46 4.8
 6 2 4 47.14 5.65
 6 2 5 31.28 4.87
 6 2 6 54.89 6.5
 6 2 7 64.29 6.17
 6 2 8 20.15 4.66
 6 2 10 18.42 5.58
 6 2 11 27.45 5.62
 6 2 12 5.97 4.45
 6 2 13 -0.28 4.79
 6 2 14 25.3 5.54
 6 2 15 -1.86 3.79
 6 3 -8 5.57 3.15
 6 3 -7 21.45 3.99
 6 3 -5 36.62 5.37
 6 3 -3 66.68 5.78
 6 3 -2 10.8 3.61
 6 3 -1 78.04 6.57
 6 3 0 166.24 8.43
 6 3 3 64.86 5.89
 6 3 4 21.54 4.52
 6 3 5 40.55 5.5
 6 3 7 19.33 4.66
 6 3 8 5.72 4.05
 6 3 9 16.08 4.82
 6 3 10 8.14 4.68
 6 3 12 1.89 5.02
 6 3 13 11.84 5.04
 6 3 14 28.49 6.51
 6 4 -6 7.01 3.4
 6 4 -3 74.2 6.31
 6 4 -1 25.62 4.57
 6 4 0 15.5 4.12
 6 4 1 29.72 5.17
 6 4 2 54.43 5.43
 6 4 3 85.42 7.15
 6 4 4 41.51 5.71
 6 4 6 9.03 4.26
 6 4 7 5 4.75
 6 4 8 42.23 6.65
 6 4 9 16.85 5.15
 6 4 11 -1.33 4.01
 6 4 12 -2.22 4.25
 6 4 13 8.1 5.72
 6 4 14 16.72 5.47
 6 5 -8 11.47 3.3
 6 5 -7 31.96 4.8
 6 5 -6 7.4 3.85
 6 5 -5 76.91 6.61
 6 5 -4 9.16 3.49
 6 5 -3 11.8 3.9
 6 5 -1 244.93 9.98
 6 5 0 13.44 4.45
 6 5 1 256.11 10.73
 6 5 2 5.29 3.53
 6 5 4 11.98 4.21
 6 5 5 66.61 7.15
 6 5 6 9.21 4.35
 6 5 7 35.15 6.03
 6 5 8 11.47 4.66
 6 5 9 2.43 4.33
 6 5 10 30.38 6.54
 6 5 11 9.35 5.48
 6 5 12 10.27 6.1
 6 6 -8 -2.45 2.13
 6 6 -7 3.43 2.76
 6 6 -6 14.4 4.11
 6 6 -3 74.67 6.37
 6 6 -2 52.31 5.64
 6 6 -1 172.16 9.09
 6 6 1 176.1 8.94
 6 6 2 39.87 5.56
 6 6 3 81.58 7
 6 6 4 47.01 6.19
 6 6 5 40.48 6.05
 6 6 6 13.3 5.67
 6 6 7 6 4.86
 6 6 8 0.64 5.07
 6 6 9 14.95 5.41
 6 6 10 11.05 5.43
 6 6 11 1.61 4.81
 6 6 12 -0.06 4.82
 6 6 13 14.74 6.44
 6 7 -7 0.49 2.13
 6 7 -6 136.09 7.34
 6 7 -4 11.44 4.33
 6 7 -3 -1.58 3.04
 6 7 -2 1.1 3.19
 6 7 0 77.95 6.67
 6 7 1 47.2 5.85
 6 7 2 1.34 3.69
 6 7 3 -1.75 3.41
 6 7 4 7.3 4.42
 6 7 5 7.11 4.44
 6 7 6 133.7 9.79
 6 7 7 3.91 5.11
 6 7 9 1.99 4.43
 6 7 10 0.98 5.32
 6 7 11 37.44 7.23
 6 7 12 1.32 5.4
 6 8 -5 6.59 3.01
 6 8 -4 66.02 6.13
 6 8 -3 14.55 4.72
 6 8 -2 25.57 5.12
 6 8 -1 32.67 5.74
 6 8 0 68.56 6.86
 6 8 1 32.1 5.55
 6 8 2 29.22 6.07
 6 8 3 17.76 4.98
 6 8 4 62.29 7.27
 6 8 5 9.98 5.27
 6 8 6 0.88 4.36
 6 8 7 3.48 4.83
 6 8 8 80.2 8.46
 6 8 9 55.91 8.36
 6 8 10 1.76 4.79
 6 8 11 13.29 5.8
 6 9 -4 1.85 2.52
 6 9 -3 11.82 4.18
 6 9 -2 16.63 4.7
 6 9 -1 25 5.35
 6 9 0 4.24 3.84
 6 9 2 11.89 4.93
 6 9 3 11.18 4.63
 6 9 4 0.98 4.17
 6 9 5 15.61 5.66
 6 9 6 39.44 6.64
 6 9 7 13.52 5.64
 6 9 8 10.05 5.68
 6 9 9 1.53 5.06
 6 9 10 22.35 6.53
 6 10 -2 4.55 3.86
 6 10 -1 25.54 5.11
 6 10 0 94.01 8.01
 6 10 1 20.7 5.52
 6 10 2 6.53 5.08
 6 10 4 24.28 6.15
 6 10 5 7.88 6.09
 6 10 6 14.69 5.68
 6 10 7 28.32 6.63
 6 11 -1 2.65 4
 6 11 0 23.32 5.25
 6 11 2 29.06 6.06
 6 11 3 22.48 5.53
 6 11 4 17.53 5.44
 6 11 5 11.59 5.6
 7 -6 7 13.57 3.94
 7 -5 2 0.84 3.97
 7 -5 3 26.6 4.82
 7 -5 4 2.32 3.68
 7 -5 5 8.98 4.33
 7 -5 6 -1.95 3.18
 7 -5 7 74.94 6.43
 7 -5 8 35.79 5.05
 7 -4 -1 41.16 5.78
 7 -4 0 5.47 3.83
 7 -4 1 41.75 5.79
 7 -4 2 5.92 4.19
 7 -4 3 37.75 5.46
 7 -4 4 78.67 7.1
 7 -4 5 21.64 4.7
 7 -4 6 55.73 6.22
 7 -4 7 2.61 3.52
 7 -4 8 33.24 5.68
 7 -4 9 78.91 7.02
 7 -4 10 61.02 6.5
 7 -3 -2 16.95 4.9
 7 -3 -1 71.98 6.61
 7 -3 0 2.54 3.53
 7 -3 1 76.86 7.37
 7 -3 3 44.83 5.91
 7 -3 4 66.24 6.83
 7 -3 5 27.68 5.14
 7 -3 6 53.86 6.83
 7 -3 8 92.6 7.31
 7 -3 9 20.99 5.27
 7 -3 11 16.01 4.83
 7 -2 -2 14.41 4.46
 7 -2 -1 37.5 5.57
 7 -2 0 0.91 4.09
 7 -2 1 38.99 5.88
 7 -2 2 14.24 4.52
 7 -2 4 38.47 6.11
 7 -2 5 1.99 3.46
 7 -2 6 24.3 5.49
 7 -2 9 5.62 3.99
 7 -2 10 43.86 5.85
 7 -2 11 34.1 5.54
 7 -2 12 1.34 3.72
 7 -1 -5 70.97 6.39
 7 -1 -4 63.61 6.22
 7 -1 -3 6.38 3.74
 7 -1 -2 34.37 5.32
 7 -1 -1 98.2 7.49
 7 -1 0 180.59 9.85
 7 -1 1 106.69 7.63
 7 -1 3 1.79 3.71
 7 -1 6 25.18 5.09
 7 -1 7 27.96 5.29
 7 -1 8 21.77 4.96
 7 -1 9 28.82 5.93
 7 -1 10 12.35 4.59
 7 -1 11 12.65 4.38
 7 -1 12 4.1 4
 7 -1 13 24.25 5.38
 7 0 -6 5.52 4.14
 7 0 -5 6.08 3.94
 7 0 -4 0.95 3.42
 7 0 -3 0.16 4.04
 7 0 -1 2.29 4.38
 7 0 0 4.5 3.57
 7 0 2 33.74 5.43
 7 0 3 0.32 3.41
 7 0 4 -1.29 3.01
 7 0 5 7.04 4.46
 7 0 6 6.23 4.01
 7 0 7 3.65 3.87
 7 0 8 10.28 4.42
 7 0 10 2.52 4.15
 7 0 11 2.64 4.29
 7 0 12 6.72 4.45
 7 0 13 11.91 4.94
 7 1 -6 21.8 4.66
 7 1 -4 62.15 6.02
 7 1 -3 3.54 4.41
 7 1 -2 37.75 5.98
 7 1 -1 114.76 8.54
 7 1 2 34.46 5.97
 7 1 3 0.9 4.15
 7 1 4 67.82 7.38
 7 1 6 17.31 5.14
 7 1 7 27.43 5.71
 7 1 9 34.35 6.17
 7 1 10 12.43 5.11
 7 1 11 10.8 4.74
 7 1 12 0.21 4.39
 7 2 -7 6.75 4.04
 7 2 -6 27.11 5.22
 7 2 -5 -1.61 3.29
 7 2 -4 45.52 6.07
 7 2 -3 14.1 4.45
 7 2 -2 15.03 5.12
 7 2 -1 32.29 5.61
 7 2 1 33.9 5.4
 7 2 2 14.72 4.88
 7 2 4 41.38 6.46
 7 2 5 7.12 4.31
 7 2 6 39.25 6.47
 7 2 7 2 4.17
 7 2 8 51.8 7.36
 7 2 9 4.47 5.33
 7 2 10 34 6.06
 7 2 11 27.77 5.88
 7 2 12 1.63 4.48
 7 2 13 16.71 5.86
 7 3 -7 19.02 4.45
 7 3 -6 49.98 6.23
 7 3 -5 29.89 5.57
 7 3 -4 59.4 6.45
 7 3 -3 39.39 6.25
 7 3 -2 21.74 4.81
 7 3 -1 65.8 6.52
 7 3 0 4.52 3.62
 7 3 1 71.05 7.44
 7 3 3 47.6 6.41
 7 3 4 54.56 6.72
 7 3 5 31.2 5.68
 7 3 6 52.58 7.13
 7 3 7 22.91 6.26
 7 3 8 85.25 8.72
 7 3 9 15.45 5.05
 7 3 10 30.58 6.46
 7 3 11 7.28 5.19
 7 3 12 16.79 5.73
 7 4 -8 27.71 4.51
 7 4 -7 0.95 3.7
 7 4 -6 59.48 6.15
 7 4 -5 28.53 5.21
 7 4 -4 78.71 7.01
 7 4 -1 37.79 5.82
 7 4 1 42.31 5.96
 7 4 6 48.38 7.47
 7 4 7 2.39 4.77
 7 4 8 25.47 6.32
 7 4 9 83.19 8.75
 7 4 10 47.16 7.38
 7 4 11 9.94 5.24
 7 4 12 9.49 5.17
 7 5 -8 34.45 4.91
 7 5 -7 76.05 6.97
 7 5 -6 -0.31 3.54
 7 5 -5 7.54 4.62
 7 5 -2 3.83 3.94
 7 5 0 0.27 3.83
 7 5 1 13.38 4.7
 7 5 2 10.09 4.66
 7 5 3 21.37 5.44
 7 5 4 3.67 4.28
 7 5 5 1.92 4.15
 7 5 6 -1.34 4.49
 7 5 9 4.86 4.95
 7 5 10 9.1 6.24
 7 5 11 6.7 5.83
 7 6 -7 5.45 4
 7 6 -6 8.08 3.82
 7 6 -5 42.25 6.61
 7 6 -4 12.49 4.8
 7 6 -2 11.46 4.54
 7 6 -1 1.87 4.58
 7 6 0 39.23 6.54
 7 6 1 0.41 3.91
 7 6 2 8.75 5.2
 7 6 3 26.8 6.05
 7 6 4 8.36 4.98
 7 6 5 36.21 6.47
 7 6 6 8.38 4.98
 7 6 7 8.55 4.92
 7 6 8 65.13 8.74
 7 6 9 19.9 6.46
 7 6 10 2.52 5.34
 7 7 -6 58.37 6.37
 7 7 -5 10.96 4.33
 7 7 -3 7.23 4.69
 7 7 -2 12.54 4.71
 7 7 -1 33 5.96
 7 7 0 8 4.87
 7 7 1 37.63 6.04
 7 7 2 8.98 5.39
 7 7 3 5.43 5.04
 7 7 4 0.8 5
 7 7 5 13.64 5.39
 7 7 7 29.69 7.02
 7 7 8 8.24 5.76
 7 7 9 2.76 5.34
 7 8 -5 8.44 3.98
 7 8 -4 3.61 3.84
 7 8 -2 -1.36 4.79
 7 8 0 62.39 7.44
 7 8 1 30.41 6.61
 7 8 2 -2.8 4.18
 7 8 4 2.52 4.59
 7 8 5 8.77 5.43
 7 8 6 22.84 6.15
 7 8 7 20.28 6.25
 7 8 8 10.28 5.33
 7 9 -4 33.02 5.54
 7 9 -3 -2.9 3.58
 7 9 -1 29.03 5.7
 7 9 0 4.29 4.23
 7 9 1 27.8 6.12
 7 9 2 29.44 6.11
 7 9 3 3.24 5.59
 7 9 4 20.64 6.04
 7 9 6 15.47 5.97
 7 10 -2 11.42 4.52
 7 10 -1 0.67 4.84
 7 10 0 28.93 5.98
 7 10 1 7.26 5.73
 7 10 2 9.98 5.25
 8 -5 3 3.86 3.84
 8 -5 4 36.81 5.87
 8 -5 5 14.99 4.62
 8 -5 6 42.21 6.13
 8 -5 7 13.44 4.65
 8 -4 0 51.89 6.56
 8 -4 1 26.4 5.48
 8 -4 3 7.58 4.51
 8 -4 4 6.88 4.29
 8 -4 5 0.65 4.04
 8 -4 7 21.61 5.09
 8 -4 8 23.84 4.98
 8 -3 -1 17.06 4.94
 8 -3 0 10.59 4.62
 8 -3 1 13.4 4.77
 8 -3 2 20.07 5.22
 8 -3 3 0.1 4.26
 8 -3 6 23.49 5.46
 8 -3 8 36.53 5.81
 8 -3 9 8.31 5.21
 8 -2 -3 41.35 6.17
 8 -2 -2 39.49 6.9
 8 -2 -1 65.93 8.19
 8 -2 0 12.5 4.92
 8 -2 1 69.13 7.38
 8 -2 2 39.78 6.6
 8 -2 3 42.9 7.34
 8 -2 4 14.38 5.06
 8 -2 5 38.87 6.63
 8 -2 6 9.29 4.86
 8 -2 7 11.59 4.87
 8 -2 8 16.18 5.32
 8 -2 9 13.11 5.01
 8 -1 -4 5.5 5.15
 8 -1 -1 113.93 8.55
 8 -1 0 10.59 5.76
 8 -1 1 123.96 9.85
 8 -1 2 15.44 5.96
 8 -1 3 11.71 4.95
 8 -1 6 4.1 4.51
 8 -1 7 28.8 5.96
 8 -1 8 9.61 4.93
 8 -1 9 10.51 5.32
 8 -1 10 3.65 4.91
 8 0 -4 78.72 7.64
 8 0 -3 35.82 6.19
 8 0 -2 36.02 6.32
 8 0 -1 96.88 8.81
 8 0 0 2.42 4.56
 8 0 1 88.05 8.45
 8 0 2 25.23 5.7
 8 0 3 34.99 6.71
 8 0 4 82.49 8.31
 8 0 5 99.22 8.96
 8 0 7 5.34 4.72
 8 0 9 -1.01 4.08
 8 0 10 0.03 5.4
 8 1 -5 33.26 6.36
 8 1 -4 10.34 4.91
 8 1 -3 7.1 4.85
 8 1 -2 14.02 5.94
 8 1 -1 127.96 9.2
 8 1 0 9.85 5.41
 8 1 1 110.68 9.33
 8 1 2 22.69 5.69
 8 1 3 11.74 5.34
 8 1 4 7.06 5.62
 8 1 5 18.4 5.63
 8 1 7 38.45 6.57
 8 1 8 6.28 4.76
 8 1 9 20.86 6.65
 8 1 10 10.03 5.17
 8 2 -6 8.79 4.94
 8 2 -5 34.39 6.09
 8 2 -4 16.46 5.13
 8 2 -3 38.19 6.54
 8 2 -2 37.04 6.45
 8 2 0 14.34 5.46
 8 2 1 75.81 8.87
 8 2 2 40.48 7.04
 8 2 4 11.8 5.02
 8 2 6 16.01 5.54
 8 2 7 1.62 4.67
 8 2 8 15.7 5.75
 8 2 9 12.73 5.62
 8 3 -7 12.52 4.98
 8 3 -5 11.29 5.16
 8 3 -4 30.26 6.08
 8 3 -3 -3.07 4.12
 8 3 -2 29.45 6.12
 8 3 -1 13.14 5.03
 8 3 0 8.53 5.67
 8 3 1 14.26 5.34
 8 3 4 27.35 6.75
 8 3 5 9.38 4.97
 8 3 6 14.5 5.54
 8 3 7 15.49 6.19
 8 3 8 28.7 6.39
 8 4 -7 20.77 5.5
 8 4 -6 3.3 4.75
 8 4 -4 4.99 4.77
 8 4 -3 5.15 4.64
 8 4 -2 1.57 4.57
 8 4 -1 16.34 5.77
 8 4 0 42.35 6.96
 8 4 1 13.43 5.46
 8 4 2 0.29 4.19
 8 4 3 4.26 4.81
 8 4 4 2.7 5.51
 8 4 5 -0.13 4.73
 8 4 6 10.12 5.83
 8 4 7 19.23 6.7
 8 5 -7 17.47 5.28
 8 5 -6 37.51 6.58
 8 5 -4 33.68 6.35
 8 5 -3 1.75 4.28
 8 5 -2 19.99 6
 8 5 -1 39.49 6.64
 8 5 0 28.28 6.18
 8 5 1 46.32 7.11
 8 5 3 3.58 5.91
 8 5 4 40.67 7.1
 8 5 6 36.04 6.88
 8 5 7 12.78 5.66
 8 6 -4 76.88 8.34
 8 6 -3 12.45 5.1
 8 6 -2 46.35 7.49
 8 6 0 15.49 5.45
 8 6 2 36.26 6.94
 8 6 3 12.75 5.84
 8 6 4 78.62 9.74
 8 6 5 9.19 5.59
 8 6 6 28.42 6.84
 8 7 -4 2.97 4.51
 8 7 -3 4.15 4.82
 8 7 -2 2.81 4.45
 8 7 -1 0.56 4.4
 8 7 1 5.79 5.31
 8 7 2 3.05 5.64
 8 7 3 5.63 5.92
 9 -3 0 1.41 4.92
 9 -3 1 4.69 4.79
 9 -3 2 1.57 4.8
 9 -2 0 -2.68 4.11
 9 -2 1 5.38 5.24
 9 -2 2 2.05 5.21
 9 -2 3 0.76 4.74
 9 -2 4 -1.16 4.24
 9 -1 -2 4.52 4.74
 9 -1 -1 29.64 6.4
 9 -1 0 6.5 4.98
 9 -1 1 23.79 6.12
 9 -1 2 -0.44 5.17
 9 -1 3 -1.11 4.61
 9 -1 4 0.04 5.42
 9 0 -4 28.69 6.52
 9 0 -3 25.8 5.85
 9 0 -2 -0.03 5.04
 9 0 -1 1.86 4.82
 9 0 0 -2.02 4.42
 9 0 1 4.06 4.93
 9 0 2 1.25 5.47
 9 0 3 28.71 6.99
 9 0 4 17.29 6.07
 9 1 -4 0.34 4.43
 9 1 -3 -1.34 5.06
 9 1 -1 25.85 6.9
 9 1 0 5.6 5.82
 9 1 1 22.45 6.77
 9 1 2 1.31 6.02
 9 1 3 1.09 5.09
 9 1 4 0.32 6.18
 9 2 -4 -2.75 4.51
 9 2 -3 6.87 5.64
 9 2 -2 -0.88 4.86
 9 2 -1 -3.44 4.85
 9 2 0 -0.93 4.77
 9 2 1 4.79 5.3
 9 2 2 -2.73 4.78
 9 2 3 8.24 6.8
 9 2 4 3.77 5.22
 9 3 -2 6.97 5.19
 9 3 0 1.48 5.24
 9 3 1 3.3 5
 9 3 2 3.23 5.51
 -4 -5 -15 21.38 4.4
 -4 -5 -14 4.7 3.79
 -4 -5 -13 9.22 3.82
 -4 -5 -12 7.08 2.9
 -4 -4 -15 8.89 4.17
 -4 -4 -14 18.7 4.44
 -4 -4 -13 11.14 3.55
 -4 -4 -12 -1.29 2.91
 -4 -3 -15 15.07 4.27
 -4 -3 -14 6.74 4.07
 -4 -3 -13 29.44 4.81
 -4 -3 -12 2.97 2.84
 -3 -7 -16 7.45 3.57
 -3 -7 -15 68.73 5.73
 -3 -7 -14 47.46 4.94
 -3 -7 -13 7.27 3.24
 -3 -7 -12 21.02 3.38
 -3 -7 -11 0.03 1.89
 -3 -7 -9 79.72 4.07
 -3 -7 -7 41.59 2.6
 -3 -6 -17 2.93 3.73
 -3 -6 -16 46.53 5.62
 -3 -6 -15 87.08 6.26
 -3 -6 -14 6.62 3.05
 -3 -6 -13 16.45 3.79
 -3 -6 -12 6.42 2.67
 -3 -6 -9 38.48 3.46
 -3 -6 -8 130.72 4.69
 -3 -6 -7 29.73 2.57
 -3 -5 -18 12.53 4.6
 -3 -5 -17 20.49 4.53
 -3 -5 -14 80.37 5.97
 -3 -5 -13 30.58 4.16
 -3 -5 -12 7.54 2.79
 -3 -5 -11 40.87 4.2
 -3 -5 -8 20.88 2.84
 -3 -5 -7 16.34 2.29
 -3 -5 -6 135.23 4.1
 -3 -4 -18 4.93 4.75
 -3 -4 -17 5.9 3.88
 -3 -4 -16 5.45 3.67
 -3 -4 -15 12.49 3.72
 -3 -4 -13 25.09 4.4
 -3 -4 -12 13.21 3.13
 -3 -4 -8 18.47 2.79
 -3 -4 -7 92.6 4.03
 -3 -4 -6 238.51 5.45
 -3 -3 -18 19.27 5.12
 -3 -3 -17 1.8 4.61
 -3 -3 -16 5.99 4.32
 -3 -3 -15 45.35 6.01
 -3 -3 -14 2.52 3.22
 -3 -3 -13 1.1 2.68
 -3 -3 -12 14.21 3.14
 -3 -3 -9 138.19 5.45
 -3 -3 -8 7.08 2.41
 -3 -3 -6 28.48 2.65
 -3 -2 -18 7.62 5.05
 -3 -2 -17 12.94 4.76
 -3 -2 -16 32.87 5.55
 -3 -2 -15 30.6 5.37
 -3 -2 -14 32.91 4.58
 -3 -2 -13 60.11 5.59
 -3 -2 -12 27.91 3.79
 -3 -2 -11 2.22 2.37
 -3 -2 -9 112.94 5.36
 -3 -2 -8 88.61 4.24
 -3 -2 -7 366.27 7.66
 -3 -2 -6 28.34 2.62
 -3 -1 -19 -2.23 4.21
 -3 -1 -18 15.55 4.87
 -3 -1 -17 -0.57 4.1
 -3 -1 -16 33.31 5.46
 -3 -1 -14 33.99 4.69
 -3 -1 -13 27.61 4.24
 -3 -1 -12 -1.03 2.29
 -3 -1 -11 115.99 5.84
 -3 -1 -7 185.71 5.77
 -3 0 -19 37.28 7.03
 -3 0 -18 4.34 4.53
 -3 0 -17 7.4 4.54
 -3 0 -16 1.63 3.79
 -3 0 -15 70.77 6.86
 -3 0 -14 168.49 8.03
 -3 0 -13 17.36 3.74
 -3 0 -12 75.12 5.42
 -3 0 -11 14.42 2.99
 -3 0 -8 9.76 2.77
 -3 0 -7 1.72 1.8
 -3 1 -18 9.47 4.86
 -3 1 -17 4.05 4.15
 -3 1 -16 45.85 6.14
 -3 1 -15 21.98 4.87
 -3 1 -14 41.52 5.23
 -3 1 -13 20.53 3.85
 -3 1 -12 0.6 2.57
 -3 1 -11 112.73 6.36
 -3 1 -10 8.19 2.76
 -3 2 -16 32.1 6.12
 -3 2 -15 34.04 5.35
 -3 2 -13 62.56 5.92
 -3 2 -12 19.91 3.72
 -2 -8 -16 4.92 3.48
 -2 -8 -15 15.48 4.24
 -2 -8 -14 19.8 3.67
 -2 -8 -13 20.3 3.75
 -2 -8 -12 18.24 3.53
 -2 -8 -11 6.82 2.65
 -2 -8 -8 52.73 3.12
 -2 -8 -6 17.53 1.75
 -2 -8 -5 198.17 3.64
 -2 -7 -17 10.99 3.81
 -2 -7 -16 6.52 3.72
 -2 -7 -15 10.16 4.01
 -2 -7 -14 1.06 2.67
 -2 -7 -13 71.85 5.39
 -2 -7 -12 7.24 2.84
 -2 -7 -11 1.02 2.12
 -2 -7 -9 42.21 3.24
 -2 -7 -8 40.97 2.95
 -2 -7 -7 2.56 1.35
 -2 -7 -6 1.8 1.19
 -2 -7 -5 145.73 3.39
 -2 -7 -4 12.93 1.18
 -2 -6 -18 6.96 4.23
 -2 -6 -17 13.18 4.39
 -2 -6 -15 10.91 3.49
 -2 -6 -14 78.5 6.11
 -2 -6 -13 1.16 2.54
 -2 -6 -12 0.4 2.12
 -2 -6 -11 31.68 3.88
 -2 -6 -9 60.69 3.82
 -2 -6 -8 9.13 1.99
 -2 -6 -6 128.32 3.79
 -2 -6 -5 198.68 4.08
 -2 -6 -4 46.49 1.85
 -2 -6 -3 16.57 1.01
 -2 -5 -18 6.55 3.99
 -2 -5 -16 55.86 6.36
 -2 -5 -15 11.49 3.64
 -2 -5 -14 2.77 3.48
 -2 -5 -13 43.06 4.65
 -2 -5 -12 19.97 3.21
 -2 -5 -11 0.15 2.04
 -2 -5 -9 0.52 1.86
 -2 -5 -8 215.49 5.89
 -2 -5 -7 98.44 3.81
 -2 -5 -6 186.37 4.5
 -2 -5 -5 228.72 4.48
 -2 -5 -4 134.59 3.01
 -2 -5 -3 62.92 1.79
 -2 -4 -19 6.27 4.41
 -2 -4 -18 5.01 4.5
 -2 -4 -16 11.6 3.85
 -2 -4 -15 56.15 6.04
 -2 -4 -14 39.83 4.41
 -2 -4 -13 64.04 5.11
 -2 -4 -12 14.74 3.17
 -2 -4 -9 103.82 4.75
 -2 -4 -8 17.52 2.53
 -2 -4 -7 129.93 4.21
 -2 -4 -6 9.73 1.59
 -2 -4 -5 99.28 3.2
 -2 -4 -3 226.94 3.45
 -2 -3 -19 13.4 5.06
 -2 -3 -18 18.8 4.95
 -2 -3 -17 21.71 5.09
 -2 -3 -16 8.84 3.9
 -2 -3 -15 75.26 6.44
 -2 -3 -14 4.62 2.97
 -2 -3 -13 23.76 3.63
 -2 -3 -9 9.18 2.15
 -2 -3 -8 2.27 1.76
 -2 -3 -7 113.54 4
 -2 -3 -5 453.5 6.46
 -2 -3 -4 17.19 1.57
 -2 -3 -3 372.77 4.68
 -2 -2 -19 3.49 4.54
 -2 -2 -18 7.3 4.29
 -2 -2 -17 27.05 5.65
 -2 -2 -16 5.27 3.58
 -2 -2 -14 1.81 3.22
 -2 -2 -13 29.84 4.3
 -2 -2 -12 16.88 3.45
 -2 -2 -9 22.75 2.93
 -2 -2 -8 0.36 1.61
 -2 -2 -7 679.28 9.54
 -2 -2 -6 90.42 3.58
 -2 -2 -4 198.7 4.27
 -2 -2 -3 281.33 4.39
 -2 -1 -19 64.52 7.03
 -2 -1 -18 16.5 5.35
 -2 -1 -17 2.38 3.79
 -2 -1 -16 30.79 5.43
 -2 -1 -14 -0.34 2.57
 -2 -1 -13 4.4 2.81
 -2 -1 -12 87.31 5.61
 -2 -1 -9 147.11 5.35
 -2 -1 -8 159.29 5.44
 -2 -1 -7 44.79 3.07
 -2 -1 -5 525.14 7.36
 -2 -1 -4 93.6 3.16
 -2 -1 -3 306.51 5
 -2 0 -19 -2.3 4.48
 -2 0 -18 20.87 4.98
 -2 0 -17 1.06 3.63
 -2 0 -16 4.18 4.49
 -2 0 -15 11.3 4
 -2 0 -14 0.37 3.21
 -2 0 -13 16.83 3.64
 -2 0 -8 2.2 1.61
 -2 0 -7 0.86 1.92
 -2 0 -5 76.85 3.16
 -2 0 -4 133.78 3.76
 -2 1 -19 73.64 8.16
 -2 1 -18 13.85 4.77
 -2 1 -17 0.05 3.71
 -2 1 -16 23.77 4.74
 -2 1 -15 108.67 7.41
 -2 1 -14 2.45 2.69
 -2 1 -13 4.77 3.13
 -2 1 -12 91.54 5.46
 -2 1 -9 152.99 5.96
 -2 1 -8 164.79 5.58
 -2 1 -7 45.26 3.36
 -2 1 -6 54.19 3.01
 -2 1 -5 509.58 7.91
 -2 2 -19 3.28 4.44
 -2 2 -18 12.43 5.58
 -2 2 -17 15.99 4.78
 -2 2 -15 45.25 6
 -2 2 -14 0.99 2.64
 -2 2 -13 34.19 4.66
 -2 2 -12 20.19 3.47
 -2 2 -11 74.78 5.15
 -2 2 -8 -0.02 1.47
 -2 2 -7 667.04 10.39
 -2 2 -6 88.76 3.91
 -2 3 -19 14.73 5.7
 -2 3 -18 23.04 5.43
 -2 3 -17 23.64 5.15
 -2 3 -16 3.22 3.72
 -2 3 -15 72.7 6.69
 -2 3 -14 4.8 2.96
 -2 3 -13 25.19 4.08
 -2 3 -12 32.37 4.07
 -2 3 -11 30.42 3.78
 -2 3 -8 1.89 1.92
 -2 3 -7 109.66 4.9
 -2 4 -16 11.79 4.76
 -2 4 -14 49.79 6.08
 -2 4 -13 74.49 6.15
 -2 4 -12 13.74 3.68
 -2 4 -10 16.93 3.1
 -1 -9 -16 4.08 3.45
 -1 -9 -14 7.83 3.14
 -1 -9 -13 11.07 3.28
 -1 -9 -12 2.59 2.71
 -1 -9 -11 29.62 3.62
 -1 -9 -10 160.88 6.08
 -1 -9 -8 51.01 3.39
 -1 -9 -7 52.72 3.15
 -1 -9 -6 10.26 1.77
 -1 -9 -5 22.32 1.89
 -1 -9 -4 120.04 3.14
 -1 -8 -17 47.96 5.95
 -1 -8 -16 -1.42 3.03
 -1 -8 -15 12.41 3.73
 -1 -8 -13 4.72 3.22
 -1 -8 -12 20.12 3.7
 -1 -8 -11 40.07 4.11
 -1 -8 -8 12.79 2.4
 -1 -8 -6 34.05 2.49
 -1 -8 -5 23.91 2.06
 -1 -8 -4 108.76 3.13
 -1 -8 -3 9.73 1.2
 -1 -8 -2 50.72 1.69
 -1 -8 -1 203.94 2.51
 -1 -7 -17 2.57 3.77
 -1 -7 -16 6.62 3.79
 -1 -7 -15 24.3 4.32
 -1 -7 -14 29.28 4.21
 -1 -7 -13 4.4 2.89
 -1 -7 -12 -0.11 2.59
 -1 -7 -11 9.46 2.91
 -1 -7 -9 34.08 3.45
 -1 -7 -8 80.45 4.08
 -1 -7 -7 51.74 3.19
 -1 -7 -6 149.39 4.35
 -1 -7 -5 6.3 1.36
 -1 -7 -4 252.35 4.57
 -1 -7 -3 21.52 1.54
 -1 -7 -2 37.33 1.51
 -1 -7 -1 118.69 2.05
 -1 -6 -18 -4.21 3.46
 -1 -6 -17 7.77 3.92
 -1 -6 -16 22.97 4.45
 -1 -6 -15 62.59 5.92
 -1 -6 -14 12.33 3.73
 -1 -6 -13 1.94 3.16
 -1 -6 -12 91.77 5.71
 -1 -6 -9 13.28 2.69
 -1 -6 -7 182.66 5.17
 -1 -6 -6 63.18 3.04
 -1 -6 -5 11.06 1.53
 -1 -6 -4 137.75 3.41
 -1 -6 -3 114.42 2.75
 -1 -6 -2 20.97 1.2
 -1 -6 -1 60.47 1.42
 -1 -5 -19 3.8 4.78
 -1 -5 -18 6.11 4.4
 -1 -5 -17 3.63 3.74
 -1 -5 -16 47.26 5.47
 -1 -5 -15 71.85 5.78
 -1 -5 -14 90.36 5.87
 -1 -5 -13 76.73 5.25
 -1 -5 -12 2.51 2.28
 -1 -5 -9 26.43 2.74
 -1 -5 -8 127.41 4.66
 -1 -5 -7 7.25 1.74
 -1 -5 -6 102.15 3.59
 -1 -5 -4 181.8 3.79
 -1 -5 -3 317.39 4.28
 -1 -5 -2 504.46 4.43
 -1 -5 -1 33.72 0.98
 -1 -4 -17 22.4 4.82
 -1 -4 -15 48.62 5.56
 -1 -4 -14 225.12 8.79
 -1 -4 -13 56.13 4.94
 -1 -4 -12 102.24 5.47
 -1 -4 -9 3.25 1.98
 -1 -4 -8 23.11 2.86
 -1 -4 -7 53.8 2.89
 -1 -4 -6 127.91 3.89
 -1 -4 -5 379.84 5.82
 -1 -4 -4 202.82 3.86
 -1 -4 -2 98.67 1.99
 -1 -3 -19 33.18 5.8
 -1 -3 -18 12.04 4.41
 -1 -3 -17 2.38 3.76
 -1 -3 -16 106.87 7.29
 -1 -3 -15 238.21 9.45
 -1 -3 -13 13.26 3.06
 -1 -3 -12 5.96 2.61
 -1 -3 -10 -0.43 1.69
 -1 -3 -9 769.84 11.52
 -1 -3 -8 15.63 2.18
 -1 -3 -6 144.2 4.07
 -1 -3 -5 372.99 5.67
 -1 -3 -4 391.97 5.15
 -1 -3 -3 50.2 1.84
 -1 -3 -2 400.56 3.55
 -1 -2 -19 9.13 4.5
 -1 -2 -18 -1.33 3.52
 -1 -2 -17 12.67 4.2
 -1 -2 -16 8.01 3.56
 -1 -2 -15 1.2 3.05
 -1 -2 -14 31.56 4.71
 -1 -2 -13 80.69 5.2
 -1 -2 -12 3.5 2.21
 -1 -2 -10 18.57 2.8
 -1 -2 -8 103.27 4.22
 -1 -2 -7 1015.82 11.19
 -1 -2 -6 16.44 1.78
 -1 -2 -5 143.01 3.62
 -1 -2 -4 117.31 3.06
 -1 -2 -3 1027.06 7.09
 -1 -2 -2 138.26 2.27
 -1 -1 -20 33.45 6.78
 -1 -1 -19 12.07 5.38
 -1 -1 -18 51.96 7.09
 -1 -1 -17 5.67 3.87
 -1 -1 -16 0.95 3.2
 -1 -1 -15 45.44 5.54
 -1 -1 -14 7.67 3.33
 -1 -1 -13 6.28 2.61
 -1 -1 -10 15.36 2.52
 -1 -1 -9 531.89 9.47
 -1 -1 -8 85.4 3.96
 -1 -1 -7 125.57 4.15
 -1 -1 -6 637.01 8.22
 -1 -1 -5 364.77 5.8
 -1 -1 -3 280.31 3.92
 -1 -1 -2 3873.44 11.71
 -1 -1 -1 240.39 2.52
 -1 0 -20 16.25 5.31
 -1 0 -19 11.48 5.12
 -1 0 -18 33.16 6.23
 -1 0 -17 10.36 4.03
 -1 0 -16 10.3 3.7
 -1 0 -15 7.72 3.88
 -1 0 -14 53.44 4.73
 -1 0 -13 22.33 3.53
 -1 0 -12 10.36 2.97
 -1 0 -10 16.41 2.83
 -1 0 -9 243.82 6.48
 -1 0 -8 -0.57 1.62
 -1 0 -7 19.45 2.34
 -1 0 -6 113.21 3.62
 -1 0 -4 32.96 2.3
 -1 0 -3 378.91 4.67
 -1 0 -2 1349.61 7.7
 -1 1 -20 27.37 6.3
 -1 1 -19 20.63 5.98
 -1 1 -18 42.48 6.15
 -1 1 -17 3.19 3.69
 -1 1 -16 -1.11 3.84
 -1 1 -15 47.36 5
 -1 1 -14 7.49 3.07
 -1 1 -13 4.04 2.41
 -1 1 -12 48.71 4.14
 -1 1 -10 11.81 2.73
 -1 1 -9 541.15 9.61
 -1 1 -8 84.89 3.93
 -1 1 -7 127.78 4.2
 -1 1 -6 621.81 8.25
 -1 1 -5 374.94 6.31
 -1 1 -4 239.64 4.61
 -1 1 -3 282.16 4.42
 -1 2 -19 5.25 4.37
 -1 2 -18 1.32 4.28
 -1 2 -17 14.72 4.31
 -1 2 -16 12.91 4.56
 -1 2 -15 3.39 3.21
 -1 2 -12 4.02 2.8
 -1 2 -9 140.26 5.2
 -1 2 -8 103.31 4.43
 -1 2 -5 140.19 4.07
 -1 2 -4 114.73 3.38
 -1 2 -3 1034.02 8.76
 -1 3 -19 30.48 6.11
 -1 3 -18 4.44 4.06
 -1 3 -17 -0.4 3.46
 -1 3 -13 8.14 2.77
 -1 3 -12 3.3 3.08
 -1 3 -9 756.29 11.85
 -1 3 -8 18.2 2.52
 -1 3 -7 61.49 3.61
 -1 3 -6 154.08 4.56
 -1 3 -5 383.61 6.63
 -1 3 -4 400.04 6.35
 -1 4 -19 1.97 4.37
 -1 4 -18 6.91 4.83
 -1 4 -17 18.93 4.65
 -1 4 -16 3.52 3.57
 -1 4 -15 43.56 5.5
 -1 4 -14 234.06 9.42
 -1 4 -13 51.81 4.72
 -1 4 -12 104.18 5.75
 -1 4 -11 12.85 2.8
 -1 4 -9 4.33 2.09
 -1 4 -7 55.84 3.42
 -1 4 -6 121.33 4.36
 -1 5 -19 9.2 5.17
 -1 5 -18 -0.43 3.87
 -1 5 -17 5.29 3.93
 -1 5 -16 46.35 5.6
 -1 5 -15 78.62 6.73
 -1 5 -14 89.21 6.4
 -1 5 -13 73.15 5.97
 -1 5 -12 -0.58 2.9
 -1 5 -11 34.18 3.7
 -1 5 -8 121.35 5.3
 -1 6 -15 66.55 6.77
 -1 6 -14 8.12 3.87
 0 -10 -14 19.84 4.29
 0 -10 -13 -2.7 2.99
 0 -10 -12 9.64 3.14
 0 -10 -11 0.17 2.41
 0 -10 -10 95.72 5.46
 0 -10 -9 57.65 4.37
 0 -10 -6 12.8 2.48
 0 -9 -15 4.06 3.53
 0 -9 -14 0.22 3.52
 0 -9 -13 11.36 3.3
 0 -9 -12 1.14 2.56
 0 -9 -11 1.78 2.59
 0 -9 -9 16.19 3.19
 0 -9 -7 2.81 2.02
 0 -9 -6 7.16 2.04
 0 -8 -16 4.3 3.57
 0 -8 -15 12.42 3.96
 0 -8 -13 17 3.65
 0 -8 -12 6.5 2.76
 0 -8 -11 11.76 2.94
 0 -8 -10 13.5 2.9
 0 -8 -7 42.35 3.5
 0 -7 -18 3.61 4.77
 0 -7 -17 11.19 4.09
 0 -7 -16 -1.82 3.36
 0 -7 -15 0.86 3.65
 0 -7 -14 10.19 3.4
 0 -7 -13 -1.64 2.6
 0 -7 -12 0.72 3.03
 0 -7 -11 9.54 3.14
 0 -7 -10 2.39 2.54
 0 -7 -8 137.57 5.4
 0 -7 -7 18.92 2.84
 0 -6 -18 8.46 4.65
 0 -6 -17 2.96 3.77
 0 -6 -15 32.78 5.25
 0 -6 -13 39.62 4.77
 0 -6 -12 6.82 3.21
 0 -6 -11 6.42 2.67
 0 -6 -8 14.04 2.4
 0 -6 -7 248.8 6.71
 0 -5 -19 2.73 4.36
 0 -5 -18 -0.99 4.44
 0 -5 -17 14.68 4.3
 0 -5 -15 42.39 5.09
 0 -5 -14 0.09 2.75
 0 -5 -13 11.34 3.15
 0 -5 -12 69.46 4.74
 0 -5 -9 11.42 2.62
 0 -5 -8 732.55 11.25
 0 -5 -7 17.43 2.45
 0 -4 -18 21.25 4.89
 0 -4 -16 2.23 3.41
 0 -4 -15 109.42 7.16
 0 -4 -14 14.92 3.46
 0 -4 -13 169.27 7.42
 0 -4 -12 73.49 4.86
 0 -4 -9 143.25 5.77
 0 -4 -8 0.01 1.64
 0 -4 -6 21.2 2.54
 0 -3 -19 -3.17 4.37
 0 -3 -18 2.04 3.9
 0 -3 -17 0.64 3.35
 0 -3 -16 9.63 4.19
 0 -3 -15 18.98 3.95
 0 -3 -14 18.86 4.04
 0 -3 -13 27.16 3.75
 0 -3 -12 115.26 5.95
 0 -3 -10 91.29 4.99
 0 -3 -9 14.23 2.71
 0 -3 -8 109.5 4.64
 0 -3 -7 27.44 2.69
 0 -3 -6 227.84 5.48
 0 -2 -20 2.81 4.63
 0 -2 -19 17.85 4.88
 0 -2 -17 63.66 6.35
 0 -2 -16 2.88 3.28
 0 -2 -15 18.74 4.07
 0 -2 -14 45.35 5.09
 0 -2 -13 11.88 2.92
 0 -2 -12 12.48 2.91
 0 -2 -10 46.94 3.5
 0 -2 -9 96.15 4.45
 0 -2 -8 4.54 1.9
 0 -2 -6 480.89 7.51
 0 -2 -5 1158.4 10.44
 0 -1 -20 10.9 4.97
 0 -1 -18 19.9 4.92
 0 -1 -17 1.1 3.21
 0 -1 -16 20.05 4.22
 0 -1 -15 2.28 3.16
 0 -1 -14 4.12 3.08
 0 -1 -13 3.02 2.66
 0 -1 -12 34.79 3.87
 0 -1 -10 57.16 3.64
 0 -1 -9 20.25 2.55
 0 -1 -8 1.01 1.72
 0 -1 -6 114.82 3.83
 0 -1 -5 1495.89 11.51
 0 -1 -4 1901.52 11.47
 0 -1 -3 556.89 5.66
 0 0 -20 5.9 5.07
 0 0 -19 -2.22 4.72
 0 0 -18 23.59 5.38
 0 0 -17 -1.98 3.08
 0 0 -16 27.56 4.52
 0 0 -15 2.14 2.9
 0 0 -14 20.33 3.68
 0 0 -13 -0.06 2.43
 0 0 -12 34.48 4.03
 0 0 -10 360.01 8.39
 0 0 -9 1.29 1.5
 0 0 -8 10.37 1.88
 0 0 -7 0.97 1.27
 0 0 -6 531.2 7.46
 0 0 -5 1.39 1.69
 0 0 -4 1814.36 10.74
 0 0 -3 0.3 0.92
 0 1 -20 7.41 4.64
 0 1 -19 3.82 4.41
 0 1 -18 23.98 5.08
 0 1 -17 3.18 3.5
 0 1 -16 16.94 3.96
 0 1 -15 -1.89 2.47
 0 1 -14 7.49 3.03
 0 1 -13 3.16 2.96
 0 1 -12 34.81 3.6
 0 1 -10 59.74 3.74
 0 1 -8 -0.35 1.3
 0 1 -7 48.95 2.71
 0 1 -6 108.94 3.68
 0 1 -5 1483.3 10.84
 0 1 -4 1897.16 10.87
 0 1 -3 552.77 5.09
 0 1 -2 4059.75 11.03
 0 2 -20 4.41 4.97
 0 2 -19 16.56 5.52
 0 2 -18 -1.45 4.49
 0 2 -16 0.87 3.12
 0 2 -15 20.76 4.12
 0 2 -14 47.17 4.89
 0 2 -12 14.69 2.88
 0 2 -9 98.35 4.41
 0 2 -8 0.79 1.42
 0 2 -7 1576.19 13.66
 0 2 -6 473.15 6.94
 0 2 -5 1162.5 9.7
 0 2 -4 1237.46 8.93
 0 2 -3 420.33 4.64
 0 2 -2 336.8 3.58
 0 3 -19 3.23 4.59
 0 3 -17 3.61 3.61
 0 3 -15 18.93 4.04
 0 3 -14 23.02 3.98
 0 3 -13 27.15 4.09
 0 3 -12 117.79 5.92
 0 3 -10 96.32 4.6
 0 3 -9 10.66 2.35
 0 3 -8 105.31 4.34
 0 3 -7 25.6 2.27
 0 3 -6 233.05 5.11
 0 3 -5 215.76 4.44
 0 4 -19 4.47 4.22
 0 4 -18 15.55 4.52
 0 4 -17 4.73 4.15
 0 4 -16 2.42 3.52
 0 4 -14 15.58 3.46
 0 4 -13 177.32 7.33
 0 4 -9 141.2 5.19
 0 4 -8 0.6 1.95
 0 4 -7 26.42 2.36
 0 4 -6 19.5 2.28
 0 4 -5 10.02 1.51
 0 4 -4 16.8 1.81
 0 5 -19 2.43 4.88
 0 5 -18 2.93 3.81
 0 5 -17 11.44 4.72
 0 5 -16 32.86 5.66
 0 5 -15 48.22 5.84
 0 5 -14 -1.21 3.14
 0 5 -13 15.16 3.35
 0 5 -12 69.48 5.26
 0 5 -11 1.48 2.74
 0 5 -9 12.42 2.71
 0 5 -8 724.58 10.61
 0 5 -7 13.35 1.99
 0 5 -6 54.79 2.84
 0 5 -5 881.66 9.55
 0 6 -18 6.15 4.24
 0 6 -17 4.17 3.86
 0 6 -15 31.88 5.06
 0 6 -14 2.25 3.17
 0 6 -13 33.34 4.48
 0 6 -12 1.66 2.43
 0 6 -11 9.34 3.11
 0 6 -9 175.12 6.12
 0 6 -8 17.73 2.84
 0 7 -15 0.97 3.6
 0 7 -14 4.87 3.28
 0 7 -13 2.81 2.98
 0 7 -12 4.1 2.82
 1 -11 -14 0.31 3.35
 1 -11 -13 6.84 3.42
 1 -11 -12 7.46 3.22
 1 -11 -11 21.52 3.81
 1 -11 -10 87.16 6
 1 -11 -9 2.94 2.72
 1 -11 -8 25.27 3.79
 1 -10 -15 2.53 3.74
 1 -10 -14 37.25 5.33
 1 -10 -13 3.64 3.22
 1 -10 -11 5.2 3.31
 1 -10 -10 84.36 5.98
 1 -10 -9 9.56 2.96
 1 -9 -16 4.25 3.85
 1 -9 -15 18.13 4.45
 1 -9 -14 4 3.27
 1 -9 -13 10.73 3.85
 1 -9 -12 -3.05 3.34
 1 -9 -11 27.32 4.29
 1 -9 -10 174.41 7.59
 1 -9 -9 2.61 2.59
 1 -8 -17 41.2 5.89
 1 -8 -16 1.78 3.56
 1 -8 -13 2.77 3.14
 1 -8 -12 23.25 4.56
 1 -8 -10 53.75 5
 1 -7 -16 1.98 4.31
 1 -7 -15 29.87 5.46
 1 -7 -14 29.26 5.26
 1 -7 -13 4.46 3.33
 1 -7 -12 0.06 2.64
 1 -7 -11 8.5 3.27
 1 -7 -10 3.76 2.64
 1 -6 -18 -0.12 4.14
 1 -6 -15 73.99 6.81
 1 -6 -14 13.85 4.33
 1 -6 -13 -1.33 3.1
 1 -6 -12 79.95 5.79
 1 -6 -11 7.47 2.87
 1 -6 -10 172.83 7
 1 -5 -19 4.02 5.36
 1 -5 -18 1.49 4.24
 1 -5 -17 6.44 4.19
 1 -5 -16 49.02 5.53
 1 -5 -15 77.77 6.22
 1 -5 -13 74.37 5.57
 1 -5 -12 2.11 2.72
 1 -4 -19 7.02 4.69
 1 -4 -18 14.24 5.19
 1 -4 -17 21 5.43
 1 -4 -15 43.4 5.42
 1 -4 -12 108.9 6.39
 1 -4 -11 15.51 3.27
 1 -4 -9 2.7 2.29
 1 -3 -19 34.49 6.04
 1 -3 -18 9.41 4.98
 1 -3 -17 -2.98 3.22
 1 -3 -16 98.63 6.87
 1 -3 -14 10.38 3.41
 1 -3 -12 5.41 2.5
 1 -3 -11 20.46 3.16
 1 -3 -9 752.23 12.29
 1 -2 -19 2.76 4.98
 1 -2 -18 -0.59 3.5
 1 -2 -17 16.61 4.66
 1 -2 -16 14.09 4.55
 1 -2 -15 1.9 2.77
 1 -2 -14 37.97 4.6
 1 -2 -13 80.97 5.6
 1 -2 -12 5.99 2.58
 1 -2 -9 147.05 5.71
 1 -2 -8 104.58 4.97
 1 -1 -20 32.86 5.97
 1 -1 -19 19.66 5.31
 1 -1 -18 47.46 6.38
 1 -1 -17 2.7 3.64
 1 -1 -16 -0.27 3.68
 1 -1 -15 45.51 4.81
 1 -1 -14 4.37 3.21
 1 -1 -13 4 2.39
 1 -1 -12 46.91 3.96
 1 -1 -8 80.34 3.99
 1 -1 -7 124.38 4.56
 1 0 -20 12.64 4.81
 1 0 -18 28.92 5.15
 1 0 -16 12.68 3.81
 1 0 -15 5.89 3.72
 1 0 -13 23.85 3.74
 1 0 -12 10.78 2.6
 1 0 -9 248.53 6.75
 1 0 -8 -0.08 1.8
 1 0 -7 20.36 2.24
 1 1 -20 28.09 5.76
 1 1 -19 19 4.98
 1 1 -18 48.51 6.49
 1 1 -17 1.27 3.3
 1 1 -16 3.13 3.25
 1 1 -15 51.68 5.5
 1 1 -14 8.36 3.31
 1 1 -13 7.27 2.72
 1 1 -12 54.16 4.28
 1 1 -10 14.56 2.5
 1 1 -9 536.3 9.52
 1 1 -8 84.24 3.77
 1 1 -6 633.09 8.27
 1 1 -5 360.37 5.81
 1 1 -4 239.79 4.53
 1 2 -19 6.58 5.13
 1 2 -18 3.96 4.21
 1 2 -17 13.67 4.09
 1 2 -16 8.05 3.52
 1 2 -15 2.28 2.94
 1 2 -14 31.52 4.2
 1 2 -13 76.48 5.07
 1 2 -9 144.41 4.97
 1 2 -8 113.05 4.25
 1 2 -7 1017.73 10.97
 1 2 -6 16.07 1.79
 1 2 -3 1015.5 6.9
 1 3 -19 24.41 5.39
 1 3 -18 10.13 4.5
 1 3 -17 2.14 3.56
 1 3 -15 219.59 8.68
 1 3 -14 6.33 2.92
 1 3 -13 10.15 3.33
 1 3 -12 4.36 2.26
 1 3 -9 781.86 11.23
 1 3 -8 18.77 2.35
 1 3 -7 58.16 3.08
 1 3 -6 147.09 4.02
 1 3 -5 377.53 5.47
 1 3 -4 391.32 4.85
 1 3 -2 404.37 3.2
 1 4 -19 5.98 4.59
 1 4 -18 3.43 4.23
 1 4 -16 1.49 3.25
 1 4 -15 45.95 5.73
 1 4 -14 224.68 8.52
 1 4 -13 55.09 4.84
 1 4 -10 252.52 6.92
 1 4 -9 3.99 2.11
 1 4 -8 21.62 2.32
 1 4 -6 122.95 3.52
 1 4 -5 386.92 5.44
 1 4 -4 208.37 3.58
 1 5 -19 4.12 4.35
 1 5 -17 -1.05 3.42
 1 5 -15 73.4 5.64
 1 5 -14 80.8 5.83
 1 5 -13 81.94 5.4
 1 5 -12 3.16 2.4
 1 5 -8 121.63 4.46
 1 5 -7 6.24 1.51
 1 5 -6 100.91 3.35
 1 5 -5 29.38 1.8
 1 6 -18 -3.48 3.2
 1 6 -17 5.22 4.26
 1 6 -16 16.97 4.38
 1 6 -15 55.47 5.63
 1 6 -14 11.37 3.43
 1 6 -13 3.34 2.94
 1 6 -12 84.97 5.19
 1 6 -9 9.1 2.03
 1 6 -8 55.5 3.33
 1 6 -7 180.32 4.74
 1 6 -6 55.17 2.64
 1 7 -17 2.84 3.41
 1 7 -16 1.9 3.26
 1 7 -15 27.14 4.29
 1 7 -13 5.43 2.59
 1 7 -12 2.3 2.26
 1 7 -11 7.41 2.56
 1 7 -9 29.63 2.87
 1 7 -8 79.71 3.73
 2 -12 -12 8.3 4.27
 2 -12 -11 1.8 3.53
 2 -12 -10 6.08 3.41
 2 -12 -9 5.59 3.66
 2 -11 -13 5.49 4.49
 2 -11 -12 4.81 3.7
 2 -11 -11 1.86 3.42
 2 -11 -10 17.02 4.28
 2 -10 -14 14.3 4.32
 2 -10 -13 3.04 3.93
 2 -10 -12 11.06 4.23
 2 -10 -11 21.02 4.36
 2 -9 -15 -0.68 3.46
 2 -9 -14 10.64 4.36
 2 -9 -13 16.19 4.81
 2 -9 -12 4.41 3.54
 2 -9 -11 6.88 3.98
 2 -8 -16 1.83 4.61
 2 -8 -15 10.39 4.41
 2 -8 -14 17.4 4.39
 2 -8 -13 26.94 5.36
 2 -8 -12 15.25 4.06
 2 -8 -11 3.24 3.74
 2 -7 -17 15.76 4.86
 2 -7 -16 11.84 4.5
 2 -7 -15 9.01 4.01
 2 -7 -14 4.1 4.38
 2 -7 -13 67.24 5.93
 2 -7 -12 7.54 3.95
 2 -6 -18 -0.58 4.44
 2 -6 -17 18.33 5.14
 2 -6 -16 -0.17 3.63
 2 -6 -15 8.12 4
 2 -6 -14 69.53 6.95
 2 -6 -13 2.01 3.2
 2 -6 -12 2.53 3.61
 2 -5 -18 6.61 4.55
 2 -5 -17 35 5.99
 2 -5 -16 60.37 7.03
 2 -5 -15 14.8 4.54
 2 -5 -14 3.28 3.27
 2 -5 -13 33.6 5.09
 2 -5 -12 19.93 3.71
 2 -4 -18 5.38 5.16
 2 -4 -17 1.43 4.14
 2 -4 -16 8.89 4.27
 2 -4 -15 60.86 6.24
 2 -4 -14 43.54 5.42
 2 -4 -13 67.07 5.99
 2 -4 -12 11.75 3.22
 2 -4 -11 42.84 4.8
 2 -3 -19 9.91 5.62
 2 -3 -17 22.11 5.38
 2 -3 -16 5.56 4.41
 2 -3 -15 68.76 6.55
 2 -3 -14 5.84 3.21
 2 -3 -13 31.05 4.42
 2 -3 -12 31.8 4.45
 2 -3 -11 22.95 3.59
 2 -2 -19 6.69 4.5
 2 -2 -18 10.35 4.51
 2 -2 -17 31.34 5.44
 2 -2 -16 4.74 3.74
 2 -2 -15 49.31 5.48
 2 -2 -14 0.02 2.57
 2 -2 -13 28.81 4.09
 2 -2 -12 18.05 3.75
 2 -2 -11 75.58 4.97
 2 -1 -19 72.79 7.63
 2 -1 -18 12.73 4.57
 2 -1 -15 113.8 7.2
 2 -1 -14 -1.54 2.66
 2 -1 -13 6.25 2.91
 2 -1 -12 85.78 5.34
 2 -1 -9 150.9 6.34
 2 0 -19 1.67 4.07
 2 0 -18 17.99 4.77
 2 0 -17 2.06 4.41
 2 0 -16 5.55 3.56
 2 0 -15 11.68 3.46
 2 0 -14 1.65 2.62
 2 0 -13 15.31 3.25
 2 1 -19 72.82 7.73
 2 1 -18 12.61 4.56
 2 1 -17 0.37 3.58
 2 1 -16 28.18 4.96
 2 1 -15 120.98 6.95
 2 1 -14 1.34 2.75
 2 1 -13 4.61 2.89
 2 1 -12 88 5.25
 2 1 -9 149.59 5.7
 2 1 -7 43.13 3.55
 2 2 -18 9.46 4.13
 2 2 -17 23.56 5.28
 2 2 -16 8.39 3.78
 2 2 -15 50.82 5.75
 2 2 -14 3.42 2.71
 2 2 -13 36.84 4.46
 2 2 -12 20.48 3.14
 2 2 -9 27.28 2.97
 2 2 -8 -0.4 1.58
 2 2 -7 691.64 9.76
 2 3 -18 26.03 5.66
 2 3 -17 25.77 4.8
 2 3 -16 2.37 3.11
 2 3 -15 77.16 6.28
 2 3 -14 9.34 3.58
 2 3 -13 23.31 3.6
 2 3 -12 37.83 3.7
 2 3 -10 70.42 4.36
 2 3 -9 10.72 2.19
 2 3 -8 -0.16 1.42
 2 3 -6 419.26 6.71
 2 3 -4 18 1.5
 2 4 -19 3.86 4.74
 2 4 -18 9.59 4.59
 2 4 -17 2.38 3.4
 2 4 -16 7.81 3.54
 2 4 -15 62.02 5.61
 2 4 -14 47.71 4.85
 2 4 -12 9.22 3.01
 2 4 -9 106.53 4.53
 2 4 -8 16.56 2.15
 2 4 -6 9.03 1.56
 2 4 -5 97.11 2.82
 2 4 -2 385.43 2.76
 2 5 -17 22.64 4.55
 2 5 -16 56.06 5.27
 2 5 -15 14.12 3.77
 2 5 -14 3.57 3.05
 2 5 -12 17.93 3.01
 2 5 -10 19.14 2.78
 2 5 -9 4.16 1.75
 2 5 -7 91.85 3.42
 2 5 -6 196.31 4.24
 2 5 -4 137.17 2.65
 2 5 -3 62.95 1.39
 2 6 -18 0.37 4.03
 2 6 -17 14.25 4.02
 2 6 -16 2.75 3.23
 2 6 -15 13.1 3.56
 2 6 -14 71.27 5.52
 2 6 -13 1.97 2.8
 2 6 -12 0.75 2.2
 2 6 -10 33.96 3.1
 2 6 -9 67.53 3.43
 2 6 -8 10.03 1.77
 2 6 -7 211.82 4.77
 2 6 -5 190.59 3.49
 2 7 -17 13.68 3.95
 2 7 -16 8.79 3.14
 2 7 -15 9.4 2.96
 2 7 -14 4.95 2.47
 2 7 -13 75.32 4.87
 2 7 -12 10.7 2.48
 2 7 -10 62.32 3.59
 2 7 -9 42.93 2.86
 3 -12 -11 5.22 4.07
 3 -11 -12 16.62 4.69
 3 -10 -14 13.06 4.98
 3 -10 -13 10.2 4.57
 3 -9 -14 15.43 4.9
 3 -9 -13 3.81 5
 3 -9 -12 2.06 3.99
 3 -8 -16 7.81 4.7
 3 -8 -15 19.36 5.39
 3 -8 -14 10.06 4.77
 3 -8 -13 17.33 4.79
 3 -7 -16 16.48 5.04
 3 -7 -15 81.06 8.14
 3 -7 -14 44.23 6
 3 -7 -13 4.02 4.3
 3 -6 -17 10.28 4.93
 3 -6 -16 60.72 7.57
 3 -6 -15 84.53 8.24
 3 -6 -14 6.43 4.16
 3 -6 -13 20.54 5.09
 3 -5 -18 3.96 4.32
 3 -5 -17 20.72 5.87
 3 -5 -16 1.59 4.17
 3 -5 -15 0.4 3.46
 3 -5 -14 76.98 7.2
 3 -4 -18 8.26 5.18
 3 -4 -17 11.08 4.82
 3 -4 -16 6.48 4.17
 3 -4 -15 9.22 4.34
 3 -4 -13 31.93 5.1
 3 -4 -12 16.42 4.15
 3 -3 -17 -3.46 4.27
 3 -3 -16 8.09 4.24
 3 -3 -14 2.3 4.05
 3 -3 -12 17.02 3.96
 3 -2 -18 2.52 4.46
 3 -2 -17 14.35 4.44
 3 -2 -16 25.78 4.86
 3 -2 -15 35.69 5.6
 3 -2 -14 39.7 5.43
 3 -2 -12 26.75 4.08
 3 -1 -19 5.21 4.48
 3 -1 -18 14.63 4.8
 3 -1 -17 -2.72 3.47
 3 -1 -16 46.75 5.73
 3 -1 -15 20.85 4.35
 3 -1 -13 27.09 4.3
 3 0 -19 32.3 6.25
 3 0 -18 -0.42 4.43
 3 0 -17 8.67 4.78
 3 0 -15 73.14 6.42
 3 0 -13 13.06 3.31
 3 0 -11 12.37 3.02
 3 1 -19 -0.4 3.68
 3 1 -18 16.71 4.63
 3 1 -17 1.7 3.9
 3 1 -15 19.58 4.6
 3 1 -14 39.66 5.1
 3 1 -13 24.85 4.32
 3 1 -12 -1.51 2.23
 3 1 -11 109.93 5.93
 3 2 -18 4.41 4.14
 3 2 -17 14.28 4.81
 3 2 -15 32.78 4.63
 3 2 -13 63.1 5.37
 3 2 -12 19.83 3.74
 3 2 -11 1.7 2.18
 3 2 -9 116.28 5.32
 3 2 -8 91.76 4.62
 3 3 -18 17.35 4.36
 3 3 -17 1.05 3.72
 3 3 -16 8.27 3.64
 3 3 -15 47.01 5.39
 3 3 -14 2.84 3.05
 3 3 -13 3.51 2.53
 3 3 -12 15.72 3.39
 3 3 -11 44.13 4.11
 3 3 -9 126.39 5.2
 3 3 -8 8.63 2.12
 3 3 -7 13.14 2.32
 3 3 -6 34.2 2.71
 3 4 -18 6.23 3.74
 3 4 -17 2.16 3.61
 3 4 -16 5.98 3.58
 3 4 -15 9.72 3.42
 3 4 -14 42.98 4.96
 3 4 -13 24.71 4
 3 4 -12 14.21 2.99
 3 4 -11 3.66 2.11
 3 4 -9 66.51 3.57
 3 4 -8 18.1 2.48
 3 4 -7 91.11 3.64
 3 4 -6 240.97 5.15
 3 5 -18 7.18 3.87
 3 5 -17 15.09 4.48
 3 5 -16 0.13 3.14
 3 5 -15 5.39 3.23
 3 5 -14 74.12 5.59
 3 5 -13 29.03 3.99
 3 5 -12 11.05 2.86
 3 5 -9 46.22 3.22
 3 5 -8 19.99 2.29
 3 5 -7 21.92 2.01
 3 5 -5 35.43 1.8
 3 5 -4 416.47 4.58
 3 5 -3 55.64 1.37
 3 6 -17 3.69 2.93
 3 6 -16 55.95 5.16
 3 6 -15 90.8 5.77
 3 6 -14 9.58 2.63
 3 6 -13 20.73 3.21
 3 6 -12 3.47 1.8
 3 6 -10 90.36 4.09
 3 6 -9 39.24 2.7
 3 6 -6 106.14 2.84
 3 6 -5 57.09 1.79
 3 6 -4 77.75 1.36
 4 -9 -14 42.75 6.53
 4 -9 -13 0.16 4.69
 4 -8 -15 11.4 5.84
 4 -8 -14 12.57 4.77
 4 -7 -15 41.01 6.7
 4 -7 -14 34.73 6.24
 4 -6 -16 15 5.32
 4 -6 -15 9.3 5
 4 -6 -14 38.76 6.17
 4 -5 -17 4.32 5.32
 4 -5 -16 14.04 5.07
 4 -5 -15 30.24 5.9
 4 -4 -16 15.11 4.9
 4 -4 -15 16.25 5.43
 4 -4 -14 19.33 4.67
 4 -4 -13 8.31 4.53
 4 -3 -17 7.15 5.33
 4 -3 -16 1.9 4.1
 4 -3 -15 14.18 4.75
 4 -3 -14 8.03 4
 4 -3 -13 26.72 5.62
 4 -2 -18 5.32 4.72
 4 -2 -17 2.25 3.89
 4 -2 -16 13.9 4.59
 4 -2 -15 6.05 4.19
 4 -2 -14 13.53 4.14
 4 -2 -13 7.02 3.55
 4 -1 -18 11.14 4.92
 4 -1 -17 8.36 4.48
 4 -1 -16 22.33 4.92
 4 -1 -15 18.9 5.09
 4 -1 -14 7.68 3.6
 4 -1 -13 12.22 3.99
 4 0 -18 3.97 4.23
 4 0 -16 4.49 3.82
 4 0 -15 -1.23 3.06
 4 0 -14 8.25 3.8
 4 0 -13 2.06 3.02
 4 0 -12 11.97 3.97
 4 0 -11 15.57 3.61
 4 1 -18 10.22 4.79
 4 1 -17 7.82 4.5
 4 1 -16 13.46 4.28
 4 1 -15 23.23 4.4
 4 1 -14 7.34 3.29
 4 1 -13 15.78 4.27
 4 1 -11 -2.93 2.54
 4 1 -10 48.92 5.1
 4 2 -18 8.31 4.31
 4 2 -17 3.96 3.81
 4 2 -16 14.14 4.04
 4 2 -15 10.19 3.63
 4 2 -14 9.59 3.51
 4 2 -13 9.82 3.77
 4 2 -12 35.79 4.42
 4 2 -11 -0.24 2.33
 4 2 -10 48.22 4.13
 4 3 -17 1.87 3.82
 4 3 -16 5.33 3.41
 4 3 -15 12.31 3.54
 4 3 -14 7.65 3.13
 4 3 -13 38.51 4.41
 4 3 -12 5.47 2.51
 4 3 -11 0.72 2.27
 4 4 -17 -1.18 3.09
 4 4 -16 13.27 4.22
 4 4 -15 9.89 3.31
 4 4 -14 13.82 3.52
 4 4 -13 13.68 3.48
 4 4 -12 0.43 1.97
 4 4 -11 0.8 1.88
 4 4 -8 41.54 3
 4 4 -7 33.62 2.72
 4 4 -6 27.77 2.45
 4 5 -17 5.07 3.37
 4 5 -16 15.26 3.34
 4 5 -15 22.42 4.02
 4 5 -14 8.56 2.74
 4 5 -13 9.7 2.52
 4 5 -12 10.02 2.6
 4 5 -11 17.98 2.96
 4 5 -9 13.46 2.04
 4 5 -8 14.47 2.04
 4 5 -5 66.79 2.48
 4 5 -4 101.8 2.73
 4 5 -3 2.97 0.71
 5 -7 -14 26.19 6.55
 5 -6 -15 29.98 6.46
 5 -6 -14 27.81 6.51
 5 -5 -15 23.15 6.32
 5 -5 -14 6.21 4.85
 5 -4 -16 -5.47 4.03
 5 -4 -15 22.65 5.93
 5 -4 -14 5.77 4.34
 5 -3 -16 29.28 5.79
 5 -3 -15 13.59 5.51
 5 -3 -14 27.93 5.39
 5 -2 -16 47.65 6.55
 5 -2 -15 35.26 6.07
 5 -2 -14 70.49 7.36
 5 -2 -13 -0.45 3.7
 5 -1 -16 21.12 5.12
 5 -1 -15 0.03 3.96
 5 -1 -14 30.47 5.13
 5 0 -17 4.27 4.65
 5 0 -16 2.15 3.95
 5 0 -15 72.62 6.78
 5 0 -13 18.06 4.36
 5 0 -12 50.15 5.33
 5 1 -16 18.44 4.7
 5 1 -15 0.06 3.2
 5 1 -14 33.07 5.48
 5 1 -13 76.86 6.21
 5 1 -12 2.93 3.49
 5 1 -11 120.09 7.11
 5 2 -15 40.1 5.47
 5 2 -14 49.76 6.15
 5 2 -13 4.3 3.11
 5 2 -12 15.67 4.1
 5 2 -10 41.72 4.4
 5 3 -16 29.13 4.73
 5 3 -15 7.18 3.32
 5 3 -14 22.69 3.91
 5 3 -13 8.12 3.39
 5 3 -12 -2.1 2.55
 5 3 -10 22.11 3.56
 5 3 -9 22.64 3.35
 5 4 -16 -1.41 2.63
 5 4 -15 20.68 3.66
 5 4 -14 7.02 2.57
 5 4 -13 6.99 2.58
 5 4 -12 7.29 2.37
 5 4 -11 36.91 3.55
 5 4 -10 14.73 2.51
 5 4 -7 32.73 2.83
 6 -4 -14 14.73 5.38
 6 -2 -15 -3.03 3.99
 6 -2 -14 30.07 6.15
 6 -2 -13 -3.95 3.98
 6 -1 -15 -0.13 4.08
 6 -1 -14 7.45 4.6
 6 -1 -13 3.3 3.86
 6 0 -15 16.39 4.52
 6 0 -14 0.59 3.64
 6 0 -13 1.88 3.82
 6 0 -12 4.88 3.8
 6 1 -15 -2.18 3.08
 6 1 -14 2.98 4.19
 6 1 -13 7.82 3.54
 6 1 -12 5.12 3.55
 6 1 -11 3.71 4.16
 6 2 -15 4.15 3.97
 6 2 -14 28.9 4.81
 6 2 -13 -1.81 2.77
 6 2 -12 7 3.41
 6 2 -11 33.52 4.81
 6 2 -10 13.38 3.68
 6 3 -14 28.22 4
 6 3 -13 7.21 3.24
 6 3 -12 3.83 2.59
 6 3 -11 1.78 2.59
 6 3 -10 12.34 2.94
 6 3 -9 17.14 3.07
 7 -2 -13 5.02 5
 7 -1 -13 20.41 5.54
 7 0 -13 9.17 4.19
 7 0 -12 7.4 4.39
 7 1 -13 17.42 4.34
 7 1 -12 0.94 3.91
 7 1 -11 8.87 4.09
 7 2 -13 17.77 4.08
 7 2 -12 2.98 3.37
 7 2 -10 37.63 4.66
 -1 3 4 398.56 6.76
 -1 3 5 377.07 6.59
 -1 4 3 50.38 3.12
 -1 4 4 200.9 5.38
 -1 4 5 370.59 7.33
 -1 4 6 127.41 4.68
 -1 4 7 56.11 3.57
 -1 4 8 21.89 2.71
 -1 5 2 515.28 9.3
 -1 5 6 108.35 4.88
 -1 5 7 4.91 2.58
 -1 5 8 126.03 5.36
 -1 6 3 119.71 5.5
 -1 6 4 134.04 5.47
 -1 6 5 11.47 2.68
 -1 6 6 56.32 4.06
 -1 6 7 192.29 7.06
 -1 7 2 37.12 3.94
 -1 7 3 21.01 3.28
 -1 7 5 6.02 2.77
 -1 7 6 142.46 6.42
 0 0 5 1.14 0.53
 0 0 6 515.52 3.85
 0 0 7 1.65 0.57
 0 0 8 10.05 0.87
 0 0 9 -0.3 0.47
 0 1 1 21.08 1.21
 0 1 2 4073.38 11.31
 0 1 3 545.13 4.61
 0 1 4 1942.36 9.13
 0 1 5 1450.16 8.31
 0 1 6 110.62 2.63
 0 1 7 47.97 1.94
 0 1 8 0.45 0.92
 0 1 9 21.81 1.6
 0 1 10 58 2.17
 0 1 11 50.01 1.87
 0 2 -2 333.71 3.97
 0 2 -1 5.95 1.26
 0 2 0 5414.39 16.18
 0 2 1 4.39 1.23
 0 2 2 340.97 4.79
 0 2 3 432.47 5.43
 0 2 4 1280.73 9.41
 0 2 5 1165.54 9.31
 0 2 6 462.75 6.16
 0 2 7 1537.42 11.36
 0 2 8 2.7 1.38
 0 2 9 91.27 3.16
 0 2 10 49.31 2.64
 0 2 11 5.52 1.46
 0 2 12 9.92 1.47
 0 3 -3 972.97 8.08
 0 3 -2 349.12 5.13
 0 3 -1 396.45 5.61
 0 3 0 0.49 1.3
 0 3 1 408.11 5.88
 0 3 2 337.48 5.62
 0 3 3 945.3 9.34
 0 3 5 224.62 4.93
 0 3 6 226.41 5.08
 0 3 7 25.83 2.22
 0 3 8 106 3.97
 0 3 9 9.78 1.9
 0 3 10 96.53 3.96
 0 3 12 120.9 4.23
 0 4 -3 1117.78 10.27
 0 4 -2 216.21 5.17
 0 4 -1 1.55 1.53
 0 4 0 2734.87 16.98
 0 4 1 2.99 1.6
 0 4 2 204.33 5.18
 0 4 3 1155.14 11.84
 0 4 4 17.97 2.24
 0 4 5 14.18 2.25
 0 4 6 20.1 2.29
 0 4 8 1.12 1.8
 0 4 9 134.92 5.06
 0 4 10 8.18 2.41
 0 4 11 0.67 2
 0 4 12 71.31 4.05
 0 4 13 172.76 5.62
 0 5 -1 29.62 2.75
 0 5 0 -0.81 1.59
 0 5 1 29.43 2.84
 0 5 2 179.5 5.5
 0 5 3 63.28 3.89
 0 5 4 24.73 2.6
 0 5 5 896.62 12.18
 0 5 6 50.12 3.62
 0 5 7 15.09 2.68
 0 5 8 729.71 11.87
 0 5 9 13.22 3.01
 0 5 10 67.08 4.51
 0 5 11 0.84 2.46
 0 5 12 76.51 4.76
 0 5 13 13.56 3
 0 6 -3 15.52 2.52
 0 6 4 32.68 3.27
 0 6 7 246.69 7.75
 0 6 9 177.33 7.11
 0 6 10 27.5 4.1
 0 7 -3 375.95 8.6
 0 7 -2 7.3 2.49
 0 7 0 1.01 2.02
 0 7 1 583.49 11.3
 0 7 2 9.24 2.37
 0 7 3 374.93 9.36
 0 7 4 4.59 2.35
 0 7 6 14.91 3.19
 0 7 7 20.49 3.65
 0 7 11 7.83 3.58
 0 7 12 4.42 3.06
 0 7 13 0.71 2.92
 0 8 -3 40.22 4.32
 0 8 -2 438.72 10.44
 0 8 -1 360.86 9.67
 0 8 1 360.98 9.9
 0 8 2 454.19 11.24
 0 8 3 38.47 4.04
 0 8 8 15 4.11
 0 8 9 25.05 4.54
 0 8 10 12.11 4.08
 0 8 11 6.22 3.54
 0 8 12 5.3 3.85
 0 8 13 14.96 3.78
 0 9 4 24.6 4.06
 0 9 5 43.6 5.04
 0 9 6 9.31 4.1
 0 9 7 1.26 3.11
 0 9 8 146.43 7.99
 0 9 9 18.98 4.27
 0 9 10 8.33 4.44
 0 9 11 -1.62 3.47
 0 9 12 -3.72 3.3
 0 10 -2 107.29 6.68
 0 10 0 44.18 5.29
 0 10 2 104.81 6.69
 0 10 3 31.78 5.19
 0 10 4 -1.37 2.9
 0 10 5 49.49 5.24
 0 10 6 10.69 3.98
 0 10 7 5.51 4.36
 0 10 8 -0.56 4.06
 0 10 9 70.73 7.38
 0 10 10 101.32 8.09
 0 10 11 -0.66 3.97
 0 11 1 70.49 6.96
 0 11 2 7.07 3.87
 0 11 4 4.77 3.62
 0 11 5 -2.33 3.49
 0 11 6 1.31 3.71
 0 11 7 -0.52 3.94
 0 11 9 -0.35 3.96
 0 11 10 71.44 7.6
 0 12 4 22.96 5.92
 0 12 5 70.61 8.17
 0 12 6 5.99 5.29
 0 12 7 7.03 4.85
 0 12 8 24.06 6.57
 1 -3 11 19.34 1.39
 1 -2 10 16.94 1.46
 1 -2 11 130.67 2.73
 1 -1 9 530.82 6.06
 1 -1 10 14.36 1.44
 1 -1 11 22.88 1.49
 1 0 7 21.1 1.74
 1 0 8 -0.06 0.96
 1 0 10 15.01 1.66
 1 0 11 7.81 1.31
 1 0 12 10.28 1.37
 1 1 3 283.13 4.46
 1 1 4 239.23 4.3
 1 1 5 363.98 5.38
 1 1 6 617.28 7.11
 1 1 7 123.51 3.45
 1 1 9 526.36 7.12
 1 1 11 19.55 2.09
 1 1 12 46.05 2.59
 1 2 -5 142.7 1.95
 1 2 -4 117.37 2.13
 1 2 -3 1003.49 6.41
 1 2 -2 129.7 2.69
 1 2 -1 341.2 4.47
 1 2 0 883.06 7.33
 1 2 1 335.49 5.12
 1 2 3 1004.76 8.89
 1 2 4 116.77 3.47
 1 2 5 140.46 3.97
 1 2 6 14.75 1.84
 1 2 7 1006.5 10.29
 1 2 8 107.68 3.69
 1 2 10 21.63 2.46
 1 2 11 129.97 4.38
 1 2 12 5.13 1.69
 1 2 13 74.87 3.49
 1 3 -6 146.48 2.5
 1 3 -5 376.63 4.41
 1 3 -4 387.99 4.79
 1 3 -3 51 2.23
 1 3 -2 422.5 5.65
 1 3 -1 123.56 3.29
 1 3 0 27.64 2.4
 1 3 1 128.6 3.56
 1 3 2 411.27 6.54
 1 3 3 53.9 2.8
 1 3 4 391.35 6.72
 1 3 5 377.33 6.76
 1 3 6 149.76 4.56
 1 3 7 57.92 3.37
 1 3 8 18.8 2.43
 1 3 9 759.93 10.59
 1 3 10 -0.18 1.59
 1 3 11 20.27 2.53
 1 3 12 4.04 2.03
 1 3 13 12.69 2.49
 1 4 -6 121.61 3.02
 1 4 -5 386.91 5.6
 1 4 -3 49.64 2.49
 1 4 -2 103.27 3.57
 1 4 -1 89.52 3.53
 1 4 0 553.6 8.09
 1 4 1 89.13 3.54
 1 4 2 93.72 3.7
 1 4 4 208.1 5.6
 1 4 5 381.8 7.58
 1 4 7 56.25 3.74
 1 4 9 4.33 2.08
 1 4 10 260.67 7.08
 1 4 11 13.11 2.69
 1 4 12 111.32 5.11
 1 4 13 51.74 3.91
 1 5 -2 520.37 8.29
 1 5 -1 31.72 2.66
 1 5 0 9.54 2
 1 5 1 36.75 3.21
 1 5 4 177.25 5.76
 1 5 7 8.04 2.48
 1 5 8 118.95 5.22
 1 5 9 25.36 3.24
 1 5 10 49.31 4.25
 1 6 -6 59.48 3.22
 1 6 -5 10.39 1.9
 1 6 -4 126.33 4.64
 1 6 -3 114.66 4.64
 1 6 -2 22.25 2.55
 1 6 4 128.09 5.63
 1 6 5 12.14 2.68
 1 6 6 57.56 4.66
 1 6 8 59.18 4.37
 1 6 9 14.51 3.03
 1 6 13 3.26 3.23
 1 6 14 15.7 3.53
 1 7 -6 149.99 5.2
 1 7 -5 5.97 2.32
 1 7 -4 250.89 6.94
 1 7 -3 21.84 3.01
 1 7 -2 35.3 3.41
 1 7 -1 118.48 5.31
 1 7 0 430.74 9.54
 1 7 1 127.97 5.76
 1 7 2 35.82 3.86
 1 7 3 21.89 3.04
 1 7 4 236.39 7.72
 1 7 5 8.25 2.69
 1 7 6 146.26 6.72
 1 7 10 7.27 3.2
 1 7 12 -0.95 2.9
 1 7 13 3.31 3.16
 1 7 14 19.6 3.94
 1 8 -5 24.1 3.13
 1 8 -4 106.8 5.29
 1 8 -3 7.17 2.66
 1 8 -2 52.44 4.15
 1 8 -1 198.09 7.37
 1 8 0 36.43 3.8
 1 8 1 205.16 7.67
 1 8 2 56.93 4.85
 1 8 8 10.76 3.88
 1 8 10 63.08 6.06
 1 8 12 25.41 5.12
 1 8 13 3.66 3.77
 1 8 14 30.19 4.86
 1 9 -5 22.28 3.62
 1 9 -4 114.8 6.04
 1 9 4 127.05 7.09
 1 9 5 22.35 4.02
 1 9 7 62.86 5.84
 1 9 8 52.53 6.1
 1 9 9 -3.91 3.09
 1 9 10 180.21 9.43
 1 9 11 25.2 5.22
 1 9 12 1.38 4.17
 1 9 13 13.99 4.74
 1 9 14 8.27 4.77
 1 10 -2 22.86 4.04
 1 10 -1 21.47 4.11
 1 10 0 -2.04 2.8
 1 10 1 17.17 3.87
 1 10 3 32.38 5.03
 1 10 4 15.43 4.39
 1 10 5 83.4 6.99
 1 10 6 12.33 4.23
 1 10 7 -2.04 3.38
 1 10 8 164.95 9.01
 1 10 9 10.55 4.35
 1 10 10 93.58 8.2
 1 10 11 3.37 4.26
 1 10 12 44.61 6.26
 1 10 13 0.66 4.19
 1 10 14 46.02 6.12
 1 11 -4 9.96 3.71
 1 11 -3 -2.46 3.25
 1 11 -2 14.06 4.04
 1 11 0 -2.61 3.22
 1 11 1 41.63 6.13
 1 11 3 -2.54 3.03
 1 11 4 11.11 4.09
 1 11 5 38.36 5.78
 1 11 6 15.34 4.75
 1 11 7 149.85 9.76
 1 11 8 25.69 5.82
 1 11 9 7.13 4.95
 1 11 10 98.61 9.1
 1 11 11 15.5 5.26
 1 11 12 17.2 5.31
 1 11 13 1.91 4.28
 1 11 14 -0.77 4.29
 1 12 -2 37.8 6.19
 1 12 -1 45.65 6.43
 1 12 0 -1.84 3.61
 1 12 1 42.4 6
 1 12 2 37.55 5.99
 1 12 3 5.75 4.97
 1 12 4 19.39 5.46
 1 12 5 13.82 5.13
 1 12 6 13.14 5.55
 1 12 7 34.4 6.21
 1 12 8 35.67 7.17
 1 12 9 0.85 5.57
 1 12 10 -1.17 5.02
 1 12 11 -0.21 4.39
 1 12 12 22.11 6.16
 1 13 -1 35.19 5.94
 1 13 0 78.26 8.28
 1 13 1 35.38 6.71
 1 13 2 8.81 5.71
 1 13 3 -0.09 4.35
 1 13 4 -0.89 4.84
 1 13 5 25.97 6.97
 1 13 6 3.15 4.94
 1 13 7 11.95 5.58
 1 13 9 6.87 6.08
 1 13 10 12.4 5.89
 1 14 1 37.93 6.74
 1 14 2 2.44 5.14
 1 14 3 5.84 5.82
 1 14 4 14.72 5.79
 1 14 5 154.19 10.31
 1 14 6 8.62 5.76
 1 14 7 21.07 7.33
 1 14 8 4.99 5.41
 2 -2 12 21.76 2.25
 2 -1 10 78.87 3.55
 2 -1 12 82.42 3.52
 2 0 10 22.7 2.64
 2 0 11 154.7 4.82
 2 0 13 17.73 2.28
 2 1 -7 44.35 1.28
 2 1 6 53.02 2.91
 2 1 7 48.21 2.87
 2 1 8 159.62 4.93
 2 1 10 86.83 4.07
 2 1 11 39.55 3.11
 2 1 12 85.35 4
 2 1 13 4.87 1.82
 2 2 -7 689.2 4.58
 2 2 -6 82.68 2.07
 2 2 -5 611.44 6
 2 2 -4 194.09 3.76
 2 2 -2 721.14 7.83
 2 2 2 718.89 9
 2 2 3 285.96 6.08
 2 2 4 199.36 5.24
 2 2 5 610.13 8.99
 2 2 6 89.81 3.82
 2 2 7 693.47 10.01
 2 2 8 1.02 2.02
 2 2 9 29.16 3.09
 2 2 11 69.86 3.98
 2 2 12 20.73 3.05
 2 2 13 33.98 3.25
 2 3 -7 107.65 2.37
 2 3 -6 412.92 5.07
 2 3 -5 437.03 5.64
 2 3 -4 19.64 1.75
 2 3 -3 367.79 5.87
 2 3 -2 175.11 4.38
 2 3 -1 244.35 5.18
 2 3 0 1676.95 13.53
 2 3 1 238.01 5.43
 2 3 5 441.36 8.27
 2 3 6 406.42 8.13
 2 3 7 103.88 4.4
 2 3 8 1.38 1.81
 2 3 9 9.48 2.29
 2 3 10 71.09 4.37
 2 3 11 25.81 3.09
 2 3 12 33.04 3.55
 2 3 13 30.41 3.61
 2 3 14 5.2 2.46
 2 4 -8 18.7 1.19
 2 4 -7 125.08 3.06
 2 4 -4 217.48 4.78
 2 4 -2 392.81 6.82
 2 4 -1 45.73 2.82
 2 4 0 2453.94 17.76
 2 4 1 43.28 2.87
 2 4 4 219.24 6.07
 2 4 6 9.79 2.24
 2 4 7 129.14 5.16
 2 4 8 20.44 3.01
 2 4 9 100.94 5.07
 2 4 10 14.43 2.98
 2 4 11 40.77 3.8
 2 5 -7 88.09 3.11
 2 5 -6 190.32 4.67
 2 5 -5 223.91 5.3
 2 5 5 226.13 6.99
 2 5 6 197.06 6.88
 2 5 7 90.14 4.78
 2 5 8 207.97 7.14
 2 5 9 -1.09 2.09
 2 5 13 37.4 4.2
 2 5 14 3.21 2.68
 2 6 -7 209.14 5.28
 2 6 -6 128.24 4.43
 2 6 -5 190.87 5.54
 2 6 -4 40.73 3.03
 2 6 -3 13.54 2.55
 2 6 -1 40.57 3.78
 2 6 0 332.52 7.99
 2 6 1 35.37 3.24
 2 6 2 74.89 4.7
 2 6 3 14.59 2.73
 2 6 4 47.33 4.24
 2 6 5 200.83 7.06
 2 6 11 37.4 4.98
 2 6 12 2.03 3.01
 2 6 13 0.24 3.17
 2 6 14 75.19 5.84
 2 7 -7 2.52 1.55
 2 7 -6 3.64 2
 2 7 -5 146.41 5.52
 2 7 -4 13.52 2.78
 2 7 -3 356.33 8.54
 2 7 -2 19.6 3.35
 2 7 -1 198.51 7.04
 2 7 0 6.04 2.35
 2 7 1 199.87 7.06
 2 7 3 332.31 9.2
 2 7 4 12.46 2.86
 2 7 9 38.98 4.93
 2 7 10 66.92 5.67
 2 7 11 -0.89 3.36
 2 7 12 12.22 3.83
 2 7 13 62.69 6.18
 2 7 14 -0.79 3.18
 2 7 15 16.62 4.33
 2 8 -5 206.22 7.01
 2 8 -4 11.67 2.74
 2 8 -3 105.68 5.48
 2 8 -2 112.88 5.88
 2 8 -1 113.11 6.07
 2 8 0 57.49 4.77
 2 8 5 202.76 8.48
 2 8 6 18.49 3.86
 2 8 8 63.74 5.62
 2 8 9 22.84 4.73
 2 8 10 53.48 5.85
 2 8 11 4.35 3.5
 2 8 12 14.59 4.6
 2 8 13 30.62 5.03
 2 8 14 19.86 4.95
 2 8 15 14.62 4.22
 2 9 -6 6.19 2.36
 2 9 1 267.49 9.36
 2 9 2 4.24 2.94
 2 9 4 26.59 4.69
 2 9 5 9.27 3.46
 2 9 6 8.51 3.71
 2 9 7 18.22 4.28
 2 9 8 148.84 8.13
 2 9 9 89.52 7.34
 2 9 10 22.53 4.88
 2 9 11 4.95 4.59
 2 9 12 8.99 4.63
 2 9 13 12.29 4.48
 2 9 14 13.17 4.82
 2 9 15 0.47 4.09
 2 10 -6 37.76 4.41
 2 10 -5 110.41 6.58
 2 10 -4 6.91 3.79
 2 10 -3 20.31 3.96
 2 10 -1 163.15 8.14
 2 10 0 62.46 6.32
 2 10 1 176.19 8.86
 2 10 3 29.09 4.57
 2 10 4 6.9 3.45
 2 10 5 97.57 6.88
 2 10 6 40.06 6.02
 2 10 7 7.79 3.95
 2 10 8 0.46 3.68
 2 10 10 41.11 6.98
 2 10 11 25.59 5.56
 2 10 13 2.4 4.36
 2 11 -5 8.86 3.53
 2 11 -4 15.86 4.36
 2 11 -2 14.53 4.56
 2 11 -1 113.99 7.47
 2 11 0 27.93 5.52
 2 11 1 120.8 8.39
 2 11 2 18.77 4.89
 2 11 4 12.96 4.51
 2 11 5 8.01 4.37
 2 11 6 18.65 5.2
 2 11 7 26.89 5.58
 2 11 8 86.01 8.33
 2 11 9 14.63 5.4
 2 11 10 19.05 5.44
 2 11 11 8.03 6.06
 2 11 12 2.69 5.11
 2 11 13 -1.32 4.97
 2 12 -4 18.82 4.5
 2 12 -3 15.86 5.27
 2 12 -2 57.05 7.18
 2 12 -1 31.34 5.38
 2 12 0 -0.4 4.87
 2 12 1 37.32 6.5
 2 12 3 14.17 5.04
 2 12 4 14.24 5.16
 2 12 5 101.23 8.41
 2 12 6 10.45 5.11
 2 12 7 4.78 5.21
 2 12 8 65.34 8.57
 2 12 9 7.08 5.89
 2 12 10 3.82 6.05
 2 12 11 2.1 5.02
 2 12 12 3.2 5.56
 2 13 -4 69.93 7.46
 2 13 -3 14.34 5.05
 2 13 -2 7.5 5.09
 2 13 -1 33.96 6.39
 2 13 0 12.44 5.51
 2 13 1 31.78 6.58
 2 13 2 5.86 5.97
 2 13 4 59.09 7.91
 2 13 5 19.56 6.2
 2 13 6 -2.79 4.61
 2 13 8 7.89 5.71
 2 13 9 4.44 5.36
 2 14 -2 30.54 6.2
 2 14 -1 6.97 6.09
 2 14 0 43.17 7.25
 2 14 1 8.47 5.47
 2 14 2 34.13 7.09
 2 14 5 10.04 6.82
 2 14 6 23.65 7.17
 2 15 1 1.11 5.06
 2 15 3 15.97 7.01
 3 -2 13 61.37 3.93
 3 -1 11 109.21 5.07
 3 -1 12 1.3 1.86
 3 -1 13 25.4 2.99
 3 0 10 226.5 6.89
 3 0 11 14.11 2.64
 3 0 12 73.66 4.44
 3 0 13 15.05 2.8
 3 1 8 20.24 3.25
 3 1 9 133.68 5.59
 3 1 10 10.47 2.63
 3 1 12 2.7 2.31
 3 1 13 20.27 3.06
 3 2 5 31.15 3.37
 3 2 7 345.27 8.22
 3 2 8 86.14 4.61
 3 2 9 120.63 5.63
 3 3 4 128.46 5.26
 3 3 5 189.93 6.3
 3 3 6 28.47 3.21
 3 3 7 17.41 3.03
 3 3 8 9.48 2.57
 3 3 10 5.18 2.54
 3 3 14 1.87 2.7
 3 4 -7 87.19 3.16
 3 4 -6 238.56 5.29
 3 4 -5 1.86 1.41
 3 4 -4 145.54 4.58
 3 4 -3 27.66 2.62
 3 4 -2 15.14 2.48
 3 4 -1 47.71 3.28
 3 4 1 50.43 3.61
 3 4 4 159.57 5.91
 3 4 5 0.33 2.27
 3 4 6 236.1 7.33
 3 4 8 15.52 3.18
 3 4 12 10.56 3.13
 3 4 13 31.95 4.68
 3 4 14 46.69 4.97
 3 5 -7 19.47 2.05
 3 5 -6 143.28 4.64
 3 5 -5 34.23 2.76
 3 5 -4 427.66 8.2
 3 5 -3 58.95 3.63
 3 5 -2 354.6 7.92
 3 5 -1 26.14 3.23
 3 5 0 143.92 5.57
 3 5 1 28.27 3.45
 3 5 2 368.68 8.9
 3 5 4 409.78 9.75
 3 5 6 144.58 6.55
 3 5 10 30.14 4.3
 3 5 12 7.72 3.61
 3 5 13 31.54 4.78
 3 5 14 84.36 6.2
 3 5 15 -0.99 3.06
 3 6 -7 27.49 2.42
 3 6 -6 96.42 4.24
 3 6 -5 56.79 3.73
 3 6 -4 79.72 4.32
 3 6 -3 76.32 4.24
 3 6 -2 47.95 3.88
 3 6 0 137.3 5.73
 3 6 1 68.46 4.71
 3 6 2 45.07 4.11
 3 6 3 83.24 5.2
 3 6 10 100.97 6.85
 3 6 11 22.66 4.15
 3 6 12 6.18 3.85
 3 6 13 23.47 4.74
 3 6 14 11.93 3.79
 3 6 15 89.79 6.76
 3 7 -6 74.58 4.17
 3 7 -5 51.31 3.83
 3 7 -4 110.9 5.44
 3 7 -3 28.54 3.69
 3 7 -1 82.77 5.07
 3 7 0 0.89 2.41
 3 7 6 78.38 5.52
 3 7 7 41.06 5.06
 3 7 9 96.18 6.84
 3 7 10 61.03 6.31
 3 7 11 -0.99 3.43
 3 7 12 17.93 4.44
 3 7 13 9.17 4.4
 3 7 14 52.6 6.38
 3 7 15 73 6.65
 3 8 -6 35.15 3.57
 3 8 -5 26.36 3.86
 3 8 -4 -0.09 2.16
 3 8 2 29.09 4.12
 3 8 3 3.49 2.76
 3 8 4 1.87 2.73
 3 8 5 26.7 4.75
 3 8 6 25.05 4.42
 3 8 7 30.32 4.79
 3 8 8 92.84 7.37
 3 8 9 5.95 3.78
 3 8 10 145.32 8.82
 3 8 11 15.32 5.23
 3 8 13 20.81 5.06
 3 8 14 8.64 4.11
 3 8 15 19.33 4.8
 3 9 -3 8.92 3.25
 3 9 -2 36.11 4.68
 3 9 -1 101.95 6.39
 3 9 0 11.76 3.59
 3 9 1 99.69 6.41
 3 9 2 38.38 5.35
 3 9 3 15.25 3.91
 3 9 4 2.73 3.11
 3 9 5 2.34 3.77
 3 9 6 20.91 4.61
 3 9 7 22.75 4.93
 3 9 8 104.07 7.74
 3 9 9 13.65 4.55
 3 9 10 10.49 4.6
 3 9 11 22.78 5.75
 3 9 12 0.66 4.99
 3 9 13 4.64 4.19
 3 9 14 13.72 5.14
 3 9 15 28.39 5.83
 3 10 -5 69.28 5.65
 3 10 -4 18.55 4.01
 3 10 -3 43.62 5.33
 3 10 -2 21.33 4.49
 3 10 -1 34.8 4.99
 3 10 0 26.29 4.62
 3 10 1 36.3 5.23
 3 10 2 31.47 5.25
 3 10 3 46.38 5.56
 3 10 4 17.87 4.52
 3 10 5 72.91 6.73
 3 10 6 22.98 5.62
 3 10 7 3.79 4.08
 3 10 9 17.58 5.34
 3 10 10 43.97 6.68
 3 10 11 1.63 4.84
 3 10 13 8.99 5.33
 3 10 14 9.6 4.98
 3 11 -4 13.22 4.17
 3 11 -3 5.13 4.09
 3 11 -2 20.7 5.01
 3 11 0 85.99 7.76
 3 11 3 5.98 4.66
 3 11 4 13.1 5.02
 3 11 5 46.15 7.08
 3 11 6 13.56 4.89
 3 11 7 46.06 7.26
 3 11 8 29.53 6.23
 3 11 9 8.19 5.28
 3 11 10 25.51 6.67
 3 11 11 27.59 6.38
 3 11 12 11.83 5.28
 3 12 -4 7.65 4.04
 3 12 -3 8.04 4.45
 3 12 -2 33.11 5.75
 3 12 -1 23.76 5.36
 3 12 0 6.43 4.2
 3 12 1 28.49 5.51
 3 12 2 32.41 6.19
 3 12 3 15.74 5.33
 3 12 4 4.19 5.32
 3 12 5 77.94 8.58
 3 12 6 6.74 5.02
 3 12 7 92.26 9.49
 3 12 8 8.87 5.44
 3 12 9 11.93 5.94
 3 12 10 34.18 7.45
 3 12 11 4.56 5.24
 3 13 -4 25.04 5.55
 3 13 -3 10.14 4.58
 3 13 -2 31.09 5.96
 3 13 -1 -1.79 4.92
 3 13 0 125.58 9.49
 3 13 1 3.93 4.94
 3 13 2 35.85 7.2
 3 13 3 20.49 5.97
 3 13 4 15.97 5.96
 3 13 5 96.29 9.22
 3 13 6 -1.16 4.91
 3 13 7 13.26 7.14
 3 13 9 17.72 6.39
 3 14 -4 8.29 4.77
 3 14 -3 9.24 4.91
 3 14 -2 -1.78 4.72
 3 14 -1 5.13 5.58
 3 14 0 22.3 6.66
 3 14 1 10.1 6.29
 3 14 2 2.29 5.88
 3 14 3 13.15 6.12
 3 14 4 4.94 5.52
 3 14 5 1.05 5.23
 4 -2 13 9.36 3.19
 4 -1 12 49.39 4.66
 4 -1 13 10.75 3.06
 4 0 12 15.03 3.34
 4 0 14 10.84 3.52
 4 1 12 57.94 5.06
 4 1 13 15.59 3.8
 4 1 14 8.1 3.01
 4 2 -8 0.57 1
 4 2 -7 109.06 3.94
 4 2 11 1.01 2.92
 4 2 12 34.59 4.72
 4 2 13 8.61 3.42
 4 2 14 19.83 4.05
 4 3 -7 75.47 3.41
 4 3 -6 250.47 6.15
 4 3 -5 286.78 6.82
 4 3 -4 76.18 3.92
 4 3 -3 151.38 5.58
 4 3 -2 30.91 3.28
 4 3 -1 238.48 7.14
 4 3 0 880.23 13.56
 4 3 1 236.27 7.27
 4 3 2 30.2 3.69
 4 3 3 153.8 6.35
 4 3 4 83.16 4.82
 4 3 5 288.24 8.76
 4 3 10 22.5 3.86
 4 3 11 1.42 2.79
 4 3 12 5.77 3.46
 4 3 13 33.71 4.42
 4 3 14 8.32 3.31
 4 4 -6 33.48 2.89
 4 4 -5 232.72 6.37
 4 4 -4 238.52 6.8
 4 4 -3 70.45 4.31
 4 4 -1 67.91 4.4
 4 4 0 730.65 12.68
 4 4 1 64.81 4.34
 4 4 2 325.88 8.83
 4 4 9 30.75 4.36
 4 4 10 -0.5 3.05
 4 4 11 -3.33 2.68
 4 4 12 1.98 3.12
 4 4 14 13.3 3.84
 4 4 15 11.64 3.78
 4 5 -6 89.06 4.27
 4 5 -5 68.4 4.05
 4 5 -4 102.49 4.85
 4 5 -3 1.58 2.08
 4 5 -2 61.39 4.34
 4 5 -1 267.17 7.9
 4 5 0 10.07 3.1
 4 5 1 273.03 8.42
 4 5 6 89.45 5.65
 4 5 7 81.81 6.24
 4 5 8 15.56 3.84
 4 5 9 14.25 3.72
 4 5 10 -1.67 3.45
 4 5 11 18 4.24
 4 5 12 10.09 3.75
 4 5 13 7.84 3.7
 4 5 14 9.3 4.17
 4 5 15 26.97 4.72
 4 6 -6 -0.44 1.43
 4 6 -5 37.67 3.62
 4 6 -4 9.66 2.83
 4 6 -3 121.13 5.75
 4 6 4 5.62 2.83
 4 6 5 36.32 4.84
 4 6 6 1.68 2.93
 4 6 7 39.92 4.61
 4 6 8 7.87 3.94
 4 6 9 9.46 4.17
 4 6 10 3.17 4.1
 4 6 11 10.5 4.15
 4 6 12 6.47 4.08
 4 6 14 34.57 5.59
 4 6 15 12.68 4.63
 4 7 -6 73.29 4.37
 4 7 -5 3.03 2.26
 4 7 1 7.75 3.33
 4 7 3 88.68 6.13
 4 7 4 4.88 3.23
 4 7 5 5.14 3.07
 4 7 6 73.92 6.18
 4 7 7 6.86 3.55
 4 7 9 21.5 4.92
 4 7 11 11.26 4.58
 4 7 12 5.38 4.66
 4 7 13 26.99 5.35
 4 7 14 34.43 5.65
 4 7 15 42.67 6.26
 4 8 -3 77.76 5.71
 4 8 -1 27.5 4.25
 4 8 0 64.29 5.47
 4 8 1 22.16 4.18
 4 8 2 0.96 3.02
 4 8 3 78.82 6.12
 4 8 5 63.04 6.27
 4 8 7 8.11 4.26
 4 8 8 146.97 9.02
 4 8 9 22.83 5.14
 4 8 10 17.4 5.16
 4 8 12 5.79 4.46
 4 8 13 33.6 6.05
 4 8 14 8.99 4.54
 4 8 15 10.1 4.55
 4 9 -5 28.98 4
 4 9 -4 6.29 3.19
 4 9 -2 16.65 3.96
 4 9 -1 139.55 8.12
 4 9 0 -1.93 3.81
 4 9 2 23.13 4.86
 4 9 3 3.71 3.57
 4 9 4 2.92 3.73
 4 9 5 19.92 5
 4 9 6 45.2 6.31
 4 9 7 57.53 6.72
 4 9 9 49.18 7.11
 4 9 10 114.23 8.63
 4 9 11 -2.53 4.04
 4 9 12 13.47 5.38
 4 9 13 7.28 4.61
 4 9 14 42.73 7.05
 4 10 -5 14.3 3.72
 4 10 -4 39.39 5.47
 4 10 -3 22.35 4.48
 4 10 -2 2.57 3.81
 4 10 -1 139.44 8.28
 4 10 0 109.44 8.02
 4 10 3 22.81 5.13
 4 10 4 40.63 6.45
 4 10 5 18.37 5.47
 4 10 6 75.7 7.38
 4 10 7 7.52 4.96
 4 10 8 5.6 5.06
 4 10 9 24.46 5.74
 4 10 10 6.15 5.16
 4 10 11 35.68 6.6
 4 10 12 6.04 4.93
 4 11 -4 -1.61 3.79
 4 11 -3 51.57 6.3
 4 11 -2 40.51 6.13
 4 11 -1 38.88 5.88
 4 11 0 -0.59 3.99
 4 11 3 44.87 6.56
 4 11 4 3.19 4.42
 4 11 5 24.97 5.8
 4 11 6 24.3 6.51
 4 11 7 50.83 7.11
 4 11 8 24.96 5.99
 4 11 9 8.44 5.25
 4 11 10 21.94 6.7
 4 11 11 11.39 5.43
 4 12 -4 25.41 4.88
 4 12 -3 3.46 3.95
 4 12 -2 29.47 5.66
 4 12 -1 13.7 5.78
 4 12 0 4.44 5.24
 4 12 2 23.71 5.8
 4 12 3 4.5 5.55
 4 12 4 25.38 6.63
 4 12 6 51.61 7.6
 4 12 8 26.14 6.81
 4 12 9 1.22 5.45
 4 13 -4 1.49 3.46
 4 13 -3 16.15 5.88
 4 13 -2 -3.33 4.33
 4 13 -1 6.86 5.26
 4 13 0 16.54 5.74
 4 13 1 12.31 5.51
 4 13 2 -3.11 5.31
 4 13 3 19.99 6.04
 4 13 5 4.14 5.43
 4 13 6 7.27 5.88
 4 14 -1 10.14 5.78
 4 14 0 20.03 7.27
 5 -2 13 -0.75 3.27
 5 -1 12 4.6 3.9
 5 -1 14 31.73 4.73
 5 0 11 3.47 3.76
 5 0 13 14.03 3.82
 5 0 14 91.38 6.6
 5 1 10 51.31 5.64
 5 1 12 4.45 3.35
 5 1 13 80.89 6.48
 5 1 14 30.09 4.64
 5 2 -7 48.01 3.34
 5 2 7 48.3 4.85
 5 2 8 73.2 5.92
 5 2 9 11.56 3.78
 5 2 10 55.95 6.05
 5 2 12 13.99 4.52
 5 2 13 0.69 3.3
 5 2 14 59.23 5.88
 5 3 -6 125.82 5.26
 5 3 -5 -0.33 2.18
 5 3 -4 33.02 3.88
 5 3 -3 49.57 4.31
 5 3 5 -0.15 2.41
 5 3 11 7.67 4.02
 5 3 12 1.7 3.56
 5 3 13 6 4.15
 5 3 14 27.23 4.78
 5 3 15 3.85 3.66
 5 4 -6 63.73 4.15
 5 4 -5 83.74 4.83
 5 4 -4 16.92 3.37
 5 4 3 46.14 4.48
 5 4 4 15.46 3.44
 5 4 5 85.78 6.21
 5 4 6 64.56 5.95
 5 4 7 29.57 4.6
 5 4 8 3.05 3.25
 5 4 9 112.67 7.6
 5 4 10 13.93 4.68
 5 4 12 0.04 3.31
 5 4 13 -0.8 3.13
 5 4 15 20.68 4.72
 5 5 -6 42.53 3.66
 5 5 1 26.89 4.01
 5 5 2 56.19 4.87
 5 5 4 113.55 6.72
 5 5 5 56.79 5.28
 5 5 6 39.31 5.31
 5 5 7 144.83 8.06
 5 5 8 35.07 5.84
 5 5 9 45.88 6.03
 5 5 10 -1.89 4.1
 5 5 11 6.04 4.06
 5 5 12 1.89 4.41
 5 5 13 29.48 5.5
 5 5 14 9.22 4.8
 5 5 15 23.5 5.1
 5 6 -3 118.08 6.45
 5 6 -1 22.38 3.83
 5 6 0 -1.11 2.82
 5 6 2 17.86 3.81
 5 6 3 129.98 7.6
 5 6 4 3.17 3.17
 5 6 5 109.13 7.2
 5 6 6 23.04 4.46
 5 6 7 5.3 3.54
 5 6 9 39.09 5.96
 5 6 10 13.7 4.55
 5 6 11 9.76 4.86
 5 6 12 2.93 3.87
 5 6 14 22.07 5.8
 5 6 15 27.19 5.56
 5 7 -5 25.01 3.92
 5 7 -4 26.64 3.97
 5 7 -3 2.59 2.76
 5 7 -2 2.24 3.56
 5 7 -1 62.56 5.88
 5 7 0 10.45 4.15
 5 7 1 64.88 5.67
 5 7 2 1.87 3.03
 5 7 4 24.22 5.19
 5 7 5 28.08 4.91
 5 7 6 30.43 5.2
 5 7 7 47.94 6.14
 5 7 8 50.65 6.78
 5 7 10 55.02 6.51
 5 7 11 24.7 5.41
 5 7 12 45.92 6.59
 5 7 13 -2.37 4.63
 5 7 14 25.86 6.12
 5 8 -5 16.2 3.46
 5 8 -4 49.29 5.25
 5 8 -3 5.52 3.36
 5 8 -1 9.07 3.97
 5 8 1 7.25 3.65
 5 8 2 10.15 4.42
 5 8 3 3.49 3.97
 5 8 4 44.46 5.72
 5 8 5 14.07 4.95
 5 8 6 41.79 5.84
 5 8 7 26.45 5.33
 5 8 8 76.76 7.87
 5 8 9 3.63 4.35
 5 8 11 12.69 5.33
 5 8 12 11.92 5.54
 5 9 -4 7.99 3.35
 5 9 -3 2.51 3.35
 5 9 -1 8.27 3.99
 5 9 0 33.08 5.29
 5 9 1 13.4 4.63
 5 9 2 28.06 5.31
 5 9 3 0.59 3.72
 5 9 4 13.87 4.69
 5 9 5 7.9 5.02
 5 9 6 36.08 5.96
 5 9 7 6.06 4.72
 5 9 8 26.53 5.78
 5 9 9 28.46 6.55
 5 9 10 57.62 7.55
 5 9 11 18.32 6.47
 5 9 12 5.98 6.12
 5 10 -5 0.06 2.32
 5 10 -4 37.48 5.68
 5 10 -2 30.02 5.96
 5 10 -1 30.51 5.63
 5 10 0 88.33 8.01
 5 10 1 27.66 6.32
 5 10 2 21.02 5.28
 5 10 3 16.5 5.23
 5 10 6 30.57 6.35
 5 10 7 2.58 5.74
 5 10 8 36.74 7.39
 5 10 9 24.36 6.37
 5 10 10 1.43 4.91
 5 10 11 7.96 5.33
 5 11 -4 15.14 4.67
 5 11 -3 10.83 5.09
 5 11 -2 34.34 6.07
 5 11 -1 32.73 6.4
 5 11 1 42.28 7.26
 5 11 2 28.48 5.95
 5 11 3 18.35 5.62
 5 11 4 25.36 6.07
 5 11 5 17.98 5.84
 5 11 6 35.73 7.28
 5 11 8 31.43 6.85
 5 11 9 13.88 6.02
 5 12 -3 15.39 5.8
 5 12 -2 8.5 5.02
 5 12 -1 46.97 6.98
 5 12 0 8.48 5.28
 5 12 1 46.05 7.44
 5 12 2 19.05 5.93
 5 12 3 20.44 6.78
 5 12 5 19.3 7.13
 5 13 -2 36.33 7.15
 5 13 -1 4.63 5.05
 5 13 0 35.31 6.73
 5 13 1 2.4 5.06
 5 13 2 38.28 7.84
 6 -2 13 1 3.63
 6 -1 12 4.4 4.06
 6 0 10 99.35 7.5
 6 0 11 26.61 5.1
 6 0 12 2.31 3.9
 6 0 13 6.22 3.78
 6 0 14 3.63 3.85
 6 1 9 11.41 4.26
 6 1 10 5.79 4.28
 6 1 11 4.58 4.58
 6 1 12 3.93 4.5
 6 1 13 -1.03 3.5
 6 1 14 9.01 4.88
 6 2 8 13.65 4.92
 6 2 9 52.72 6.31
 6 2 10 16.28 4.62
 6 2 11 30.73 5.31
 6 2 12 5.88 4.21
 6 2 13 1.82 3.72
 6 2 14 32 5.99
 6 3 -5 41.5 4.31
 6 3 -4 34.07 4.46
 6 3 -2 6.99 3.47
 6 3 -1 86.35 5.95
 6 3 1 88.23 6.09
 6 3 2 8.3 3.84
 6 3 4 24.56 4.46
 6 3 6 61.04 6.03
 6 3 7 25.91 5.44
 6 3 8 13.06 4.95
 6 3 9 19.27 5.47
 6 3 10 9.56 4.39
 6 3 11 1.65 4.43
 6 3 12 3.44 4.06
 6 3 13 6.28 4.36
 6 4 -5 114.04 5.99
 6 4 -3 81.96 5.85
 6 4 -2 60.28 5.18
 6 4 -1 27.19 4.53
 6 4 0 13.29 3.63
 6 4 1 22.03 4.14
 6 4 2 59.37 6.34
 6 4 3 74.25 6.14
 6 4 4 50.83 5.44
 6 4 6 13.51 4.34
 6 4 7 12.14 4.47
 6 4 8 40.74 6.37
 6 4 9 18.49 5.31
 6 4 10 24.56 5.86
 6 4 11 -0.5 3.78
 6 4 12 4.39 4.94
 6 4 13 13.02 4.92
 6 4 14 17.62 5.55
 6 5 -4 8.36 3.03
 6 5 -3 10.72 3.95
 6 5 -2 3.42 3.54
 6 5 -1 247.99 9.79
 6 5 0 18.58 4.15
 6 5 1 254.87 9.92
 6 5 2 3.23 3.36
 6 5 3 13.35 4.11
 6 5 4 7.63 4.07
 6 5 5 76.17 6.97
 6 5 6 13.96 4.85
 6 5 7 33.43 5.47
 6 5 8 11.8 4.91
 6 5 9 -0.42 3.86
 6 5 11 15.74 5.42
 6 5 12 8.49 4.67
 6 5 13 9.77 5.32
 6 6 -5 42.14 4.58
 6 6 -2 49.97 6.22
 6 6 -1 177.46 8.76
 6 6 0 -1.62 3.06
 6 6 1 168.33 8.47
 6 6 2 44.87 5.67
 6 6 4 47.13 5.89
 6 6 5 37.78 6.15
 6 6 6 21.54 5.67
 6 6 7 4.25 4.24
 6 6 9 15.23 5.02
 6 6 10 11.8 5.42
 6 6 11 0.13 4.45
 6 6 12 3.13 4.45
 6 6 13 17.79 6.31
 6 7 -4 12.05 3.75
 6 7 -3 0.93 3.12
 6 7 0 84.23 6.69
 6 7 2 -2.91 4.02
 6 7 3 2.77 4.23
 6 7 4 10.55 4.44
 6 7 6 125.39 9.18
 6 7 7 2.57 4.89
 6 7 8 -1.39 3.89
 6 7 9 4.73 5.42
 6 7 10 0.96 4.51
 6 7 11 30.66 6.21
 6 7 12 4.47 5.06
 6 8 -3 13.41 4.26
 6 8 -2 21.01 4.63
 6 8 -1 42.26 6.23
 6 8 0 76.81 7.34
 6 8 1 32.71 5.45
 6 8 3 12.1 4.66
 6 8 4 67.64 7.45
 6 8 5 4.57 4.71
 6 8 7 0.62 5
 6 8 8 83.14 8.83
 6 8 9 45.15 7.02
 6 8 10 0.77 5.89
 6 9 -4 2.05 3.5
 6 9 -3 11.26 4.88
 6 9 -2 22.81 5.1
 6 9 0 5.87 4.1
 6 9 1 24.5 5.82
 6 9 2 15.59 5.22
 6 9 3 9.93 4.77
 6 9 4 1.68 4.63
 6 9 5 18.83 6.28
 6 9 6 44.08 7.25
 6 9 7 18.88 5.76
 6 9 8 15.72 5.94
 6 9 9 -4.54 5.3
 6 9 10 28.43 6.31
 6 10 -2 6.35 4.78
 6 10 -1 25.43 5.54
 6 10 2 11.53 5.39
 6 10 3 22.67 5.93
 6 10 4 24.27 6.08
 6 10 6 9.19 5.43
 6 10 8 11 6.2
 6 11 -3 24.93 5.39
 6 11 -2 29.15 6.52
 6 11 0 19.53 5.74
 6 11 2 22.23 5.93
 6 11 3 19.16 5.91
 6 11 5 7.83 5.63
 7 -2 12 1.63 4.94
 7 -2 13 16.27 4.84
 7 -1 11 4.69 4.18
 7 -1 12 2.55 4.19
 7 -1 13 19.79 5.5
 7 0 10 -1.34 4.02
 7 0 12 2.3 4.47
 7 0 13 13.02 4.91
 7 1 8 12.92 5.44
 7 1 9 23.5 5.49
 7 1 10 12.5 4.89
 7 1 11 5.83 4.98
 7 1 13 19.38 5.82
 7 2 5 3.33 3.92
 7 2 6 30.06 6.09
 7 2 7 2.9 3.95
 7 2 8 41.22 6.1
 7 2 9 2.75 4.33
 7 2 10 38.45 6.51
 7 2 11 28.65 6.21
 7 2 12 -2.93 4.54
 7 2 13 9.02 5.3
 7 3 -5 36.6 4.85
 7 3 -4 56.09 5.87
 7 3 -3 47.39 5.73
 7 3 -2 14.43 4.58
 7 3 -1 69.82 6.15
 7 3 0 3.84 3.6
 7 3 1 65.69 6.32
 7 3 3 51.06 6.25
 7 3 5 29.07 5.35
 7 3 6 53.81 6.58
 7 3 7 13.47 4.9
 7 3 8 79.11 8.26
 7 3 9 22.28 5.8
 7 3 10 29.64 6.67
 7 3 12 25.38 6.1
 7 4 -5 29.43 4.09
 7 4 -4 91.16 6.87
 7 4 -2 4.52 3.71
 7 4 -1 39.42 5.85
 7 4 0 8.81 4.32
 7 4 1 42.72 6.26
 7 4 2 6.95 4.57
 7 4 3 43.38 5.94
 7 4 4 88 7.27
 7 4 6 56.38 6.99
 7 4 8 27.74 5.9
 7 4 10 53.59 7.29
 7 4 11 15.5 5.41
 7 4 12 6.15 5.13
 7 5 -6 -0.41 2.21
 7 5 -4 -0.42 3.35
 7 5 -3 22.9 4.59
 7 5 -2 2.5 3.6
 7 5 -1 16.37 4.7
 7 5 0 -2.3 3.3
 7 5 1 11.02 4.46
 7 5 2 8.04 4.29
 7 5 3 22.74 5.58
 7 5 4 -1.59 3.88
 7 5 5 10.17 4.6
 7 5 6 3.13 4.35
 7 5 7 81.53 7.69
 7 5 9 -0.82 4.41
 7 5 10 10.56 5.03
 7 5 11 13.46 5.18
 7 6 -3 37.59 5.35
 7 6 -2 11.56 4.66
 7 6 -1 -2.08 3.42
 7 6 1 0 3.76
 7 6 3 29.9 6.1
 7 6 5 41.83 7.05
 7 6 6 8.45 5.72
 7 6 7 8.29 5
 7 6 9 25.28 6.84
 7 6 10 -0.7 5.07
 7 7 -4 2.9 3.2
 7 7 -3 7.47 4.64
 7 7 -2 12.48 4.63
 7 7 -1 42.28 6.17
 7 7 0 8.5 4.49
 7 7 2 6.65 4.71
 7 7 3 5.47 5.38
 7 7 4 4.02 4.56
 7 7 5 10.18 5.82
 7 7 6 42.45 6.92
 7 7 7 22.61 5.87
 7 7 9 3.84 5.31
 7 8 -4 3.23 3.4
 7 8 -3 9.72 4.25
 7 8 -2 0.78 4.07
 7 8 -1 26.92 5.54
 7 8 2 -2.37 4.56
 7 8 4 1.79 4.84
 7 8 5 8.41 5.58
 7 8 6 16.55 5.61
 7 8 7 26.95 6.32
 7 8 8 4.53 5.15
 7 9 -3 4.15 4.84
 7 9 -2 31.78 5.9
 7 9 -1 37.02 6.14
 7 9 0 -1.74 4.46
 7 9 1 28.21 6.55
 7 9 2 29.71 6.6
 7 9 3 2.45 5.2
 7 9 4 24.43 6.89
 7 9 6 15.05 6.54
 7 10 -2 6.47 5.17
 7 10 -1 1.98 4.58
 7 10 0 27.42 6.58
 7 10 1 2.47 5.31
 7 10 2 9.61 5.83
 8 -1 10 2.57 5.48
 8 0 9 5.97 5.84
 8 0 10 1.89 4.75
 8 1 6 8.27 5.01
 8 1 7 31.53 6.96
 8 1 8 7.68 5.63
 8 1 9 10.15 5.43
 8 1 10 5.02 5.78
 8 2 -5 33.28 4.74
 8 2 -4 16.62 4.72
 8 2 -3 34.71 5.44
 8 2 -2 33.5 5.55
 8 2 -1 65.43 7.14
 8 2 0 4.9 4.4
 8 2 1 63.97 6.82
 8 2 4 16.21 5.2
 8 2 5 29.28 5.91
 8 2 6 10.43 5.13
 8 2 9 9.31 5.38
 8 3 -4 30.38 5.3
 8 3 -3 0.94 3.89
 8 3 -1 14.45 4.85
 8 3 0 4.65 4.72
 8 3 1 9.92 4.84
 8 3 2 17.81 5.28
 8 3 4 29.41 6.22
 8 3 5 12.47 5.29
 8 3 6 13.52 6.08
 8 3 7 10.92 5.29
 8 3 9 3.33 4.88
 8 4 -5 -2.7 2.54
 8 4 -4 8.3 4.54
 8 4 -3 1.61 4.15
 8 4 -2 -0.34 4.83
 8 4 -1 17.29 5.09
 8 4 0 41.04 6.82
 8 4 1 22.23 6.26
 8 4 2 4.38 4.63
 8 4 3 -0.92 4.3
 8 4 4 4.28 4.51
 8 4 5 2.29 4.92
 8 4 6 8.83 5
 8 4 7 27.48 6.31
 8 4 8 34.99 7.33
 8 5 -4 42.14 5.61
 8 5 -3 3.38 4.54
 8 5 -2 30.06 5.73
 8 5 -1 46.04 6.51
 8 5 2 25.48 6.61
 8 5 3 1.51 4.49
 8 5 4 42.56 7.52
 8 5 5 15.91 5.82
 8 5 6 42.01 7.27
 8 6 -3 13.47 4.62
 8 6 -2 39.96 5.98
 8 6 -1 34.49 6.06
 8 6 0 17.96 5.62
 8 6 1 45.93 7.39
 8 6 2 50.6 7.59
 8 6 3 12.4 5.92
 8 6 5 5.43 5.32
 8 6 6 26.26 7.07
 8 7 -3 3.27 4.5
 8 7 -2 0.34 4.34
 8 7 -1 2.7 4.57
 8 7 0 104.5 9.01
 8 7 1 9.24 5.42
 8 7 2 8.86 5.51
 8 7 3 8.56 5.57
 8 7 4 6.72 5.49
 9 1 -4 2.22 4.6
 9 1 -3 5.64 5.46
 9 1 -2 -1.02 4.46
 9 1 -1 24.78 6.72
 9 1 2 2.52 4.77
 9 1 3 -1.6 5.02
 9 1 4 -2.38 5.87
 9 2 -4 2.02 4.31
 9 2 -2 -2.47 4.55
 9 2 -1 -1.17 4.31
 9 2 0 5.25 5.13
 9 2 1 1.79 4.78
 9 2 2 2.04 5
 9 2 3 2.26 5.27
 9 2 4 -5.2 4.99
 9 3 -2 0.63 4.17
 9 3 -1 5.02 5.2
 9 3 0 7.82 5.11
 9 3 1 10.68 5.41
 9 3 2 4.67 5.57
 -8 0 -6 28.36 5.14
 -8 0 -5 104.29 7.17
 -8 1 -10 3.3 4.96
 -8 1 -9 13.21 4.93
 -8 1 -8 7.32 4.46
 -8 1 -7 26.29 5.48
 -8 1 -6 5.31 3.72
 -8 1 -5 18.38 4.51
 -8 2 -9 18.53 5.27
 -8 2 -8 20.9 5.13
 -8 2 -7 5.79 4.4
 -8 2 -6 15.4 4.67
 -8 2 -5 33.21 5.5
 -8 2 -4 20.56 4.63
 -8 3 -9 3.55 4.69
 -8 3 -8 32.99 6.02
 -8 3 -7 10.38 4.81
 -8 3 -6 19.38 4.96
 -8 3 -4 30.27 5.09
 -8 4 -7 21.2 5.3
 -8 4 -6 13.51 4.92
 -8 4 -5 2.21 4.46
 -8 4 -4 2.82 3.61
 -8 4 -3 0.7 3.51
 -8 5 -7 18.18 5.44
 -8 5 -6 38.16 6.31
 -8 5 -5 12.28 5.06
 -8 5 -4 36.92 5.76
 -8 5 -3 6.26 3.7
 -8 6 -6 27.45 5.8
 -8 6 -5 3.01 4.15
 -8 6 -4 80.08 7.3
 -8 6 -3 10.4 4.12
 -8 7 -4 8.42 5.2
 -8 7 -2 -1.05 3.7
 -7 0 -3 -0.34 2.33
 -7 1 -5 63.52 6.17
 -7 1 -3 3.3 2.65
 -7 2 -6 33.47 5.71
 -7 2 -5 4.32 3.7
 -7 2 -4 46.29 5.76
 -7 2 -3 6.27 3.31
 -7 2 -2 12.39 3.23
 -7 3 -12 17.85 6.08
 -7 3 -11 7 5.01
 -7 3 -10 26.61 6.24
 -7 3 -9 16.63 5.08
 -7 3 -8 95.92 7.72
 -7 3 -7 14.87 4.85
 -7 3 -6 54.53 6.73
 -7 3 -5 26.37 4.9
 -7 3 -4 68.46 5.83
 -7 3 -3 45.77 5.51
 -7 3 -2 19.57 3.76
 -7 3 -1 73.17 5.07
 -7 4 -12 5.11 5.35
 -7 4 -11 11.29 5.32
 -7 4 -9 78.37 8.29
 -7 4 -8 32.57 6.38
 -7 4 -7 -0.7 3.57
 -7 4 -6 45.48 6.3
 -7 4 -3 39.98 5.43
 -7 4 -2 4.59 3.35
 -7 4 -1 40.33 5.03
 -7 4 0 9.37 3.06
 -7 4 1 38.29 4.64
 -7 5 -11 11.68 5.78
 -7 5 -10 15.14 5.68
 -7 5 -9 3.74 5.57
 -7 5 -8 30.85 6.17
 -7 5 -7 73.57 7.78
 -7 5 -6 -1.72 3.7
 -7 5 -5 4.84 3.99
 -7 5 -4 2.38 3.53
 -7 5 -3 23.17 4.57
 -7 5 -2 5.78 3.7
 -7 5 -1 15.03 4.16
 -7 5 0 -0.37 2.8
 -7 5 1 18.87 3.93
 -7 6 -10 4.35 4.85
 -7 6 -8 54.33 7.35
 -7 6 -7 9.4 5.33
 -7 6 -6 2.81 4.23
 -7 6 -5 37.25 6.3
 -7 6 -3 28.68 5.02
 -7 6 -1 4.33 3.44
 -7 6 0 39.84 5.44
 -7 6 1 -0.03 2.94
 -7 6 2 6.75 3.06
 -7 7 -9 9.85 5.19
 -7 7 -8 7.45 5.25
 -7 7 -6 47.14 7.22
 -7 7 -5 8.99 5.03
 -7 7 -4 0.2 3.84
 -7 7 -3 7.43 4.2
 -7 7 -2 15.91 4.43
 -7 7 -1 41.85 5.99
 -7 7 0 12.01 4.52
 -7 7 1 32.98 4.95
 -7 7 2 14.14 3.79
 -7 8 -8 6.39 5.76
 -7 8 -7 18.52 5.6
 -7 8 -4 6.88 4.49
 -7 8 -2 3.75 4.34
 -7 8 -1 25.36 5.17
 -7 8 0 59.26 6.75
 -7 8 1 33.36 5.16
 -7 9 -5 24.07 6.14
 -7 9 -4 29.19 6.19
 -7 9 -3 2.25 5.43
 -7 9 -2 32.27 6.32
 -7 9 1 37.28 5.96
 -7 9 2 27.74 5.14
 -7 10 -1 1.34 4.31
 -7 10 0 25.58 6
 -7 10 1 5.75 4.86
 -7 10 2 13.08 5.51
 -6 -1 0 113.1 4.37
 -6 0 -1 88.6 4.66
 -6 0 0 31.68 2.94
 -6 1 -2 23.67 3.57
 -6 1 -1 37.72 3.6
 -6 1 0 116.5 4.88
 -6 1 1 41.5 3.07
 -6 1 2 26.28 2.44
 -6 2 0 24.33 3.18
 -6 2 1 43.27 3.42
 -6 2 2 194.47 5.63
 -6 3 -6 50.31 6.05
 -6 3 -5 46.34 5.05
 -6 3 -4 21.18 4.32
 -6 3 -3 61.76 5.41
 -6 3 0 154.3 6.19
 -6 3 1 91.15 4.93
 -6 3 2 8.17 2.3
 -6 3 3 67.26 3.81
 -6 4 -14 13.43 6
 -6 4 -13 9.83 6.11
 -6 4 -12 0.68 5.79
 -6 4 -11 -0.75 4.35
 -6 4 -10 24.88 5.72
 -6 4 -9 15.53 4.97
 -6 4 -8 40.46 5.86
 -6 4 -7 4.17 3.7
 -6 4 -6 12.19 3.97
 -6 4 -5 120.3 7.21
 -6 4 -3 78.69 5.96
 -6 4 2 57.39 4.38
 -6 4 3 75.83 4.55
 -6 4 4 34.51 3.44
 -6 5 -13 19.28 5.95
 -6 5 -12 13.12 5.53
 -6 5 -11 12.16 5.4
 -6 5 -10 36.66 6.35
 -6 5 -9 3.19 5.07
 -6 5 -7 29.04 5.19
 -6 5 -6 9.87 3.93
 -6 5 -5 72.88 6.31
 -6 5 -4 8.05 4.04
 -6 5 -3 6.77 3.7
 -6 5 -2 1.27 2.94
 -6 5 -1 250.97 9.16
 -6 5 0 12.41 3.19
 -6 5 1 238.02 8.59
 -6 6 -13 17.6 6.47
 -6 6 -12 2.43 5.21
 -6 6 -11 4.44 5.04
 -6 6 -10 15.13 5.54
 -6 6 -9 15.91 5.32
 -6 6 -8 3.07 4.14
 -6 6 -7 8.8 4.46
 -6 6 -6 18.58 5.52
 -6 6 -4 46.06 5.76
 -6 6 -2 44.69 5.65
 -6 6 -1 171.31 8.45
 -6 6 0 -0.88 2.8
 -6 6 1 176.64 8.14
 -6 6 2 43.26 4.66
 -6 6 3 79.07 5.58
 -6 6 4 37.19 4.27
 -6 7 -12 7.53 5.38
 -6 7 -11 44.21 7.78
 -6 7 -10 -0.12 4.45
 -6 7 -9 3.87 4.78
 -6 7 -8 3.85 4.53
 -6 7 -7 0.94 4.6
 -6 7 -6 136.34 9.12
 -6 7 -5 0.47 3.74
 -6 7 -4 9.92 4.3
 -6 7 -3 -0.27 4.15
 -6 7 -2 1.31 3.41
 -6 7 -1 46.6 5.82
 -6 7 0 81.56 6.82
 -6 7 2 4.39 3.81
 -6 7 3 0.79 3.04
 -6 8 -11 11.87 6.06
 -6 8 -10 2.49 5.26
 -6 8 -9 57.07 8.19
 -6 8 -7 1.26 4.27
 -6 8 -6 3.94 4.81
 -6 8 -5 8.39 4.67
 -6 8 -4 72.24 6.96
 -6 8 -3 10.96 4.43
 -6 8 -2 22.72 5.03
 -6 8 -1 33.5 5.26
 -6 8 0 84.54 7.25
 -6 8 1 34.44 5.22
 -6 8 2 24.35 4.87
 -6 8 3 13.21 3.92
 -6 8 4 64.39 6.25
 -6 9 -10 37.19 6.99
 -6 9 -9 -2.01 4.65
 -6 9 -8 5.79 5
 -6 9 -7 8.95 5.18
 -6 9 -6 39.71 6.63
 -6 9 -5 16.92 5.38
 -6 9 -4 -0.63 4.13
 -6 9 -3 7.32 4.55
 -6 9 -1 22.54 5.29
 -6 9 0 8.04 4.3
 -6 9 1 27.26 5.3
 -6 9 2 24.76 5.05
 -6 9 3 14.14 4.72
 -6 9 4 1 3.63
 -6 10 -8 18.86 6.39
 -6 10 -7 26.25 7.24
 -6 10 -6 13.5 5.86
 -6 10 -5 12.9 5.65
 -6 10 -4 27.06 6.39
 -6 10 -3 21.63 6.37
 -6 10 -2 3.46 4.85
 -6 10 -1 17.25 5.38
 -6 10 0 93.27 8.64
 -6 10 1 20.13 5.21
 -6 10 2 11.03 4.87
 -6 10 3 15.53 5.08
 -6 11 -5 11.88 5.68
 -6 11 -4 15.55 6.02
 -6 11 -2 30.06 6.27
 -6 11 -1 4.69 4.73
 -6 11 0 27.14 6.11
 -6 11 1 10.41 5.13
 -6 11 2 31.83 7
 -6 11 3 16.62 5.71
 -5 -2 2 66.27 1.97
 -5 -1 1 72.16 2.97
 -5 0 0 0.45 1.58
 -5 0 1 17.75 2.07
 -5 0 2 0.42 0.98
 -5 0 3 2.16 0.72
 -5 1 -1 74.94 4.29
 -5 1 0 134.33 4.78
 -5 1 1 77.16 3.54
 -5 1 2 12.5 1.87
 -5 2 -1 76.56 4.19
 -5 2 0 96.17 4.54
 -5 2 1 78.41 3.75
 -5 2 2 70.5 3.51
 -5 2 3 5.51 1.65
 -5 2 4 20.97 2.01
 -5 3 -2 59.86 4.57
 -5 3 0 7.52 2.18
 -5 3 3 49.98 3.28
 -5 3 4 34.61 2.87
 -5 4 -16 3.1 5.62
 -5 4 -8 7.04 3.8
 -5 4 -7 31.58 5.08
 -5 4 -5 82.88 6.1
 -5 4 -4 13.95 3.31
 -5 4 -1 124.39 6.22
 -5 4 0 21.17 3.11
 -5 4 1 124.56 5.46
 -5 4 2 3.06 2.06
 -5 4 5 80.07 4.35
 -5 5 -15 21.42 6.45
 -5 5 -14 5.31 5.53
 -5 5 -13 37.03 6.94
 -5 5 -12 4.68 4.71
 -5 5 -11 3.95 4.39
 -5 5 -10 3.1 4.78
 -5 5 -8 34.68 5.74
 -5 5 -7 143.49 8.47
 -5 5 -5 58.81 5.79
 -5 5 -4 106.34 6.83
 -5 5 -3 35.66 4.89
 -5 5 2 52.04 4.17
 -5 5 3 23.78 3.55
 -5 5 4 110.97 5.55
 -5 6 -15 20.98 6.57
 -5 6 -14 22.49 6.29
 -5 6 -13 35.13 7.09
 -5 6 -12 -2.73 3.93
 -5 6 -11 14.55 5.24
 -5 6 -10 11.1 5.69
 -5 6 -8 43.49 6.22
 -5 6 -7 5.09 3.64
 -5 6 -5 113.93 7.25
 -5 6 -4 4.1 3.8
 -5 6 -3 141.58 7.81
 -5 6 -2 17.6 3.75
 -5 6 -1 22.84 3.84
 -5 6 0 3.23 3.2
 -5 7 -14 22.48 6.74
 -5 7 -13 3.84 5.4
 -5 7 -12 52.51 8.1
 -5 7 -11 32.03 6.14
 -5 7 -8 46.55 6.98
 -5 7 -7 41.67 6.06
 -5 7 -6 37.23 5.74
 -5 7 -5 27.61 4.9
 -5 7 -4 25.72 5.02
 -5 7 -3 10.29 3.87
 -5 7 -2 2.76 3.58
 -5 7 -1 52.39 5.73
 -5 7 0 7.76 3.5
 -5 7 1 54.79 5.11
 -5 7 2 5.57 3.18
 -5 7 3 4.99 2.78
 -5 7 4 25.72 4.56
 -5 7 5 27.42 4.53
 -5 8 -13 9.58 5.43
 -5 8 -11 15.6 6.66
 -5 8 -9 7.01 4.56
 -5 8 -8 71.66 7.78
 -5 8 -7 26.52 5.44
 -5 8 -6 44.38 6.72
 -5 8 -5 20.75 5.03
 -5 8 -4 52.46 5.94
 -5 8 -3 0.9 3.37
 -5 8 -2 9.76 3.93
 -5 8 -1 4.09 3.71
 -5 8 0 15.42 4.11
 -5 8 1 4.69 3.39
 -5 8 2 7.67 3.78
 -5 9 -12 6.94 5.28
 -5 9 -11 10.12 5.64
 -5 9 -10 46.36 7.25
 -5 9 -9 25.38 6.05
 -5 9 -8 26.93 5.98
 -5 9 -7 2.08 5.1
 -5 9 -6 30.31 5.95
 -5 9 -5 6.2 4.36
 -5 9 -4 17.59 5.48
 -5 9 -3 1.46 3.77
 -5 9 -2 27.84 5.17
 -5 9 -1 14.33 4.42
 -5 9 0 36.82 5.82
 -5 9 1 12.15 4.41
 -5 9 3 3.21 3.73
 -5 9 4 9.5 4.48
 -5 10 -11 4.32 5.19
 -5 10 -10 0.6 5.75
 -5 10 -9 23.22 6.74
 -5 10 -8 27.83 6.84
 -5 10 -7 7.25 4.75
 -5 10 -6 23.55 6.29
 -5 10 -5 3.72 5
 -5 10 -4 36 6.16
 -5 10 -3 13.15 4.99
 -5 10 -2 30.97 5.85
 -5 10 -1 35.07 5.84
 -5 10 0 92.12 7.81
 -5 10 1 29.28 6.06
 -5 10 2 21.37 5.57
 -5 10 3 17.81 5.37
 -5 10 4 31.55 6.27
 -5 11 -9 10.2 5.49
 -5 11 -8 33.66 6.9
 -5 11 -7 4.65 5.8
 -5 11 -5 15.84 5.51
 -5 11 -4 18.15 5.89
 -5 11 -3 15.78 5.72
 -5 11 -2 35.62 6.48
 -5 11 2 37.18 6.74
 -5 11 3 12.25 5.28
 -5 12 -6 10.6 5.88
 -5 12 -5 21.89 6.07
 -5 12 -3 8.54 5.28
 -5 12 -2 9.4 6.16
 -5 12 -1 50.27 7.58
 -5 12 0 9.72 5.03
 -5 12 2 17.9 5.98
 -5 13 -1 5.19 5.67
 -5 13 1 5.34 5.75
 -4 -1 2 0.52 0.66
 -4 0 1 -0.15 0.94
 -4 0 2 55.55 2.13
 -4 0 3 44.89 1.53
 -4 1 0 439.91 7.5
 -4 1 1 133.62 3.95
 -4 1 2 1.42 1.06
 -4 1 3 32.93 1.88
 -4 1 4 77.33 2.3
 -4 2 -1 2.39 1.76
 -4 2 0 73.34 3.53
 -4 2 1 2.37 1.6
 -4 2 2 519.53 7.71
 -4 2 3 63.96 2.89
 -4 3 -3 156.57 6.14
 -4 3 -1 243.28 6.88
 -4 3 0 882.74 12.07
 -4 3 1 251.64 6.28
 -4 3 2 30.67 2.81
 -4 3 3 147.85 4.79
 -4 4 -3 75.02 5.05
 -4 4 -2 335.42 8.8
 -4 4 0 723.32 11.79
 -4 4 1 72.77 4
 -4 4 3 69.15 4.04
 -4 4 4 257.47 6.77
 -4 4 5 233.6 6.62
 -4 5 -17 6.16 6.34
 -4 5 -16 18.56 6.52
 -4 5 -15 30.76 6.85
 -4 5 -14 11.08 5.33
 -4 5 -13 9.45 4.65
 -4 5 -12 12.5 4.87
 -4 5 -11 20.69 4.92
 -4 5 -10 0.05 3.2
 -4 5 -9 17.64 4.18
 -4 5 -8 11.59 3.75
 -4 5 -7 86.16 6.33
 -4 5 -6 92.71 6.24
 -4 5 -1 260.4 8
 -4 5 2 49.24 4.32
 -4 5 3 1.53 2.34
 -4 5 5 64.96 4.49
 -4 6 -16 16.74 5.84
 -4 6 -15 12.51 6.24
 -4 6 -14 32.72 6.29
 -4 6 -13 18.41 5.31
 -4 6 -11 10.92 4.37
 -4 6 -10 1.44 3.88
 -4 6 -9 3.53 4.48
 -4 6 -8 5.26 3.63
 -4 6 -6 -1.25 2.26
 -4 6 -5 34.05 4.72
 -4 6 -4 4.99 2.72
 -4 6 3 113.26 6.04
 -4 6 4 6.39 2.78
 -4 6 5 34.28 4.38
 -4 7 -15 33.23 7.04
 -4 7 -14 27.43 6.06
 -4 7 -13 23 5.79
 -4 7 -12 12.87 4.97
 -4 7 -11 7.85 4.72
 -4 7 -10 79.49 7.22
 -4 7 -9 15.18 4.66
 -4 7 -8 -1.92 3.22
 -4 7 -7 2.1 3.41
 -4 7 -6 63.6 6.45
 -4 7 -5 1.63 2.83
 -4 7 -4 5.07 3.28
 -4 7 -2 8.79 3.17
 -4 7 -1 4.1 2.84
 -4 7 0 12.81 3.32
 -4 8 -15 10.51 5.52
 -4 8 -13 29.03 6.31
 -4 8 -12 12.8 5.19
 -4 8 -11 21.85 6.15
 -4 8 -10 21.98 5.45
 -4 8 -9 27.7 5.49
 -4 8 -8 147.07 9.4
 -4 8 -7 12.88 3.95
 -4 8 -6 13.07 4.32
 -4 8 -5 70.83 6.22
 -4 8 -4 22.29 4.49
 -4 8 -3 79.95 6.18
 -4 8 -2 3.65 3.24
 -4 8 -1 24.63 4.16
 -4 8 1 23.57 4.27
 -4 8 2 0.92 3.43
 -4 8 3 85.41 6.55
 -4 8 4 20.55 4.2
 -4 9 -14 30.23 6.89
 -4 9 -13 3.47 5.27
 -4 9 -12 19.51 5.75
 -4 9 -10 103.64 8.61
 -4 9 -9 63.8 7.12
 -4 9 -8 56.1 6.96
 -4 9 -7 47.14 6.37
 -4 9 -5 30.17 5.6
 -4 9 -4 3.28 3.54
 -4 9 -3 1.59 3.56
 -4 9 -1 147.14 8.37
 -4 9 0 1.4 3.82
 -4 9 1 140.04 8.42
 -4 9 2 12.82 4.4
 -4 9 3 0.52 3.19
 -4 9 4 5.6 3.85
 -4 10 -12 8.32 5.45
 -4 10 -9 20.12 5.68
 -4 10 -8 8.35 4.48
 -4 10 -7 10.47 5.68
 -4 10 -6 82.44 7.85
 -4 10 -5 20.61 5.17
 -4 10 -4 41.17 6.77
 -4 10 -2 -0.95 3.64
 -4 10 0 115.09 7.93
 -4 10 1 139.31 9.21
 -4 10 2 3.76 3.91
 -4 10 3 25.49 5.55
 -4 10 4 31.94 6.06
 -4 11 -11 18.78 6.21
 -4 11 -10 16.21 6.32
 -4 11 -8 37.72 7
 -4 11 -6 26.84 6.17
 -4 11 -5 32.99 6.93
 -4 11 -4 0.72 4.47
 -4 11 -3 43.56 6.46
 -4 11 -2 43.91 7.03
 -4 11 -1 38.77 6.7
 -4 11 0 -1.4 4.62
 -4 11 1 31.24 5.98
 -4 11 2 40.53 6.32
 -4 11 3 50.34 7
 -4 12 -9 2.24 5.28
 -4 12 -7 26.08 7.46
 -4 12 -6 43.38 7.09
 -4 12 -5 19.58 5.82
 -4 12 -4 30.42 6.37
 -4 12 -3 -3.55 3.82
 -4 12 -2 25.01 6.53
 -4 12 -1 21.23 5.7
 -4 12 0 -2.78 4.13
 -4 12 1 14.7 5.49
 -4 12 2 35.17 6.7
 -4 13 -6 5.33 5.74
 -4 13 -5 -1.96 4.73
 -4 13 -4 4.01 5.24
 -4 13 -3 22.61 6.33
 -4 13 -2 -1.93 4.86
 -4 13 -1 14.57 6.06
 -4 13 0 7.11 5.66
 -4 13 1 7.87 5.67
 -4 14 0 13.26 6.63
 -3 0 2 92.76 2.12
 -3 1 1 181.34 3.92
 -3 1 2 160.52 3.41
 -3 1 3 118.72 2.77
 -3 2 -1 139.14 4.56
 -3 2 0 519.39 7.68
 -3 2 1 130.13 3.85
 -3 2 3 356.18 5.69
 -3 2 4 6.8 1.5
 -3 3 -3 5.49 2.11
 -3 3 -2 382.08 8.11
 -3 3 1 58.86 3.01
 -3 3 2 400.24 7.21
 -3 3 3 4.03 1.5
 -3 3 4 140.48 4.36
 -3 4 -5 0.27 2.05
 -3 4 -4 154.16 6.09
 -3 4 -3 31.21 3.59
 -3 4 -2 14.1 2.47
 -3 4 1 53.76 3.27
 -3 4 2 11.58 2.11
 -3 4 3 27.25 2.92
 -3 4 4 145.69 5.24
 -3 5 -18 3.79 4.91
 -3 5 -17 16.3 6.42
 -3 5 -16 1.29 5.28
 -3 5 -15 2.99 5
 -3 5 -14 82.23 7.71
 -3 5 -10 30.01 4.72
 -3 5 -9 45.43 5.06
 -3 5 -8 18.28 3.7
 -3 5 -4 426.9 10.26
 -3 5 -3 58.56 4.53
 -3 5 -1 30.52 3.48
 -3 5 0 132.93 5.48
 -3 5 1 29.65 3.6
 -3 5 3 54.85 4.12
 -3 5 4 414.68 9.27
 -3 6 -17 8.1 5.59
 -3 6 -16 51.26 7.78
 -3 6 -15 92.84 8.63
 -3 6 -13 20.62 5.05
 -3 6 -11 23.16 4.99
 -3 6 -10 104.07 7.12
 -3 6 -9 39.28 5.03
 -3 6 -8 129.95 7.17
 -3 6 -6 96.79 6.24
 -3 6 -2 45.03 4.34
 -3 6 -1 75.5 4.7
 -3 6 0 145.02 6.13
 -3 6 3 74.4 5.01
 -3 6 4 79.65 5.16
 -3 7 -16 8.31 5.74
 -3 7 -15 74.25 7.58
 -3 7 -13 6.99 4.91
 -3 7 -12 22.97 5.64
 -3 7 -11 -1.24 3.55
 -3 7 -10 62.42 6.85
 -3 7 -9 92.45 7.32
 -3 7 -8 163.02 8.26
 -3 7 -7 37.31 5.3
 -3 7 -6 74.6 5.76
 -3 7 -5 46.66 4.69
 -3 8 -16 3.48 5.56
 -3 8 -15 19.28 5.54
 -3 8 -14 15.82 5.38
 -3 8 -12 46.58 6.5
 -3 8 -11 14.79 4.88
 -3 8 -10 156.37 8.97
 -3 8 -9 4.65 3.63
 -3 8 -8 84.16 7.22
 -3 8 -7 27.32 4.63
 -3 8 -6 31.35 4.75
 -3 8 -5 22.88 4.08
 -3 8 -2 29.74 4.35
 -3 8 -1 50.45 4.86
 -3 8 0 39.79 4.44
 -3 8 1 52.33 5.36
 -3 8 2 29.44 4.27
 -3 8 3 1.66 2.66
 -3 8 4 2.51 2.75
 -3 9 -15 27.03 6.21
 -3 9 -14 16.25 5.5
 -3 9 -13 2.12 4.18
 -3 9 -12 8.11 4.72
 -3 9 -11 21.17 6.18
 -3 9 -9 13.37 4.69
 -3 9 -8 96.82 7.94
 -3 9 -7 20.63 4.56
 -3 9 -6 19.35 4.38
 -3 9 -5 1.72 3.05
 -3 9 -4 5.23 3.27
 -3 9 -3 16.15 4.67
 -3 9 -2 33.84 5.12
 -3 9 -1 98.26 6.81
 -3 9 0 9.19 3.47
 -3 9 1 96.69 6.96
 -3 9 2 38.87 5.22
 -3 9 4 0.97 3.72
 -3 10 -14 1.58 4.83
 -3 10 -12 50.4 7.21
 -3 10 -11 1.5 4.69
 -3 10 -10 40.75 6.98
 -3 10 -9 20.01 5.58
 -3 10 -8 -5.18 4.02
 -3 10 -7 3.84 3.89
 -3 10 -6 24.23 5
 -3 10 -5 70.79 6.53
 -3 10 -4 20.61 5.01
 -3 10 -3 40.44 5.6
 -3 10 -2 30.02 5.07
 -3 10 -1 39.85 5.46
 -3 10 0 27.18 4.82
 -3 10 1 29.67 5.05
 -3 10 2 27.26 5.51
 -3 10 3 40.36 6.1
 -3 11 -12 15.3 5.72
 -3 11 -11 18.75 6.57
 -3 11 -10 21.69 6.03
 -3 11 -9 10.93 5.17
 -3 11 -8 16.18 5.91
 -3 11 -6 18.56 6.05
 -3 11 -4 5.98 4.4
 -3 11 -3 0.14 3.81
 -3 11 -2 18.21 4.99
 -3 11 -1 82.18 7.84
 -3 11 0 91.46 8.08
 -3 11 1 86.08 7.47
 -3 11 2 9.7 4.7
 -3 11 3 2.15 4.02
 -3 12 -11 2.51 5.08
 -3 12 -10 33.13 6.87
 -3 12 -9 19.01 5.85
 -3 12 -8 0.66 4.72
 -3 12 -7 95.12 9.53
 -3 12 -6 1.68 4.28
 -3 12 -4 4.7 4.72
 -3 12 -3 10.84 4.62
 -3 12 -2 32.89 6.9
 -3 12 0 8.55 4.96
 -3 12 1 26.12 6.01
 -3 12 2 32.13 6.3
 -3 13 -9 20.54 7.13
 -3 13 -8 11.67 6.35
 -3 13 -7 9.52 5.37
 -3 13 -6 3.09 5.12
 -3 13 -5 84.94 8.55
 -3 13 -4 22.32 6.05
 -3 13 -3 10.78 5.39
 -3 13 -2 22.72 5.99
 -3 13 -1 -0.2 4.63
 -3 13 0 121.63 10.54
 -3 13 1 -0.66 4.73
 -3 14 -5 7.71 5.76
 -3 14 -4 7.97 5.27
 -3 14 -1 3.68 5.59
 -3 14 0 27.61 7.29
 -2 0 2 800.32 4.3
 -2 1 1 432.39 4.89
 -2 1 2 784.16 6.2
 -2 1 3 306.61 4.02
 -2 2 -1 0.44 1.34
 -2 2 0 318.27 5.32
 -2 2 1 1.94 1.32
 -2 2 2 734.24 7.59
 -2 2 3 282.17 4.94
 -2 3 -1 240.09 5.58
 -2 3 0 1645.51 13.4
 -2 3 1 243.9 5.48
 -2 4 -19 4.67 5.24
 -2 4 -5 99.92 4.74
 -2 4 -4 214.13 6.51
 -2 4 -2 399.87 7.94
 -2 4 -1 41.6 2.87
 -2 4 0 2433.2 18.17
 -2 4 1 45.26 3.25
 -2 4 3 232.75 5.98
 -2 4 4 213.06 6.06
 -2 5 -18 4.05 4.3
 -2 5 -17 27.96 5.9
 -2 5 -15 11.2 4.75
 -2 5 -10 19.98 3.91
 -2 5 -7 92.18 5.74
 -2 5 -6 192.07 6.88
 -2 5 -3 68.14 4.13
 -2 5 -2 191.16 6.08
 -2 5 -1 49.56 3.69
 -2 5 0 68.23 3.92
 -2 5 1 52.87 3.89
 -2 5 2 186.9 6.13
 -2 5 4 138.64 5.51
 -2 6 -18 2.34 4.52
 -2 6 -17 24.34 5.47
 -2 6 -16 0.15 3.99
 -2 6 -15 10.71 4.64
 -2 6 -14 67.22 7.11
 -2 6 -13 0.42 3.94
 -2 6 -12 0.79 3.72
 -2 6 -11 39.38 5.04
 -2 6 -10 35.87 5.17
 -2 6 -9 64.67 5.65
 -2 6 -8 8.68 2.99
 -2 6 -5 191.15 7.39
 -2 6 -4 41.42 4.15
 -2 6 -3 17.33 3.06
 -2 6 -2 77.14 4.49
 -2 6 -1 40.83 3.58
 -2 6 0 336.96 8.55
 -2 6 1 36.33 3.51
 -2 6 3 17.77 3.01
 -2 6 4 46.68 4.44
 -2 7 -17 9.56 5
 -2 7 -16 15.77 5.66
 -2 7 -15 14.08 4.8
 -2 7 -14 2.55 4.06
 -2 7 -12 11.76 4.44
 -2 7 -11 -0.86 3.19
 -2 7 -10 69.52 6.56
 -2 7 -9 37.6 5.15
 -2 7 -8 31.28 4.3
 -2 7 -7 3.26 2.48
 -2 7 -2 18.23 3.21
 -2 7 -1 192.2 7.38
 -2 7 0 10.07 2.85
 -2 7 1 193.89 7.33
 -2 7 2 17.67 3.62
 -2 7 3 345.34 9.77
 -2 7 4 10.12 3.52
 -2 8 -16 0.92 4.06
 -2 8 -15 11.65 5.04
 -2 8 -14 16.96 5.03
 -2 8 -13 21.32 4.98
 -2 8 -12 14.13 4.37
 -2 8 -11 1.43 4.21
 -2 8 -10 58.07 6.39
 -2 8 -9 23.35 4.77
 -2 8 -7 44.71 5.29
 -2 8 -6 14.75 3.51
 -2 8 -4 13.56 3.23
 -2 9 -15 2.35 5.04
 -2 9 -14 10.77 4.9
 -2 9 -13 8.57 4.53
 -2 9 -12 6.74 4.72
 -2 9 -11 3.36 3.8
 -2 9 -10 24.18 5.03
 -2 9 -8 142.25 8.45
 -2 9 -7 17.09 4.02
 -2 9 -5 5.09 3.35
 -2 9 -4 23.98 4.2
 -2 9 -3 19.54 3.99
 -2 9 -2 2.44 2.83
 -2 9 0 5.21 3.06
 -2 9 1 263.86 9.99
 -2 9 2 2.41 3.01
 -2 9 3 17.65 3.99
 -2 10 -14 17.43 5.93
 -2 10 -13 0.15 5.02
 -2 10 -12 15.74 5.13
 -2 10 -11 16.77 5.2
 -2 10 -9 79.81 7.37
 -2 10 -8 8.29 4.69
 -2 10 -7 4.46 3.68
 -2 10 -6 38.83 5.44
 -2 10 -4 8.15 4.16
 -2 10 -3 21.97 4.4
 -2 10 -2 24.05 4.34
 -2 10 -1 175.49 9.17
 -2 10 1 176.02 9.31
 -2 10 2 24.5 4.58
 -2 10 3 25.31 4.85
 -2 11 -13 8.99 5.36
 -2 11 -12 3.67 4.59
 -2 11 -11 6.07 4.97
 -2 11 -10 20.32 5.05
 -2 11 -9 14 4.96
 -2 11 -8 102.2 8.65
 -2 11 -7 20.53 4.94
 -2 11 -6 18.15 5.38
 -2 11 -5 10.93 4.82
 -2 11 -4 8.69 3.92
 -2 11 -3 61.07 7.11
 -2 11 -2 10.89 4.07
 -2 11 1 106.25 8.48
 -2 12 -12 5.77 4.82
 -2 12 -11 2.63 4.93
 -2 12 -10 -2.4 4.25
 -2 12 -9 10.27 5.02
 -2 12 -8 69.2 8.45
 -2 12 -7 13.44 5.78
 -2 12 -6 4.78 4.38
 -2 12 -5 92.3 7.96
 -2 12 -4 15.66 5.06
 -2 12 -3 14.82 5.27
 -2 12 -2 64.91 7.7
 -2 12 0 4.03 4.66
 -2 13 -10 44.26 7.12
 -2 13 -9 8.68 5.91
 -2 13 -8 11.8 5.58
 -2 13 -7 13.73 5.46
 -2 13 -6 -0.07 5.39
 -2 13 -5 23.73 5.95
 -2 13 -4 59.11 7.82
 -2 13 -2 6.15 5.36
 -2 13 -1 32.01 6.37
 -2 14 -7 12.38 5.69
 -2 14 -6 25.68 6.64
 -2 14 -5 13.64 6.25
 -2 14 -4 46.77 7.48
 -2 14 -3 5.8 5.33
 -2 14 -2 38.62 7.38
 -2 14 -1 5.29 5.57
 -2 15 -3 13.5 6.13
 -2 15 -2 45.01 8.13
 -1 1 0 964.82 6.3
 -1 1 1 248.3 3.19
 -1 1 2 3869.05 12.56
 -1 2 -1 345.58 5.25
 -1 2 0 869.62 7.43
 -1 2 1 336.34 4.83
 -1 2 2 133.57 3.19
 -1 3 -2 424.49 6.67
 -1 3 -1 124.33 3.87
 -1 3 0 27.89 2.19
 -1 3 1 122.52 3.82
 -1 3 2 402.17 6.38
 -1 3 3 56.07 2.88
 -1 4 -18 7.86 4.62
 -1 4 -6 123.15 5.02
 -1 4 -5 389.34 8.3
 -1 4 -3 45.32 3.31
 -1 4 -2 99.34 3.86
 -1 4 -1 87.48 3.8
 -1 4 1 92.66 3.9
 -1 4 2 102.8 4.22
 -1 4 3 52.82 3.17
 -1 5 -19 2.99 4.41
 -1 5 -18 2.23 3.94
 -1 5 -17 2.75 3.82
 -1 5 -15 74.79 6.8
 -1 5 -14 85.95 7.22
 -1 5 -13 66.1 5.76
 -1 5 -12 1.47 2.9
 -1 5 -11 41.6 4.54
 -1 5 -8 118.94 5.66
 -1 5 -7 3.91 2.17
 -1 5 -6 103.79 5.1
 -1 5 -5 31.32 3.05
 -1 5 -4 181.09 5.82
 -1 5 -3 308.62 7.38
 -1 5 -2 517.98 9.1
 -1 5 -1 36.86 3.04
 -1 5 0 6.42 2.01
 -1 5 3 319.5 7.7
 -1 6 -18 -2.98 3.51
 -1 6 -17 15.18 4.59
 -1 6 -16 17.45 4.4
 -1 6 -15 64.54 6.61
 -1 6 -14 12.03 4.36
 -1 6 -13 3.74 3.78
 -1 6 -12 81.4 6.52
 -1 6 -11 6.21 3.09
 -1 6 -10 178.39 7.83
 -1 6 -5 12.74 2.62
 -1 6 -4 132.94 5.44
 -1 6 -3 115.93 5.08
 -1 6 -2 21.97 2.91
 -1 6 -1 62.8 3.95
 -1 6 0 147.37 5.54
 -1 6 1 62.16 3.94
 -1 6 2 20.58 2.92
 -1 6 3 109.57 5.14
 -1 7 -17 4.12 4.07
 -1 7 -16 0.69 3.6
 -1 7 -15 33.67 5.46
 -1 7 -14 23.03 4.8
 -1 7 -13 4.83 4
 -1 7 -11 5.99 3.2
 -1 7 -10 4.79 3.11
 -1 7 -9 31.18 4.43
 -1 7 -5 5.07 2.67
 -1 7 -4 247 7.84
 -1 7 -3 17.54 3.3
 -1 7 -2 38.53 3.75
 -1 7 0 426.82 10.09
 -1 7 2 34.32 3.65
 -1 7 3 19.6 3.28
 -1 8 -17 47.53 6.55
 -1 8 -16 -0.01 3.96
 -1 8 -15 14.88 4.37
 -1 8 -14 35.19 5.87
 -1 8 -13 -1.44 3.78
 -1 8 -12 16.1 4.14
 -1 8 -11 49.22 5.86
 -1 8 -10 62.72 5.95
 -1 8 -9 3.25 3.52
 -1 8 -7 103.87 6.18
 -1 8 -6 29.86 3.97
 -1 9 -16 8.68 4.13
 -1 9 -15 17.14 5.19
 -1 9 -14 5.38 3.94
 -1 9 -13 9.12 4.02
 -1 9 -12 0.12 4.01
 -1 9 -11 25.87 4.75
 -1 9 -10 169.31 8.45
 -1 9 -9 -0.35 3.13
 -1 9 -8 56.32 6.01
 -1 9 -6 10.56 3.66
 -1 9 -5 26.28 4.13
 -1 9 -4 131.88 7.06
 -1 9 -3 66.91 5.35
 -1 9 -2 132.49 7.31
 -1 9 -1 60.25 5.11
 -1 9 0 568.15 13.52
 -1 9 2 129.18 7.04
 -1 10 -14 42.8 6.57
 -1 10 -13 3.59 4.39
 -1 10 -12 36.25 5.68
 -1 10 -11 3.98 4.56
 -1 10 -10 80.29 7.5
 -1 10 -9 9.73 4.54
 -1 10 -8 154.08 8.39
 -1 10 -6 10.56 4.36
 -1 10 -3 31.49 4.57
 -1 10 -2 27.31 4.36
 -1 10 -1 19.24 4.51
 -1 10 0 -1.59 2.97
 -1 10 1 21.48 4.95
 -1 10 2 22.88 4.49
 -1 11 -14 4.76 4.22
 -1 11 -13 3.31 4.17
 -1 11 -12 15.68 5.07
 -1 11 -11 23.16 5.49
 -1 11 -10 86.64 8.29
 -1 11 -9 -2.82 4.44
 -1 11 -8 31.54 5.55
 -1 11 -7 131.99 8.93
 -1 11 -6 9.13 4.08
 -1 11 -5 27.68 5.28
 -1 11 -4 16.8 4.8
 -1 11 -3 2.25 3.45
 -1 11 -2 7.97 3.62
 -1 11 -1 49.83 5.79
 -1 11 0 0.86 3.2
 -1 11 1 53.69 6.38
 -1 12 -12 29.03 6.24
 -1 12 -11 0.57 4.12
 -1 12 -10 2.19 4.74
 -1 12 -9 6.35 4.85
 -1 12 -7 38.81 5.92
 -1 12 -6 8.18 4.74
 -1 12 -5 14.11 5.48
 -1 12 -4 20.56 5.27
 -1 12 -3 7.6 4.17
 -1 13 -10 17.15 5.65
 -1 13 -9 1.4 4.42
 -1 13 -8 2.88 4.23
 -1 13 -7 11.25 5.38
 -1 13 -6 8.58 4.8
 -1 13 -5 18.38 5.83
 -1 13 -4 1.92 5.25
 -1 13 -2 0.3 4.18
 -1 13 -1 42.61 7.2
 -1 14 -7 12.33 5.53
 -1 14 -6 12.9 5.54
 -1 14 -5 159.73 11.38
 -1 14 -4 11.81 5.94
 -1 14 -3 6.92 5.66
 -1 14 -2 2.82 5.38
 -1 15 -4 5.94 5.53
 0 1 -1 20.71 1.16
 0 1 0 0.54 0.62
 0 2 -2 326.09 4.33
 0 2 -1 4.2 1.08
 0 2 0 5326.05 16.21
 0 2 1 4.7 1.46
 0 3 -4 341.06 5.86
 0 3 -3 966.47 9.26
 0 3 -2 350.53 5.35
 0 3 -1 405.18 5.71
 0 3 0 0.45 1.23
 0 3 1 417.33 6.18
 0 4 -17 10.39 4
 0 4 -16 -0.08 2.94
 0 4 -8 -0.02 1.8
 0 4 -7 31.26 2.93
 0 4 -4 13.74 1.96
 0 4 -3 1143.79 11.23
 0 4 -2 198.73 4.77
 0 4 0 2900.87 17.65
 0 4 1 1.89 1.71
 0 5 -15 57.61 5.63
 0 5 -14 -0.22 2.45
 0 5 -13 14.09 3.65
 0 5 -10 69.85 4.87
 0 5 -9 7.83 2.42
 0 5 -8 742.11 12.13
 0 5 -7 16.99 2.59
 0 5 -5 878.78 11.69
 0 5 -2 181.68 5.2
 0 5 -1 33.29 2.65
 0 5 0 -0.59 1.4
 0 5 1 33.24 3.15
 0 6 -15 15.97 3.62
 0 6 -14 0.94 3.15
 0 6 -12 1.69 2.93
 0 6 -9 171.01 6.86
 0 6 -8 18.56 3.3
 0 6 -7 244.36 7.25
 0 6 -6 472.34 9.56
 0 6 -5 269.33 7.25
 0 6 -3 15.16 2.49
 0 6 -2 6.61 2
 0 6 0 458.63 9.32
 0 6 1 197.73 6.44
 0 6 2 5.49 2.49
 0 7 -16 -0.22 2.32
 0 7 -15 2.69 3.14
 0 7 -14 5.42 3.12
 0 7 -12 0.38 2.62
 0 7 -11 9.42 3.07
 0 7 -10 1.81 2.46
 0 7 -7 21.89 3.34
 0 7 -6 16.49 3.28
 0 7 -5 631.07 11.87
 0 7 -4 3.36 2.64
 0 7 -3 370.89 9.06
 0 7 -2 5.94 2.28
 0 7 -1 610.94 11.31
 0 7 0 1.85 2.06
 0 7 1 601.33 11.85
 0 8 -15 13.4 3.92
 0 8 -14 -0.99 2.87
 0 8 -13 11.15 3.74
 0 8 -12 3.22 3.52
 0 8 -11 7.43 3.28
 0 8 -10 13 3.42
 0 8 -4 2.11 2.78
 0 8 -1 332.88 9.35
 0 8 0 65.25 5.13
 0 9 -15 -1.46 2.75
 0 9 -13 10.68 3.76
 0 9 -12 -0.87 3.32
 0 9 -11 1.1 3.01
 0 9 -10 13.8 3.77
 0 9 -7 3.72 2.84
 0 9 -6 11.38 3.42
 0 9 -5 39.85 4.46
 0 10 -14 17.01 4.41
 0 10 -13 0.42 3.36
 0 10 -12 4.67 3.6
 0 10 -11 2.9 3.97
 0 10 -10 101.01 7.49
 0 10 -9 62.05 6.34
 0 10 -8 5.29 3.4
 0 10 -7 1.53 3.14
 0 10 -6 16.31 3.96
 0 10 -5 36.74 5.23
 0 10 -4 0.98 2.72
 0 10 -3 23.88 4.04
 0 11 -13 -1.88 3.09
 0 11 -12 6.56 3.98
 0 11 -10 64.46 6.88
 0 11 -9 -1.93 3.4
 0 11 -8 90.82 6.85
 0 11 -7 -1.8 3.52
 0 11 -6 -1.36 3.76
 0 11 -5 -0.06 3.53
 0 11 -4 2.74 3.3
 0 11 -3 30.68 5.5
 0 11 -2 10.38 3.94
 0 11 -1 64.89 6.32
 0 12 -12 3.54 4.37
 0 12 -11 7.1 3.99
 0 12 -10 10.99 5.02
 0 12 -8 33.71 5.8
 0 12 -7 5.55 3.78
 0 12 -6 2.03 3.87
 0 12 -5 83.34 7.69
 0 12 -4 15.06 4.71
 0 12 -3 60.19 6.72
 0 12 -1 7.35 4.17
 0 13 -11 7.62 4.46
 0 13 -10 51.06 7.13
 0 13 -9 3.97 4.17
 0 13 -8 12.75 4.81
 0 13 -7 71.16 8.1
 0 13 -6 0.92 4.06
 0 13 -5 27.75 6.44
 0 13 -4 63.36 8.14
 0 13 -3 -0.47 4.65
 0 14 -8 17.9 5.96
 0 14 -7 5.5 5.66
 0 14 -6 26.8 6.04
 0 14 -5 9.68 5.51
 1 3 -7 55.85 2.75
 1 3 -6 152.25 3.89
 1 3 -4 391.43 5.21
 1 3 -3 51.31 2.11
 1 3 -2 418.96 5.27
 1 3 -1 122.45 3.08
 1 4 -12 102.28 4.97
 1 4 -11 13.06 2.56
 1 4 -10 240.74 6.58
 1 4 -9 0.8 1.43
 1 4 -8 26.4 2.58
 1 4 -7 50.61 2.89
 1 4 -6 120.36 3.92
 1 4 -5 376.69 6.18
 1 4 -4 203.21 4.5
 1 4 -3 45.41 2.6
 1 4 -2 100.84 3.42
 1 4 -1 85.84 3.42
 1 4 0 527.93 7.73
 1 5 -12 2.31 2.06
 1 5 -11 33.7 3.19
 1 5 -10 52.95 3.75
 1 5 -8 128.78 4.8
 1 5 -7 4.25 1.56
 1 5 -6 111.27 4.16
 1 5 -5 29.14 2.55
 1 5 -4 173.54 4.77
 1 5 -3 320.65 6.58
 1 5 -2 504.11 8.01
 1 5 -1 35.73 2.61
 1 5 0 8.86 2.01
 1 6 -13 3.57 2.35
 1 6 -11 7.37 2.34
 1 6 -10 165.89 6.08
 1 6 -9 10.91 2.28
 1 6 -8 53.34 3.74
 1 6 -7 182.99 5.82
 1 6 -6 59.51 3.69
 1 6 -5 11.73 2.48
 1 6 -4 127.91 4.81
 1 6 -3 113.75 4.62
 1 6 0 141.09 5.32
 1 7 -12 2.95 2.18
 1 7 -9 24.87 3.09
 1 7 -8 78.51 4.59
 1 7 -7 54.57 3.97
 1 7 -6 155.25 5.85
 1 7 -5 6.46 2.37
 1 7 -4 243.88 7.12
 1 7 -3 18.54 2.8
 1 7 -1 117.35 5.53
 1 7 0 453.59 10.1
 1 8 -13 -0.58 1.67
 1 8 -11 42.81 4.21
 1 8 -6 32.83 3.49
 1 8 -4 100.36 5.58
 1 8 -2 50.7 4.38
 1 9 -12 -0.89 2.02
 1 9 -11 27.73 3.85
 1 9 -9 -2.71 2.34
 1 9 -8 49.4 4.71
 1 10 -11 -1.24 2.17
 1 10 -10 85.17 6.11
 1 10 -9 4.78 3.21
 1 10 -8 157.3 7.46
 1 10 -7 1.01 2.79
 1 10 -6 13.45 3.45
 1 10 -5 75.2 5.96
 1 10 -4 10.99 3.42
 1 10 -3 33.53 4.89
 1 10 -2 30.03 5.12
 1 11 -10 92.67 6.49
 1 11 -9 0.47 2.84
 1 11 -8 36.58 5.43
 1 11 -7 128.35 7.45
 1 11 -6 10.71 3.79
 1 11 -5 33.75 4.94
 1 11 -4 10.93 3.91
 1 11 -3 0.49 3.76
 1 12 -10 0.09 2.75
 1 12 -9 5.12 4.02
 1 12 -8 33.35 5.17
 1 12 -7 27.86 4.98
 1 12 -6 10.07 4.46
 1 12 -5 13.4 4.93
 1 12 -4 13.13 5.14
 1 13 -9 4.93 3.53
 1 13 -8 -1.53 3.53
 1 13 -7 10.94 4.43
 1 13 -6 11.6 5.23
 2 2 -7 686.15 6.12
 2 2 -6 84.04 1.88
 2 2 -5 591.27 3.69
 2 3 -10 63.36 2.79
 2 3 -9 7.21 1.28
 2 3 -8 1.27 0.8
 2 3 -7 102.31 2.62
 2 3 -5 441.92 4.51
 2 3 -4 17.67 1.11
 2 4 -9 105.23 3.4
 2 4 -8 21.05 1.75
 2 4 -7 131.63 3.39
 2 5 -4 136.41 3.98
 2 5 -3 61.51 3
 2 6 -7 205.59 5.43
 2 6 -6 132.1 4.43
 2 6 -5 196.38 5.28
 2 6 -4 43.44 2.88
 2 6 -3 14.29 2.11
 2 7 -9 40.19 3.06
 2 7 -8 40.03 3.04
 2 7 -7 3.41 1.62
 2 7 -6 2.25 1.63
 2 7 -5 142.35 5.15
 2 7 -4 11.42 2.27
 2 7 -3 346.94 8.11
 2 8 -7 42.91 3.48
 2 8 -6 19.72 2.95
 2 8 -5 201.83 6.81
 2 8 -4 14.69 2.71
 2 10 -7 2.14 2.56
 2 10 -6 48.23 4.79
 -1 1 -9 535.02 5
 -1 1 -8 79.03 1.86
 -1 2 -10 19.43 0.98
 -1 2 -9 146.29 2.14
 -1 2 -8 106.94 1.66
 -1 3 -10 0.04 0.27
 -1 3 -8 18.46 0.73
 -1 3 -7 60.99 1.21
 0 1 -12 34.51 2.24
 0 1 -11 50.27 2.55
 0 1 -10 53.53 2.51
 0 1 -4 1893.15 8.13
 0 1 -3 559.83 3.9
 0 1 -2 4095.38 8.75
 0 2 -11 5.4 1.26
 0 2 -10 51.08 2.31
 0 2 -8 1.58 0.9
 0 2 -7 1542.81 9.69
 0 2 -6 478.12 5.08
 0 2 -5 1156.15 7.24
 0 2 -4 1262.31 6.97
 0 2 -3 437.12 3.95
 0 2 -2 325.74 3.42
 0 2 -1 6.09 0.98
 0 3 -11 39.31 2.07
 0 3 -10 90.24 2.87
 0 3 -7 24.47 1.55
 0 3 -6 230.28 3.82
 0 3 -5 224.2 3.64
 0 3 -4 338.83 4.31
 0 3 -3 966.28 7.08
 0 3 -2 343.15 4.34
 0 3 -1 407.19 4.8
 0 4 -11 0.91 0.75
 0 4 -10 7.7 1.3
 0 4 -9 146.24 3.62
 0 4 -6 18.61 1.53
 0 4 -5 12.68 1.32
 0 4 -4 14.3 1.55
 0 4 -3 1105.85 8.76
 0 4 -2 215.99 4.15
 0 5 -9 13.85 1.61
 0 5 -8 723.46 8.21
 0 5 -4 20.98 1.8
 0 5 -3 63.91 2.63
 0 6 -8 18.19 1.81
 0 6 -7 239.59 5.15
 0 6 -6 467.05 7.16
 0 6 -5 267.2 5.55
 0 6 -4 30.28 2.29
 0 7 -8 144.04 4.4
 0 7 -7 24.03 2.18
 0 7 -6 11.67 1.98
 1 0 0 0.24 0.65
 1 0 1 940.97 4.47
 1 1 -13 3.94 1.72
 1 1 -12 52.02 3.33
 1 1 -11 22.9 2.47
 1 1 -9 529.28 8.19
 1 1 -6 615.92 7.47
 1 1 -5 358.93 5.38
 1 1 -4 237.31 4.09
 1 1 -3 284.65 4.26
 1 1 -2 3873.45 13.7
 1 1 0 968.48 6.01
 1 1 1 248.7 3.13
 1 1 2 3887.56 11.68
 1 2 -12 0.83 1.3
 1 2 -11 126.26 4.42
 1 2 -10 17.27 2.28
 1 2 -6 16.64 1.87
 1 2 -5 146.04 3.63
 1 2 -3 1033.96 8.09
 1 2 -2 133.74 3.16
 1 2 -1 338.12 4.43
 1 2 0 894.6 6.94
 1 2 1 341.12 4.47
 1 2 2 136.59 2.92
 1 3 -12 3.13 1.34
 1 3 -10 1.97 1.35
 1 3 -9 763.43 9.53
 1 3 -8 19 1.9
 1 3 -6 150.45 3.95
 1 3 -5 374.5 5.75
 1 3 -4 397.67 5.77
 1 3 -3 51.51 2.48
 1 3 -2 408.64 5.67
 1 3 -1 124.31 3.32
 1 3 0 26.66 1.96
 1 3 1 128.31 3.42
 1 3 2 417.93 5.81
 1 4 -10 248.85 5.84
 1 4 -9 2.18 1.37
 1 4 -8 22.63 2.29
 1 4 -7 49.61 2.59
 1 4 -3 52.99 2.56
 1 4 -2 102.63 3.34
 1 4 -1 87.88 3.26
 1 4 0 525.24 7.18
 1 4 1 92.98 3.25
 1 5 -11 36.85 2.73
 1 5 -10 56.22 3.19
 1 5 -9 20.41 2.36
 1 5 -8 127.43 4.36
 1 5 -7 5.77 1.51
 1 5 -6 110.29 3.83
 1 5 -5 32.92 2.57
 1 5 -1 37.85 2.47
 1 5 0 6.85 1.55
 1 5 1 35.95 2.46
 1 6 -9 8.54 1.95
 1 6 -8 52.84 3.31
 1 6 -7 188.33 5.42
 1 6 -6 58.01 3.39
 1 6 -5 11.09 1.92
 1 6 -4 134.14 4.64
 1 6 -3 116.73 4.39
 1 6 -2 19.75 2.07
 1 7 -10 5.44 1.68
 1 7 -9 29.96 2.88
 1 7 -8 84.06 4.09
 1 7 -7 58.25 3.67
 1 7 -6 151.56 5.24
 1 7 -5 8.62 2.1
 1 7 -4 247.52 6.43
 1 7 -3 21.44 2.81
 1 7 -2 34.9 3.25
 1 7 -1 119.73 4.95
 1 8 -9 5.83 1.96
 1 8 -8 15.62 2.43
 1 8 -7 105.86 4.69
 1 8 -6 33.97 3.18
 1 8 -5 29.58 3.35
 1 8 -4 105.1 5.01
 1 8 -3 8.54 2.28
 2 -1 -17 -1.87 1.72
 2 -1 -15 115.76 6.15
 2 -1 2 799.27 5.51
 2 -1 3 303.96 2.89
 2 0 -15 14.59 2.76
 2 0 -14 0.1 2.36
 2 0 -1 46.77 2.35
 2 0 0 9925.91 23.95
 2 0 1 46.39 1.73
 2 0 2 819.89 5.96
 2 0 3 261.79 3.28
 2 0 4 130.7 2.25
 2 1 -14 2.16 2.27
 2 1 -12 76.2 4.54
 2 1 -11 39.67 3.24
 2 1 -10 82.01 4.07
 2 1 -9 146.49 4.99
 2 1 -8 158.88 5.17
 2 1 -7 46.09 2.95
 2 1 -5 516.41 7.7
 2 1 -4 96.91 3.36
 2 1 -3 296.43 5.31
 2 1 -2 756.35 7.94
 2 1 -1 434.54 5.69
 2 1 0 1047.01 8.3
 2 1 1 452.2 5.29
 2 1 2 779.18 6.77
 2 1 3 313.79 4.3
 2 1 4 97.45 2.52
 2 2 -12 20.01 2.95
 2 2 -11 71.87 4.18
 2 2 -10 26.9 3.31
 2 2 -9 25.77 2.6
 2 2 -8 0.43 1.46
 2 2 -7 667.1 9.56
 2 2 -4 196.07 4.68
 2 2 -3 284.75 5.49
 2 2 -2 725.23 8.12
 2 2 -1 2.62 1.28
 2 2 0 328.08 5.22
 2 2 1 0.59 1.12
 2 2 2 702.88 7.29
 2 2 3 285.07 4.73
 2 2 4 199.82 4.19
 2 3 -12 33.95 3.31
 2 3 -11 24.77 2.99
 2 3 -10 65.48 3.92
 2 3 -9 8.52 2.03
 2 3 -8 0.79 1.93
 2 3 -7 101.9 4.1
 2 3 -6 404.16 7.42
 2 3 -4 17.68 1.98
 2 3 -3 377.08 6.51
 2 3 -2 177.74 4.38
 2 3 -1 242.35 5.01
 2 3 0 1637.35 12.48
 2 3 1 234.98 4.92
 2 3 2 183.29 4.47
 2 3 3 367.11 6.08
 2 3 4 21.25 2.11
 2 4 -11 34.3 3.31
 2 4 -10 16.98 2.38
 2 4 -9 105.84 4.55
 2 4 -8 18.94 2.48
 2 4 -6 7.44 1.78
 2 4 -5 93.73 3.9
 2 4 -2 379.03 6.96
 2 4 -1 43.01 2.56
 2 4 0 2377.05 16.56
 2 4 2 398.43 6.99
 2 4 3 225.22 5.4
 2 5 -10 14.72 2.69
 2 5 -9 1.54 1.97
 2 5 -8 218.88 6.35
 2 5 -7 91.36 4.4
 2 5 -5 223.52 5.98
 2 5 -4 136.62 4.86
 2 5 -3 63.94 3.51
 2 5 2 187.94 5.38
 2 5 3 64.27 3.4
 2 6 -13 -1.34 1.27
 2 6 -9 66.29 4.26
 2 6 -8 9.09 2.28
 2 6 -7 203.84 6.41
 2 6 -5 193.81 6
 2 6 -4 41.43 3.11
 2 6 -3 15.19 2.27
 2 6 -2 73.56 3.75
 2 6 -1 43.83 3.37
 2 6 2 75.17 3.95
 2 7 -11 2.82 1.97
 2 7 -7 1.24 2.23
 2 7 -6 3.26 1.94
 2 7 -5 139.63 5.62
 2 7 -4 15.12 2.64
 2 7 -3 350.84 8.27
 2 7 -2 15.09 2.43
 2 7 -1 194.03 6.19
 2 7 0 10.34 2.26
 2 8 -10 51.87 4.39
 2 8 -9 17.51 3.01
 2 9 -11 2.03 1.8
 2 9 -9 88.58 5.18
 2 9 -8 145 6.6
 2 9 -6 5.88 2.62
 2 9 -5 5.56 3
 2 9 -4 24.17 3.39
 2 9 -3 19.04 3.11
 2 9 -2 4.57 2.31
 2 10 -9 79.71 5.12
 2 10 -8 2.15 2.53
 2 10 -7 4.27 2.64
 2 10 -6 46.14 4.85
 2 10 -4 6.18 2.78
 3 -4 5 3.72 0.6
 3 -3 -18 22.41 4.55
 3 -3 -17 -0.54 3.44
 3 -3 4 134.08 2.5
 3 -2 -17 9.83 3.88
 3 -2 2 180.52 3.76
 3 -2 3 350.23 4.46
 3 -2 4 8.7 0.86
 3 -2 5 30.51 0.89
 3 -1 -17 1.84 2.49
 3 -1 -15 22.11 3.93
 3 -1 -14 47.72 4.98
 3 -1 0 1.02 1.17
 3 -1 1 178.55 4.03
 3 -1 2 157.83 3.47
 3 -1 3 120.87 2.73
 3 -1 4 125.13 2.55
 3 -1 5 267.58 3.1
 3 0 -16 4.16 3.08
 3 0 -15 67.86 5.7
 3 0 -13 11.9 3.54
 3 0 -12 78.17 5.01
 3 0 -9 729.38 12.7
 3 0 -3 279.46 6.12
 3 0 -2 96.97 3.54
 3 0 -1 756.14 8.85
 3 0 0 0.64 1.32
 3 0 1 760.11 7.97
 3 0 2 95.94 2.83
 3 0 3 283.01 4.41
 3 0 4 1.9 0.85
 3 0 5 -0.05 0.66
 3 1 -17 -0.39 2.04
 3 1 -16 51.69 4.75
 3 1 -15 16.17 3.33
 3 1 -14 45.38 4.63
 3 1 -12 0.69 2.31
 3 1 -9 126.49 5.62
 3 1 -8 22.63 2.75
 3 1 -7 190.7 5.94
 3 1 -6 33.64 3.09
 3 1 -1 187.49 4.78
 3 1 1 181.41 4.27
 3 1 2 164.2 3.97
 3 1 3 120.92 3.32
 3 1 4 120.7 3.26
 3 1 5 258.78 4.45
 3 2 -13 59.68 4.56
 3 2 -12 23.67 3.53
 3 2 -9 112.75 5.13
 3 2 -8 88.86 4.46
 3 2 -7 354.2 7.96
 3 2 -6 28.25 2.71
 3 2 -5 30.45 2.92
 3 2 -2 177.53 4.82
 3 2 -1 129.72 4.1
 3 2 0 503.6 7.57
 3 2 1 134.53 4.01
 3 2 2 172.53 4.4
 3 2 3 352.39 5.97
 3 2 4 9.53 1.48
 3 2 5 33.2 2.22
 3 3 -16 1.18 2.04
 3 3 -14 -0.34 2.18
 3 3 -13 2.87 2.55
 3 3 -12 10.98 3.08
 3 3 -8 9.41 2.46
 3 3 -7 12.2 2.32
 3 3 -6 30.83 3.23
 3 3 -5 186.09 5.57
 3 3 -1 61.21 3.12
 3 3 2 398.43 7.15
 3 3 3 2.63 1.38
 3 3 4 124.72 4.14
 3 3 5 197.99 4.96
 3 4 -14 48.23 4.43
 3 4 -13 29.51 4.02
 3 4 -12 12.91 3.26
 3 4 -11 3.92 2.24
 3 4 -5 4.02 1.76
 3 4 -4 148.49 5.12
 3 4 0 372.32 7.45
 3 4 1 50.21 3.07
 3 4 2 13.77 2.31
 3 4 3 30.08 2.74
 3 4 5 1.6 1.56
 3 5 -15 1.79 1.77
 3 5 -12 7.92 3.14
 3 5 -11 42.61 3.96
 3 5 -10 25.42 3.36
 3 5 -6 143.26 5.61
 3 5 -5 36.1 3.5
 3 5 -3 62.72 3.79
 3 5 -2 371.96 8.18
 3 5 -1 25.89 2.84
 3 5 0 139.07 5.24
 3 5 1 26.76 2.71
 3 5 2 369.67 8.01
 3 5 3 57.02 3.74
 3 5 4 413.15 8.42
 3 6 -13 19.18 3.15
 3 6 -12 4.92 2.81
 3 6 -11 19.81 3.24
 3 6 -9 39.19 3.85
 3 6 -4 80.84 4.84
 3 6 -2 49.71 3.58
 3 6 -1 69.53 4.08
 3 6 1 73.1 4.14
 3 6 2 45.04 3.56
 3 6 3 80.03 4.47
 3 7 -11 2.79 3.1
 3 7 -10 67.61 5.33
 3 7 -9 78 5.4
 3 8 -11 11.26 3.16
 3 8 -9 5.22 2.77
 3 8 -8 88.48 5.95
 3 8 -7 33.16 4.54
 3 8 -4 1.51 2.21
 3 8 -3 1.34 2.2
 3 8 -2 31.13 3.47
 3 8 0 37.7 3.93
 3 8 1 45.9 4.22
 3 9 -12 -1.28 2.24
 3 9 -11 17.47 3.35
 3 9 -10 13.57 3.24
 3 9 -9 8.51 3.12
 3 9 -8 95.08 6.3
 3 9 -7 17.68 3.78
 3 9 -6 26.86 4.15
 3 9 -5 4.14 3.28
 3 9 -4 2.83 2.5
 3 9 -3 11.49 2.98
 3 9 -2 37.04 4.1
 3 9 -1 101.93 5.89
 3 9 0 10.3 2.91
 3 10 -10 36.96 4.49
 3 10 -9 19.03 3.84
 3 10 -8 -2.31 2.67
 3 10 -7 4.99 3.09
 3 10 -6 23.5 4.05
 3 10 -5 76.3 5.78
 3 10 -4 16.96 3.8
 3 10 -3 45.64 4.71
 3 10 -2 22.91 3.95
 3 11 -10 16.15 3.92
 3 11 -9 11.07 3.77
 3 11 -8 16.34 4.33
 3 11 -7 50.5 5.6
 3 11 -6 11.74 3.54
 3 11 -5 47.11 5.19
 3 11 -4 8.05 3.46
 4 -5 5 66.05 2.09
 4 -4 -17 -5.26 3.46
 4 -4 4 255.92 4.43
 4 -4 5 239.74 3.35
 4 -3 2 27.82 2.24
 4 -3 3 158.48 3.88
 4 -3 4 80.76 2.52
 4 -3 5 288.99 3.64
 4 -2 -18 1.95 4.09
 4 -2 -17 3.21 3.58
 4 -2 -16 8.95 4.19
 4 -2 -15 11.52 4.71
 4 -2 -14 19.29 4.93
 4 -2 0 69.97 3.48
 4 -2 1 3.52 1.68
 4 -2 2 503.93 7.15
 4 -2 3 63.82 2.64
 4 -2 4 182.14 3.69
 4 -2 5 195.41 3.3
 4 -2 6 28.26 1.01
 4 -1 -18 20.11 4.98
 4 -1 -17 5.02 3.59
 4 -1 -16 15.86 4.09
 4 -1 -15 25.05 4.55
 4 -1 -14 11.34 3.65
 4 -1 -13 10.78 3.67
 4 -1 -12 52.21 4.97
 4 -1 -11 -0.81 2.87
 4 -1 -10 39.56 4.69
 4 -1 -4 78.3 4.14
 4 -1 -3 31.26 3.16
 4 -1 -2 -0.57 1.47
 4 -1 -1 129.56 4.36
 4 -1 0 439.73 7.62
 4 -1 1 130.48 4.16
 4 -1 3 33.54 2.17
 4 -1 4 75.21 2.61
 4 -1 5 101.93 2.72
 4 -1 6 129.69 2.63
 4 0 -17 -0.34 3.83
 4 0 -16 0.98 3.58
 4 0 -15 0.51 3.68
 4 0 -14 5.58 3.36
 4 0 -13 2.91 2.92
 4 0 -12 16.31 3.53
 4 0 -11 19.76 3.53
 4 0 -10 94.33 5.51
 4 0 -9 78.23 5.21
 4 0 -6 1.2 1.83
 4 0 -5 40.61 3.24
 4 0 -4 4.44 1.87
 4 0 -2 57.76 3.33
 4 0 -1 1.49 1.52
 4 0 0 83.35 3.56
 4 0 1 1.03 1.31
 4 0 2 55.49 2.87
 4 0 3 43.94 2.43
 4 0 4 5.09 1.3
 4 0 5 34.34 2.03
 4 0 6 0.59 0.93
 4 1 -17 1.28 3.18
 4 1 -16 18.11 4.46
 4 1 -15 19.48 4.46
 4 1 -14 10 3.39
 4 1 -13 8.94 3.62
 4 1 -12 50.15 5.09
 4 1 -11 -0.35 2.61
 4 1 -10 48.87 4.88
 4 1 -9 123.33 6.04
 4 1 -5 95.49 4.5
 4 1 -3 34.16 3.15
 4 1 -2 -0.18 1.35
 4 1 -1 130.6 4.64
 4 1 1 123.56 4.25
 4 1 2 1.77 1.49
 4 1 3 34.65 2.63
 4 1 5 93.54 3.26
 4 2 -17 0.36 2.92
 4 2 -15 13.05 3.61
 4 2 -14 10.75 3.53
 4 2 -13 12.37 3.3
 4 2 -12 42.51 4.42
 4 2 -11 0.72 2.44
 4 2 -9 31.24 3.94
 4 2 -6 29.5 3.13
 4 2 -2 523.93 9.41
 4 2 -1 0.41 1.5
 4 2 0 77.96 3.6
 4 2 2 518.26 8.54
 4 2 3 63.54 3.2
 4 2 4 175.12 4.83
 4 2 5 198.23 5.06
 4 2 6 30.29 2.46
 4 3 -16 2.07 2.62
 4 3 -14 3.71 2.91
 4 3 -11 2.8 2.75
 4 3 -9 37.36 3.87
 4 3 -4 83.46 4.31
 4 3 -3 160.56 5.57
 4 3 -1 232.07 6.45
 4 3 0 887.24 12.08
 4 3 1 233.98 6.27
 4 3 2 27.59 2.64
 4 3 3 161.6 5.23
 4 3 4 77.2 3.7
 4 3 6 242.49 6.03
 4 4 -15 12.38 3.41
 4 4 -14 15.38 3.72
 4 4 -13 8.27 3.28
 4 4 -12 1.12 2.61
 4 4 -11 0.79 2.84
 4 4 -10 0.69 2.35
 4 4 -8 40.74 4.25
 4 4 -3 69.15 4.06
 4 4 -2 329.08 8.12
 4 4 0 726.08 11.63
 4 4 4 244.31 6.65
 4 4 5 244.33 6.6
 4 5 -15 23.3 3.81
 4 5 -14 11.34 3.82
 4 5 -13 10.62 3.55
 4 5 -11 15.85 3.98
 4 5 -10 -2.44 2.72
 4 5 -9 10.69 3.22
 4 5 -8 14.77 3.08
 4 5 -7 78.3 5.04
 4 5 0 9.26 2.61
 4 5 2 56.71 4.13
 4 5 3 6.52 2.23
 4 5 4 108.57 5.03
 4 5 5 58.49 4.2
 4 6 -13 23.31 4.39
 4 6 -12 3.4 2.87
 4 6 -11 7.37 3.38
 4 6 -10 4.88 3.38
 4 6 -8 4.89 2.9
 4 6 -7 41.06 4.12
 4 6 -6 0.13 2.07
 4 6 -4 9.4 2.94
 4 7 -13 32.27 4.96
 4 7 -11 9.49 3.7
 4 7 -9 16.64 3.68
 4 7 -7 1.24 2.61
 4 7 -5 1.71 2.86
 4 7 -4 9.36 2.84
 4 7 -3 82.13 5.39
 4 7 -2 4.77 2.74
 4 7 -1 5.79 2.43
 4 7 0 15.06 3.01
 4 7 1 7.21 2.55
 4 7 2 9.07 2.73
 4 7 3 89.37 5.53
 4 7 4 5.38 2.89
 4 8 -12 9.77 3.56
 4 8 -11 27.09 4.95
 4 8 -10 17 4.59
 4 8 -9 32.8 4.85
 4 8 -8 142.59 7.35
 4 8 -5 63.14 5.21
 4 8 -4 25.84 3.93
 4 8 -3 83.72 5.92
 4 8 -2 4.56 2.74
 4 8 -1 20.55 3.49
 4 8 0 61.41 4.75
 4 8 3 73.67 5.4
 4 9 -13 -3.4 2.25
 4 9 -12 16.65 4.31
 4 9 -11 -1.28 3.1
 4 9 -9 60.32 6.12
 4 9 -8 54.13 5.85
 4 9 -7 53.57 5.74
 4 9 -6 48.84 6
 4 9 -5 19.06 4.35
 4 9 -4 4.38 3
 4 9 -3 1.06 2.68
 4 9 -2 17.3 3.59
 4 9 -1 144.16 7.18
 4 9 0 -0.63 2.49
 4 9 1 149.08 7.33
 4 9 2 20.35 3.75
 4 10 -12 4.46 2.91
 4 10 -11 50.7 5.8
 4 10 -9 17.52 4.3
 4 10 -7 17.75 4.33
 4 10 -6 74.65 6.67
 4 10 -5 15.11 4.21
 4 10 -4 41.27 4.8
 4 10 -2 1.47 3.38
 4 10 -1 126.98 7.71
 4 10 0 115.19 7.43
 4 11 -11 13.48 4.04
 4 11 -10 9 3.8
 4 11 -9 5.25 3.75
 4 11 -8 41.11 6.17
 4 11 -7 59.85 6.06
 4 11 -6 33.55 5.45
 4 11 -5 23.69 4.91
 4 11 -4 0.47 3.46
 4 11 -2 48.56 6.06
 4 12 -9 2.8 4
 4 12 -7 20.86 4.68
 4 12 -6 40.62 6.15
 5 -5 3 26.34 2.43
 5 -5 4 103.23 3.42
 5 -4 -16 4.06 5.22
 5 -4 -15 23.45 6.01
 5 -4 1 132.43 4.95
 5 -4 2 4.7 1.93
 5 -4 3 39.6 2.66
 5 -4 4 16.16 1.82
 5 -3 -16 37.94 6.54
 5 -3 -15 8.67 4.7
 5 -3 -13 5.96 3.98
 5 -3 -12 1.09 3.52
 5 -3 1 119.69 4.7
 5 -3 2 58.35 3.21
 5 -3 4 33.98 2.19
 5 -3 5 -0.65 0.83
 5 -2 -16 45.28 6.13
 5 -2 -13 1.73 3.5
 5 -2 -12 14.25 4.2
 5 -2 -9 9.49 3.09
 5 -2 -8 73.33 5.9
 5 -2 -6 4.61 2.95
 5 -2 -2 63.66 4.32
 5 -2 -1 76.14 4.12
 5 -2 0 95.18 4.26
 5 -2 1 80.01 3.96
 5 -2 3 6.6 1.66
 5 -2 4 16.81 2.03
 5 -2 5 7.36 1.33
 5 -1 -16 30.14 5.53
 5 -1 -15 -1.76 3.58
 5 -1 -14 25.07 5.17
 5 -1 -13 73.25 6.22
 5 -1 -12 1.18 3.19
 5 -1 -11 120.81 7.21
 5 -1 -10 51.67 5
 5 -1 -9 24.65 4.36
 5 -1 -8 7 2.85
 5 -1 -7 51.46 4.42
 5 -1 -3 20.03 3.18
 5 -1 -2 10.65 2.78
 5 -1 -1 75 4.05
 5 -1 0 131.64 5.09
 5 -1 1 73.33 3.89
 5 -1 2 14.64 2.18
 5 -1 3 23.3 2.27
 5 -1 4 105.27 3.63
 5 -1 5 14.6 1.65
 5 -1 6 35.91 2
 5 0 -17 6.15 4.14
 5 0 -16 -2.13 3.37
 5 0 -15 79.35 6.88
 5 0 -14 80.5 7.22
 5 0 -13 14.98 4.37
 5 0 -12 60.11 6.08
 5 0 -11 4.82 3.5
 5 0 -10 147.59 7.59
 5 0 -9 289.2 9.7
 5 0 -8 -0.37 2.17
 5 0 -7 -0.76 2.21
 5 0 -6 9.14 2.73
 5 0 -2 -0.25 1.8
 5 0 -1 15.33 2.78
 5 0 0 -0.27 1.63
 5 0 1 17.27 2.38
 5 0 2 1.59 1.75
 5 0 3 0.84 1.63
 5 0 4 0.03 1.2
 5 0 5 0.87 1.19
 5 0 6 7.14 1.48
 5 0 7 -0.01 0.92
 5 1 -16 20.26 4.69
 5 1 -15 5.48 4.47
 5 1 -14 32.57 5.15
 5 1 -13 73.96 6.1
 5 1 -12 2.2 3.06
 5 1 -11 110.7 6.97
 5 1 -10 54.59 5.45
 5 1 -9 22.22 4.12
 5 1 -8 3.23 3.07
 5 1 -7 53.36 4.4
 5 1 -6 38.11 4.18
 5 1 -2 11.95 2.37
 5 1 -1 73.28 4.02
 5 1 0 132.91 5.29
 5 1 1 75.33 4.11
 5 1 2 15.17 2.34
 5 1 3 19.51 2.6
 5 1 4 104.44 4.19
 5 1 5 19.98 2.47
 5 1 7 50.11 2.68
 5 2 -16 55.13 6.26
 5 2 -15 34.98 5.42
 5 2 -13 -0.09 3.04
 5 2 -11 33.03 4.83
 5 2 -9 15.33 3.39
 5 2 -8 67.25 4.95
 5 2 -7 48.54 4.75
 5 2 -5 8.93 2.8
 5 2 -1 74.13 4.49
 5 2 0 98.78 4.79
 5 2 2 66.13 4.08
 5 2 3 4.07 1.79
 5 2 4 19.75 2.62
 5 2 5 6.39 1.82
 5 2 6 1.19 1.49
 5 3 -15 10.29 4.01
 5 3 -14 31.12 4.87
 5 3 -13 6.58 3.49
 5 3 -12 0.14 2.92
 5 3 -11 11.92 3.75
 5 3 -9 25.55 4.23
 5 3 -7 46.88 4.39
 5 3 -6 124.99 5.98
 5 3 1 114.68 5.22
 5 3 2 56.1 3.74
 5 3 5 0.34 1.68
 5 3 6 114.51 4.79
 5 4 -16 0.88 3.77
 5 4 -14 7.29 3.53
 5 4 -12 4.21 3.63
 5 4 -11 30.09 4.45
 5 4 -10 15.52 3.71
 5 4 -9 109.61 6.37
 5 4 -8 10.06 3.21
 5 4 -7 28.5 3.92
 5 4 -6 63.09 4.7
 5 4 -5 79.78 5.24
 5 4 -4 16.69 2.93
 5 4 -3 45.22 3.84
 5 5 -15 18.72 4.77
 5 5 -14 7.52 3.93
 5 5 -13 35.94 5.73
 5 5 -12 4.1 3.47
 5 5 -10 -1.37 2.74
 5 5 -8 28.17 4.23
 5 5 -6 41.87 4.72
 5 5 -5 56.22 4.62
 5 5 -4 111.09 6.16
 5 5 -2 60.86 4.48
 5 5 -1 27.01 3.79
 5 5 0 42.65 4.13
 5 5 1 23.91 3.38
 5 6 -14 23.61 5.2
 5 6 -12 -0.17 3.29
 5 6 -11 10.77 3.86
 5 6 -10 12.55 3.92
 5 6 -9 47.71 5.02
 5 6 -8 53.57 5.67
 5 6 -7 5.07 3.12
 5 6 -6 27.45 4.13
 5 6 -5 120.97 6.95
 5 6 -4 4.25 2.46
 5 6 -3 124.13 6.32
 5 6 -2 14.3 3.24
 5 6 -1 25.66 3.8
 5 6 0 -0.5 2.36
 5 6 1 23.42 3.56
 5 6 2 17.94 3.73
 5 6 4 2.05 2.87
 5 6 5 117.75 5.95
 5 7 -14 22.47 4.62
 5 7 -13 3 3.55
 5 7 -11 23.12 4.74
 5 7 -10 51.36 6.04
 5 7 -8 43.32 5.03
 5 7 -7 39.43 5
 5 7 -6 32.99 4.75
 5 7 -5 24.95 4.06
 5 7 -4 28.92 4.65
 5 7 -3 3.15 2.93
 5 7 -2 5.62 3.12
 5 7 -1 57.57 4.89
 5 7 0 5.87 3.38
 5 7 1 63.73 5.67
 5 7 2 4.13 2.85
 5 7 3 3.75 2.74
 5 7 4 25.44 3.96
 5 8 -13 15.22 4.89
 5 8 -12 13.77 4.13
 5 8 -10 38.67 5.51
 5 8 -8 71.29 6.62
 5 8 -7 32.62 4.87
 5 8 -6 47.83 5.28
 5 8 -5 13.81 3.76
 5 8 -3 6.1 3.29
 5 8 -2 11.76 3.56
 5 8 -1 6.66 3.79
 5 8 0 11.09 3.35
 5 8 1 5.3 3.01
 5 8 2 6 3.11
 5 8 3 4.88 3
 5 9 -12 4.51 3.94
 5 9 -11 10.72 4.12
 5 9 -10 52.77 6.47
 5 9 -9 24.94 4.73
 5 9 -8 28.67 5.52
 5 9 -7 -1.02 3.19
 5 9 -6 36.66 5.19
 5 9 -5 7.25 3.58
 5 9 -4 13.2 4.61
 5 9 -3 -0.71 3.02
 5 9 -1 11.54 3.56
 5 9 0 34.36 5.22
 5 9 1 15.01 3.95
 5 9 2 18.49 4.13
 5 10 -11 5.92 3.98
 5 10 -10 2.4 3.69
 5 10 -9 18.24 4.89
 5 10 -8 24.91 5.41
 5 10 -6 17.99 4.48
 5 10 -5 1.07 3.45
 5 10 -4 33.8 5.52
 5 10 -3 19.61 4.52
 5 10 0 92.05 7.36
 5 10 1 24.35 4.56
 5 11 -8 24.05 5.38
 5 11 -7 4.04 3.99
 5 11 -6 28.84 5.22
 5 11 -5 16.66 4.6
 5 11 -4 23.65 4.89
 5 11 -3 12.64 4.53
 5 11 -2 32.42 5.36
 5 11 -1 38.18 5.47
 5 12 -6 7.09 4.64
 5 12 -5 20.65 5.83
 5 12 -4 16.93 5.41
 5 12 -3 13.8 4.76
 6 -5 -12 6.39 4.79
 6 -5 -1 262.48 8.39
 6 -5 2 1.67 1.67
 6 -5 3 11.53 2.29
 6 -4 -14 8.02 5.36
 6 -4 -13 7.51 4.53
 6 -4 -12 -3.44 3.48
 6 -4 -11 5.89 3.97
 6 -4 -10 20.26 4.57
 6 -4 -5 113.1 6.63
 6 -4 -4 45.59 5.05
 6 -4 -3 88.6 5.82
 6 -4 -2 50.18 4.66
 6 -4 -1 23.1 3.4
 6 -4 2 57.32 3.75
 6 -4 3 76.65 3.7
 6 -3 -14 24.59 5.71
 6 -3 -10 14.04 4.03
 6 -3 -9 15.54 4.63
 6 -3 -8 14.99 4.12
 6 -3 -7 15.71 3.95
 6 -3 -6 59.09 5.67
 6 -3 -5 42.54 4.76
 6 -3 -4 29.11 4.2
 6 -3 -2 9.62 3.26
 6 -3 2 12.18 2.42
 6 -3 3 64.22 3.54
 6 -3 4 22.88 2.32
 6 -2 -15 3.34 4.06
 6 -2 -13 1.87 4.03
 6 -2 -12 5.83 4.08
 6 -2 -11 24.21 5.21
 6 -2 -10 13.14 4.07
 6 -2 -9 59.85 6.04
 6 -2 -8 15.5 3.85
 6 -2 -7 60.69 5.31
 6 -2 -6 52.17 5.45
 6 -2 -5 36.46 4.41
 6 -2 -4 41.57 4.18
 6 -2 -2 191.01 7.14
 6 -2 2 184.22 5.76
 6 -2 3 51.24 3.34
 6 -2 4 43.3 2.87
 6 -1 -15 3.15 4.87
 6 -1 -13 7.19 4.13
 6 -1 -12 2.8 3.5
 6 -1 -11 3.13 3.51
 6 -1 -9 10.47 3.62
 6 -1 -8 39.38 4.86
 6 -1 -7 93.18 6.45
 6 -1 -6 32.52 4.41
 6 -1 -5 61.25 5.25
 6 -1 -4 44.08 4.82
 6 -1 -3 6.98 2.66
 6 -1 -2 24.43 3.32
 6 -1 2 26.83 3.2
 6 -1 3 6.86 2.01
 6 -1 4 50.66 3.23
 6 -1 5 67.36 3.27
 6 0 -15 18.13 4.81
 6 0 -14 1.98 3.89
 6 0 -12 0.13 3.53
 6 0 -11 27.99 4.95
 6 0 -10 101.12 7.4
 6 0 -8 34.28 4.94
 6 0 -5 93.02 5.98
 6 0 -4 10.54 3.44
 6 0 -3 1.43 2.2
 6 0 -2 52.11 4.41
 6 0 2 48.29 3.74
 6 0 3 -0.68 1.66
 6 0 4 6.98 1.93
 6 0 5 86.16 3.87
 6 1 -15 2.32 4.04
 6 1 -14 8.87 4.25
 6 1 -13 5.47 3.96
 6 1 -12 10.55 4.04
 6 1 -11 5.2 4.25
 6 1 -10 5.07 3.4
 6 1 -9 11.89 3.58
 6 1 -7 90.7 6.33
 6 1 -6 32.74 4.15
 6 1 -5 66.23 5.13
 6 1 -4 49.69 5.03
 6 1 -3 4.11 2.63
 6 1 -2 27.31 3.81
 6 1 -1 43.69 4.09
 6 1 3 4.22 2.38
 6 1 4 47.38 3.67
 6 1 5 66.24 3.79
 6 1 6 29.95 2.76
 6 2 -15 5.28 4.27
 6 2 -14 29.43 5.22
 6 2 -13 0.78 3.63
 6 2 -12 12.76 4.84
 6 2 -11 33.84 5.2
 6 2 -9 60.21 6.02
 6 2 -8 17.27 3.65
 6 2 -7 64.34 5.8
 6 2 -6 52.68 4.99
 6 2 -5 31.28 4.27
 6 2 -4 43.43 4.55
 6 2 -3 49.01 4.88
 6 2 -2 191.12 7.36
 6 2 -1 40.74 4.37
 6 2 7 56.2 3.55
 6 3 -13 9.46 4.19
 6 3 -12 4.11 3.68
 6 3 -11 7.19 4.15
 6 3 -10 7 4.22
 6 3 -9 18.17 4.5
 6 3 -8 7.88 3.2
 6 3 -7 22.98 4.48
 6 3 -6 54.05 5.11
 6 3 -5 41.16 4.83
 6 3 -4 28.17 3.92
 6 3 -2 9.74 2.87
 6 3 -1 84.61 5.53
 6 3 0 164.42 7
 6 3 1 90.77 5.24
 6 3 2 11.1 2.75
 6 3 3 58.01 4.48
 6 4 -14 11.73 4.46
 6 4 -13 14.71 4.83
 6 4 -11 0.53 3.8
 6 4 -10 19.23 4.67
 6 4 -9 18.93 4.61
 6 4 -8 42.84 5.07
 6 4 -7 14.1 3.93
 6 4 -6 10.75 3.51
 6 4 -4 41.54 4.44
 6 4 -2 51.74 4.53
 6 4 -1 30.92 4.29
 6 4 0 19.21 3.81
 6 4 1 24.08 3.6
 6 4 2 52.99 4.77
 6 4 4 43.7 4.38
 6 4 5 126.23 5.94
 6 4 6 12.48 2.75
 6 5 -13 15.58 4.83
 6 5 -12 14.57 4.91
 6 5 -11 15.77 4.71
 6 5 -10 37.84 5.52
 6 5 -8 11.17 3.78
 6 5 -5 70.81 6.22
 6 5 -4 3.78 2.86
 6 5 -3 8.38 3.06
 6 5 0 14.51 3.48
 6 5 1 254.78 9.08
 6 5 2 7.62 2.91
 6 5 3 11.56 3.01
 6 5 4 11.92 3.02
 6 5 5 78.9 5.34
 6 5 6 6.99 2.83
 6 6 -12 1.74 4.46
 6 6 -10 18.44 4.65
 6 6 -9 20.76 5.07
 6 6 -8 0.03 3.09
 6 6 -7 2.26 3.92
 6 6 -6 15.82 4.46
 6 6 -5 32.57 5.01
 6 6 -4 44.48 4.96
 6 6 -3 82.85 6.04
 6 6 -2 47.18 4.89
 6 6 -1 174.63 8.09
 6 6 0 0.04 2.72
 6 6 1 178.21 7.81
 6 6 2 48.49 4.87
 6 6 3 78.25 5.83
 6 6 4 48.59 5.16
 6 7 -12 3.65 4.48
 6 7 -10 2.43 3.9
 6 7 -9 3.42 3.98
 6 7 -8 -1.23 3.48
 6 7 -7 2.22 3.92
 6 7 -6 129.83 8.09
 6 7 -5 2.25 4.04
 6 7 -4 10 3.62
 6 7 -3 -2.45 2.95
 6 7 -2 -2.92 3.25
 6 7 -1 54.11 5.43
 6 7 0 85.27 6.63
 6 7 1 42.16 4.88
 6 7 3 1.33 3.54
 6 7 4 15.44 3.65
 6 8 -10 1.23 3.82
 6 8 -9 46.87 6.29
 6 8 -8 62.63 6.88
 6 8 -7 1.34 3.87
 6 8 -6 -1.14 3.49
 6 8 -4 72.69 6.9
 6 8 -3 17.16 4.43
 6 8 -2 23.66 4.6
 6 8 -1 32.63 5.16
 6 8 1 35.95 5.18
 6 8 2 32.33 4.77
 6 8 3 13.11 3.98
 6 8 4 64.45 6.35
 6 9 -10 25.03 5.21
 6 9 -9 -0.44 3.69
 6 9 -8 8.88 5.18
 6 9 -7 16.58 4.73
 6 9 -5 9.73 4.23
 6 9 -4 1.32 3.97
 6 9 -3 12.14 4.16
 6 9 -1 25.32 5.32
 6 9 0 5.82 3.75
 6 9 1 26.64 4.97
 6 9 2 14.17 4.26
 6 9 3 8.25 3.88
 6 10 -8 25.47 5.63
 6 10 -7 31.01 5.64
 6 10 -6 11.53 4.63
 6 10 -5 11.98 4.65
 6 10 -4 26.62 5.05
 6 10 -3 15.09 4.83
 6 10 -1 29.02 5.14
 6 10 0 91.39 7.26
 6 10 1 19.48 5.02
 6 11 -5 9.32 4.76
 6 11 -4 11.84 5.12
 6 11 -3 14.2 4.88
 6 11 -1 2.54 4.05
 6 11 0 22.96 5.2
 7 -8 -3 7.49 3.58
 7 -8 -2 2.16 3.32
 7 -8 -1 27.44 4.18
 7 -7 -8 10.14 4.7
 7 -7 -6 39.27 5.64
 7 -7 -5 4.21 4.26
 7 -7 -4 1.83 3.3
 7 -7 -3 4.26 3.3
 7 -7 -2 10.63 3.6
 7 -7 -1 27.19 3.98
 7 -7 0 7.35 3.07
 7 -6 -10 5.92 4.42
 7 -6 -9 20.69 5.7
 7 -6 -8 61.79 6.66
 7 -6 -7 3.97 3.89
 7 -6 -6 11.38 4.13
 7 -6 -4 5.93 3.64
 7 -6 -3 27.74 4.6
 7 -6 -2 10.18 3.34
 7 -6 -1 -0.47 2.71
 7 -6 0 40.3 4.36
 7 -5 -11 8.88 4.69
 7 -5 -9 -0.36 4.1
 7 -5 -7 85.16 7.6
 7 -5 -6 -2.67 4.08
 7 -5 -5 6.6 3.56
 7 -5 -4 2.84 3.2
 7 -5 -3 22.25 4.01
 7 -5 -2 5.17 3.36
 7 -5 -1 9.41 3.23
 7 -5 0 -1.38 2.49
 7 -5 1 19.96 3.15
 7 -4 -12 3.28 4.43
 7 -4 -11 18.9 5.91
 7 -4 -10 66.41 7.28
 7 -4 -9 88.38 7.86
 7 -4 -8 32.7 5.23
 7 -4 -7 0.98 3.58
 7 -4 -5 21.72 4.12
 7 -4 -4 95.76 6.26
 7 -4 -3 51.2 5.31
 7 -4 -2 0.6 2.63
 7 -4 0 6.91 2.7
 7 -4 1 45.49 4.12
 7 -4 2 2.18 2.18
 7 -3 -12 26.25 5.62
 7 -3 -11 11.91 4.72
 7 -3 -9 16.22 4.57
 7 -3 -7 23.3 4.93
 7 -3 -6 55.42 6.39
 7 -3 -5 30.45 5.08
 7 -3 -4 55.36 5.66
 7 -3 -3 47.26 5.21
 7 -3 -2 15.1 3.94
 7 -3 -1 75.65 5.38
 7 -3 0 1.87 2.57
 7 -3 1 72.76 4.71
 7 -3 2 16.35 2.96
 7 -2 -11 33.7 5.69
 7 -2 -9 1.01 4.38
 7 -2 -8 35.89 5.8
 7 -2 -6 28.94 4.69
 7 -2 -5 4.52 3.29
 7 -2 -4 37.11 4.61
 7 -2 -3 10.87 3.91
 7 -2 -2 17.24 3.82
 7 -2 -1 35.14 4.06
 7 -2 0 0.12 2.38
 7 -2 1 38.71 4.06
 7 -2 2 15.03 2.9
 7 -1 -13 16.12 4.91
 7 -1 -12 1.71 4.13
 7 -1 -11 10.3 5.11
 7 -1 -10 13.3 4.48
 7 -1 -9 32.92 5.34
 7 -1 -6 21.47 4.06
 7 -1 -5 69.34 6
 7 -1 -4 58.05 5.21
 7 -1 -3 3.17 3.4
 7 -1 -1 95.63 5.49
 7 -1 0 183.67 6.96
 7 -1 1 102.68 5.58
 7 -1 2 39.47 3.77
 7 0 -13 13.44 5.34
 7 0 -11 2.86 4.12
 7 0 -10 -3.99 3.33
 7 0 -9 22.42 4.74
 7 0 -8 10.57 3.89
 7 0 -7 0.69 3.25
 7 0 -6 3.07 3.15
 7 0 -5 4.59 3.12
 7 0 -4 1.41 3
 7 0 -3 -1.26 2.63
 7 0 -2 22.44 3.71
 7 0 -1 4.36 2.95
 7 0 0 -0.34 2.59
 7 0 1 4.92 2.53
 7 0 2 24.74 3.26
 7 0 3 -1.71 1.68
 7 1 -13 24.89 5.37
 7 1 -12 -1.42 4.49
 7 1 -11 8.16 4.1
 7 1 -10 17.32 4.71
 7 1 -8 20.05 4.49
 7 1 -6 22.25 4.32
 7 1 -5 70.79 6.12
 7 1 -4 61.27 5.87
 7 1 -3 3.2 2.93
 7 1 -2 32.65 4.59
 7 1 -1 105.44 6.07
 7 1 0 194.06 7.61
 7 1 3 4.11 2.42
 7 1 4 60.55 4.28
 7 1 5 65.17 4.25
 7 2 -13 14.82 4.69
 7 2 -12 1.29 4.47
 7 2 -11 36.17 5.62
 7 2 -10 39.84 5.65
 7 2 -9 8.93 4.04
 7 2 -6 26.28 4.91
 7 2 -5 2.12 3.66
 7 2 -4 48 4.98
 7 2 -3 9.54 3.48
 7 2 -2 14.1 3.45
 7 2 -1 45.44 5.05
 7 2 0 0.67 2.53
 7 2 1 42.9 4.84
 7 2 2 13.31 3.43
 7 2 3 11.51 2.97
 7 2 4 40.64 4.06
 7 2 5 2.78 2.51
 7 3 -12 23.53 5.92
 7 3 -11 16.18 4.79
 7 3 -10 31.57 5.53
 7 3 -9 27.2 5.16
 7 3 -7 13 4.09
 7 3 -6 58.05 5.73
 7 3 -5 37.43 5.07
 7 3 -3 45.03 5.28
 7 3 -2 14.25 3.65
 7 3 -1 74.22 5.74
 7 3 0 7.85 3.66
 7 3 1 75.76 5.51
 7 3 2 13.5 3.67
 7 3 3 48.55 4.85
 7 3 4 54.82 4.63
 7 3 5 27.94 3.94
 7 3 6 60.4 4.45
 7 4 -12 11.24 4.45
 7 4 -11 12.8 5.4
 7 4 -10 51.34 6.73
 7 4 -8 27.79 4.8
 7 4 -7 5.71 4.49
 7 4 -6 56.74 6.54
 7 4 -5 26.99 5.13
 7 4 -4 88.77 6.45
 7 4 -3 35.49 4.69
 7 4 -2 7.45 3.4
 7 4 1 41.95 4.6
 7 4 2 5.81 3.5
 7 4 3 41.84 4.89
 7 4 4 82.72 5.67
 7 4 5 20.72 3.75
 7 4 6 56.67 4.79
 7 5 -11 10.31 4.51
 7 5 -10 16.74 4.77
 7 5 -9 6.46 4.03
 7 5 -7 67.27 6.3
 7 5 -6 -2.92 3.06
 7 5 -5 11.06 3.92
 7 5 -4 4.31 4.05
 7 5 -3 21.87 4.47
 7 5 -2 2.77 3.3
 7 5 -1 19.43 4.74
 7 5 0 0.37 3.01
 7 5 1 14.74 3.59
 7 5 2 8.34 3.66
 7 5 3 23.31 4.02
 7 5 4 1.52 2.73
 7 5 5 6.73 3.21
 7 5 6 -3.03 2.44
 7 6 -10 6.5 4.67
 7 6 -8 73.44 6.75
 7 6 -7 9.45 4.73
 7 6 -6 9.7 4.97
 7 6 -5 30.67 5.44
 7 6 -4 7.84 3.94
 7 6 -3 39.48 5.71
 7 6 -2 13.17 4.53
 7 6 -1 1.95 3.44
 7 6 0 41.06 5.47
 7 6 1 4.08 3.32
 7 6 2 7.92 3.48
 7 6 3 27.65 4.8
 7 6 4 7.71 3.59
 7 7 -8 8.31 5.15
 7 7 -7 26.65 5.39
 7 7 -6 52.46 6.08
 7 7 -5 6.19 4.14
 7 7 -4 2.25 4.45
 7 7 -3 8.78 4.12
 7 7 -2 10.21 4.09
 7 7 -1 37.84 5.31
 7 7 0 6.72 3.9
 7 7 1 31.41 4.95
 7 7 2 15.58 4.07
 7 7 3 1.95 3.27
 7 7 4 -1.31 3.37
 7 8 -8 10.18 4.79
 7 8 -7 20.03 5.39
 7 8 -6 21.47 5.9
 7 8 -5 13.98 5.32
 7 8 -4 6.6 4
 7 8 -2 2.81 3.82
 7 8 -1 27.87 5.2
 7 8 0 58.72 7.27
 7 8 1 32.92 5.18
 7 8 2 1.55 3.8
 7 8 3 9.94 4.2
 7 9 -6 9.22 4.51
 7 9 -4 34.32 5.87
 7 9 -3 -2.84 3.86
 7 9 -2 28.55 5.93
 7 9 -1 34.08 6.11
 7 9 1 33.66 5.53
 7 9 2 31 5.54
 7 10 -2 6.48 5.28
 7 10 -1 6.71 4.57
 7 10 0 25.95 5.81
 8 -7 -4 0.52 3.2
 8 -7 -3 3.24 3.32
 8 -6 -6 23.06 5.26
 8 -6 -5 5.01 3.6
 8 -6 -4 69.34 6.21
 8 -6 -3 10.64 4.07
 8 -6 -2 48.95 5.13
 8 -5 -7 13.38 4.71
 8 -5 -5 12.43 4.35
 8 -5 -4 43.21 5.79
 8 -5 -3 5.16 3.8
 8 -5 -2 28.44 5.01
 8 -5 -1 42.21 4.87
 8 -4 -8 29.7 5.83
 8 -4 -7 24.73 5.76
 8 -4 -6 9.92 4.21
 8 -4 -5 2.63 3.58
 8 -4 -4 8.64 3.59
 8 -4 -3 4.16 3.52
 8 -4 -2 1.36 3.07
 8 -4 -1 18.02 4.01
 8 -4 0 39.53 4.61
 8 -3 -9 6.73 4.52
 8 -3 -8 38.97 5.89
 8 -3 -7 14.11 4.67
 8 -3 -6 19.36 4.57
 8 -3 -5 8.09 4.47
 8 -3 -4 24.54 4.51
 8 -3 -3 3.85 3.39
 8 -3 -2 25.32 4.31
 8 -3 0 6.66 3.37
 8 -3 1 12.35 3.09
 8 -2 -9 16.16 5.03
 8 -2 -8 15.68 4.72
 8 -2 -7 7.05 4.18
 8 -2 -6 16.29 4.45
 8 -2 -5 33.55 5.04
 8 -2 -2 37.09 4.95
 8 -2 -1 71.39 5.44
 8 -2 0 7.75 2.86
 8 -2 1 72.95 5.2
 8 -1 -10 4.51 4.16
 8 -1 -9 15.01 4.73
 8 -1 -8 5.94 4.02
 8 -1 -6 12.79 4.51
 8 -1 -5 29.59 5.1
 8 -1 -4 9.69 4.24
 8 -1 -3 10.89 3.48
 8 -1 -2 20.84 4.12
 8 -1 -1 117.98 6.89
 8 -1 0 10.2 3.55
 8 -1 1 122.96 6.28
 8 -1 2 25.91 3.55
 8 0 -10 4.67 4.33
 8 0 -9 2.3 4.16
 8 0 -7 8.49 4.18
 8 0 -6 24.68 5.09
 8 0 -5 110.42 7.79
 8 0 -4 75.21 6.11
 8 0 -2 31.75 4.74
 8 0 -1 88.22 6.19
 8 0 0 4.36 2.94
 8 0 1 92.21 6.04
 8 0 2 29.34 4.13
 8 1 -9 16.92 4.88
 8 1 -8 4.03 3.9
 8 1 -7 37.12 6.13
 8 1 -6 4.15 4.11
 8 1 -5 26.66 5.29
 8 1 -4 3.04 3.53
 8 1 -3 14.6 4.56
 8 1 -2 22.01 4.71
 8 1 -1 116.96 6.88
 8 1 0 6.32 3.37
 8 1 1 114.03 6.35
 8 1 2 20.67 3.71
 8 1 3 10.49 3.01
 8 2 -9 16.64 5.58
 8 2 -8 15.02 4.67
 8 2 -7 6.35 4.47
 8 2 -6 10.34 4.24
 8 2 -5 37.79 5.82
 8 2 -4 15.07 4.53
 8 2 -3 32.63 5.23
 8 2 -2 38.31 5.46
 8 2 -1 73.24 6.22
 8 2 1 65.18 5.71
 8 2 2 41.99 5
 8 2 3 39.52 4.68
 8 3 -9 12.52 5.12
 8 3 -8 30.91 5.8
 8 3 -7 9.91 4.64
 8 3 -6 26.25 5.29
 8 3 -5 8.22 4.3
 8 3 -4 25.47 5.25
 8 3 -3 -1.26 3.42
 8 3 -2 24.72 4.94
 8 3 -1 10.02 4.19
 8 3 0 3.16 3.39
 8 3 1 7.27 3.66
 8 3 2 22.43 4.02
 8 3 3 -0.31 2.64
 8 3 4 26.83 3.88
 8 4 -7 15.83 5.14
 8 4 -6 2.06 4
 8 4 -5 -0.16 3.81
 8 4 -4 9.41 4.35
 8 4 -3 3.25 3.66
 8 4 -2 5.64 3.8
 8 4 -1 20.38 5.01
 8 4 0 48.91 6.04
 8 4 2 1.13 3.14
 8 4 3 3.64 2.98
 8 4 4 8.83 3.32
 8 5 -7 14.67 5
 8 5 -6 45.05 6.46
 8 5 -5 20.66 5.45
 8 5 -4 30.87 5.5
 8 5 -3 3.5 3.99
 8 5 -2 22.04 4.93
 8 5 0 29.14 4.78
 8 5 1 45.86 5.88
 8 5 2 28.37 4.57
 8 5 3 5.49 3.57
 8 5 4 33.87 4.76
 8 5 5 11.34 3.99
 8 6 -6 27.61 5.8
 8 6 -5 6.24 4.74
 8 6 -4 77.75 7.52
 8 6 -2 40.34 6.06
 8 6 -1 39.88 6.09
 8 6 0 8.27 4
 8 6 2 33.21 5.25
 8 6 3 9.05 3.91
 8 6 4 66.34 6.21
 8 6 5 8.1 3.72
 8 7 -4 2.15 4.01
 8 7 -3 1.52 4.44
 8 7 -1 11.96 4.67
 8 7 0 123.33 8.55
 8 7 1 6.78 3.8
 8 7 2 3.58 3.54
 8 7 3 7 3.84
 8 7 4 6.95 3.98
 9 -3 -2 3.92 3.15
 9 -2 -4 0.77 3.56
 9 -2 -3 7.04 3.63
 9 -2 -2 -1.55 2.94
 9 -2 -1 5.33 3.35
 9 -1 -4 1.87 3.4
 9 -1 -3 1.95 3.82
 9 -1 -2 2.52 3.43
 9 -1 -1 31.91 4.79
 9 -1 0 8.14 3.42
 9 0 -4 22.91 4.85
 9 0 -3 20.34 4.5
 9 0 -2 7.24 3.72
 9 0 -1 1.43 3.35
 9 0 0 0 2.89
 9 1 -4 1.94 4.04
 9 1 -3 2.59 3.44
 9 1 -2 2.41 3.57
 9 1 -1 27.39 5.23
 9 1 0 8.33 3.57
 9 1 1 21.47 4.41
 9 2 -4 -2.58 3.4
 9 2 -3 1.72 4.4
 9 2 -2 -1.43 3.95
 9 2 -1 1.76 3.38
 9 2 0 2.61 3.83
 9 2 1 0.88 3.38
 9 3 -2 7.54 4.15
 9 3 -1 6.24 3.95
 9 3 0 5.04 3.48
 9 3 1 5.47 3.55
 9 3 2 1.77 3.23
 -3 2 9 124.34 3.07
 -3 2 10 71.07 2.43
 -3 3 7 11.47 1.53
 -3 3 8 9.67 1.49
 -3 3 9 128.67 3.83
 -3 3 10 2.62 1.32
 -3 4 6 237.53 5.76
 -3 4 7 89.53 3.81
 -3 4 8 13.43 1.88
 -3 4 9 67.23 3.34
 -3 5 6 139.33 5.13
 -3 5 7 19.48 2.5
 -3 5 9 39 2.92
 -3 5 10 26.26 2.81
 -3 6 5 56.82 3.95
 -3 6 6 101.98 4.69
 -3 6 7 33.83 3.1
 -3 6 10 96.31 4.86
 -3 7 6 79.15 4.95
 -3 7 7 40.55 3.95
 -2 -4 9 105.67 2.96
 -2 -4 10 17.17 1.54
 -2 -3 8 0.94 0.65
 -2 -3 9 8.03 1.02
 -2 -3 10 68.96 2.24
 -2 -3 11 22.66 1.55
 -2 -2 8 0.97 0.49
 -2 -2 9 24.2 1.24
 -2 -2 10 24.52 1.38
 -2 -2 11 68.88 2.25
 -2 0 7 -0.18 0.39
 -2 1 4 95.34 2.12
 -2 1 5 500.74 4.71
 -2 1 7 45.7 1.83
 -2 1 8 158.34 3.37
 -2 2 3 278.7 4.53
 -2 2 4 196.85 3.84
 -2 2 5 625.79 6.81
 -2 2 6 82.96 2.67
 -2 2 7 696.14 7.59
 -2 2 8 1.38 0.99
 -2 2 9 29.43 2.12
 -2 2 10 27.03 2.22
 -2 3 3 378.95 6.21
 -2 3 5 433.9 6.62
 -2 3 6 419.63 6.74
 -2 3 7 109.99 3.72
 -2 3 8 1.58 1.2
 -2 3 9 8.64 1.6
 -2 3 10 65.43 3.37
 -2 3 11 25.41 2.52
 -2 3 12 27.91 2.71
 -2 4 2 387.16 7.01
 -2 4 3 221.56 5.46
 -2 4 6 12 1.87
 -2 4 7 127.14 4.45
 -2 4 8 23.32 2.65
 -2 4 9 97.5 4.19
 -2 4 10 16.81 2.23
 -2 4 11 39.29 3.12
 -2 4 12 8.13 1.96
 -2 5 2 184.58 5.48
 -2 5 3 63.53 3.46
 -2 5 4 135.98 4.72
 -2 5 5 213.93 5.94
 -2 5 7 87.12 4.28
 -2 5 8 217.01 6.22
 -2 5 10 15.68 2.49
 -2 5 11 0.76 2.02
 -2 6 2 77.45 4.36
 -2 6 3 18.09 2.61
 -2 6 4 42.7 3.27
 -2 6 5 192.25 6.15
 -2 6 6 130.06 5.2
 -2 6 7 206.37 6.56
 -2 6 8 7.99 2.2
 -2 6 9 63 4.27
 -2 7 2 15.87 2.8
 -2 7 3 332.93 8.53
 -2 7 4 14.88 3.04
 -2 7 5 143.41 5.84
 -2 7 6 3.28 2.21
 -2 7 7 2 2.06
 -2 8 3 100.89 5.37
 -1 -8 8 9.63 2.53
 -1 -8 9 6.74 2.09
 -1 -7 7 54.76 3.73
 -1 -7 8 86.36 4.42
 -1 -7 9 32.93 2.88
 -1 -7 10 5.96 1.78
 -1 -6 5 11.24 2.02
 -1 -6 6 59.52 3.45
 -1 -6 7 187.04 5.55
 -1 -6 8 52.51 3.13
 -1 -6 9 13.74 2.1
 -1 -6 11 8.89 1.82
 -1 -5 4 176.16 4.82
 -1 -5 5 35.07 2.44
 -1 -5 6 104.91 3.88
 -1 -5 7 6.14 1.48
 -1 -5 8 121.7 4.32
 -1 -5 9 21.94 2.26
 -1 -5 10 57.98 3.28
 -1 -5 11 39.37 2.81
 -1 -4 3 49.51 2.5
 -1 -4 5 391.9 6.24
 -1 -4 6 120.11 3.66
 -1 -4 7 52.98 2.68
 -1 -4 8 21.33 1.94
 -1 -4 9 3.82 1.25
 -1 -4 10 255.68 5.93
 -1 -4 11 13.94 2.04
 -1 -4 12 111.48 4.31
 -1 -3 3 57.54 2.2
 -1 -3 6 152.44 3.62
 -1 -3 7 58.56 2.48
 -1 -3 8 14.74 1.79
 -1 -2 3 1032.74 6.37
 -1 -2 4 118.63 2.44
 -1 -2 5 144.36 2.89
 -1 1 1 244.46 3.07
 -1 1 2 3905.85 11.65
 -1 2 1 338.99 4.72
 -1 2 2 131.26 2.93
 -1 2 3 998.87 8.02
 -1 3 0 27.02 2.01
 -1 3 1 127.37 3.52
 -1 3 2 409.27 6.07
 -1 3 3 54.67 2.61
 -1 3 4 398.46 6.4
 -1 4 0 537.3 8
 -1 4 1 88.7 3.61
 -1 4 2 97.3 3.68
 -1 4 3 50.29 3.08
 -1 4 4 203.58 5.14
 -1 4 5 383.13 7.15
 -1 5 0 6.61 1.74
 -1 5 1 34.49 2.63
 -1 5 2 524.71 8.83
 -1 5 4 178.38 5.29
 -1 5 5 26.33 2.69
 -1 5 6 107.07 4.57
 -1 5 7 5.29 1.87
 -1 5 8 120.68 4.9
 -1 6 2 19.25 2.7
 -1 6 3 119.78 4.82
 -1 6 4 131.86 5.34
 -1 6 5 9.64 2.15
 -1 6 6 64.77 4.26
 -1 6 7 175.82 6.21
 -1 6 8 54.34 4.2
 -1 6 9 8.46 2.37
 -1 7 0 431.52 9.26
 -1 7 1 116.79 5.15
 -1 7 2 39.68 3.71
 -1 7 4 237.75 7.4
 -1 7 5 4.07 2.13
 -1 7 6 142.36 5.95
 -1 7 7 55.2 4.31
 -1 8 0 35.69 3.82
 -1 8 1 194.41 7.11
 -1 8 3 10.03 3.07
 -1 8 4 105.68 5.67
 0 -8 4 -0.12 1.89
 0 -8 7 46.31 3.96
 0 -7 4 2.72 2.01
 0 -7 6 14.07 3.04
 0 -7 7 19.18 2.9
 0 -7 8 137.4 6
 0 -7 9 59.04 4.1
 0 -7 10 1.5 1.9
 0 -6 2 7.26 1.89
 0 -6 3 10.95 2.06
 0 -6 4 31.59 2.75
 0 -6 5 258.41 6.92
 0 -6 6 488.02 9.49
 0 -6 8 19.87 2.69
 0 -6 9 177.6 6.34
 0 -6 10 30.52 3.65
 0 -6 11 11.18 2.5
 0 -5 1 32.06 2.52
 0 -5 3 60.46 3.2
 0 -5 4 24.56 2.35
 0 -5 5 876.66 11.24
 0 -5 6 52 3.42
 0 -5 7 14.46 2.42
 0 -5 8 746.9 11.42
 0 -5 9 9.59 2.15
 0 -5 10 67.68 3.94
 0 -5 11 0.35 2
 0 -5 12 73.92 4.46
 0 -4 1 3.47 1.42
 0 -4 2 207.28 4.84
 0 -4 3 1144.84 11.09
 0 -4 4 14.13 1.84
 0 -4 5 9.73 2.07
 0 -4 6 17.04 2.04
 0 -4 7 30.45 2.5
 0 -3 1 408.06 5.66
 0 -3 2 337.2 5.26
 0 -3 3 994.96 9.34
 0 -3 4 350.39 5.76
 0 -2 0 5385.2 16.63
 0 -2 1 3.41 1.03
 0 -2 2 329.51 4.38
 0 -1 0 0.48 0.42
 0 1 0 0.16 0.58
 0 2 -1 3.98 1.26
 0 2 0 5363.74 16.4
 0 3 0 0.69 0.99
 0 3 1 407.8 5.81
 0 4 -2 206.08 4.81
 0 4 -1 3.96 1.86
 0 4 0 2780.57 16.87
 0 4 1 1.45 1.48
 0 4 2 200.97 4.87
 0 5 -2 182.52 5.03
 0 5 -1 31.63 2.43
 0 5 0 0.11 1.18
 0 5 1 33.33 2.8
 0 5 2 176.72 5
 0 6 4 29.14 2.88
 0 6 5 265.82 7.14
 0 7 -2 8.14 2.54
 0 7 -1 595.95 10.58
 0 7 0 -1.38 1.5
 0 7 1 590.39 10.6
 0 7 2 7.23 2.11
 0 7 3 373.17 8.66
 0 7 4 1.65 1.82
 0 7 5 613.06 11.43
 0 7 6 14.97 2.74
 0 7 7 22.21 3.18
 0 8 -2 438.86 9.89
 0 8 -1 346.43 8.75
 0 8 0 71.45 4.58
 0 8 1 345.85 8.8
 0 8 2 445.22 10.1
 0 8 3 39.62 3.62
 0 8 4 1.41 2.18
 1 -8 1 206.76 7.12
 1 -8 2 55.06 4.53
 1 -8 3 8.96 2.71
 1 -8 4 108.84 5.53
 1 -8 5 31.52 4.28
 1 -7 2 35.07 3.26
 1 -7 3 19.5 2.94
 1 -7 5 6.11 2.34
 1 -7 7 52.29 4.56
 1 -6 0 139.95 5.33
 1 -6 1 61.77 3.88
 1 -6 4 128.4 5.2
 1 -6 5 9.21 2.25
 1 -6 6 61.83 4.05
 1 -6 8 54.28 4.37
 1 -6 9 13.47 2.87
 1 -5 0 7.7 2.17
 1 -5 1 35.06 3.06
 1 -5 2 529.52 8.98
 1 -5 3 309.77 7.06
 1 -5 4 182.29 5.65
 1 -5 5 27.02 3.19
 1 -5 6 103.32 4.58
 1 -5 7 4.01 2.08
 1 -5 8 124.99 5.25
 1 -4 -1 87.3 3.56
 1 -4 0 526.5 8.01
 1 -4 1 84.35 3.39
 1 -4 2 102.22 4.11
 1 -4 3 50.03 2.92
 1 -3 -1 124.79 3.59
 1 -3 0 25.05 1.86
 1 -3 1 128.37 3.66
 1 -3 2 420.47 6.63
 1 -2 -1 338.14 4.62
 1 -2 0 859.7 7.59
 1 -1 -1 250.07 3.12
 1 3 -2 409.31 5.25
 1 3 -1 125.16 3.15
 1 4 -3 50.26 2.53
 1 4 -1 93.81 3.46
 1 4 0 541.91 7.6
 1 5 -2 520.67 8.02
 1 5 -1 30.07 2.61
 1 5 0 5.9 1.52
 1 5 1 35.43 2.8
 1 6 -3 118.06 4.39
 1 6 2 21.11 2.57
 1 7 -3 19.97 2.6
 1 7 -2 37.46 3.12
 1 7 -1 117.88 4.81
 1 7 0 448.38 9.34
 1 7 1 120.19 5.26
 1 7 2 41.92 3.81
 1 7 3 17.71 2.67
 1 8 -2 50.67 3.65
 1 8 -1 193.4 6.52
 1 8 0 38.89 3.44
 1 8 1 188.5 6.66
 1 8 2 52.76 3.99
 1 8 3 4.61 2.53
 1 9 -3 64.96 4.65
 1 9 -2 130.25 6.08
 1 9 -1 59.43 4.68
 2 -8 0 53.84 4.39
 2 -7 -1 193.6 7.01
 2 -7 0 10.86 2.6
 2 -7 1 192.05 7.07
 2 -7 3 354.54 9.3
 2 -7 4 13.59 2.88
 2 -6 -1 40.12 3.53
 2 -6 1 43.43 3.65
 2 -6 2 75.89 4.31
 2 -6 3 19.17 3.05
 2 -6 4 45.15 3.74
 2 -6 6 131.83 5.94
 2 -6 7 201.09 7.52
 2 -5 -2 180.97 5.46
 2 -5 -1 54.7 3.52
 2 -4 -2 395.85 7.25
 2 -4 -1 45.54 3.04
 2 -4 0 2420.31 17.87
 2 -4 1 44.6 3.07
 2 -4 2 379.97 7.74
 2 -4 3 236.19 6.25
 2 -3 -3 374.17 6.02
 2 -3 -2 176.12 4.28
 2 -3 -1 246.22 5.18
 2 -3 0 1633.26 13.48
 2 -2 -2 714.65 7.35
 2 -2 -1 1.95 1.3
 2 2 -3 277.87 2.9
 2 3 -3 379.86 4.64
 2 3 -2 177.42 3.5
 2 4 -4 219.64 4.17
 2 4 -3 231.39 4.44
 2 4 -2 382.28 5.85
 2 6 -4 45.84 2.81
 2 6 -3 12.82 1.83
 2 6 -2 82.97 3.77
 2 6 -1 38.65 3
 2 6 0 334.47 7.46
 2 7 -4 12.97 2.3
 2 7 -3 341.05 7.51
 2 7 -2 15.81 2.25
 2 7 -1 190.21 5.94
 2 8 -4 12.93 2.24
 2 8 -3 101.11 4.94
 2 8 -2 106.63 5.12
 2 8 0 57.35 3.93
 2 8 1 106.18 5.14
 2 8 2 116.48 5.46
 2 8 3 100.64 5.35
 2 9 -4 24.73 3.2
 2 9 -3 18.45 2.81
 2 9 -2 0.49 2.45
 2 9 -1 267.1 8.19
 3 -7 -1 86.52 4.96
 3 -7 0 -1.15 2.67
 3 -7 1 80.08 5.36
 3 -6 -2 47.09 3.62
 3 -6 1 69.23 4.33
 3 -6 2 47.8 4.13
 3 -6 3 74.53 4.75
 3 -6 4 83.04 5.05
 3 -5 -3 62.02 3.59
 3 -5 -2 363.8 7.9
 3 -5 -1 31.54 2.89
 3 -5 1 24.67 3.05
 3 -5 2 371.98 8.76
 3 -5 3 53.97 4.46
 3 -5 4 427.49 9.98
 3 -4 -3 32.47 2.73
 3 -4 -2 14.84 2.18
 3 -4 -1 51.73 3.35
 3 -4 2 14.16 2.35
 3 -3 -3 4.71 1.22
 3 -3 -2 381.89 6.82
 3 -3 -1 61.88 3.31
 3 -3 0 133.33 4.66
 3 -2 -3 364.81 5.61
 3 -1 -2 164.85 3.62
 3 0 -3 278.11 3.44
 3 3 -4 131.78 2.37
 3 3 -3 3.52 0.72
 3 4 -4 146.37 3.2
 3 4 -3 29.16 1.77
 3 5 -3 56.66 2.6
 3 6 -4 82.55 3.38
 3 6 -1 71.67 3.7
 3 7 -4 99.76 4.08
 3 7 -3 27.46 2.62
 3 7 -2 34.05 2.74
 3 7 -1 85.08 4.21
 3 7 0 2.29 2.01
 3 8 -4 1.67 1.68
 3 8 -3 0.55 1.67
 3 8 -2 31.54 3.01
 3 8 -1 50.56 3.97
 3 9 -4 2.5 1.46
 3 9 -3 10.17 2.6
 3 9 -2 34.9 3.26
 4 -6 -3 118.09 5.29
 4 -6 -2 131.78 5.71
 4 -6 -1 181.92 6.65
 4 -6 0 144.79 6.41
 4 -6 1 178.74 7.01
 4 -5 -3 3.76 2.18
 4 -5 -2 56.48 3.7
 4 -5 -1 271.24 7.53
 4 -5 0 7.18 2.19
 4 -5 1 275.93 8.23
 4 -5 2 58 4.48
 4 -5 3 2.25 2.81
 4 -4 -4 246.83 6.09
 4 -4 -3 72.57 3.77
 4 -4 -2 317.05 7.38
 4 -4 -1 66.04 3.86
 4 -4 0 742.03 11.76
 4 -4 1 72.52 4.41
 4 -4 2 341.38 8.49
 4 -3 -4 83.02 3.42
 4 -3 -3 153 4.67
 4 -3 -2 28.52 2.45
 4 -3 -1 239.7 6.3
 4 -3 0 889.12 12.11
 4 -2 -3 61.75 2.8
 4 -2 -2 517.89 7.91
 4 -2 -1 2.08 1.3
 4 -1 -4 72.78 2.27
 4 -1 -2 1.34 0.91
 4 0 -4 4.87 0.66
 4 0 -3 45.05 1.9
 4 3 -4 76.79 1.76
 4 5 -3 3.2 0.98
 4 5 -2 52.25 2.82
 4 6 -3 113.94 3.92
 4 7 -2 4.59 1.49
 4 7 -1 3.24 1.81
 4 7 0 15.41 2.41
 4 8 -2 5.28 1.83
 4 8 0 62.87 4.11
 5 -5 -3 26.92 3.36
 5 -5 -2 53.31 3.91
 5 -5 -1 28.77 3.5
 5 -4 -4 18.9 2.5
 5 -4 -3 41.22 3.21
 5 -4 -2 3.6 1.86
 5 -4 0 19.48 3.28
 5 -4 1 123.62 5.67
 5 -4 2 3.28 2.38
 5 -3 -4 33.91 2.48
 5 -3 -3 51.65 3.19
 5 -3 -2 57.69 3.52
 5 -3 -1 116.57 4.76
 5 -2 -3 5.29 1.35
 5 -2 -2 62.12 3.33
 5 -2 -1 79.64 4.03
 5 -1 -4 106.59 3
 5 -1 -2 11.51 1.64
 5 0 -4 -0.32 0.41
 5 0 -3 2.19 0.84
 6 -4 -2 60.37 4.04
 6 -3 -2 9.88 2.3
 6 -3 -1 77.09 4.49
 6 -3 0 160.87 6.34
 6 -2 -2 190.96 5.72
 6 -2 -1 42.45 3.3
 6 -2 0 15.44 2.74
 0 0 5 0.01 0.42
 0 0 7 0.33 0.43
 0 0 8 10.02 0.71
 0 1 0 1.01 0.5
 0 1 1 20.22 1
 0 1 2 4183.26 10.95
 0 1 4 1853.63 8.39
 0 1 5 1428.74 7.79
 0 1 6 112.49 2.49
 0 1 8 -0.02 0.63
 0 1 9 23.87 1.41
 0 1 10 55.89 1.88
 0 2 -2 328.6 3.44
 0 2 0 5307.59 15
 0 2 1 5.54 1.04
 0 2 2 331.52 4.26
 0 2 3 435.8 5.11
 0 2 4 1293.45 8.96
 0 2 5 1201.89 9.03
 0 2 6 477.17 5.97
 0 2 7 1528.68 10.73
 0 2 8 2.6 1.01
 0 2 9 91.42 2.96
 0 2 10 49.78 2.32
 0 2 11 3.24 1.18
 0 3 -3 958.53 7.12
 0 3 -2 339.18 4.52
 0 3 -1 410.87 5.22
 0 3 0 -0.11 1.09
 0 3 1 401.63 5.46
 0 3 2 349.57 5.42
 0 3 3 985.14 9.03
 0 3 4 349.43 5.7
 0 3 5 219.1 4.74
 0 3 7 26.21 1.96
 0 3 8 100.64 3.62
 0 3 9 10.52 1.73
 0 3 10 95.7 3.54
 0 3 11 34.91 2.53
 0 4 -3 1161.52 9.55
 0 4 -2 213.62 4.39
 0 4 -1 3.25 1.33
 0 4 0 2834.24 16.02
 0 4 1 1.81 1.47
 0 4 3 1158.24 11.21
 0 4 5 13.39 1.92
 0 4 6 20.08 2.17
 0 4 7 32.93 2.72
 0 4 8 0.83 1.49
 0 4 9 139.04 4.73
 0 4 10 6.8 2
 0 4 11 1.83 1.55
 0 5 -3 58.57 2.93
 0 5 -2 170.43 4.53
 0 5 -1 36.04 2.45
 0 5 0 -0.56 1.52
 0 5 1 34.18 2.45
 0 5 2 171.97 5.01
 0 5 3 66.82 3.32
 0 5 4 25.7 2.5
 0 5 5 893.34 11.45
 0 5 6 58.29 3.62
 0 5 7 16.07 2.35
 0 5 9 11.29 2.42
 0 5 11 -0.81 1.55
 0 5 12 71.82 4.17
 0 6 4 29.9 2.98
 0 6 5 277.62 7.1
 0 6 6 488.81 9.64
 0 6 7 233.61 6.78
 0 6 8 16.98 2.98
 0 6 9 167.39 6.13
 0 6 10 24.22 3.45
 0 7 -3 381.16 7.85
 0 7 -2 5.21 1.87
 0 7 -1 583.64 10.01
 0 7 0 2.66 2.19
 0 7 1 596.28 10.4
 0 7 2 7.71 1.95
 0 7 3 375.12 8.65
 0 7 4 4.68 2.33
 0 7 5 628.71 11.48
 0 7 6 16.69 2.91
 0 7 7 18.37 3.01
 0 7 11 10.35 3.03
 0 8 -2 438.11 9.36
 0 8 -1 352.49 8.77
 0 8 0 67.41 4.11
 0 8 1 348.1 8.82
 0 8 3 35.16 3.49
 0 8 8 11.43 3.3
 0 8 9 20.02 3.36
 0 8 10 16.81 3.56
 0 8 11 10.37 3.2
 0 9 4 27.56 3.69
 0 9 5 42.66 4.46
 0 9 6 10.56 3.14
 0 9 7 1.98 2.68
 0 9 9 14.3 3.6
 0 9 10 8.6 3.35
 0 10 1 36.6 4.19
 0 10 2 117.38 6.36
 0 10 4 2.49 2.82
 0 10 5 43.66 5.23
 0 10 7 2.63 3.2
 0 11 4 2.75 3
 0 11 5 4.15 3.23
 1 -3 10 0.82 0.7
 1 -2 9 137.28 2.83
 1 -2 10 19.03 1.18
 1 -1 8 80.58 2.38
 1 -1 9 544.61 5.57
 1 -1 10 16.46 1.27
 1 -1 11 20.23 1.11
 1 0 6 111.58 2.89
 1 0 7 19.55 1.53
 1 0 8 -0.37 0.94
 1 0 9 248.47 4.24
 1 0 10 15.25 1.46
 1 1 1 252.78 3.91
 1 1 2 3932.29 14.58
 1 1 3 279.72 4.4
 1 1 4 240.94 4.15
 1 1 6 615.77 6.92
 1 1 8 83.67 2.87
 1 1 9 527.92 6.73
 1 1 10 16.98 1.71
 1 1 12 51.69 2.32
 1 2 -5 142.78 1.87
 1 2 -3 1010.45 6.42
 1 2 -2 138.32 2.78
 1 2 -1 348.68 4.5
 1 2 0 870.14 7.29
 1 2 3 1000.22 8.85
 1 2 4 118.21 3.35
 1 2 5 144.05 3.75
 1 2 6 17.78 1.91
 1 2 7 984.28 9.81
 1 2 8 100.41 3.42
 1 2 9 139.25 4.04
 1 2 10 22.99 2.14
 1 2 11 127 3.95
 1 2 12 1.86 1.34
 1 3 -6 151.21 2.24
 1 3 -5 383.29 4.13
 1 3 -3 53.45 1.97
 1 3 -2 421.28 5.42
 1 3 -1 125.88 3.35
 1 3 1 124.23 3.43
 1 3 3 54.26 2.68
 1 3 4 389.04 6.53
 1 3 5 385.6 6.63
 1 3 8 14.48 2.18
 1 3 9 740.85 9.8
 1 3 10 2.4 1.55
 1 3 11 18.7 2.3
 1 3 12 4.33 1.65
 1 3 13 8.02 1.84
 1 4 -6 125.76 2.76
 1 4 -5 388.95 5.12
 1 4 -4 208.67 4.07
 1 4 -3 52.36 2.42
 1 4 -2 96.6 3.16
 1 4 -1 89.72 3.31
 1 4 1 93.57 3.47
 1 4 4 198.63 5.22
 1 4 5 378.05 7.13
 1 4 6 123.53 4.51
 1 4 7 51.07 3.32
 1 4 8 23.38 2.49
 1 4 9 4.1 1.77
 1 4 10 253.36 6.58
 1 4 11 14.16 2.49
 1 4 12 116.36 4.79
 1 4 13 51.92 3.48
 1 5 -2 513.23 7.7
 1 5 0 9.39 1.83
 1 5 1 30.56 2.38
 1 5 4 186.01 5.4
 1 5 6 101.54 4.61
 1 5 7 3.66 1.85
 1 5 8 124.53 5.05
 1 5 9 23.39 3.19
 1 5 10 50.74 3.94
 1 5 11 37.54 3.66
 1 5 12 1.68 2.13
 1 6 -6 60.86 2.85
 1 6 -5 10.42 1.8
 1 6 -4 132.86 4.26
 1 6 -3 119.13 4.3
 1 6 -2 22.72 2.62
 1 6 -1 60.32 3.57
 1 6 4 132.51 5.05
 1 6 5 11.4 2.4
 1 6 6 62.42 3.94
 1 6 7 178.5 6.29
 1 6 8 59.26 4.14
 1 6 9 14.08 2.79
 1 6 13 1.15 2.36
 1 6 14 13.48 2.86
 1 7 -6 153.18 4.8
 1 7 -5 6.38 1.93
 1 7 -4 237.68 6.18
 1 7 -3 18.21 2.45
 1 7 -2 37.52 2.89
 1 7 -1 126.49 5.01
 1 7 0 449.57 9.25
 1 7 1 124.64 5.12
 1 7 2 34.48 3.27
 1 7 4 233.86 7.41
 1 7 5 7.31 2.47
 1 7 6 147.43 6.33
 1 7 10 8.1 2.94
 1 7 11 7.94 3.27
 1 7 12 1.27 2.51
 1 7 13 -0.17 2.43
 1 7 14 21.01 3.87
 1 8 -5 30.75 3.17
 1 8 -4 105.95 4.89
 1 8 -3 7.13 2.43
 1 8 -1 206.21 6.77
 1 8 0 36.3 3.79
 1 8 1 217.24 7.47
 1 8 7 100.05 6.01
 1 8 8 8.66 3.08
 1 8 9 0.79 2.59
 1 8 10 62.56 5
 1 8 11 52.31 4.96
 1 8 12 16.05 3.97
 1 8 13 3.84 3.15
 1 9 -5 18.59 2.81
 1 9 -4 121.39 5.59
 1 9 3 68.12 4.82
 1 9 5 25.7 4.11
 1 9 6 9.35 3.02
 1 9 7 53.08 5.14
 1 9 8 56.83 5.03
 1 9 9 -1.67 2.76
 1 9 10 170.6 7.83
 1 9 11 21.69 4.17
 1 9 12 0.25 3.13
 1 9 13 13.09 4.33
 1 10 -1 16.81 3.4
 1 10 0 1.2 2.45
 1 10 1 16.72 3.36
 1 10 2 26.82 3.9
 1 10 3 38.03 4.73
 1 10 4 14.12 3.58
 1 10 5 84.63 5.78
 1 10 6 13.17 3.54
 1 10 7 -2.19 2.62
 1 10 8 156.91 7.92
 1 10 9 5.27 3.63
 1 10 10 85.23 6.84
 1 10 11 2.46 4.11
 1 10 13 6.22 3.65
 1 11 -3 -3.16 2.85
 1 11 -2 15.99 3.84
 1 11 -1 53.96 5.45
 1 11 0 -1.65 2.69
 1 11 1 54.19 5.61
 1 11 2 12.49 3.74
 1 11 3 2.76 2.87
 1 11 4 8.02 3.22
 1 11 5 38.4 5.21
 1 11 6 14.53 4.49
 1 11 7 151.45 8.43
 1 11 8 28.07 4.94
 1 11 9 3.02 3.65
 1 11 10 85.85 7.57
 1 11 11 11.37 4.57
 1 12 0 2.34 3.29
 1 12 1 40.17 5.11
 1 12 2 38.88 5.33
 1 12 3 5.76 4.19
 1 12 4 17.37 4.78
 1 12 5 13.48 4.76
 1 12 6 9.82 4
 1 12 7 40.69 6.4
 1 12 8 43.52 6.4
 1 12 9 9.23 4.56
 1 12 10 -0.29 4.83
 1 13 2 -1.42 3.96
 1 13 3 5.16 3.93
 1 13 4 3.77 4.06
 1 13 5 21.22 4.93
 1 13 6 9.39 4.58
 1 13 7 4.74 4.78
 2 -2 10 23.27 2.27
 2 -2 11 67.01 2.96
 2 -1 9 150.75 4.32
 2 -1 10 84.23 3.35
 2 -1 12 78.37 3.06
 2 0 7 0.82 1.62
 2 0 8 2.18 1.37
 2 0 10 24.88 2.32
 2 0 11 165.82 4.66
 2 0 12 32.7 2.41
 2 1 -8 160.93 2.1
 2 1 5 519.47 7.81
 2 1 6 56.72 3.14
 2 1 7 46.77 2.92
 2 1 8 166.17 4.87
 2 1 9 152.42 4.78
 2 1 10 80.86 3.77
 2 1 11 37.39 2.86
 2 1 12 83.81 3.65
 2 1 13 7.06 1.65
 2 2 -7 688.18 5.21
 2 2 -5 615.04 6.22
 2 2 -4 190.02 3.8
 2 2 -3 277.85 4.79
 2 2 -2 712.3 7.73
 2 2 -1 0.67 1.22
 2 2 0 314.46 5.79
 2 2 1 0.87 1.46
 2 2 3 282.35 5.98
 2 2 4 196.91 5
 2 2 5 627.16 8.88
 2 2 7 687.09 9.75
 2 2 8 0.2 1.93
 2 2 9 23.39 2.79
 2 2 10 25.76 2.6
 2 2 11 67.81 3.65
 2 2 12 18.69 2.3
 2 2 13 34.64 2.84
 2 3 -8 1.66 0.41
 2 3 -7 107.56 2.33
 2 3 -6 405.07 5.03
 2 3 -5 441.56 5.72
 2 3 -4 20.6 1.7
 2 3 -3 375.78 5.92
 2 3 -2 177.6 4.4
 2 3 -1 239.2 5.3
 2 3 0 1660.3 13.56
 2 3 1 235.28 5.45
 2 3 2 172.11 4.86
 2 3 3 368.31 6.95
 2 3 4 18.5 2.23
 2 3 5 442.79 8.06
 2 3 6 403.18 7.95
 2 3 7 104.44 4.52
 2 3 8 3.55 2.13
 2 3 9 6.92 2.02
 2 3 10 71.04 4.11
 2 3 11 28.26 2.99
 2 3 12 35.91 3.15
 2 3 13 27.84 2.96
 2 4 -8 20.89 1.16
 2 4 -3 222.58 5.03
 2 4 -2 394.94 6.77
 2 4 0 2433.55 17.51
 2 4 1 44.62 3.19
 2 4 4 222.69 6
 2 4 5 102.24 4.55
 2 4 7 120.84 4.91
 2 4 8 18.25 2.94
 2 4 9 101.24 4.94
 2 4 10 16.58 2.89
 2 4 11 40.55 3.42
 2 4 12 10.56 2.49
 2 5 -7 95.18 3
 2 5 -6 197.27 4.49
 2 5 4 133.94 5.08
 2 5 5 219.3 6.61
 2 5 6 187.91 6.18
 2 5 7 96.86 5.04
 2 5 8 202.88 6.72
 2 5 9 3.14 2.18
 2 5 13 41.4 3.96
 2 5 14 2.8 2.3
 2 6 -7 209 4.83
 2 6 -6 130.28 4.18
 2 6 -5 188.31 5.15
 2 6 -4 47.62 3.15
 2 6 -3 13.4 2.22
 2 6 -2 73.09 3.63
 2 6 0 339.23 7.69
 2 6 1 36.62 3.38
 2 6 2 73.07 4.17
 2 6 3 15.68 2.54
 2 6 4 40.83 3.25
 2 6 6 135.61 5.89
 2 6 11 36.82 4.16
 2 6 12 0.22 2.6
 2 6 13 3.92 2.61
 2 6 14 80.64 5.5
 2 7 -7 3.98 1.25
 2 7 -6 2.31 1.69
 2 7 -5 140.44 4.89
 2 7 -4 12.42 2.25
 2 7 -3 342.36 7.93
 2 7 -2 17.5 2.63
 2 7 -1 192.07 6.41
 2 7 0 7.26 2.09
 2 7 1 194.05 6.61
 2 7 2 20.43 2.79
 2 7 4 14.8 2.97
 2 7 8 31.5 3.7
 2 7 9 36.27 4.52
 2 7 10 67.82 5.03
 2 7 11 1.13 3.07
 2 7 12 10.05 3.27
 2 7 13 61.93 5.11
 2 7 14 3.77 3.04
 2 7 15 11.57 3.31
 2 8 -6 15.04 2.22
 2 8 -5 208.31 6.45
 2 8 -4 12.3 2.63
 2 8 -3 112.58 5.45
 2 8 -2 117.17 5.73
 2 8 -1 120.51 5.77
 2 8 0 51.48 4.37
 2 8 6 17.81 3.48
 2 8 7 49.83 4.85
 2 8 8 59.94 5.25
 2 8 9 19.51 3.75
 2 8 10 49.06 5.42
 2 8 11 1.13 2.97
 2 8 12 11.92 3.83
 2 8 13 25.3 4.05
 2 8 14 16.44 3.81
 2 8 15 14.03 3.87
 2 9 3 20.06 3.45
 2 9 4 23.09 3.71
 2 9 5 11.35 3.26
 2 9 6 5.73 2.92
 2 9 7 15.75 3.66
 2 9 8 135.12 7.39
 2 9 10 25.74 4.74
 2 9 11 0.77 3.24
 2 9 12 5.74 3.78
 2 9 13 12.82 3.74
 2 9 14 9.37 3.83
 2 9 15 -0.25 3.03
 2 10 -4 6.55 2.59
 2 10 -3 29.64 4.31
 2 10 -2 20.07 4.08
 2 10 -1 162.52 7.32
 2 10 1 165.93 7.62
 2 10 2 14.15 3.57
 2 10 3 28.91 4.3
 2 10 4 6.55 2.99
 2 10 5 101.95 7
 2 10 6 42.71 5.22
 2 10 7 2.56 3.25
 2 10 8 -0.63 3.09
 2 10 9 86.54 6.95
 2 10 10 33.96 5.37
 2 10 11 21.53 5.22
 2 10 12 12.33 4.7
 2 10 13 3.24 3.55
 2 10 14 17.54 4.97
 2 11 -5 11.79 2.97
 2 11 -3 66.75 5.68
 2 11 -2 15.5 3.77
 2 11 -1 117.56 6.84
 2 11 0 30.74 4.45
 2 11 1 127.45 7.26
 2 11 2 13.03 4.29
 2 11 3 61.87 5.83
 2 11 4 10.97 3.69
 2 11 5 10.41 3.79
 2 11 6 18.73 4.43
 2 11 7 28.5 5.48
 2 11 8 97.95 7.72
 2 11 9 9.89 4.43
 2 11 10 13.15 4.32
 2 11 11 2.23 3.85
 2 11 12 0.95 4.17
 2 11 13 9.78 4.38
 2 12 -4 18.72 3.8
 2 12 -3 14.02 4.31
 2 12 -2 70.24 6.39
 2 12 -1 35.61 5.07
 2 12 0 -0.82 3.04
 2 12 1 33.69 5.08
 2 12 2 63.97 6.86
 2 12 3 15.08 4.33
 2 12 4 19.94 4.52
 2 12 5 101.06 7.6
 2 12 6 5.38 4.59
 2 12 7 3.52 3.95
 2 12 8 63.53 6.62
 2 12 9 11.51 4.51
 2 12 10 0.85 4.53
 2 12 11 3.72 4.2
 2 12 12 4.68 4.16
 2 13 -3 18.8 4.67
 2 13 -2 0.82 4.29
 2 13 -1 28.39 4.95
 2 13 0 12.62 4.2
 2 13 1 26.75 5.01
 2 13 2 0.57 3.9
 2 13 3 21.99 4.88
 2 13 4 66.68 6.87
 2 13 5 16.61 4.75
 2 13 6 7.92 4.65
 2 13 7 17.94 5.3
 2 13 8 5.82 5.15
 2 13 9 1.41 4.95
 2 13 10 39.92 6.21
 2 14 -1 9.73 4.27
 2 14 0 34.02 5.97
 2 14 1 4.56 4.38
 2 14 2 45.5 6.6
 2 14 4 43.71 7.37
 2 14 5 15.74 5.78
 2 14 6 23.27 5.56
 2 14 7 2.66 5.05
 3 -3 12 11.71 2.18
 3 -2 11 3.72 2.04
 3 -2 12 25.41 2.87
 3 -1 10 9.99 2.53
 3 -1 11 110.4 4.77
 3 -1 12 2.1 2.03
 3 -1 13 25.16 2.81
 3 0 8 7.51 2.11
 3 0 9 687.11 10.9
 3 0 10 234.1 6.69
 3 0 11 18.32 2.69
 3 0 12 73.68 4.15
 3 0 13 14.38 2.4
 3 1 6 36.47 3.24
 3 1 8 20.82 2.74
 3 1 10 9.37 2.57
 3 1 11 117.27 5.1
 3 1 12 1.5 1.88
 3 1 13 28.52 3.11
 3 2 4 8.11 2.07
 3 2 5 33.29 2.83
 3 2 6 22.16 2.81
 3 2 7 344.52 8.15
 3 2 8 91.54 4.71
 3 2 9 123.76 5.35
 3 2 10 68.04 4.48
 3 2 11 3.95 2.08
 3 2 12 25.25 3.44
 3 3 -8 11.83 1.26
 3 3 -7 11.64 1.49
 3 3 -6 31.36 2.2
 3 3 4 132.28 5.08
 3 3 5 187.25 6.06
 3 3 6 36.53 3.68
 3 3 7 15.84 2.71
 3 3 8 6.94 2.27
 3 3 9 144.22 5.84
 3 3 10 5.63 2.74
 3 3 14 1.3 2.31
 3 4 -7 85.31 3.11
 3 4 -6 235.2 5.29
 3 4 -5 2.59 1.24
 3 4 -4 149.08 4.7
 3 4 -2 10.4 2.15
 3 4 -1 52.77 3.18
 3 4 0 371.41 7.98
 3 4 1 52.45 3.38
 3 4 4 152.9 5.68
 3 4 5 2.56 2.35
 3 4 6 245.96 7.53
 3 4 7 86.18 5.09
 3 4 8 19.26 3.09
 3 4 12 12.31 3
 3 4 13 30.1 3.97
 3 4 14 51.12 4.4
 3 5 -7 21.18 1.91
 3 5 -6 140.55 4.41
 3 5 -5 37.42 2.83
 3 5 -4 423.96 8.19
 3 5 -2 367.92 8.11
 3 5 -1 25.73 3.21
 3 5 1 29.05 2.99
 3 5 2 360.12 8.6
 3 5 3 55.59 3.87
 3 5 4 408.34 9.45
 3 5 5 31.32 3.42
 3 5 6 135.31 6.14
 3 5 11 46.41 4.64
 3 5 12 8.33 2.87
 3 5 13 27.79 4.14
 3 5 14 83.43 5.7
 3 6 -6 102.55 4.1
 3 6 -5 57.51 3.48
 3 6 -4 77.27 4.15
 3 6 -3 80.05 4.16
 3 6 -2 48.6 3.81
 3 6 -1 70.13 4.13
 3 6 0 136.66 5.75
 3 6 1 75.05 4.48
 3 6 2 46.68 3.76
 3 6 3 77.69 4.94
 3 6 9 37.17 4.48
 3 6 10 100.2 6.26
 3 6 11 21.02 3.71
 3 6 12 4.22 2.84
 3 6 13 22.3 4.01
 3 6 14 4.69 3.29
 3 6 15 95.2 6.42
 3 7 -6 79.48 3.91
 3 7 -5 47.78 3.46
 3 7 -4 98.03 4.72
 3 7 -3 24.81 2.99
 3 7 -2 27.31 3.08
 3 7 -1 78.08 4.79
 3 7 0 -0.68 1.76
 3 7 6 79.99 5.32
 3 7 9 90.38 6.31
 3 7 11 2.05 2.98
 3 7 12 27.14 4.45
 3 7 13 7.66 3.49
 3 7 14 50.66 5.38
 3 7 15 76.53 6.29
 3 8 -6 34.58 3.26
 3 8 -5 26.61 3.11
 3 8 2 31.83 3.9
 3 8 3 1.44 2.16
 3 8 4 3.36 2.59
 3 8 5 21.92 3.63
 3 8 6 31.85 4.23
 3 8 7 35.04 4.39
 3 8 8 90.31 6.61
 3 8 9 1.88 3
 3 8 10 133.68 7.38
 3 8 11 12.44 3.85
 3 8 12 42.91 5.84
 3 8 13 18.4 4.3
 3 8 14 12.74 4.06
 3 8 15 14.28 4.27
 3 9 -3 10.61 3.13
 3 9 -2 35.41 4.52
 3 9 -1 94.16 5.59
 3 9 0 7.48 2.99
 3 9 2 31.04 4.14
 3 9 3 12.86 3.14
 3 9 4 -0.67 2.35
 3 9 5 3.72 2.93
 3 9 6 24.48 4.76
 3 9 7 22.61 4.7
 3 9 8 99.8 6.97
 3 9 9 9.02 3.74
 3 9 10 13.65 4.13
 3 9 11 20.97 4.59
 3 9 12 2.49 3.64
 3 9 13 3.76 4.1
 3 9 14 15.29 4.83
 3 9 15 21.72 4.86
 3 10 -5 65.53 5.03
 3 10 -4 12.44 3.57
 3 10 -3 47.13 5.02
 3 10 -2 18.39 4.17
 3 10 -1 29.5 4.26
 3 10 0 25.77 4.22
 3 10 1 38.08 5.05
 3 10 2 25.52 4.38
 3 10 3 40.2 5.07
 3 10 4 18.02 4.02
 3 10 5 67.76 6.35
 3 10 7 4.2 3.5
 3 10 8 -1.51 3.29
 3 10 9 15.29 4.64
 3 10 10 41.77 5.82
 3 10 11 1.17 4.04
 3 10 12 46.53 6.25
 3 10 13 7.03 4.23
 3 10 14 10.65 4.71
 3 11 -5 45.4 4.31
 3 11 -4 4.36 2.98
 3 11 -3 1.06 2.91
 3 11 -2 21.24 4.3
 3 11 -1 87.48 6.4
 3 11 0 92.45 6.96
 3 11 1 83.06 6.31
 3 11 2 14.47 4.65
 3 11 3 2.71 3.63
 3 11 4 9.88 4.34
 3 11 5 38.95 5.79
 3 11 6 9.88 4.1
 3 11 7 44.43 5.87
 3 11 8 21.15 4.89
 3 11 9 10.47 4.47
 3 11 11 20.79 5.35
 3 11 12 18.15 5.04
 3 12 -4 8.01 3.5
 3 12 -3 10.66 4.3
 3 12 -2 34.28 4.95
 3 12 -1 24.87 5.04
 3 12 0 13.23 4.25
 3 12 1 21.86 5.35
 3 12 2 31.66 5.2
 3 12 4 1.03 4.13
 3 12 5 66.4 6.68
 3 12 6 1.29 4.15
 3 12 8 5.42 4.29
 3 12 9 12.91 4.75
 3 12 10 31.07 6.48
 3 12 11 8.43 4.51
 3 13 -4 17.42 4.09
 3 13 -3 14.6 4.19
 3 13 -2 26.19 4.78
 3 13 -1 -0.9 3.79
 3 13 0 114.32 8.43
 3 13 1 4.76 4.28
 3 13 2 25.22 5.3
 3 13 3 22.78 5.28
 3 13 4 12.65 4.54
 3 13 5 86.79 7.63
 3 13 6 -5.07 3.88
 3 13 7 12.77 5.06
 3 13 8 15.08 5.16
 3 13 9 20.72 5.48
 3 14 -3 6.47 4.01
 3 14 -2 -0.55 3.92
 3 14 -1 3.16 4.02
 3 14 0 31.61 5.85
 3 14 1 4.3 4.26
 3 14 2 1.58 4.48
 3 14 3 12.31 4.88
 3 14 4 7.37 4.7
 3 14 5 -2.19 4.03
 4 0 9 75.76 4.75
 4 0 13 -0.99 2.17
 4 1 12 52 4.69
 4 1 13 15.59 3.09
 4 1 14 9.87 2.97
 4 2 -8 1.11 1.02
 4 2 4 181.3 6.42
 4 2 5 190.21 6.73
 4 2 7 100.16 5.41
 4 2 11 0.05 2.42
 4 2 12 40.06 4.87
 4 2 13 9.38 3.3
 4 2 14 17.16 3.43
 4 3 -7 74.19 3.54
 4 3 -6 260.94 6.4
 4 3 -5 288.49 7.02
 4 3 -4 78.87 4.15
 4 3 -3 151.33 5.6
 4 3 -2 27.39 2.85
 4 3 0 878.94 13.21
 4 3 1 228.82 7.25
 4 3 2 27.94 3.51
 4 3 3 152.94 6.19
 4 3 5 299.8 8.62
 4 3 10 22.82 3.67
 4 3 11 0.94 3.04
 4 3 12 6.24 2.93
 4 3 14 6.18 2.94
 4 4 -7 37.18 2.75
 4 4 -6 32.83 2.83
 4 4 -5 237.84 6.51
 4 4 -4 247.38 6.78
 4 4 -3 68.85 4.39
 4 4 -2 332.21 8.32
 4 4 -1 68.62 4.23
 4 4 0 710.09 12.39
 4 4 1 70.57 4.78
 4 4 2 327.93 8.83
 4 4 3 65.12 4.39
 4 4 8 40.3 4.32
 4 4 9 25.89 4.23
 4 4 10 0.69 2.77
 4 4 11 -1.19 2.87
 4 4 12 2.14 2.94
 4 4 13 9.85 3.48
 4 4 14 19.54 3.87
 4 5 -6 87.63 4.2
 4 5 -5 62.07 3.85
 4 5 -4 97.18 4.85
 4 5 -3 5.01 2.18
 4 5 -2 56.05 4.23
 4 5 0 8.3 2.6
 4 5 8 13.68 3.83
 4 5 9 13.19 3.47
 4 5 10 -2.56 2.87
 4 5 11 17.91 3.77
 4 5 14 7.39 3.2
 4 5 15 20.06 3.95
 4 6 -6 2.01 1.75
 4 6 -5 37.27 3.5
 4 6 -3 119.3 5.84
 4 6 -2 135.16 5.94
 4 6 4 8.62 2.66
 4 6 5 34.96 4.2
 4 6 6 0.66 2.9
 4 6 8 4.02 2.93
 4 6 9 6.12 3.13
 4 6 11 11.19 3.98
 4 6 12 9.05 3.81
 4 6 14 37.26 5.1
 4 6 15 11.42 4.18
 4 7 -6 75.24 4.26
 4 7 1 3.8 2.45
 4 7 2 6.37 2.64
 4 7 4 7 2.93
 4 7 5 3.21 2.54
 4 7 6 69.79 5.49
 4 7 7 0.94 2.94
 4 7 8 1.05 2.75
 4 7 10 79.31 6.65
 4 7 11 14.49 3.96
 4 7 12 7.69 4.16
 4 7 13 23.82 4.78
 4 7 15 60.26 5.97
 4 8 -4 23.02 3.81
 4 8 -2 2.17 2.44
 4 8 0 72.18 5.24
 4 8 1 24.33 3.97
 4 8 2 5.12 3.22
 4 8 3 79.13 5.64
 4 8 5 68.17 5.6
 4 8 7 7.53 3.3
 4 8 8 143.78 8.41
 4 8 9 31.08 5.01
 4 8 10 16.45 4.33
 4 8 11 27.17 4.84
 4 8 13 25.2 4.85
 4 8 14 11.93 4.12
 4 8 15 8.41 4.14
 4 9 -5 25.93 3.62
 4 9 -4 1.67 2.65
 4 9 -3 3.04 2.72
 4 9 -2 16.77 3.54
 4 9 -1 131.8 7.27
 4 9 0 1.56 2.97
 4 9 1 140.73 7.6
 4 9 2 20.67 4.08
 4 9 3 1.36 2.84
 4 9 4 0.97 2.98
 4 9 5 27.96 4.6
 4 9 6 51.17 5.95
 4 9 7 40.59 5.4
 4 9 11 4.55 4.06
 4 9 12 9.27 4.5
 4 9 13 2.7 3.9
 4 9 14 39.92 6.17
 4 10 -5 14.68 3.1
 4 10 -4 41.04 4.82
 4 10 -3 22.37 4.33
 4 10 -2 1.42 2.92
 4 10 -1 136.74 7.45
 4 10 0 110.35 6.86
 4 10 1 138.61 8.07
 4 10 2 0.56 3.08
 4 10 3 28.08 4.68
 4 10 4 37.74 5.36
 4 10 5 14.68 4.34
 4 10 6 73.88 7.28
 4 10 7 19.16 4.91
 4 10 8 2.85 4.46
 4 10 9 17.42 4.92
 4 10 11 39.15 6.07
 4 10 12 9.71 4.76
 4 11 -4 6.25 3.25
 4 11 -3 51.48 5.71
 4 11 -2 42.44 5.52
 4 11 -1 40.49 5.34
 4 11 1 28.92 5.31
 4 11 2 44.89 5.78
 4 11 4 -0.86 3.45
 4 11 5 28.09 5.55
 4 11 7 57.08 7.11
 4 11 9 8.26 4.61
 4 11 10 18.33 5.67
 4 11 11 17.88 5.24
 4 12 -4 27.99 4.61
 4 12 -3 2.51 4
 4 12 -2 29.78 4.84
 4 12 -1 20.45 5.09
 4 12 0 0.55 4.02
 4 12 1 12.67 4.43
 4 12 2 26.62 6.03
 4 12 3 1.98 4.36
 4 12 4 28.38 6.18
 4 12 6 42.5 6.52
 4 12 7 29.25 5.94
 4 12 8 24.31 5.69
 4 12 9 5.33 4.61
 4 13 -4 2.21 3.34
 4 13 -3 19.52 4.99
 4 13 -2 -5.05 3.69
 4 13 -1 6.67 4.54
 4 13 0 12.56 4.99
 4 13 1 6.17 5.26
 4 13 2 0.73 4.2
 4 13 3 19.8 5.46
 4 13 5 -2.05 4.1
 4 14 -1 15.06 4.81
 4 14 0 17.79 5.18
 4 14 1 9.66 4.61
 5 -3 13 8.34 3.78
 5 -2 13 -1.22 2.86
 5 -1 10 49.42 4.99
 5 -1 11 113.6 6.36
 5 -1 12 4.06 3.12
 5 -1 13 83.15 5.84
 5 0 9 279.39 9.58
 5 0 10 144.15 7.16
 5 0 11 4.83 3.03
 5 0 12 55.93 5.18
 5 0 13 11.8 3.54
 5 0 14 85.95 5.88
 5 1 9 21.03 3.85
 5 1 10 51.67 5.43
 5 1 12 2.73 3.51
 5 1 13 87.29 6.25
 5 1 14 29.96 4.29
 5 2 -7 46.1 3.49
 5 2 6 3.18 2.87
 5 2 8 64.82 5.91
 5 2 9 11.65 3.65
 5 2 11 42.93 5.32
 5 2 12 12.13 3.53
 5 2 13 0.47 2.81
 5 2 14 62.88 5.61
 5 3 -7 51.51 3.61
 5 3 -5 2.17 2.05
 5 3 -3 49.3 4.28
 5 3 -2 50.63 4.38
 5 3 5 -0.6 2.44
 5 3 6 122.97 6.97
 5 3 7 49.9 5.41
 5 3 8 82.63 5.96
 5 3 9 26.83 4.65
 5 3 10 23.08 4.57
 5 3 11 8.72 3.86
 5 3 12 2.78 3.52
 5 3 13 8.19 3.58
 5 3 14 29.83 4.6
 5 4 -6 66.69 4.41
 5 4 -5 79.68 4.84
 5 4 3 42.1 4.51
 5 4 4 17.04 3.59
 5 4 5 79.7 5.81
 5 4 6 70.99 5.98
 5 4 7 27.87 4.43
 5 4 8 7.93 3.59
 5 4 9 115.82 7.22
 5 4 10 10.17 3.83
 5 4 11 33.19 4.72
 5 4 12 0.55 3.21
 5 4 14 9.04 3.38
 5 5 0 43.74 4.44
 5 5 1 27.71 3.96
 5 5 2 61.03 5.33
 5 5 3 34.02 4.73
 5 5 4 112.68 6.82
 5 5 5 57.21 5.58
 5 5 6 46.75 5.02
 5 5 7 139.9 7.8
 5 5 8 34.84 5.32
 5 5 9 38.04 5.22
 5 5 10 2.75 3.23
 5 5 11 1.64 3.93
 5 5 12 8.1 4.32
 5 5 13 26.18 5.05
 5 5 14 9.57 3.7
 5 5 15 16.45 4.21
 5 6 -3 115.48 6.37
 5 6 0 0.53 3.09
 5 6 1 23.46 4.41
 5 6 2 15.35 3.65
 5 6 4 6.14 2.89
 5 6 5 119.53 7.08
 5 6 6 18.96 4.39
 5 6 7 7.71 3.56
 5 6 8 44.76 6.07
 5 6 9 39.2 5.81
 5 6 10 12.23 4.17
 5 6 11 10.67 4.1
 5 6 13 31.26 5.48
 5 6 14 25 4.59
 5 6 15 27.92 5.04
 5 7 -5 26.48 3.6
 5 7 -2 6.15 2.92
 5 7 0 8.52 3.39
 5 7 1 58.7 5.85
 5 7 2 2.79 3.34
 5 7 3 8.84 3.4
 5 7 4 30.65 4.92
 5 7 5 26.23 4.96
 5 7 6 36.22 5.51
 5 7 7 47.64 5.52
 5 7 8 44.99 6.22
 5 7 9 86.2 7.37
 5 7 10 53.88 6.4
 5 7 11 25.18 5.47
 5 7 13 -1.97 4.06
 5 7 14 17.96 5.25
 5 8 -5 14.53 3.14
 5 8 -4 42.32 4.53
 5 8 -3 7.98 3.46
 5 8 -2 6.49 3.31
 5 8 -1 5 3.17
 5 8 0 16.37 4.47
 5 8 1 7.14 3.29
 5 8 2 9.87 3.7
 5 8 3 2.23 3.81
 5 8 4 45.47 5.39
 5 8 5 18.3 4.52
 5 8 7 31.1 5.23
 5 8 9 7.8 4.17
 5 8 10 38.73 6.11
 5 8 11 10.91 4.67
 5 8 12 15.17 4.78
 5 8 13 11.18 5.08
 5 9 -5 3.88 2.53
 5 9 -4 9.51 3.25
 5 9 -3 -0.06 2.76
 5 9 -2 21.22 4.11
 5 9 -1 11.4 3.66
 5 9 0 31.84 4.78
 5 9 3 3.77 3.74
 5 9 5 7.06 4.36
 5 9 6 31.62 5.83
 5 9 7 -1.63 4.34
 5 9 8 23.3 5.01
 5 9 9 21.54 5.17
 5 9 10 57.06 6.46
 5 9 11 11.77 4.61
 5 9 12 0.6 4.02
 5 10 -5 -0.9 1.79
 5 10 -4 29.7 4.77
 5 10 -3 10.55 3.99
 5 10 -1 34.05 5.08
 5 10 0 89.21 7.41
 5 10 1 36.82 5.43
 5 10 2 31.74 5.65
 5 10 3 11.01 4.61
 5 10 4 37.86 5.75
 5 10 5 0.72 4.31
 5 10 6 18.46 4.9
 5 10 7 2.05 3.98
 5 10 8 25.31 5.56
 5 10 9 24.11 6.25
 5 10 10 4.5 4.25
 5 10 11 6.23 4.53
 5 11 -3 15.56 4.2
 5 11 -2 40.58 6.25
 5 11 -1 30.12 5.35
 5 11 0 77.63 7.48
 5 11 1 39.54 5.88
 5 11 2 31.46 6.24
 5 11 3 9.13 5.07
 5 11 4 16.07 5.2
 5 11 5 18.53 4.76
 5 11 6 27.51 5.83
 5 11 7 -2.66 5.05
 5 11 8 23.32 6.35
 5 12 -3 16.12 4.45
 5 12 -2 11.73 5.05
 5 12 -1 44.81 6.5
 5 12 0 8.19 4.63
 5 12 1 52.08 6.71
 5 12 2 15.07 5.26
 5 12 3 20.54 5.39
 5 12 4 20.45 5.72
 5 12 5 20.94 6.19
 5 12 6 11.45 4.88
 5 13 -2 32.68 6.04
 5 13 -1 1.65 4.13
 5 13 0 36.27 5.91
 5 13 1 0.26 4.69
 5 13 2 38.97 6.46
 6 -3 12 6.53 3.57
 6 -3 13 6.25 3.8
 6 -2 12 8.36 3.91
 6 -2 13 -1.05 2.88
 6 -1 11 -0.22 3.13
 6 -1 12 5.54 4.3
 6 -1 13 1.63 3.85
 6 0 8 34.59 5.08
 6 0 10 90.15 6.99
 6 0 11 28.66 4.91
 6 0 12 -0.46 3.82
 6 0 13 7.75 4
 6 0 14 1.71 3.33
 6 1 6 36.92 5.01
 6 1 8 30.1 4.82
 6 1 9 16.65 4.75
 6 1 10 8.87 4.01
 6 1 12 6.01 3.82
 6 1 13 5.34 4.04
 6 1 14 13.55 4.47
 6 2 -6 52.02 4.69
 6 2 3 51.59 5.47
 6 2 6 55.17 6.02
 6 2 7 67.81 6.43
 6 2 8 14.52 4.23
 6 2 10 12.28 3.97
 6 2 11 31.85 5.18
 6 2 12 8.21 3.78
 6 2 13 0.41 3.57
 6 2 14 24.94 4.93
 6 3 -6 56.58 4.84
 6 3 -5 43.09 4.53
 6 3 -4 24.15 4.25
 6 3 -3 62.89 5.37
 6 3 -2 8.02 3.1
 6 3 -1 83.82 5.87
 6 3 0 160.5 7.77
 6 3 1 83.07 6.22
 6 3 2 12.09 3.79
 6 3 4 24.78 4.54
 6 3 5 35.43 4.93
 6 3 6 63.12 6.35
 6 3 7 18.52 4.84
 6 3 8 11.1 4.57
 6 3 9 17.93 4.45
 6 3 10 12.78 4.73
 6 3 12 2.42 3.66
 6 3 13 4.27 4.03
 6 3 14 29.91 4.96
 6 4 -6 9.13 2.93
 6 4 -5 113.22 6.26
 6 4 -4 36.26 4.69
 6 4 -3 82.66 6.04
 6 4 -2 60.96 5.62
 6 4 -1 27.59 4.55
 6 4 0 19.76 4.2
 6 4 1 24.4 4.39
 6 4 2 59.06 5.62
 6 4 3 80.33 6.08
 6 4 5 117.21 7.83
 6 4 6 14.15 3.98
 6 4 7 9.45 4.58
 6 4 9 18.99 5.11
 6 4 10 22.24 5.02
 6 4 11 6.22 4.82
 6 4 12 2.38 3.94
 6 4 13 8.83 4.82
 6 4 14 15.51 4.35
 6 5 -5 83.84 5.81
 6 5 -4 3.75 2.9
 6 5 -3 15.26 3.73
 6 5 -2 1.36 2.85
 6 5 -1 242.48 9.76
 6 5 0 11.4 4.03
 6 5 2 0.9 2.75
 6 5 3 14.06 4.28
 6 5 5 73.72 6.75
 6 5 6 11.44 4.16
 6 5 7 39.02 6.01
 6 5 8 12.54 4.47
 6 5 10 35.56 6.22
 6 5 11 11.26 4.32
 6 5 12 6.21 4.75
 6 5 13 10.33 4.57
 6 6 -5 36.4 4.43
 6 6 -4 44.21 5.21
 6 6 -3 86.49 6.39
 6 6 -1 180.1 8.83
 6 6 0 3.58 3.59
 6 6 1 174.43 8.82
 6 6 2 43.77 5.86
 6 6 3 83.17 6.48
 6 6 5 35.04 5.2
 6 6 6 19.26 4.64
 6 6 7 0.97 4.18
 6 6 8 -0.65 3.64
 6 6 9 13.81 4.48
 6 6 10 9.72 4.37
 6 6 11 0.57 4.04
 6 6 12 9.01 4.57
 6 6 13 15.74 5.19
 6 7 -5 6.02 3.19
 6 7 -4 16.81 4.1
 6 7 -3 2.56 3.32
 6 7 -1 63.63 6.44
 6 7 0 87.07 6.64
 6 7 1 54.11 5.73
 6 7 2 2 3.34
 6 7 3 2.02 4.11
 6 7 4 8.09 4.01
 6 7 5 4.18 3.93
 6 7 8 4.21 4.27
 6 7 9 6.67 4.83
 6 7 10 4.75 4.59
 6 7 11 33.3 6.35
 6 7 12 8 4.25
 6 8 -4 60.08 5.82
 6 8 -3 11.84 3.89
 6 8 -2 31.42 4.96
 6 8 -1 40.31 5.4
 6 8 0 74.17 7.01
 6 8 1 28.33 5.31
 6 8 2 27.58 5.44
 6 8 3 17.17 5.16
 6 8 4 59.5 6.67
 6 8 5 10.15 4.35
 6 8 6 4.62 4.16
 6 8 7 3.3 4.19
 6 8 9 44.89 6.21
 6 8 10 2.49 4.89
 6 8 11 10.91 5.45
 6 9 -4 -0.75 2.84
 6 9 -3 13.76 4.12
 6 9 -2 19.44 5.18
 6 9 -1 25.3 5.43
 6 9 0 4.37 3.78
 6 9 1 28.56 5.73
 6 9 2 12.15 5.3
 6 9 3 14.53 4.88
 6 9 4 3.4 4.11
 6 9 5 11.77 4.66
 6 9 6 34.4 6.45
 6 9 7 12.57 5.66
 6 9 8 10.41 4.79
 6 9 9 2.28 4.38
 6 9 10 21.66 5.29
 6 10 -4 30.65 4.52
 6 10 -3 15.88 4.43
 6 10 -2 5.33 3.76
 6 10 -1 16.68 4.51
 6 10 0 103.66 7.96
 6 10 1 21.99 5.08
 6 10 2 6.28 5.07
 6 10 3 16.54 5.38
 6 10 4 25.1 5.42
 6 10 5 12.09 5.19
 6 10 7 35.44 6.35
 6 10 8 20.03 5.85
 6 11 -3 14.31 4.92
 6 11 -2 23.65 5.23
 6 11 -1 6.54 4.19
 6 11 0 18.12 5.34
 6 11 1 8.63 4.52
 6 11 2 21.61 5.97
 6 11 3 16.68 5.8
 6 11 4 16.95 5.73
 6 11 5 9.28 5.01
 7 -4 12 10.8 4.8
 7 -3 11 13.01 4.52
 7 -2 11 35.03 6.11
 7 -2 12 -0.05 3.7
 7 -2 13 16.82 5.11
 7 -1 9 26.24 5.16
 7 -1 10 7.99 4.25
 7 -1 11 3.93 3.99
 7 -1 12 4.09 3.98
 7 -1 13 17.21 4.59
 7 0 7 -0.27 3.65
 7 0 8 14.44 5.22
 7 0 9 23.95 5.08
 7 0 12 2.06 4.15
 7 0 13 11.84 4.35
 7 1 5 65.65 6.29
 7 1 8 18.02 5.35
 7 1 9 31.13 5.4
 7 1 11 12.23 4.89
 7 1 12 -2.54 4.21
 7 1 13 21.7 5.02
 7 2 -7 0.89 1.97
 7 2 -6 28.12 3.99
 7 2 -5 -2.15 3.09
 7 2 -4 45.63 5.55
 7 2 -3 11.4 3.77
 7 2 -2 12.25 4.04
 7 2 -1 34.29 5.3
 7 2 0 -0.39 3.28
 7 2 1 31.59 5.39
 7 2 2 15.17 4.11
 7 2 4 37.41 5.47
 7 2 5 6.01 4.69
 7 2 6 35.43 5.86
 7 2 7 2.65 3.91
 7 2 8 44.77 6.14
 7 2 9 2.1 4.24
 7 2 10 38.39 6.42
 7 2 11 34.53 6.04
 7 2 12 0.54 4.07
 7 2 13 14.27 5.17
 7 3 -6 59.94 5.39
 7 3 -5 38.26 5.31
 7 3 -4 59.33 6.1
 7 3 -2 19.66 4.46
 7 3 0 1.3 3.4
 7 3 1 70.38 6.86
 7 3 2 15.32 4.25
 7 3 4 65.83 6.4
 7 3 5 32.92 5.71
 7 3 6 47 6.18
 7 3 7 17.06 5.65
 7 3 8 99.26 8.34
 7 3 9 22.19 5.95
 7 3 10 32.4 5.81
 7 3 11 10.81 4.7
 7 3 12 19.26 5.05
 7 4 -7 1.54 2.12
 7 4 -5 22.25 4.13
 7 4 -4 86.55 6.86
 7 4 -3 45.54 6.09
 7 4 -2 6.82 3.61
 7 4 -1 45 5.97
 7 4 0 9.22 4.24
 7 4 1 46.12 5.91
 7 4 2 3.94 4.26
 7 4 5 26.02 5.22
 7 4 6 54.62 7.27
 7 4 7 -1.53 3.63
 7 4 8 26.86 5.37
 7 4 11 15.51 5.54
 7 4 12 3.84 4.21
 7 5 -6 -1.6 1.94
 7 5 -5 9.23 3.18
 7 5 -3 22.42 5.04
 7 5 -2 8.51 4.11
 7 5 -1 13.28 4.23
 7 5 0 1.57 3.59
 7 5 1 14.66 4.51
 7 5 2 0.96 4.55
 7 5 3 17.25 4.76
 7 5 4 6.14 4.06
 7 5 5 6.1 4
 7 5 6 -2.83 3.48
 7 5 7 74.22 8.01
 7 5 9 5.07 4.68
 7 5 10 14.12 5.23
 7 5 11 12.16 5.68
 7 6 -5 31.1 4.34
 7 6 -4 12.73 4.26
 7 6 -3 34.05 5.28
 7 6 -2 8.12 4.2
 7 6 -1 0.84 3.55
 7 6 1 1.23 4.3
 7 6 3 25.98 5.28
 7 6 4 6.18 4.12
 7 6 7 6.47 4.77
 7 6 8 64.73 7.48
 7 6 9 25.63 6.37
 7 6 10 1.49 5.19
 7 7 -4 -1 3.05
 7 7 -2 14.36 4.25
 7 7 -1 36.18 5.79
 7 7 0 4.43 3.91
 7 7 1 39.53 6.16
 7 7 2 4.96 4.25
 7 7 3 3.79 4.19
 7 7 4 3.93 4.41
 7 7 5 4.58 5.32
 7 7 6 47.19 7.2
 7 7 7 27.7 5.8
 7 7 8 5.67 4.81
 7 7 9 4.11 4.52
 7 8 -4 4.55 3.28
 7 8 -3 14.93 4.9
 7 8 -1 35.8 6.2
 7 8 1 28.25 5.47
 7 8 2 -0.57 3.78
 7 8 3 11.66 4.67
 7 8 4 6.52 5.26
 7 8 5 9.37 5.29
 7 8 6 21.42 5.53
 7 8 7 20.28 6.16
 7 8 8 10 5.54
 7 9 -4 21.38 4.47
 7 9 -3 -2.46 3.18
 7 9 -2 31.45 5.73
 7 9 -1 30.15 5.42
 7 9 0 -3.4 3.79
 7 9 1 24.99 5.31
 7 9 2 30.74 5.79
 7 9 3 -0.55 3.92
 7 9 5 27.93 5.92
 7 9 6 7.62 4.93
 7 10 -2 13.19 4.51
 7 10 -1 1.21 3.72
 7 10 0 24.92 5.86
 7 10 1 0 4.17
 7 10 2 8.35 4.79
 8 -1 8 8.7 4.78
 8 -1 9 11.76 5.28
 8 -1 10 3.61 4.51
 8 0 5 103.35 8.26
 8 0 6 26.16 6.11
 8 0 8 15.92 5.82
 8 0 9 1.17 4.57
 8 0 10 2.88 4.39
 8 1 -6 7.89 3.6
 8 1 -4 3.15 3.81
 8 1 2 18.23 5.09
 8 1 3 5.84 4.97
 8 1 4 5.2 4.4
 8 1 5 28.01 5.54
 8 1 6 10.47 5.56
 8 1 7 23.89 5.74
 8 1 8 4.24 5.03
 8 1 9 18.55 5.97
 8 1 10 6.65 4.75
 8 2 -5 38.04 5.55
 8 2 -4 10.24 4.32
 8 2 -3 37.86 6.29
 8 2 -2 33.41 5.62
 8 2 -1 68.54 6.89
 8 2 0 10.62 4.49
 8 2 1 65.99 8.12
 8 2 2 34.9 6.03
 8 2 3 44.87 6.42
 8 2 5 41.9 6.53
 8 2 6 12.1 5.33
 8 2 7 5.2 4.95
 8 2 8 17.39 5.48
 8 3 -5 8.69 4.42
 8 3 -4 23.75 5.32
 8 3 -3 -0.07 4.15
 8 3 -2 25.11 5.4
 8 3 -1 16.54 4.82
 8 3 0 4.13 4.03
 8 3 1 15.83 5.11
 8 3 2 26.41 5.65
 8 3 3 4.38 5.01
 8 3 4 25.65 6.08
 8 3 5 7.17 5.48
 8 3 6 16.86 5.2
 8 3 8 34.07 6.47
 8 3 9 4.97 4.69
 8 4 -5 -0.6 2.95
 8 4 -4 10.89 4.19
 8 4 -3 7.64 4.18
 8 4 -2 1.05 4
 8 4 -1 23.11 5.19
 8 4 0 48.53 6.56
 8 4 1 15.84 4.98
 8 4 2 7.73 5.19
 8 4 3 -0.17 4.09
 8 4 4 6.16 4.61
 8 4 5 1.36 4.21
 8 4 6 5.92 4.79
 8 4 7 26.16 6.58
 8 4 8 25.13 6.01
 8 5 -4 39.33 5.82
 8 5 -3 3.21 3.99
 8 5 -1 53.15 6.55
 8 5 0 28.36 5.55
 8 5 1 41.28 6.26
 8 5 2 27.76 5.91
 8 5 3 5.66 4.63
 8 5 4 38.45 6.8
 8 5 5 13.03 5.47
 8 5 6 42.4 7.48
 8 5 7 8.02 4.96
 8 6 -3 13.35 4.83
 8 6 -2 39.65 6.6
 8 6 -1 40.78 6.19
 8 6 0 10.34 4.74
 8 6 1 45.56 6.83
 8 6 2 39.05 6.45
 8 6 3 11.02 5.21
 8 6 4 68.6 7.53
 8 6 5 4.95 4.51
 8 7 -4 8.05 3.71
 8 7 -3 4.26 4.38
 8 7 -2 7.7 4.37
 8 7 -1 6.2 4.53
 8 7 0 123.26 9.16
 8 7 1 5.52 5.13
 8 7 2 3.61 4.61
 8 7 3 11.71 5.19
 8 7 4 10.58 5.84
 9 0 -4 17.87 5.73
 9 0 -3 14.34 5.19
 9 0 2 6.07 5.02
 9 0 3 21.97 5.71
 9 0 4 22.42 5.85
 9 1 -4 7.49 4.43
 9 1 -3 -3.74 3.97
 9 1 -2 3.24 4.5
 9 1 -1 24.58 5.81
 9 1 0 4.89 4.61
 9 1 1 17.96 5.45
 9 1 2 1.54 4.48
 9 1 3 2.19 5.37
 9 1 4 -0.98 5.46
 9 2 -3 6.01 4.96
 9 2 -2 -3.08 4.21
 9 2 -1 3.67 4.62
 9 2 0 1.4 4.56
 9 2 1 -3.72 4.33
 9 2 2 -2.3 4.23
 9 2 3 5.34 5.9
 9 2 4 2.53 5.46
 9 3 -2 -1.51 4.46
 9 3 -1 1.54 5.03
 9 3 0 6.36 5.21
 9 3 1 1.16 5.56
 9 3 2 3.56 4.57
 0 0 -3 0.42 0.79
 0 0 -2 1573.38 6.33
 0 1 -5 1464.53 9.87
 0 1 -4 1953.16 9.93
 0 1 -3 542.21 4.47
 0 1 -2 4089.97 9.59
 0 2 -6 469.32 6.2
 0 2 -5 1146.09 8.52
 0 2 -4 1285.02 7.9
 0 2 -3 423.91 3.9
 0 3 -6 227.63 4.28
 0 3 -5 215.53 3.74
 0 3 -4 346.1 4.1
 0 4 -6 22 1.65
 0 4 -5 12.94 1.18
 0 4 -2 202.63 2.06
 0 5 -4 23.4 1.14
 0 5 -3 63.74 1.43
 0 5 -2 174.8 1.82
 0 5 -1 33.01 0.8
 0 6 -4 30.85 1.18
 0 6 -3 12.82 0.65
 1 -3 -5 390.01 5.77
 1 -3 -4 385.08 5.14
 1 -3 -3 54.18 1.86
 1 -3 -2 409.16 3.97
 1 -3 -1 126.68 1.87
 1 -2 -8 105.73 4.04
 1 -2 -7 1013.5 10.75
 1 -2 -6 14.87 1.7
 1 -2 -5 146.27 3.67
 1 -2 -3 1005.4 7.11
 1 -2 -2 131.47 2.41
 1 -2 -1 335.08 3.01
 1 -2 0 842.23 4.04
 1 -1 -9 547.78 9.18
 1 -1 -8 84.6 3.7
 1 -1 -6 614.3 7.73
 1 -1 -5 372.39 5.46
 1 -1 -4 247.3 4.23
 1 -1 -3 286.31 3.94
 1 -1 -2 3864.84 11.92
 1 0 -10 15.23 2.37
 1 0 -9 245.35 6.13
 1 0 -8 0.34 1.43
 1 0 -7 21.88 1.96
 1 0 -6 115 3.62
 1 0 -5 3.34 1.32
 1 0 -4 31.13 1.68
 1 0 -3 373.69 4.51
 1 0 -2 1289.61 7.09
 1 1 -10 16.43 2.43
 1 1 -9 543.6 8.9
 1 1 -7 123.64 3.81
 1 1 -6 629.92 7.69
 1 1 -5 366.24 5.42
 1 1 -4 233.82 4.03
 1 1 -3 289.69 3.9
 1 1 -2 3894.39 12.58
 1 2 -9 149.53 4.92
 1 2 -8 110.91 3.92
 1 2 -7 1007.56 10.43
 1 2 -6 15.16 1.87
 1 2 -5 145.25 3.44
 1 2 -4 119.82 2.98
 1 2 -3 1022.37 7.28
 1 2 -2 134.74 2.65
 1 3 -10 -0.38 1.69
 1 3 -9 757.47 10.3
 1 3 -8 21.22 2.11
 1 3 -7 62.61 2.98
 1 3 -6 149.79 3.81
 1 3 -5 375.38 5.49
 1 3 -4 380.6 5.04
 1 3 -3 51.67 1.89
 1 3 -2 426.21 4.59
 1 4 -10 250.69 6.44
 1 4 -9 3.13 1.58
 1 4 -8 23.59 2.15
 1 4 -7 51.94 2.71
 1 4 -6 123.48 3.54
 1 4 -5 380.95 5.43
 1 4 -4 207.48 3.76
 1 4 -3 51.02 1.97
 1 4 -2 99.03 2.32
 1 5 -10 52.99 3.44
 1 5 -9 22.7 2.28
 1 5 -8 130.2 4.16
 1 5 -7 4.3 1.27
 1 5 -6 110.3 3.34
 1 5 -5 31.04 1.8
 1 5 -4 184.18 3.61
 1 5 -3 314.03 4.33
 1 5 -2 510.19 5.2
 1 6 -10 165.05 5.26
 1 6 -9 9.22 1.88
 1 6 -8 57.24 3.01
 1 6 -7 179.85 4.41
 1 6 -6 58.41 2.51
 1 6 -5 10.95 1.27
 1 6 -4 129.19 3.02
 1 7 -9 30.23 2.49
 1 7 -8 83.14 3.31
 1 7 -7 51.89 2.53
 1 7 -6 152.28 3.74
 1 7 -2 37.06 1.61
 1 8 -5 29.01 1.59
 1 8 -4 108.63 2.62
 1 8 -3 8.53 1.04
 1 8 -2 54.36 1.81
 1 8 -1 202.43 3.4
 2 -5 -5 227.26 4.89
 2 -5 -4 136.51 3.48
 2 -5 -3 61.89 2.22
 2 -5 -2 186.15 3.17
 2 -5 -1 54.4 1.56
 2 -5 0 66.18 1.45
 2 -5 1 50.56 1.12
 2 -4 -8 21.1 2.51
 2 -4 -7 126.89 4.44
 2 -4 -6 7.15 1.52
 2 -4 -5 102.03 3.43
 2 -4 -4 223.39 4.44
 2 -4 -3 230.86 4.05
 2 -4 -2 395.85 4.67
 2 -4 -1 46.86 1.58
 2 -4 0 2418.01 9.31
 2 -3 -9 7.29 2.04
 2 -3 -8 1.83 1.71
 2 -3 -6 419.46 7
 2 -3 -5 442.19 6.55
 2 -3 -4 18.44 1.83
 2 -3 -3 373.25 5.12
 2 -3 -1 238.23 3.53
 2 -3 0 1700.65 8.69
 2 -2 -11 72.42 4.41
 2 -2 -9 27.01 2.62
 2 -2 -8 0.86 1.81
 2 -2 -7 708.03 9.6
 2 -2 -6 86.39 3.31
 2 -2 -5 601.42 7.58
 2 -2 -4 199.88 4.21
 2 -2 -3 283.44 4.65
 2 -2 -2 722.93 6.61
 2 -2 -1 0.2 0.84
 2 -1 -12 87.59 5.09
 2 -1 -11 38.67 3.41
 2 -1 -9 149.39 5.18
 2 -1 -8 161.17 4.97
 2 -1 -7 46.8 2.91
 2 -1 -6 49.1 2.67
 2 -1 -5 511.72 7.04
 2 -1 -4 95.25 2.99
 2 -1 -3 308.46 4.78
 2 -1 -2 755.19 6.93
 2 0 -12 31.88 3.95
 2 0 -9 10.62 2.46
 2 0 -8 1.4 1.39
 2 0 -6 79.6 3.2
 2 0 -5 79.8 2.95
 2 0 -4 130.65 3.65
 2 0 -3 269.74 4.68
 2 0 -2 833.71 7.5
 2 1 -8 161.94 4.99
 2 1 -7 46.35 2.71
 2 1 -6 49.14 2.76
 2 1 -5 527.84 7.31
 2 2 -9 26.65 2.64
 2 2 -8 0.91 1.72
 2 2 -7 706.03 9.5
 2 2 -6 89.99 3.47
 2 2 -5 620.39 8.02
 2 2 -3 290.08 5.07
 2 3 -12 30.54 3.76
 2 3 -9 11.01 2.3
 2 3 -8 3.25 1.84
 2 3 -7 107.81 3.89
 2 3 -6 412.93 6.91
 2 3 -5 442.77 6.86
 2 3 -4 21.09 1.95
 2 3 -3 378.85 5.79
 2 4 -13 62.54 4.73
 2 4 -12 9.01 2.73
 2 4 -11 38.13 3.55
 2 4 -9 97.77 4.38
 2 4 -8 16.56 2.29
 2 4 -7 125.35 4.21
 2 4 -5 94.28 3.34
 2 4 -4 211.54 4.58
 2 4 -3 226.53 4.57
 2 5 -12 20.58 3.09
 2 5 -11 2.47 2.07
 2 5 -8 211.76 5.66
 2 5 -6 189.33 4.9
 2 5 -5 226.6 5.1
 2 5 -4 140.8 3.96
 2 5 -3 63.11 2.59
 2 6 -12 -1.75 2.17
 2 6 -11 33.89 3.54
 2 6 -8 8.68 1.89
 2 6 -6 136.33 4.27
 2 6 -5 192.07 4.71
 2 6 -4 41.75 2.43
 2 6 -3 17.17 1.78
 2 7 -11 0.13 1.98
 2 7 -8 41.66 2.87
 2 7 -7 5.07 1.55
 2 7 -6 2.89 1.32
 2 7 -5 149.58 4.2
 2 7 -4 12.92 1.68
 2 7 -2 18.77 1.86
 2 8 -11 5.9 1.97
 2 8 -10 48.41 3.32
 2 8 -8 54.42 3.12
 2 8 -7 41.48 2.66
 2 8 -6 18.41 1.92
 2 8 -5 206.4 4.84
 2 8 -4 14.91 1.74
 2 8 -3 106.65 3.4
 2 8 -2 120.03 3.57
 3 -7 -4 108.66 3.26
 3 -7 -3 27.68 1.72
 3 -7 -2 33.17 1.58
 3 -7 -1 82.96 1.94
 3 -7 0 0.47 0.39
 3 -6 -7 26.75 2.52
 3 -6 -6 99.99 3.91
 3 -6 -5 59.41 2.99
 3 -6 -4 79.16 3.03
 3 -6 -3 75.27 2.73
 3 -6 -2 48.94 2.05
 3 -6 -1 68.38 2.11
 3 -6 0 135.11 2.65
 3 -6 1 68.67 1.79
 3 -6 2 47.4 1.52
 3 -5 -10 31.17 3.88
 3 -5 -7 19.99 2.59
 3 -5 -6 141.95 4.56
 3 -5 -5 33.7 2.61
 3 -5 -4 431.54 6.65
 3 -5 -3 56.43 2.53
 3 -5 -2 362.74 5.27
 3 -5 -1 29.53 1.72
 3 -5 0 141.63 3.05
 3 -5 1 25.61 1.47
 3 -4 -11 8.29 2.63
 3 -4 -10 25.98 3.15
 3 -4 -7 88.64 3.93
 3 -4 -6 248.82 5.86
 3 -4 -5 0.75 1.56
 3 -4 -4 156.45 4.23
 3 -4 -3 28.32 2.1
 3 -4 -2 10.97 1.37
 3 -4 -1 53.14 2.22
 3 -4 0 370.08 5.09
 3 -3 -12 14.59 2.91
 3 -3 -11 40.39 3.98
 3 -3 -10 4.99 2.38
 3 -3 -8 8.83 2.04
 3 -3 -7 11.01 2.01
 3 -3 -6 31.82 2.72
 3 -3 -5 196.48 5.05
 3 -3 -4 124.81 3.84
 3 -3 -3 5.64 1.34
 3 -3 -2 393.1 5.92
 3 -3 -1 61.34 2.46
 3 -2 -13 67.32 5.29
 3 -2 -12 21.93 3.24
 3 -2 -11 4.23 2.35
 3 -2 -10 69.47 4.18
 3 -2 -8 81.98 4.16
 3 -2 -7 355.13 7.42
 3 -2 -5 32.04 2.47
 3 -2 -3 362.2 6.1
 3 -2 -2 178.01 4.21
 3 -1 -13 29.4 3.83
 3 -1 -12 0.63 2.22
 3 -1 -11 115.36 5.44
 3 -1 -10 11.87 2.65
 3 -1 -8 19.7 2.49
 3 -1 -7 194.46 5.62
 3 -1 -6 34.98 2.54
 3 -1 -5 267.45 5.79
 3 -1 -4 129.93 4.13
 3 -1 -3 120.73 3.77
 3 -1 -2 161.86 4.13
 3 0 -14 168.54 7.59
 3 0 -13 16.2 3.4
 3 0 -12 72.11 4.66
 3 0 -11 15.65 2.79
 3 0 -8 10.47 2.24
 3 0 -7 2.32 1.67
 3 0 -6 15.75 2.04
 3 0 -5 -0.86 1.01
 3 0 -4 0.67 1.22
 3 0 -3 282.37 5.6
 3 1 -15 19.27 3.77
 3 1 -14 39.17 4.8
 3 1 -13 29.46 3.84
 3 1 -11 113.26 5.74
 3 1 -10 11.94 2.7
 3 1 -7 188.23 5.54
 3 1 -6 38.7 3.01
 3 2 -15 39.66 5
 3 2 -14 44.92 4.72
 3 2 -13 65.76 4.78
 3 2 -12 25.69 3.69
 3 2 -11 5.81 2.41
 3 2 -10 72.63 4.41
 3 2 -7 362.6 7.69
 3 2 -6 24.81 2.33
 3 2 -5 30 2.67
 3 2 -4 6.92 1.62
 3 2 -3 357.62 6.52
 3 3 -14 -0.03 2.6
 3 3 -13 3.46 2.61
 3 3 -12 11.64 2.78
 3 3 -10 2.99 2.33
 3 3 -7 11.66 2.24
 3 3 -6 30.51 2.51
 3 3 -5 192.52 5.37
 3 3 -4 127.55 4.29
 3 4 -15 10.51 3.32
 3 4 -14 43.98 5.28
 3 4 -13 28.06 3.91
 3 4 -12 15.13 3.01
 3 4 -11 7.24 2.44
 3 4 -10 19.87 3.13
 3 4 -7 83.6 4.21
 3 4 -5 3.2 1.59
 3 4 -4 149 4.71
 3 4 -3 25.04 2.53
 3 5 -15 4.89 3.46
 3 5 -14 74.32 5.31
 3 5 -12 6.71 2.74
 3 5 -11 38.65 3.89
 3 5 -10 30.17 3.24
 3 5 -9 41.89 3.4
 3 5 -6 141.68 4.82
 3 5 -5 38.96 2.99
 3 5 -4 431 7.68
 3 5 -3 59.12 3.1
 3 6 -14 7.92 2.96
 3 6 -12 7.99 2.79
 3 6 -11 16.42 2.94
 3 6 -10 96.33 4.99
 3 6 -9 39.49 3.35
 3 6 -6 100.55 4.22
 3 6 -5 57.76 3.24
 3 6 -3 82.61 3.82
 3 7 -14 46.81 4.74
 3 7 -13 4.66 2.57
 3 7 -12 27.06 3.54
 3 7 -11 1.66 2.17
 3 7 -10 64.12 4.48
 3 7 -9 77.58 4.39
 3 7 -8 139.23 5.36
 3 7 -5 50.34 3.34
 3 7 -4 108.6 4.29
 3 8 -13 17.71 3.2
 3 8 -12 47.78 4.18
 3 8 -11 14.53 2.8
 3 8 -10 138.29 5.7
 3 8 -9 5.98 2.04
 3 8 -4 2.91 1.52
 3 8 -3 3.01 1.76
 3 8 -2 25.38 2.46
 3 9 -7 20.81 2.58
 3 9 -3 13.55 1.97
 3 9 -2 35.22 2.84
 4 -7 -8 2.31 1.75
 4 -7 -5 4.81 1.56
 4 -7 -3 84.97 3.12
 4 -7 -2 7.41 1.38
 4 -7 -1 4.93 1.03
 4 -7 0 16.12 1.33
 4 -6 -10 1.05 2.62
 4 -6 -9 5.03 2.16
 4 -6 -8 5.15 2.04
 4 -6 -6 1.9 1.92
 4 -6 -4 8.66 1.69
 4 -6 -3 116.91 3.78
 4 -6 -2 133.91 3.76
 4 -6 0 148.63 3.63
 4 -6 1 188.96 3.98
 4 -6 2 135.72 3.34
 4 -5 -12 7.63 2.79
 4 -5 -11 14.11 3.04
 4 -5 -10 3.06 2.27
 4 -5 -9 14.74 2.79
 4 -5 -8 12.71 2.56
 4 -5 -5 60.35 3.31
 4 -5 -4 103.64 3.96
 4 -5 -3 3.96 1.51
 4 -5 -2 51.53 2.73
 4 -5 0 7.05 1.35
 4 -5 1 277.55 5.18
 4 -4 -13 11.85 3.33
 4 -4 -12 -1.95 2.15
 4 -4 -11 -0.35 2.11
 4 -4 -10 1.85 2.29
 4 -4 -9 29.65 3.62
 4 -4 -8 32.04 3.42
 4 -4 -6 26.89 3.03
 4 -4 -5 242.99 6.14
 4 -4 -4 257.35 6.01
 4 -4 -3 72.23 3.41
 4 -4 -1 69.27 3.1
 4 -4 0 711.15 8.61
 4 -3 -14 7.35 3.54
 4 -3 -13 34.52 4.53
 4 -3 -12 7.22 2.8
 4 -3 -11 0.05 2.56
 4 -3 -10 17.94 3.11
 4 -3 -9 34.89 3.73
 4 -3 -5 293.03 6.79
 4 -3 -4 82.76 3.79
 4 -3 -3 157.84 4.83
 4 -3 -2 27.22 2.33
 4 -3 -1 237.6 5.37
 4 -2 -14 17.88 3.81
 4 -2 -13 9.14 3.22
 4 -2 -11 2.35 2.35
 4 -2 -10 48.97 3.9
 4 -2 -9 24.26 3.09
 4 -2 -6 32.8 3.12
 4 -2 -4 173.92 5.24
 4 -2 -3 64.23 3.4
 4 -2 -2 514.58 8.14
 4 -1 -15 25.22 4.43
 4 -1 -14 8.65 3.21
 4 -1 -13 13.25 3.79
 4 -1 -12 57.18 4.68
 4 -1 -11 -1.32 2.12
 4 -1 -10 42.03 3.98
 4 -1 -9 133.87 5.72
 4 -1 -5 100.61 4.23
 4 -1 -3 33.05 2.56
 4 -1 -2 0.32 1.66
 4 0 -14 8.59 3.25
 4 0 -13 -0.4 2.22
 4 0 -12 16.58 3.36
 4 0 -11 19.11 3.3
 4 0 -9 78.45 4.55
 4 0 -4 3.27 1.56
 4 0 -3 46.09 2.91
 4 1 -16 19.86 4.29
 4 1 -15 20.7 4.59
 4 1 -14 10.89 3.41
 4 1 -13 15.85 3.74
 4 1 -12 53.7 4.87
 4 1 -11 1.23 2.28
 4 1 -10 41.62 4.13
 4 1 -9 124.29 5.6
 4 1 -8 279.06 7.77
 4 1 -5 97.97 4.28
 4 1 -4 80.92 3.81
 4 1 -3 34.73 2.64
 4 2 -16 10.52 3.99
 4 2 -15 12.17 3.67
 4 2 -13 13.01 3.86
 4 2 -12 33.12 4.21
 4 2 -11 1 2.38
 4 2 -10 40.19 4.15
 4 2 -9 27.08 3.27
 4 2 -8 -0.78 1.6
 4 2 -4 181.09 5.62
 4 2 -3 66.09 3.7
 4 3 -16 1.89 3.24
 4 3 -15 6.73 3.96
 4 3 -13 38.19 4.57
 4 3 -12 5.41 2.66
 4 3 -11 1.9 2.31
 4 3 -10 22 3.13
 4 3 -9 30.34 3.74
 4 3 -8 22.04 3.19
 4 3 -4 81.94 4.03
 4 3 -3 162.61 5.36
 4 4 -16 13.44 3.96
 4 4 -13 9.48 3.12
 4 4 -12 0.63 2.39
 4 4 -11 -0.47 2.15
 4 4 -10 3.2 2.58
 4 4 -9 29.96 3.37
 4 4 -8 37.77 3.64
 4 4 -7 34.75 3.51
 4 5 -16 12.8 4
 4 5 -15 25.94 4.23
 4 5 -14 8.49 3.39
 4 5 -13 8.94 3.48
 4 5 -12 11.4 3.56
 4 5 -11 17.54 3.45
 4 5 -10 -1.33 1.98
 4 5 -7 78.39 4.6
 4 6 -16 14.11 4.11
 4 6 -15 7.38 3.36
 4 6 -14 26.94 4.31
 4 6 -13 23.81 4.29
 4 6 -11 8.07 2.9
 4 6 -10 3.59 2.43
 4 6 -9 8.39 2.58
 4 6 -8 7.12 2.73
 4 6 -7 39.25 3.9
 4 6 -6 0.74 1.81
 4 7 -14 33.39 4.76
 4 7 -13 30.09 4.3
 4 7 -12 5.19 3.04
 4 7 -11 11.26 3.33
 4 7 -10 83.67 5.31
 4 7 -9 19.41 3.45
 4 7 -8 0.29 1.99
 4 7 -7 2.96 2.09
 4 7 -5 5.23 2.36
 4 7 -4 7.68 2.13
 4 8 -15 3.95 3.24
 4 8 -13 29.74 4.2
 4 8 -12 13.85 3.56
 4 8 -11 27.58 4.14
 4 8 -10 20.27 3.38
 4 8 -9 27.42 3.74
 4 8 -8 134.89 5.78
 4 8 -7 7.78 2.28
 4 8 -6 11.53 2.49
 4 8 -5 61.71 4.22
 4 8 -4 24.95 3.07
 4 8 -3 78.36 4.4
 4 8 -2 2.24 1.93
 4 9 -13 -3.56 1.81
 4 9 -12 16.22 3.05
 4 9 -11 2.99 2.19
 4 9 -10 100.47 5.41
 4 9 -9 57.74 4.35
 4 9 -8 49.54 4.07
 4 9 -7 42.99 3.78
 4 9 -6 46.77 3.8
 4 9 -5 28.57 3.5
 4 9 -4 3.13 1.93
 4 9 -3 3.77 2.17
 4 9 -2 21.31 2.84
 4 10 -4 32.9 3.08
 4 10 -3 31.67 3.05
 4 10 -2 0.45 1.5
 4 10 -1 129.47 5.33
 4 11 0 -0.98 1.11
 5 -7 -10 50.69 4.4
 5 -7 -9 80.42 4.8
 5 -7 -8 39.6 3.75
 5 -7 -7 38.43 3.51
 5 -7 -6 37.05 3.36
 5 -7 -4 31.13 2.69
 5 -7 -3 7.8 1.74
 5 -7 -2 2.38 1.48
 5 -7 -1 61.12 2.84
 5 -6 -11 12.75 3.52
 5 -6 -10 14.97 3.5
 5 -6 -9 39.27 4.17
 5 -6 -8 47.93 4.16
 5 -6 -7 5.39 2.13
 5 -6 -6 23.31 3.07
 5 -6 -3 128.22 4.55
 5 -6 -2 21.09 2.59
 5 -6 -1 23.95 2.36
 5 -6 0 1.2 1.35
 5 -6 1 21.91 2.17
 5 -6 2 14.1 1.8
 5 -6 3 126.25 4.06
 5 -5 -13 30.54 4.48
 5 -5 -12 3.13 2.9
 5 -5 -11 4.57 2.67
 5 -5 -10 -0.61 2.22
 5 -5 -9 53.69 4.66
 5 -5 -8 33.8 3.79
 5 -5 -7 137.85 5.83
 5 -5 -3 30.13 2.89
 5 -5 -1 30.07 2.76
 5 -5 0 40.05 2.92
 5 -5 1 28 2.55
 5 -4 -14 3.22 3
 5 -4 -13 0.86 2.89
 5 -4 -12 0.39 2.76
 5 -4 -11 28.82 4.28
 5 -4 -10 11.98 3
 5 -4 -9 114.74 6.07
 5 -4 -8 11.29 2.73
 5 -4 -7 33.45 3.23
 5 -4 -6 66.8 4.18
 5 -4 -3 39.89 3.01
 5 -4 -2 5.03 1.78
 5 -4 -1 130.59 4.75
 5 -4 0 18.08 2.29
 5 -3 -15 10.21 4.1
 5 -3 -14 30.84 4.87
 5 -3 -13 7.59 3.23
 5 -3 -12 -2.11 3.09
 5 -3 -11 9.24 3.04
 5 -3 -10 20.9 3.75
 5 -3 -9 22.71 3.37
 5 -3 -8 71.26 4.58
 5 -3 -7 45.79 3.62
 5 -3 -6 114 5.35
 5 -3 -2 54 3.5
 5 -3 -1 115.54 4.69
 5 -2 -15 32.05 5.03
 5 -2 -14 58.28 5.55
 5 -2 -13 -2.74 2.94
 5 -2 -12 16.88 3.65
 5 -2 -11 35.58 4.7
 5 -2 -10 48.71 4.82
 5 -2 -9 8.46 2.63
 5 -2 -7 46.2 4
 5 -2 -6 3.58 1.99
 5 -2 -2 64.24 3.89
 5 -1 -16 27.06 5.39
 5 -1 -15 -0.17 3.25
 5 -1 -13 87.28 6.57
 5 -1 -12 5.05 2.98
 5 -1 -11 111.45 6.18
 5 -1 -10 49.76 4.32
 5 -1 -9 21.13 3.24
 5 -1 -8 7.59 2.4
 5 -1 -7 45.39 3.98
 5 0 -16 0.17 3.18
 5 0 -15 78.56 6.71
 5 0 -14 93.47 6.86
 5 0 -13 9.24 3.58
 5 0 -12 57.46 4.98
 5 0 -11 5.36 2.9
 5 0 -9 281.79 8.62
 5 0 -8 3.95 2.28
 5 0 -7 -1.28 1.69
 5 0 -6 11.97 2.62
 5 1 -16 22.33 4.56
 5 1 -15 1.54 3.99
 5 1 -14 37.85 5.02
 5 1 -13 79.77 6.46
 5 1 -12 1.99 3
 5 1 -10 47.21 4.45
 5 1 -9 24.24 3.71
 5 1 -8 5.17 2.21
 5 1 -7 46.49 4.21
 5 1 -6 32.89 3.42
 5 1 -5 15.83 2.68
 5 2 -16 42.45 5.77
 5 2 -15 33.8 5
 5 2 -14 61.14 6.08
 5 2 -13 3.48 3.66
 5 2 -12 17.52 3.93
 5 2 -11 37.24 4.41
 5 2 -10 48.26 4.69
 5 2 -9 15.3 3.19
 5 2 -8 73.04 4.81
 5 2 -7 45.03 4.14
 5 2 -6 1.15 2.04
 5 2 -5 7.49 2.15
 5 2 -4 17.5 2.74
 5 3 -16 30.83 5
 5 3 -15 3.28 3.76
 5 3 -13 10.19 3.54
 5 3 -12 3.19 2.74
 5 3 -11 9.37 3.06
 5 3 -10 22.06 3.6
 5 3 -9 20.97 3.45
 5 3 -8 75.88 5.16
 5 3 -7 54.63 4.42
 5 3 -6 117.33 5.48
 5 3 -5 0.2 1.87
 5 3 -4 32.82 3.09
 5 3 -3 54.24 3.83
 5 4 -16 -1.26 3.17
 5 4 -15 16.81 4.76
 5 4 -14 5.13 3.52
 5 4 -13 4.18 3.13
 5 4 -12 4.97 3.08
 5 4 -11 37.19 4.45
 5 4 -10 11.57 3.16
 5 4 -9 117.24 6.38
 5 4 -8 9.29 2.64
 5 4 -7 33.92 4.09
 5 4 -5 81.77 4.74
 5 4 -4 13.66 2.64
 5 4 -3 38.31 3.42
 5 5 -15 24.64 4.57
 5 5 -14 6.38 3.5
 5 5 -13 39.34 5.26
 5 5 -12 3.48 3.01
 5 5 -11 2.32 2.84
 5 5 -10 -1.06 2.44
 5 5 -9 43.94 4.41
 5 5 -7 147.1 6.52
 5 5 -6 47.23 4.02
 5 5 -5 49.77 4.09
 5 5 -4 105.41 5.46
 5 5 -3 25.71 3.4
 5 6 -15 18.46 4.19
 5 6 -13 36.38 4.73
 5 6 -12 0.07 2.74
 5 6 -11 8.47 3.05
 5 6 -9 45.34 4.73
 5 6 -8 45.67 4.31
 5 6 -7 3.82 2.97
 5 6 -6 20.32 3.25
 5 6 -5 119.11 5.67
 5 6 -4 4.62 2.36
 5 6 -3 125.45 5.89
 5 7 -14 23.68 4.31
 5 7 -13 3.58 3.26
 5 7 -12 59.9 5.67
 5 7 -11 24.02 4.01
 5 7 -10 51.3 4.7
 5 7 -9 71.42 5.33
 5 7 -8 39.49 4.82
 5 7 -7 39.33 4
 5 7 -6 31.26 3.82
 5 7 -5 28.03 3.92
 5 7 -3 6.43 2.37
 5 7 -2 3.32 2.32
 5 8 -13 13.99 3.74
 5 8 -12 12.89 3.63
 5 8 -11 9.61 3.11
 5 8 -10 43.38 4.6
 5 8 -9 3.51 3.05
 5 8 -7 31.32 4.06
 5 8 -6 41.24 3.97
 5 8 -5 11.3 2.96
 5 8 -4 46.04 4.48
 5 8 -3 3.28 2.36
 5 8 -2 9.6 2.64
 5 9 -12 8.96 3.48
 5 9 -11 14.95 3.47
 5 9 -10 53.35 4.91
 5 9 -9 25.2 3.83
 5 9 -8 23.5 3.83
 5 9 -7 -0.93 2.13
 5 9 -6 43.39 4.42
 5 9 -5 5.06 2.49
 5 9 -4 7.68 2.55
 5 9 -3 1.93 2.57
 5 9 -2 24.99 3.5
 5 9 -1 14.92 2.98
 5 10 -8 31.99 4.08
 5 10 -7 6.23 2.29
 5 10 -6 21.31 3.34
 5 10 -4 34.99 3.83
 5 10 -3 13.34 3.26
 5 10 -2 24.2 3.45
 5 10 -1 35.23 4.06
 5 11 0 82.28 4.91
 6 -7 -10 0.13 2.36
 6 -7 -9 -0.39 2.3
 6 -7 -8 1.7 2.47
 6 -7 -7 2.19 2.37
 6 -7 -5 3.57 1.92
 6 -7 -4 13.63 2.34
 6 -6 -12 4.04 3.12
 6 -6 -11 -1.02 2.54
 6 -6 -10 11.83 3.09
 6 -6 -9 17.22 3.16
 6 -6 -8 1.64 2.26
 6 -6 -7 4.39 2.75
 6 -6 -6 18.45 2.93
 6 -6 -5 40.49 3.78
 6 -6 -4 50.13 3.64
 6 -6 -3 76.62 4.03
 6 -6 -2 38.14 3.07
 6 -5 -13 16.2 4
 6 -5 -12 11.5 3.66
 6 -5 -11 7.53 3
 6 -5 -10 39.24 4.6
 6 -5 -9 3.53 2.98
 6 -5 -8 10.26 2.78
 6 -5 -7 34.87 4.11
 6 -5 -6 9.61 2.57
 6 -5 -5 74.63 4.46
 6 -5 -4 7.49 2.28
 6 -5 -3 12.55 2.37
 6 -5 -2 6.22 2.27
 6 -4 -14 9.23 3.68
 6 -4 -13 13.13 3.89
 6 -4 -12 -1.14 3.13
 6 -4 -11 7.17 3.47
 6 -4 -10 21.41 3.82
 6 -4 -9 13.46 3.61
 6 -4 -8 49.81 4.55
 6 -4 -7 11.66 2.94
 6 -4 -6 6.4 2.6
 6 -4 -5 121.98 5.69
 6 -4 -4 44.35 3.77
 6 -4 -3 78.61 4.52
 6 -4 -2 50.21 4.02
 6 -4 -1 28.97 3.01
 6 -4 0 12 2.54
 6 -3 -13 6.89 3.47
 6 -3 -12 7.54 3.62
 6 -3 -11 4.85 3.18
 6 -3 -10 12.02 3.57
 6 -3 -9 17.66 3.43
 6 -3 -8 11.13 3.1
 6 -3 -7 18.87 3.53
 6 -3 -6 55.78 4.67
 6 -3 -5 35.2 3.66
 6 -3 -4 31.31 3.3
 6 -3 -3 70.2 4.59
 6 -3 -2 12.64 2.6
 6 -3 0 151.7 5.73
 6 -2 -15 2.93 3.91
 6 -2 -14 26.79 4.78
 6 -2 -13 2.81 3.93
 6 -2 -12 6.69 3.33
 6 -2 -11 31.14 4.84
 6 -2 -10 19.48 3.83
 6 -2 -9 51.04 4.78
 6 -2 -8 10.95 3.07
 6 -2 -6 49.62 4.31
 6 -2 -5 36.52 3.62
 6 -2 -4 40.22 4.14
 6 -2 -2 183.34 6.72
 6 -2 -1 36.68 3.38
 6 -1 -15 -1.21 3.61
 6 -1 -14 7.93 3.78
 6 -1 -13 3.08 4.12
 6 -1 -12 5.57 3.35
 6 -1 -11 2.01 3.07
 6 -1 -10 4.21 3.34
 6 -1 -9 14.93 3.36
 6 -1 -8 31.71 4.09
 6 -1 -7 85.95 5.6
 6 -1 -6 38.62 4.29
 6 -1 -5 67.17 4.76
 6 -1 -4 53.51 4.09
 6 -1 -3 4.18 2.34
 6 -1 -2 24 3.16
 6 -1 -1 40.1 3.98
 6 0 -15 13.27 4.13
 6 0 -14 1.37 3.59
 6 0 -13 1.7 3.25
 6 0 -12 -0.38 3.15
 6 0 -11 30.87 4.89
 6 0 -10 98.86 6.34
 6 0 -8 34.05 4.22
 6 0 -7 199.61 7.79
 6 0 -6 54.18 4.83
 6 0 -5 95.22 5.32
 6 0 -4 5.71 2.46
 6 0 -3 0.97 1.88
 6 0 -2 51.53 4.42
 6 1 -15 2.4 3.4
 6 1 -14 7.19 3.97
 6 1 -13 7.04 3.72
 6 1 -12 7.91 3.49
 6 1 -11 5.49 3.23
 6 1 -10 4.88 3.2
 6 1 -9 8.02 3.25
 6 1 -8 37.37 4.56
 6 1 -7 88.17 5.44
 6 1 -6 36.15 3.74
 6 1 -5 73.25 5.02
 6 1 -4 50.48 4.18
 6 1 -3 5.45 2.62
 6 1 -2 25.34 3.42
 6 2 -15 2.86 3.69
 6 2 -12 5.46 3.22
 6 2 -10 16.67 3.91
 6 2 -9 54.3 5.31
 6 2 -8 10.37 3.05
 6 2 -7 62.96 4.93
 6 2 -6 51.96 4.6
 6 2 -5 32.72 4.2
 6 2 -4 43.61 3.99
 6 2 -3 48.95 4.53
 6 2 -2 184.1 7.12
 6 3 -14 33.22 5.04
 6 3 -13 9.98 4.07
 6 3 -11 6.05 3.35
 6 3 -10 14.04 3.64
 6 3 -9 20.31 3.81
 6 3 -8 8.33 3.31
 6 3 -7 24.61 3.98
 6 3 -6 55.66 4.66
 6 3 -5 35.92 4.34
 6 3 -4 30.22 4.17
 6 3 -3 59.86 4.41
 6 3 -2 12.94 3.09
 6 4 -13 13.82 4.11
 6 4 -12 -3 3.22
 6 4 -11 5.56 3.9
 6 4 -10 16.33 4.19
 6 4 -9 21.36 4.4
 6 4 -8 43.76 5.04
 6 4 -6 13.36 3.16
 6 4 -5 123.52 6.52
 6 4 -4 39.77 4.43
 6 4 -3 76.21 5.02
 6 4 -2 55.53 5.05
 6 5 -13 15.21 4.58
 6 5 -12 10.89 3.84
 6 5 -11 11.47 3.64
 6 5 -10 36.26 4.76
 6 5 -9 2.51 2.9
 6 5 -7 37.57 4.98
 6 5 -6 9.39 3.09
 6 5 -5 75.64 5.2
 6 5 -4 5.2 2.83
 6 5 -3 7.43 3.02
 6 5 -2 1.14 2.45
 6 6 -13 13.67 4.06
 6 6 -12 1.69 3.41
 6 6 -11 -2.31 3.28
 6 6 -9 18.22 4.14
 6 6 -8 -1.88 2.64
 6 6 -7 6.97 3.11
 6 6 -6 16.43 3.62
 6 6 -5 43.89 4.77
 6 6 -4 46.92 4.99
 6 6 -3 76.6 5.45
 6 6 -2 51.32 4.65
 6 7 -12 6.85 4.14
 6 7 -11 49.63 5.92
 6 7 -10 4.78 3.46
 6 7 -9 6.27 3.63
 6 7 -8 0.28 3.31
 6 7 -7 1.67 2.71
 6 7 -5 6.32 3.06
 6 7 -4 13.28 3.57
 6 7 -3 -3.58 2.73
 6 7 -2 2.03 2.81
 6 8 -11 11.95 3.72
 6 8 -10 -0.52 2.9
 6 8 -8 70.29 5.63
 6 8 -7 1.25 2.68
 6 8 -6 -0.45 2.5
 6 8 -5 8.03 3.46
 6 8 -4 58.67 5.4
 6 8 -3 9.07 3.17
 6 8 -1 35.92 4.62
 6 9 -10 27.95 4.52
 6 9 -9 2.03 3
 6 9 -7 19.1 3.62
 6 9 -6 42.12 4.85
 6 9 -5 14.85 3.37
 6 9 -4 0.88 3.02
 6 9 -3 12.72 3.79
 6 9 -2 18.84 4.05
 6 10 -8 22.59 3.79
 6 10 -7 29.64 4.09
 6 10 -6 15.48 3.64
 6 10 -4 36.02 4.73
 6 10 -3 18.32 3.74
 6 10 -2 6.55 3.1
 6 10 -1 25.52 4.27
 6 10 0 88.18 6.16
 6 11 -4 12.28 2.96
 6 11 -3 18.74 3.47
 6 11 -2 22.79 3.73
 6 11 -1 8.48 3.15
 6 11 0 20.05 3.6
 6 11 1 2.07 2.73
 7 -6 -10 1.18 2.92
 7 -6 -9 24.32 3.88
 7 -6 -7 7.87 2.74
 7 -6 -6 7.03 3.05
 7 -6 -5 36.17 4.2
 7 -6 -4 9.77 2.68
 7 -6 -2 9.22 2.54
 7 -6 -1 0.5 1.8
 7 -5 -11 9.33 3.47
 7 -5 -10 11.51 3.33
 7 -5 -9 6.16 3.2
 7 -5 -8 29.14 4.36
 7 -5 -7 76.76 5.33
 7 -5 -6 -2.6 2.7
 7 -5 -5 10.54 2.85
 7 -5 -4 -0.6 2.38
 7 -5 -3 22.38 3.26
 7 -5 -2 5.88 2.36
 7 -5 -1 16.54 2.96
 7 -5 0 -1.59 2.08
 7 -5 1 13.61 2.98
 7 -5 2 5.51 2.25
 7 -5 3 21.42 3.08
 7 -5 4 3.49 2.53
 7 -4 -12 6.07 3.41
 7 -4 -11 9.54 3.95
 7 -4 -10 65.59 5.95
 7 -4 -8 32.78 4.76
 7 -4 -7 2.39 2.68
 7 -4 -6 65.86 5.39
 7 -4 -5 28.5 3.91
 7 -4 -4 92.65 5.36
 7 -4 -3 48.81 4.46
 7 -4 -2 5.53 2.74
 7 -4 -1 41.71 4.23
 7 -4 0 7.79 2.88
 7 -4 1 44.78 4.07
 7 -4 2 3.11 2.36
 7 -3 -12 22.64 4.39
 7 -3 -11 11.23 4.21
 7 -3 -9 23.3 4.17
 7 -3 -8 81.65 6
 7 -3 -7 20.84 4.26
 7 -3 -6 52.79 4.76
 7 -3 -5 36.77 4.25
 7 -3 -4 60.3 5.06
 7 -3 -2 12.06 3.33
 7 -3 0 0.88 2.3
 7 -3 1 74.42 4.91
 7 -2 -13 8.94 3.8
 7 -2 -12 3.86 4.03
 7 -2 -9 1.59 2.88
 7 -2 -8 44.66 5.52
 7 -2 -6 37.43 4.59
 7 -2 -5 4.26 2.7
 7 -2 -4 39.7 4.55
 7 -2 -3 12.92 3.22
 7 -2 -2 17.95 3.53
 7 -2 -1 41.17 4.78
 7 -2 0 1.54 2.78
 7 -1 -13 21.54 4.7
 7 -1 -12 3.62 3.8
 7 -1 -11 4.61 3.26
 7 -1 -10 12.95 4.21
 7 -1 -9 27.91 4.47
 7 -1 -8 12.82 3.62
 7 -1 -7 24.77 4.25
 7 -1 -6 19.29 3.98
 7 -1 -5 68.43 5.58
 7 -1 -4 59.29 5.2
 7 -1 -2 36.33 4.03
 7 -1 -1 98.44 5.78
 7 -1 0 190.56 7.68
 7 0 -13 13.36 4.52
 7 0 -12 9.1 3.76
 7 0 -11 0.39 3.09
 7 0 -10 1.83 3.6
 7 0 -9 26.32 4.36
 7 0 -8 5.75 3.23
 7 0 -7 1 2.93
 7 0 -6 1.69 3.34
 7 0 -5 8 3.31
 7 0 -4 -2.17 2.35
 7 0 -3 -0.29 2.43
 7 0 -1 2.73 2.48
 7 1 -13 18.53 4.72
 7 1 -12 -2.21 3.91
 7 1 -11 11.21 3.81
 7 1 -10 13.61 3.95
 7 1 -9 34.57 5.34
 7 1 -8 16.57 3.98
 7 1 -7 26.34 4.35
 7 1 -6 24.25 3.96
 7 1 -5 73.21 5.76
 7 1 -4 64.67 5.43
 7 1 -3 2.73 2.79
 7 1 -2 34.01 4.76
 7 1 -1 99.77 6.23
 7 2 -13 15 4.58
 7 2 -12 -0.64 3.49
 7 2 -11 36.58 5.15
 7 2 -10 44.45 5.87
 7 2 -9 3.16 3.82
 7 2 -8 48.65 5.34
 7 2 -7 3.65 3.13
 7 2 -6 25.36 4.15
 7 2 -5 2.48 2.62
 7 2 -4 42.87 4.93
 7 2 -3 16.31 3.79
 7 2 -2 17.7 3.96
 7 3 -12 26.23 5.06
 7 3 -9 29.16 4.7
 7 3 -8 93.66 6.65
 7 3 -7 18.21 4.28
 7 3 -6 61.18 5.98
 7 3 -5 28.62 4.66
 7 3 -4 59.97 5.61
 7 3 -3 48.92 4.78
 7 3 -2 18.9 3.77
 7 3 -1 75.75 6.21
 7 4 -12 9.89 3.97
 7 4 -11 18.48 4.78
 7 4 -9 77.14 6.18
 7 4 -8 32.79 4.8
 7 4 -7 5.48 3.21
 7 4 -6 61.53 5.82
 7 4 -5 31.32 4.92
 7 4 -3 48.41 5.01
 7 4 -2 6.09 3.05
 7 5 -11 19 4.81
 7 5 -10 15.35 4.06
 7 5 -9 4.36 3.36
 7 5 -8 38.7 5.29
 7 5 -7 75.11 6.53
 7 5 -6 2.95 3.75
 7 5 -5 11.47 3.66
 7 5 -4 3.14 2.95
 7 5 -3 24.35 4.19
 7 5 -2 4.84 3.34
 7 5 -1 10.79 3.71
 7 6 -10 3.33 4.16
 7 6 -9 26.44 4.81
 7 6 -8 51.18 5.4
 7 6 -7 11.55 3.56
 7 6 -5 38.17 5.39
 7 6 -4 12.43 4.01
 7 6 -2 14.53 3.85
 7 6 -1 -0.83 3.52
 7 7 -9 8.57 3.69
 7 7 -8 12.13 3.85
 7 7 -7 27 4.66
 7 7 -6 49.93 5.84
 7 7 -5 5.19 3.95
 7 7 -4 -0.65 2.9
 7 7 -3 8.14 3.5
 7 7 -2 8.22 3.76
 7 7 -1 31.3 4.91
 7 8 -8 8.63 4
 7 8 -7 23.44 4.59
 7 8 -6 30.27 4.65
 7 8 -5 6.71 3.4
 7 8 -3 11.75 4.18
 7 8 -2 3.32 3.26
 7 8 -1 37.81 5.56
 7 8 0 54.57 5.54
 7 9 -5 33.46 4.79
 7 9 -4 35.17 5.16
 7 9 -3 -0.41 3.29
 7 9 -2 28.72 4.49
 7 9 -1 26.63 4.98
 7 9 0 -0.29 3.06
 7 10 -2 16.01 4.35
 7 10 -1 2.92 3.13
 7 10 0 23.02 4.36
 7 10 1 2.14 3.76
 8 -5 -7 14.64 3.44
 8 -5 -5 18.31 3.79
 8 -5 -3 6.85 2.65
 8 -5 -2 26.5 4
 8 -5 -1 40.48 4.37
 8 -5 0 30.59 4.02
 8 -5 1 42.72 4.2
 8 -5 2 29.84 4.07
 8 -4 -8 28.86 4.82
 8 -4 -7 18 3.85
 8 -4 -6 9.02 3.3
 8 -4 -5 -1.45 2.84
 8 -4 -4 4.97 2.87
 8 -4 -3 8.1 3.32
 8 -4 -2 4.3 3.04
 8 -4 -1 23.84 3.73
 8 -4 0 49.28 4.92
 8 -4 2 2.99 2.68
 8 -4 3 0.97 2.44
 8 -4 4 9.25 3.08
 8 -3 -9 3.72 4.02
 8 -3 -8 37.7 5.35
 8 -3 -7 11.69 3.64
 8 -3 -6 23.53 4.49
 8 -3 -5 11.88 3.54
 8 -3 -4 25.29 4.44
 8 -3 -3 4.55 2.85
 8 -3 -2 17.71 3.8
 8 -3 -1 11.64 3.47
 8 -3 0 7.5 2.99
 8 -3 1 12.21 3.42
 8 -3 2 22.94 4.13
 8 -3 3 -0.4 3.12
 8 -2 -9 21.06 4.39
 8 -2 -7 12.81 3.89
 8 -2 -6 12.18 3.88
 8 -2 -4 15.08 3.85
 8 -2 -3 38.18 4.97
 8 -2 -2 45.23 5.38
 8 -2 -1 69.85 5.89
 8 -2 0 9.65 3.34
 8 -1 -10 7.81 3.89
 8 -1 -8 9.56 3.92
 8 -1 -7 40.25 5.14
 8 -1 -6 7.85 3.76
 8 -1 -5 25.48 4.34
 8 -1 -4 9.96 3.91
 8 -1 -3 9.09 3.35
 8 -1 -2 22.76 4.58
 8 -1 0 3.11 3.12
 8 -1 1 121.34 7.41
 8 0 -10 2.63 4.21
 8 0 -9 0.67 3.33
 8 0 -8 19.65 4.81
 8 0 -7 10.84 3.71
 8 0 -6 33.37 5.38
 8 0 -5 92.88 6.48
 8 0 -4 74.04 6.35
 8 0 -3 30.99 4.63
 8 0 -1 88.14 6.5
 8 0 0 3.92 3.05
 8 0 1 90.71 6.74
 8 1 -10 -1.22 3.51
 8 1 -9 9.13 3.96
 8 1 -8 6.24 3.85
 8 1 -7 29.67 4.91
 8 1 -6 13.24 4.09
 8 1 -5 32.52 5.1
 8 1 -4 7.15 3.47
 8 1 -3 16.41 4.1
 8 1 -2 22.73 4.46
 8 1 -1 125 7.21
 8 1 0 5.17 3.72
 8 2 -9 14.46 4.3
 8 2 -8 22.28 4.86
 8 2 -7 8.67 3.89
 8 2 -6 14.58 4.36
 8 2 -5 35.72 4.94
 8 2 -4 21.38 4.33
 8 2 -3 42.08 5.33
 8 2 -2 38.42 5.27
 8 2 -1 63.36 5.74
 8 3 -9 10.12 4.29
 8 3 -8 41.48 5.65
 8 3 -7 21.8 4.66
 8 3 -6 22.18 4.59
 8 3 -4 21.72 4.55
 8 3 -3 -1.38 2.93
 8 3 -2 21.69 4.31
 8 3 -1 15.99 4.55
 8 3 0 5.36 3.97
 8 4 -8 30.78 5.51
 8 4 -7 21.01 4.56
 8 4 -6 9.89 4.5
 8 4 -5 -1.32 3.3
 8 4 -4 11.72 4.77
 8 4 -3 3.25 3.46
 8 4 -2 7.26 3.59
 8 4 -1 20.11 4.95
 8 4 0 55.85 6.47
 8 5 -7 13.84 4.55
 8 5 -6 53.26 6.1
 8 5 -4 34.46 5.2
 8 5 -3 -2.65 3.39
 8 5 -2 25.4 4.93
 8 5 -1 48.05 5.55
 8 5 0 34.02 5.23
 8 6 -6 32.83 5.41
 8 6 -5 8.55 3.88
 8 6 -4 78.43 7.13
 8 6 -3 10.65 4.04
 8 6 -2 39.8 5.55
 8 6 -1 36.21 5.61
 8 6 0 16.5 5.02
 8 7 -4 6.91 4.69
 8 7 -3 -1.09 3.24
 8 7 -2 1.94 3.5
 8 7 -1 5.97 3.8
 8 7 0 107.72 7.78
 8 7 1 3.01 4
 9 -3 -2 2.9 3.34
 9 -3 -1 7.11 3.73
 9 -3 0 7.12 3.51
 9 -3 1 7.05 3.17
 9 -3 2 2.59 2.99
 9 -2 -4 -1.32 3.04
 9 -2 -3 12.73 3.87
 9 -2 -2 -1.65 2.93
 9 -2 -1 -1 2.85
 9 -2 0 3.61 3.19
 9 -2 1 -0.82 2.98
 9 -2 2 -1.48 2.9
 9 -2 3 10.26 4.1
 9 -2 4 1.22 3.26
 9 -1 -4 1.74 3.2
 9 -1 -3 1.9 3.8
 9 -1 -2 1.04 4.02
 9 -1 -1 24.32 5
 9 -1 0 12.82 4.33
 9 -1 1 30.48 4.89
 9 -1 2 -1.13 3.01
 9 -1 3 3.73 3.69
 9 -1 4 2.16 3.57
 9 0 -4 30 5
 9 0 -3 21.28 4.55
 9 0 -1 1.28 3.38
 9 0 1 -0.5 3.11
 9 0 2 2.03 3.76
 9 0 3 27.82 5.09
 9 1 -4 4.89 4.02
 9 1 -3 2.19 4.16
 9 1 -2 2.09 4.29
 9 1 -1 27.8 5.55
 9 1 0 3.36 4.03
 9 1 1 24.88 4.87
 9 1 2 5.22 3.82
 9 2 -4 -4.58 3.09
 9 2 -3 3.47 4.13
 9 2 -2 -1.59 3.8
 9 2 -1 1.29 4.06
 9 2 0 -0.96 3.42
 9 2 1 -2.13 3.39
 9 2 2 2.93 4.06
 9 3 -2 1.95 3.6
 9 3 -1 4.26 3.9
 9 3 0 6.04 4.11
 9 3 1 5.61 4.65
 9 3 2 3.55 3.96
 -8 5 -5 17.1 4.13
 -8 6 -6 26.38 4.99
 -8 6 -5 6.05 3.47
 -8 6 -4 80.04 6.23
 -8 7 -4 5.95 3.52
 -8 7 -3 6.63 3.38
 -7 3 -5 25.39 3.97
 -7 3 -4 61.24 4.75
 -7 3 -3 45.25 4.21
 -7 3 -2 19.62 3.2
 -7 4 -7 2.28 3.45
 -7 4 -6 62.12 5.44
 -7 4 -4 81.38 5.72
 -7 4 -2 7.1 2.94
 -7 4 -1 44.53 4.04
 -7 4 0 9.14 2.82
 -7 5 -8 27.66 5.19
 -7 5 -6 -0.52 3.17
 -7 5 -5 7.25 3.22
 -7 5 -4 1.77 2.92
 -7 5 -3 19.43 4.09
 -7 5 -2 3 2.67
 -7 5 -1 15.01 3.47
 -7 5 0 1.55 2.3
 -7 5 1 13.22 3.05
 -7 6 -9 23.12 5.22
 -7 6 -8 67.28 7.02
 -7 6 -7 13.16 3.99
 -7 6 -6 10.61 4.02
 -7 6 -5 44.72 5.62
 -7 6 -3 30.32 4.69
 -7 6 -2 12.07 3.48
 -7 6 -1 -1.17 2.48
 -7 6 0 47.12 4.94
 -7 6 1 -1.38 2.07
 -7 6 2 11.13 3.24
 -7 7 -9 8.07 4.45
 -7 7 -8 6.62 4.39
 -7 7 -7 28.09 5.36
 -7 7 -6 37.75 5.37
 -7 7 -5 6.11 3.69
 -7 7 -4 3.62 4.04
 -7 7 -3 7.15 3.42
 -7 7 -2 13.18 3.91
 -7 7 -1 37.55 5.02
 -7 7 0 4.6 3.13
 -7 7 2 12.51 3.51
 -7 7 3 5.6 2.76
 -7 8 -8 5.76 4.56
 -7 8 -7 24.37 5.04
 -7 8 -6 21.87 4.91
 -7 8 -5 8.34 4.37
 -7 8 -4 5.7 3.79
 -7 8 -3 7 3.69
 -7 8 -2 3.97 3.69
 -7 8 0 56 6.15
 -7 8 1 31.25 4.55
 -7 8 2 2.23 3.29
 -7 8 3 14.61 3.61
 -7 9 -6 11.5 4.21
 -7 9 -5 33.83 5.83
 -7 9 -4 15.03 4.69
 -7 9 -3 0.12 3.41
 -7 9 -1 26.68 4.62
 -7 9 0 -2 3.01
 -7 9 1 35.39 5.06
 -7 9 2 33.04 4.67
 -7 9 3 2.27 3.4
 -7 9 4 21.84 4.26
 -7 10 -1 5.2 4.07
 -7 10 1 -1.74 3.58
 -7 10 2 7.14 4.1
 -6 1 -3 6.78 2.45
 -6 1 -2 25.24 2.7
 -6 1 -1 42.53 2.95
 -6 1 1 38.46 2.4
 -6 2 -6 46.51 4.87
 -6 2 -2 188.03 6.2
 -6 2 -1 39.54 3.11
 -6 2 0 15.86 2.37
 -6 2 1 40.82 2.88
 -6 2 2 191.29 4.91
 -6 3 -8 7.34 4.02
 -6 3 -7 22.84 4.01
 -6 3 -6 55.56 4.92
 -6 3 -4 27.91 3.81
 -6 3 -1 82.45 4.46
 -6 3 0 152.98 5.5
 -6 3 1 78.25 4.09
 -6 3 2 6.6 1.86
 -6 3 3 62.56 3.4
 -6 3 4 24.66 2.43
 -6 4 -9 18.28 4.52
 -6 4 -6 6.41 3.07
 -6 4 -5 121.62 6.49
 -6 4 -4 38.5 4.42
 -6 4 -3 88.53 5.43
 -6 4 2 50.89 3.79
 -6 4 3 77.53 4.18
 -6 4 4 33.41 2.97
 -6 4 5 110.87 4.58
 -6 5 -10 31.12 5.15
 -6 5 -9 -0.95 3.23
 -6 5 -8 10.76 3.81
 -6 5 -7 32.44 4.85
 -6 5 -6 7.39 3.42
 -6 5 -5 75.4 5.52
 -6 5 -4 9.4 3.08
 -6 5 -3 11.25 3.05
 -6 5 -2 4.85 2.8
 -6 5 -1 258.55 8.45
 -6 5 0 10.38 2.75
 -6 6 -11 -1.76 4
 -6 6 -10 16.68 4.97
 -6 6 -9 10.52 4.52
 -6 6 -8 0.6 3.64
 -6 6 -7 8.89 3.89
 -6 6 -4 52.72 5.09
 -6 6 -3 85.18 5.96
 -6 6 0 3.75 2.76
 -6 6 2 47.36 4.16
 -6 6 3 79.83 4.9
 -6 6 4 48.75 4.15
 -6 6 5 41.69 4.13
 -6 6 6 18.05 3.35
 -6 6 7 3.34 2.44
 -6 7 -12 0.48 4.48
 -6 7 -11 37.4 6.14
 -6 7 -10 -4.84 3.35
 -6 7 -9 -0.13 3.56
 -6 7 -8 3.37 3.66
 -6 7 -7 2.15 3.4
 -6 7 -6 127.98 7.67
 -6 7 -4 11.82 3.72
 -6 7 -2 2.34 3.43
 -6 7 -1 49.13 5.3
 -6 7 1 47.04 5.3
 -6 7 2 1.42 2.64
 -6 7 3 1.73 2.77
 -6 7 4 13.55 3.28
 -6 7 5 4.53 2.7
 -6 7 6 136.13 6.61
 -6 7 7 4.16 3.09
 -6 8 -11 18.31 5.91
 -6 8 -10 2.5 4.72
 -6 8 -8 91.39 7.89
 -6 8 -7 -0.22 3.54
 -6 8 -6 0.56 3.42
 -6 8 -5 9.97 3.97
 -6 8 -4 65.24 6.14
 -6 8 -3 14.28 4.03
 -6 8 -2 27.6 4.51
 -6 8 -1 33.93 4.66
 -6 8 0 79.02 5.91
 -6 8 2 22.13 4.23
 -6 8 3 12 3.45
 -6 8 5 7.77 3.11
 -6 8 6 -0.38 3.15
 -6 8 7 4.89 3.53
 -6 8 8 81.07 5.74
 -6 9 -10 30.41 6.33
 -6 9 -9 -1.15 3.82
 -6 9 -8 11.25 4.59
 -6 9 -7 13.39 4.49
 -6 9 -6 42.36 5.92
 -6 9 -5 15.81 4.53
 -6 9 -4 4.23 3.59
 -6 9 -2 17.89 4.32
 -6 9 -1 20.74 4.74
 -6 9 0 3.06 3.78
 -6 9 1 26.04 4.54
 -6 9 2 21.68 4.25
 -6 9 3 16.67 4.39
 -6 9 4 2.58 3.2
 -6 9 5 11.07 3.6
 -6 9 6 43.71 5.37
 -6 9 7 15.3 3.77
 -6 9 8 5.57 3.68
 -6 9 9 -2.97 2.57
 -6 10 -8 18.44 5.29
 -6 10 -7 36.27 6.27
 -6 10 -6 8.25 4.61
 -6 10 -5 7.1 4.77
 -6 10 -4 30.26 5.81
 -6 10 -3 19.35 5.26
 -6 10 -2 11.45 4.26
 -6 10 -1 21.25 4.72
 -6 10 0 96.76 7.64
 -6 10 1 20.18 4.54
 -6 10 2 10.34 4.1
 -6 10 3 18.88 4.38
 -6 10 4 33.44 5.16
 -6 10 5 7.15 3.89
 -6 10 6 14.97 4.16
 -6 10 7 35.42 4.93
 -6 10 8 20.53 4.66
 -6 11 -5 5.98 4.39
 -6 11 -4 8.57 4.67
 -6 11 -2 29.54 5.36
 -6 11 -1 10.41 4.49
 -6 11 0 22.31 5.28
 -6 11 1 5.36 3.96
 -6 11 2 26.28 5.1
 -6 11 3 17.19 4.81
 -6 11 4 18.74 5.06
 -6 11 5 11.63 4.61
 -5 0 -1 17.48 2.12
 -5 0 0 -0.2 1.11
 -5 0 1 16.99 1.49
 -5 0 2 -0.63 0.54
 -5 0 3 2.05 0.54
 -5 1 -5 16.7 2.88
 -5 1 -4 108.83 5.01
 -5 1 -3 21.11 2.65
 -5 1 -2 9.98 1.95
 -5 1 1 70.59 2.86
 -5 1 2 12.53 1.54
 -5 1 3 23.8 1.71
 -5 1 4 109.69 2.78
 -5 1 5 16.97 1.33
 -5 2 -8 67.42 5.32
 -5 2 -7 41.58 4.44
 -5 2 -5 6.33 2.55
 -5 2 -4 15.72 2.75
 -5 2 -2 67.62 3.88
 -5 2 -1 77.12 3.82
 -5 2 0 96.2 3.96
 -5 2 1 75.52 3.41
 -5 2 2 67.96 3.1
 -5 2 3 6.31 1.36
 -5 2 4 21.94 1.96
 -5 2 5 5.15 1.33
 -5 2 6 3.15 1.17
 -5 2 7 48.73 2.56
 -5 3 -9 25.92 4.38
 -5 3 -7 49.01 4.57
 -5 3 -4 31.92 3.64
 -5 3 -3 45.45 3.93
 -5 3 -2 54.56 3.78
 -5 3 0 8.38 2.33
 -5 3 2 55.52 3.32
 -5 3 5 0.55 1.4
 -5 3 6 118.07 4.2
 -5 3 7 52.05 3.08
 -5 3 8 77.82 3.67
 -5 4 -10 14.28 4.16
 -5 4 -9 114.5 7.31
 -5 4 -8 8.4 3.23
 -5 4 -7 25.75 3.98
 -5 4 -6 70.17 5.54
 -5 4 -2 3.61 2.25
 -5 4 -1 130.13 5.58
 -5 4 0 15.93 2.81
 -5 4 1 128.67 5.1
 -5 4 2 6.32 2.02
 -5 4 3 37.93 3.31
 -5 4 4 17.4 2.51
 -5 4 5 75.95 3.92
 -5 4 8 5.7 2.09
 -5 5 -11 4.29 3.94
 -5 5 -10 -1.78 3.05
 -5 5 -9 47.2 5.19
 -5 5 -7 147.56 7.66
 -5 5 -6 40.04 4.44
 -5 5 -5 56.75 4.93
 -5 5 -4 113.89 6.16
 -5 5 1 22.61 3.06
 -5 5 2 56.11 3.85
 -5 5 3 25.15 3.08
 -5 5 4 101.69 4.79
 -5 5 9 51.57 4.19
 -5 5 10 0.52 2.37
 -5 5 11 3.57 2.16
 -5 6 -12 2.11 4.02
 -5 6 -11 7.45 3.93
 -5 6 -10 15.47 4.86
 -5 6 -9 52.27 6.14
 -5 6 -8 41.73 4.82
 -5 6 -6 27.11 4.19
 -5 6 -5 115.37 6.78
 -5 6 -4 6.55 2.85
 -5 6 -3 136.47 6.6
 -5 6 -2 15.64 3.21
 -5 6 6 18.1 3.16
 -5 6 7 2.64 2.23
 -5 6 8 46.88 4.46
 -5 6 10 8.07 3.03
 -5 6 11 14.32 3.14
 -5 6 12 0.34 2.43
 -5 7 -13 -1.12 4.12
 -5 7 -12 55.43 6.89
 -5 7 -11 32.55 5.62
 -5 7 -9 90.02 6.93
 -5 7 -8 39.33 5.42
 -5 7 -7 43.21 5.27
 -5 7 -5 29.95 4.5
 -5 7 -4 31.7 4.7
 -5 7 -3 4.72 2.83
 -5 7 -2 3.35 3.02
 -5 7 -1 59.16 5.08
 -5 7 0 7.62 2.78
 -5 7 1 56.12 5.04
 -5 7 2 1.2 2.4
 -5 7 3 7.46 2.79
 -5 7 4 28.24 3.92
 -5 7 5 28.35 3.86
 -5 7 6 39.05 4.08
 -5 7 10 47.46 4.97
 -5 7 11 22.91 3.94
 -5 7 12 52.47 5.25
 -5 8 -13 13.32 5.7
 -5 8 -12 8.02 4.65
 -5 8 -11 10.03 4.5
 -5 8 -10 42.32 6.09
 -5 8 -9 11 4.61
 -5 8 -6 44.19 5.6
 -5 8 -5 20.27 4.45
 -5 8 -4 46.37 5.3
 -5 8 -3 5.41 3.18
 -5 8 -2 6.62 3.27
 -5 8 0 7.98 3.47
 -5 8 1 3.09 2.69
 -5 8 2 5.58 2.85
 -5 8 3 5.5 2.84
 -5 8 4 47.53 4.58
 -5 8 5 13.63 3.54
 -5 8 7 34.31 4.97
 -5 8 8 62.03 5.73
 -5 8 11 13.12 3.66
 -5 8 12 10.9 3.5
 -5 9 -12 9.71 4.55
 -5 9 -11 16.01 4.9
 -5 9 -10 40.51 6.48
 -5 9 -9 25.11 5.27
 -5 9 -8 29.53 5.4
 -5 9 -7 2.06 3.74
 -5 9 -6 29.99 5.01
 -5 9 -5 5.79 3.73
 -5 9 -4 11.82 4.12
 -5 9 -3 2.77 3.21
 -5 9 -2 17.95 4.16
 -5 9 -1 14.09 4.28
 -5 9 0 36.27 4.86
 -5 9 1 14.6 3.78
 -5 9 2 22.65 4.33
 -5 9 3 3.52 3.25
 -5 9 4 9.91 3.67
 -5 9 5 5.81 3.43
 -5 9 6 33.2 4.63
 -5 9 7 -0.24 2.79
 -5 9 8 26.04 4.48
 -5 9 10 46.99 5.77
 -5 9 11 10.21 3.57
 -5 9 12 4.19 3.2
 -5 10 -11 3.77 4.35
 -5 10 -10 7.67 4.98
 -5 10 -8 35.83 5.76
 -5 10 -7 7.5 4.26
 -5 10 -6 15.56 4.99
 -5 10 -5 2.84 3.69
 -5 10 -4 35.67 5.36
 -5 10 -3 10.15 3.85
 -5 10 -2 35.02 5.58
 -5 10 -1 34.51 5.53
 -5 10 1 25.27 5.02
 -5 10 2 30.64 4.82
 -5 10 3 15.35 4.04
 -5 10 4 36.33 5.3
 -5 10 5 3.06 3.71
 -5 10 6 24.77 4.97
 -5 10 7 6.86 3.79
 -5 10 8 25.14 4.9
 -5 10 9 16.21 4.33
 -5 10 10 4.85 3.59
 -5 10 11 -0.91 2.97
 -5 11 -9 17.03 5.27
 -5 11 -8 23.21 5.52
 -5 11 -7 6.18 5.02
 -5 11 -6 31.19 5.74
 -5 11 -5 21.81 5.07
 -5 11 -4 21.54 5.13
 -5 11 -3 14.23 4.42
 -5 11 -2 30.99 5.27
 -5 11 0 71.29 6.89
 -5 11 1 30.64 5.46
 -5 11 2 36.41 5.37
 -5 11 3 16.53 4.71
 -5 11 4 17.94 4.29
 -5 11 5 20.41 4.69
 -5 11 6 30.47 5.03
 -5 11 7 6.23 3.91
 -5 11 8 23.57 4.93
 -5 11 9 11.13 4.17
 -5 12 -6 14.44 5.74
 -5 12 -5 17.08 5.66
 -5 12 -4 14.17 5.17
 -5 12 -3 14.74 5.44
 -5 12 -2 17.68 5.27
 -5 12 1 63.65 7.58
 -5 12 2 5.8 4.05
 -5 12 3 11.55 4.39
 -5 12 4 25.18 5.33
 -5 12 5 14.88 4.78
 -5 12 6 10.4 4.37
 -5 13 -2 34.55 6.17
 -5 13 -1 -0.81 3.77
 -5 13 0 33.46 6.25
 -5 13 1 5.77 4.24
 -4 0 -4 2.78 1.78
 -4 0 -3 48.36 3.07
 -4 0 -2 56.06 2.85
 -4 0 -1 1.5 1.12
 -4 0 0 87.57 2.78
 -4 0 1 -0.02 0.74
 -4 0 2 57.75 1.79
 -4 0 3 43.28 1.39
 -4 0 4 3.47 0.57
 -4 0 5 37.54 1.21
 -4 0 6 0.84 0.54
 -4 0 7 129.85 2.67
 -4 1 -7 94.24 5.2
 -4 1 -6 127.41 5.42
 -4 1 -5 103.65 4.64
 -4 1 -2 0.4 1.29
 -4 1 0 441.44 6.48
 -4 1 1 126.63 3.41
 -4 1 2 0.93 0.92
 -4 1 3 35.93 1.87
 -4 1 4 81.18 2.51
 -4 1 5 97.67 2.73
 -4 1 6 127.84 3.22
 -4 2 -9 32.2 4.09
 -4 2 -5 198.7 6.53
 -4 2 -4 187.15 5.9
 -4 2 -3 68.72 3.88
 -4 2 -2 520.01 8.54
 -4 2 -1 2.3 1.42
 -4 2 0 75 3.28
 -4 2 1 2.49 1.3
 -4 2 3 63.14 2.8
 -4 2 4 183.19 4.31
 -4 2 5 195.02 4.52
 -4 2 6 33.43 2.32
 -4 3 -10 20.83 3.91
 -4 3 -9 29.68 4.37
 -4 3 -6 250.9 7.83
 -4 3 -5 281.94 7.87
 -4 3 -4 76.73 4.42
 -4 3 -3 154 5.41
 -4 3 -2 27.74 2.69
 -4 3 -1 232.82 5.95
 -4 3 0 891.12 11.06
 -4 3 1 249.86 5.86
 -4 3 2 29.13 2.46
 -4 3 3 153.92 4.59
 -4 3 6 252.2 5.9
 -4 4 -11 3.46 2.95
 -4 4 -10 2.18 2.83
 -4 4 -8 38.46 4.44
 -4 4 -5 221.78 7.23
 -4 4 -4 252.58 7.59
 -4 4 -3 73.13 4.28
 -4 4 -2 339.61 7.99
 -4 4 -1 67.38 3.73
 -4 4 0 716.5 10.71
 -4 4 2 331.24 7.26
 -4 4 3 69.6 3.62
 -4 4 4 247.8 6.25
 -4 4 5 238.31 6.39
 -4 5 -12 12.19 4.23
 -4 5 -11 15.93 4.08
 -4 5 -10 0.22 2.67
 -4 5 -9 14.13 3.46
 -4 5 -8 12.57 3.24
 -4 5 -7 82.86 5.55
 -4 5 -3 1.59 2
 -4 5 -2 51.94 4.12
 -4 5 -1 264.68 7.32
 -4 5 0 8.75 2.18
 -4 5 1 270.76 7.29
 -4 5 2 57.46 3.96
 -4 5 4 103.04 4.84
 -4 5 5 64.41 4.13
 -4 5 6 89.5 4.83
 -4 6 -13 16.94 4.7
 -4 6 -12 0.04 3.54
 -4 6 -9 7.01 3.11
 -4 6 -8 2.69 2.69
 -4 6 -7 37.97 4.61
 -4 6 -6 3.7 2.79
 -4 6 -5 41.91 4.36
 -4 7 -13 28.87 5.39
 -4 7 -12 6.06 4.87
 -4 7 -10 81.08 6.92
 -4 7 -9 20.52 4.2
 -4 7 -8 3.56 3.16
 -4 7 -7 5.61 2.97
 -4 7 -6 73.05 5.51
 -4 7 -4 5.52 2.68
 -4 7 -3 86.2 5.46
 -4 7 -2 6.45 2.68
 -4 7 5 6.19 2.67
 -4 7 7 2.63 2.69
 -4 8 -14 9.53 4.76
 -4 8 -13 30.86 5.93
 -4 8 -12 10.22 4.09
 -4 8 -9 25.11 4.61
 -4 8 -8 133.56 8.05
 -4 8 -6 12.38 3.72
 -4 8 -4 31.25 4.32
 -4 8 -3 74.02 5.42
 -4 8 -2 4.3 2.76
 -4 8 -1 20.81 3.7
 -4 8 0 63.4 5.19
 -4 8 1 22.64 3.88
 -4 8 3 77.05 5.74
 -4 8 4 32.04 4.38
 -4 8 5 59.11 5.32
 -4 8 6 6.56 2.89
 -4 8 7 7.48 3.24
 -4 9 -14 38.35 7.06
 -4 9 -13 1.44 4.21
 -4 9 -12 22.81 5.93
 -4 9 -10 108.91 8.46
 -4 9 -8 59.02 5.97
 -4 9 -7 38.19 5.62
 -4 9 -6 46.57 5.44
 -4 9 -4 3.21 3.1
 -4 9 -3 6.61 3.81
 -4 9 -2 18 3.7
 -4 9 -1 146.91 7.36
 -4 9 0 -1.63 2.77
 -4 9 1 135.17 7.24
 -4 9 2 16.87 3.67
 -4 9 3 6.02 3.04
 -4 9 4 7.43 3.21
 -4 9 5 25.06 4.13
 -4 9 6 54.51 5.63
 -4 9 7 52.66 6.32
 -4 9 8 49.96 5.92
 -4 9 9 57.23 6.03
 -4 10 -12 4.45 4.54
 -4 10 -11 46.49 6.75
 -4 10 -10 11.91 5.03
 -4 10 -9 19.03 4.92
 -4 10 -8 4.88 4.12
 -4 10 -7 14.32 4.38
 -4 10 -5 26.02 4.88
 -4 10 -4 46.02 5.74
 -4 10 -3 18.63 4.65
 -4 10 -2 0.75 2.91
 -4 10 -1 135.47 7.81
 -4 10 0 117.39 7.44
 -4 10 2 -2.26 2.8
 -4 10 3 25.76 4.49
 -4 10 4 37.97 5.49
 -4 10 5 20.74 4.26
 -4 10 6 72.63 6.5
 -4 10 7 11.91 4.34
 -4 10 8 6.24 3.57
 -4 10 9 23.27 4.71
 -4 10 10 8.83 4.03
 -4 10 12 1.59 3.53
 -4 11 -10 25.71 5.77
 -4 11 -9 8.54 4.73
 -4 11 -8 26.15 5.34
 -4 11 -7 55.06 6.64
 -4 11 -6 23.98 5.21
 -4 11 -5 28.69 5.23
 -4 11 -4 2.14 3.71
 -4 11 -3 54.31 5.89
 -4 11 -2 46.63 5.81
 -4 11 0 3.85 3.69
 -4 11 1 29.59 5.06
 -4 11 2 39.42 5.76
 -4 11 3 52.67 6.19
 -4 11 4 -0.93 3.14
 -4 11 5 24.87 4.72
 -4 11 6 27.95 4.96
 -4 11 7 60.17 6.15
 -4 11 9 3.72 3.73
 -4 11 10 11.89 5.1
 -4 11 11 11.53 5.16
 -4 12 -9 0.91 4.11
 -4 12 -8 27.01 5.91
 -4 12 -7 23.25 5.27
 -4 12 -6 40.62 6.44
 -4 12 -5 20.99 5.37
 -4 12 -4 29.54 5.38
 -4 12 -3 2.1 3.7
 -4 12 -2 31.04 5.63
 -4 12 -1 11.28 4.41
 -4 12 0 1.72 3.62
 -4 12 1 13.4 4.38
 -4 12 3 3.53 3.79
 -4 12 4 20.06 4.87
 -4 12 5 19.73 4.97
 -4 12 6 45.68 6.2
 -4 12 7 23.53 5.44
 -4 12 8 31.25 5.35
 -4 13 -6 6 4.98
 -4 13 -5 2.19 4.19
 -4 13 -4 -1.58 3.98
 -4 13 -3 22.14 5.21
 -4 13 -2 -1.04 3.81
 -4 13 -1 13.56 4.64
 -4 13 0 13.65 4.95
 -4 13 1 9.55 4.79
 -4 13 2 0.38 3.81
 -4 13 3 17.12 4.91
 -4 13 4 0.44 4.67
 -4 13 5 1.34 4.6
 -4 13 6 -0.13 4.04
 -4 14 0 18.48 5.28
 -4 14 1 15.45 5.37
 -3 0 -4 1.14 1.57
 -3 0 -3 276.26 5.54
 -3 0 -2 97.65 3.26
 -3 0 -1 729.36 7.17
 -3 0 0 1.11 0.83
 -3 0 1 754.36 5.75
 -3 0 2 98.16 2.01
 -3 0 3 279.06 3.04
 -3 0 4 0.83 0.52
 -3 1 -7 189.57 6.43
 -3 1 -6 36.22 3.1
 -3 1 -4 124.15 4.31
 -3 1 -3 118.22 3.97
 -3 1 -1 173.94 3.99
 -3 1 0 1.14 0.96
 -3 1 1 187.83 3.62
 -3 1 2 164.22 3.24
 -3 1 3 120.94 2.77
 -3 2 -8 83.93 4.91
 -3 2 -7 353.67 8.69
 -3 2 -6 25.78 3.04
 -3 2 -4 7.94 2.06
 -3 2 -3 362.1 6.93
 -3 2 -2 166.42 4.48
 -3 2 -1 137 3.97
 -3 2 0 508.57 6.95
 -3 2 1 130.85 3.47
 -3 2 2 180.37 3.96
 -3 2 3 354.33 5.54
 -3 3 -10 2.41 2.2
 -3 3 -7 13.37 2.59
 -3 3 -6 33.68 3.36
 -3 3 -5 195.35 6.02
 -3 3 -4 123.75 4.8
 -3 3 -3 5.4 1.66
 -3 3 -2 391.6 7.23
 -3 3 0 134.26 4.14
 -3 3 1 59.15 2.81
 -3 3 2 391.97 6.65
 -3 3 3 1.98 1.28
 -3 4 -11 10.59 3.03
 -3 4 -6 242.04 7.4
 -3 4 -5 4.54 2.08
 -3 4 -4 148.6 5.6
 -3 4 -3 32.05 2.85
 -3 4 -1 53.96 3.15
 -3 4 0 373.33 7.39
 -3 4 1 55.07 3.05
 -3 4 2 12.85 2
 -3 4 3 25.81 2.6
 -3 5 -12 6.9 3.19
 -3 5 -10 29.22 4.35
 -3 5 -9 50.63 4.82
 -3 5 -5 33.13 3.34
 -3 5 -4 414.85 9.22
 -3 5 -3 55.74 3.96
 -3 5 -2 372.58 8.15
 -3 5 -1 32.1 3.04
 -3 5 1 25.62 2.65
 -3 6 -13 20.71 4.31
 -3 6 -12 7.01 3.53
 -3 6 -11 21.85 4.55
 -3 6 -10 93.22 6.32
 -3 6 -9 38.08 4.72
 -3 6 -7 29.82 3.65
 -3 6 -4 72.38 4.5
 -3 6 -3 76.73 4.5
 -3 6 -2 50.77 3.71
 -3 6 -1 73.74 4.15
 -3 6 0 138.9 5.59
 -3 6 1 71.76 4.41
 -3 6 3 76.34 4.33
 -3 7 -14 39.63 6.29
 -3 7 -13 9.68 3.97
 -3 7 -12 22.76 4.55
 -3 7 -11 3.16 3.08
 -3 7 -10 64.8 5.73
 -3 7 -9 90.64 6.26
 -3 7 -8 170.08 7.56
 -3 7 -7 43.26 4.23
 -3 7 -6 87.17 5.65
 -3 7 -5 42.9 3.97
 -3 8 -14 14.44 4.79
 -3 8 -13 18.37 4.6
 -3 8 -12 39.27 5.73
 -3 8 -11 10.39 4.29
 -3 8 -10 144.57 8.27
 -3 8 -9 3.88 3.62
 -3 8 -8 97.57 6.71
 -3 8 -6 25.61 3.88
 -3 8 -5 27.83 3.91
 -3 8 -4 0.03 1.89
 -3 8 -3 2 2.42
 -3 8 -2 24.34 3.75
 -3 8 -1 45.99 4.16
 -3 8 3 2.69 2.19
 -3 8 4 3.84 2.85
 -3 8 5 17.87 3.36
 -3 9 -14 20.6 5.23
 -3 9 -13 -3.41 3.57
 -3 9 -12 4.96 3.85
 -3 9 -10 7.54 3.79
 -3 9 -9 13.94 4.12
 -3 9 -8 98.62 6.81
 -3 9 -7 17.76 4.04
 -3 9 -6 16.93 3.78
 -3 9 -5 2.3 2.85
 -3 9 -4 2.38 2.69
 -3 9 -3 13.68 3.08
 -3 9 -2 42.71 4.63
 -3 9 -1 101.09 6.03
 -3 9 0 7.78 2.96
 -3 9 2 37.45 4.65
 -3 9 3 11.49 3.16
 -3 9 4 1.86 2.79
 -3 9 5 2.23 2.79
 -3 9 6 17.85 3.72
 -3 10 -14 6.85 5.11
 -3 10 -13 5.93 4.21
 -3 10 -12 37.73 5.84
 -3 10 -10 36.51 5.92
 -3 10 -9 17.89 5.07
 -3 10 -7 7.55 3.56
 -3 10 -6 26.19 4.55
 -3 10 -5 70.44 5.71
 -3 10 -4 17.69 3.93
 -3 10 -2 30.91 4.35
 -3 10 -1 37.06 5.03
 -3 10 0 24.2 4.01
 -3 10 1 34.83 4.58
 -3 10 3 40.66 4.98
 -3 10 4 15.67 3.69
 -3 10 5 77.63 6.4
 -3 10 6 20.58 4.31
 -3 10 7 4.56 3.6
 -3 11 -12 19.62 5.83
 -3 11 -11 15.35 4.78
 -3 11 -10 26.56 5.4
 -3 11 -9 18.33 5.13
 -3 11 -7 45.72 5.93
 -3 11 -6 11.62 3.85
 -3 11 -5 33.75 5.06
 -3 11 -4 6.2 3.78
 -3 11 -3 4.68 3.55
 -3 11 -2 23.29 4.49
 -3 11 -1 74.28 6.4
 -3 11 0 79.3 6.55
 -3 11 1 88.62 6.44
 -3 11 2 23.1 4.26
 -3 11 3 5.29 3.23
 -3 11 4 6.71 3.47
 -3 11 6 13.83 4.77
 -3 11 7 42.49 6.3
 -3 11 8 15.22 4.34
 -3 11 9 8.17 3.98
 -3 12 -11 2.98 4.04
 -3 12 -10 27.39 5.5
 -3 12 -9 18.59 5.26
 -3 12 -8 3.11 4.04
 -3 12 -6 2.19 4.08
 -3 12 -5 67.47 6.63
 -3 12 -4 4.98 3.78
 -3 12 -3 14.04 4.14
 -3 12 -2 29.34 5.3
 -3 12 -1 21.07 4.65
 -3 12 0 8.16 4.02
 -3 12 1 30.44 4.87
 -3 12 2 28.53 4.92
 -3 12 4 10.03 3.97
 -3 12 5 57.98 6.75
 -3 12 6 0.33 3.82
 -3 12 8 5.18 4.12
 -3 12 9 17.47 5.39
 -3 12 10 24.08 5.34
 -3 12 11 2.8 4.29
 -3 13 -9 21.63 5.09
 -3 13 -8 3.59 4.21
 -3 13 -7 9.4 4.5
 -3 13 -6 1.35 4.18
 -3 13 -5 97.64 7.68
 -3 13 -4 17.38 5.01
 -3 13 -3 15.29 4.7
 -3 13 -1 4.37 3.93
 -3 13 0 116.69 8.04
 -3 13 1 3.56 4.01
 -3 13 2 38.13 6
 -3 13 3 16.88 4.68
 -3 13 4 22.51 5.15
 -3 13 5 90.78 8
 -3 13 6 -1.43 3.76
 -3 13 7 5.06 4.67
 -3 13 8 5.82 4.28
 -3 14 -5 -3.99 3.67
 -3 14 -4 12.09 4.65
 -3 14 -3 10.05 4.58
 -3 14 -2 1.44 4.15
 -3 14 -1 0.94 3.84
 -3 14 1 -0.55 3.8
 -3 14 2 -4.9 3.8
 -3 14 3 13.45 4.97
 -3 14 4 3.59 3.96
 -3 14 5 2.2 3.95
 -2 0 -2 828.64 7.52
 -2 0 -1 43.53 1.69
 -2 0 0 9834.47 18.86
 -2 0 1 46.63 1.29
 -2 0 2 824.85 4.5
 -2 1 -3 311.5 5.61
 -2 1 -2 783.51 7.78
 -2 1 -1 455.87 5.44
 -2 1 0 1030.74 7.3
 -2 1 1 444.21 4.64
 -2 2 -9 27.38 3.11
 -2 2 -8 0.71 1.48
 -2 2 -5 623.7 9.25
 -2 2 -4 193.2 4.97
 -2 2 -2 716.08 8.09
 -2 2 -1 0.88 1.41
 -2 2 0 325.77 5.12
 -2 2 1 3.23 1.13
 -2 3 -9 10 2.51
 -2 3 -8 3.42 1.9
 -2 3 -3 369.15 6.64
 -2 3 0 1637 12.38
 -2 3 1 243.29 4.91
 -2 4 -11 36.36 4.49
 -2 4 -2 403.42 7.33
 -2 4 -1 49.32 2.8
 -2 4 0 2424.18 16.71
 -2 5 -12 14.99 3.56
 -2 5 -11 3.09 2.58
 -2 5 -10 21.42 3.33
 -2 5 -7 92.7 4.87
 -2 5 -6 191.87 6.32
 -2 5 -5 222.28 6.51
 -2 5 0 70.34 3.46
 -2 6 -13 1.74 3
 -2 6 -12 0.8 2.88
 -2 6 -11 36.48 4.55
 -2 6 -10 41.85 4.39
 -2 6 -6 136.98 5.76
 -2 6 -5 195.97 6.67
 -2 6 -4 50.58 3.5
 -2 6 -3 12.27 2.12
 -2 6 0 335.2 7.6
 -2 6 1 40.08 3.56
 -2 6 2 80.1 4.08
 -2 7 -14 0.89 4.43
 -2 7 -13 68.49 6.7
 -2 7 -12 5.36 3.34
 -2 7 -11 1.89 3.47
 -2 7 -10 65.71 5.53
 -2 7 -9 37.71 4.46
 -2 7 -8 46.07 4.48
 -2 7 -4 10.63 2.4
 -2 7 -2 18.51 3.12
 -2 7 0 7.44 2.12
 -2 7 1 186.51 6.47
 -2 7 2 20.61 2.76
 -2 8 -14 23.37 4.93
 -2 8 -13 30.18 5.36
 -2 8 -12 14.31 4.03
 -2 8 -11 2.82 3.3
 -2 8 -10 58.16 5.85
 -2 8 -9 18.55 3.82
 -2 8 -8 59.6 5.56
 -2 8 -7 43.08 4.4
 -2 9 -14 13.4 4.93
 -2 9 -13 8.68 4.34
 -2 9 -12 4.76 3.83
 -2 9 -11 4.09 3.57
 -2 9 -10 24.55 4.32
 -2 9 -9 86.51 6.25
 -2 9 -8 141.01 7.62
 -2 9 -7 14.94 3.5
 -2 9 -6 8.34 3.23
 -2 9 -5 3.35 2.47
 -2 9 -4 19.25 3.46
 -2 9 -3 16.66 3.46
 -2 9 -2 4.44 2.29
 -2 9 -1 281.34 8.99
 -2 9 0 9.33 2.75
 -2 9 2 6.32 2.47
 -2 9 3 21.99 3.9
 -2 10 -14 9.84 4.69
 -2 10 -13 -1.51 3.85
 -2 10 -12 8.26 4.32
 -2 10 -11 20.36 4.74
 -2 10 -10 38.81 5.28
 -2 10 -9 88.21 6.64
 -2 10 -8 4.59 3.19
 -2 10 -7 4.19 3.65
 -2 10 -6 40.57 4.84
 -2 10 -5 107.15 6.43
 -2 10 -4 6.17 3.42
 -2 10 -2 22.6 3.75
 -2 10 -1 174.82 7.62
 -2 10 0 60.85 5.02
 -2 10 1 175.3 7.57
 -2 10 2 22.66 4.09
 -2 10 3 23.76 3.87
 -2 10 4 12.26 3.48
 -2 11 -13 9.11 4.44
 -2 11 -12 5.25 4.1
 -2 11 -11 0.9 3.66
 -2 11 -10 18.96 4.69
 -2 11 -9 9.42 3.9
 -2 11 -8 106.92 7.64
 -2 11 -7 21.66 4.86
 -2 11 -6 25.33 5.02
 -2 11 -5 14.17 3.92
 -2 11 -4 17.81 4.07
 -2 11 -3 52.65 5.46
 -2 11 -1 129.3 7.47
 -2 11 0 35.22 4.62
 -2 11 1 122.96 7.03
 -2 11 3 59.31 5.48
 -2 11 4 14.77 3.7
 -2 11 5 12.34 3.76
 -2 11 6 20.7 4.24
 -2 12 -11 -1.71 3.56
 -2 12 -10 0.61 3.66
 -2 12 -9 6.14 3.97
 -2 12 -7 6.62 3.81
 -2 12 -6 9.82 4.03
 -2 12 -5 100.72 7.27
 -2 12 -4 17.06 4.46
 -2 12 -3 18.02 4.44
 -2 12 -2 68.96 6.3
 -2 12 -1 39 5.19
 -2 12 0 -0.09 3.01
 -2 12 1 34.21 5.49
 -2 12 2 57.85 6.39
 -2 12 3 15.45 4.41
 -2 12 5 100.01 7.85
 -2 12 6 4.36 3.58
 -2 12 7 6.27 4.08
 -2 13 -10 37.48 6.28
 -2 13 -9 5.63 4.71
 -2 13 -8 -0.23 3.86
 -2 13 -7 9.42 4.09
 -2 13 -6 7.84 3.9
 -2 13 -5 25.67 5.34
 -2 13 -4 69.1 6.95
 -2 13 -3 25.42 4.9
 -2 13 -2 1.86 4.27
 -2 13 -1 28.41 5.08
 -2 13 0 15.98 4.17
 -2 13 2 5.2 3.71
 -2 13 4 61.58 6.12
 -2 13 5 16.13 5.36
 -2 13 6 1.43 4.1
 -2 13 8 3.88 4.13
 -2 14 -7 11.13 4.5
 -2 14 -6 19.08 5.18
 -2 14 -5 11.71 4.45
 -2 14 -4 48.13 6.66
 -2 14 -3 3.21 3.8
 -2 14 -2 45.64 6.69
 -2 14 -1 4.91 4.41
 -2 14 0 36.31 5.9
 -2 14 1 9.65 4.99
 -2 14 2 42.2 6
 -2 14 3 1.48 3.84
 -2 14 5 11.07 4.72
 -2 14 7 5.67 4.36
 -2 15 -3 13.25 4.75
 -2 15 -2 48.09 6.39
 -2 15 -1 0.76 3.77
 -2 15 0 26.7 5.32
 -2 15 1 1.01 4.03
 -2 15 2 48.32 6.9
 -2 15 3 17.15 5.25
 -1 0 -3 377.52 5.08
 -1 0 -2 1318.27 7.89
 -1 0 -1 955.9 5.45
 -1 1 -6 602.27 8.68
 -1 1 -5 355.21 6.19
 -1 1 -4 244.64 4.93
 -1 1 -3 292.76 4.7
 -1 1 -2 3859.72 14.34
 -1 1 -1 246.99 3.5
 -1 1 0 943.23 5.64
 -1 2 -8 104.94 4.47
 -1 2 -6 17.27 2.11
 -1 2 -5 146.8 4.39
 -1 2 -4 118.92 3.81
 -1 2 -3 1002.82 8.88
 -1 2 -2 134.6 3.17
 -1 2 -1 337.87 4.55
 -1 2 0 864.23 6.87
 -1 3 -10 0.09 2
 -1 3 -9 747.48 12.33
 -1 3 -8 16.66 2.5
 -1 3 -7 62.76 3.41
 -1 3 -5 381.17 6.82
 -1 3 -3 55.08 2.66
 -1 3 -2 421.06 6.04
 -1 3 -1 130.02 3.41
 -1 3 0 22.96 1.8
 -1 4 -9 5.05 2.58
 -1 4 -8 20.87 2.94
 -1 4 -7 54.92 3.38
 -1 4 -3 47.83 2.68
 -1 4 -2 101.2 3.53
 -1 4 -1 88.89 3.31
 -1 5 -12 1.41 2.94
 -1 5 -11 36.25 4.15
 -1 5 -9 22.79 3.19
 -1 5 -8 124.32 5.28
 -1 5 -7 6.57 2.28
 -1 5 -5 31.07 2.7
 -1 5 -2 506.72 8.1
 -1 5 -1 37.03 2.47
 -1 5 0 9.53 1.81
 -1 6 -13 -1.23 3.11
 -1 6 -11 9.01 3.06
 -1 6 -8 54.18 4.22
 -1 6 -7 189.62 6.44
 -1 6 -6 63.81 3.88
 -1 6 -5 13.21 2.37
 -1 6 -4 128.08 4.94
 -1 6 -3 115.3 4.47
 -1 6 -2 19.65 2.41
 -1 7 -13 1.36 3.11
 -1 7 -12 3.69 3.25
 -1 7 -11 5.5 2.89
 -1 7 -10 5.61 3.25
 -1 7 -9 32.14 3.89
 -1 7 -6 144.24 5.83
 -1 7 -5 5.69 2.03
 -1 7 -4 243.05 6.93
 -1 7 -3 21.74 2.84
 -1 7 -2 37.79 3.13
 -1 7 0 438.28 9.01
 -1 7 1 119.74 4.89
 -1 8 -14 27.4 4.66
 -1 8 -13 -0.69 2.87
 -1 8 -12 21.32 4.57
 -1 8 -11 43.42 5.15
 -1 8 -10 66.47 5.5
 -1 8 -9 3.94 2.73
 -1 8 -8 11.27 2.88
 -1 8 -3 7.51 2.29
 -1 8 -1 213.75 6.88
 -1 8 0 32.2 3.39
 -1 9 -14 7.04 4.43
 -1 9 -12 0.79 3.1
 -1 9 -11 28.06 4.77
 -1 9 -10 173.35 7.9
 -1 9 -9 -2.17 2.67
 -1 9 -8 55.94 5.31
 -1 9 -7 58 5.2
 -1 9 -6 10.13 3.03
 -1 9 -5 19.67 3.61
 -1 10 -13 -1.11 3.39
 -1 10 -12 37.9 5.22
 -1 10 -11 2.68 3.83
 -1 10 -10 84.41 6.38
 -1 10 -8 152.26 7.52
 -1 10 -7 2.23 2.82
 -1 10 -6 12.8 3.74
 -1 10 -5 79.2 5.58
 -1 10 -4 12.47 3.15
 -1 10 -3 37.3 4.03
 -1 10 -2 27.42 4.16
 -1 10 -1 18.5 3.37
 -1 10 0 -0.67 2.05
 -1 10 1 19.77 3.69
 -1 10 2 26.36 3.87
 -1 10 3 32.43 4.04
 -1 11 -14 1.27 3.33
 -1 11 -13 4.52 3.75
 -1 11 -12 9.23 4.09
 -1 11 -11 18.3 4.36
 -1 11 -10 88.13 6.91
 -1 11 -9 2.23 3.26
 -1 11 -8 23.43 4.4
 -1 11 -7 141.87 7.91
 -1 11 -6 16.85 3.84
 -1 11 -5 31.9 4.81
 -1 11 -3 -0.18 2.79
 -1 11 -2 15.97 3.5
 -1 11 0 1.07 2.57
 -1 11 1 45.6 5.3
 -1 11 2 12.59 3.54
 -1 11 3 2.6 2.92
 -1 11 4 14.13 3.88
 -1 12 -12 14.43 4.35
 -1 12 -11 -1.6 3.25
 -1 12 -10 2.41 3.29
 -1 12 -9 2.18 3.99
 -1 12 -8 41.64 5.67
 -1 12 -7 29.89 4.65
 -1 12 -6 11.2 4.31
 -1 12 -5 16.83 4.34
 -1 12 -4 18.86 3.92
 -1 12 -3 8.97 3.45
 -1 12 -2 43.7 5.03
 -1 12 -1 51.36 5.23
 -1 12 0 -0.74 3.04
 -1 12 1 51.29 5.23
 -1 12 2 28.65 4.84
 -1 12 3 2.68 3.74
 -1 12 4 17.04 4.05
 -1 13 -10 16.35 4.63
 -1 13 -9 2.42 3.57
 -1 13 -8 2.55 3.56
 -1 13 -7 4.57 3.56
 -1 13 -6 4.24 3.72
 -1 13 -5 18.72 4.45
 -1 13 -4 -2.95 3.03
 -1 13 -3 0.84 3.03
 -1 13 -2 5.49 3.59
 -1 13 -1 34.03 5.61
 -1 13 0 88.01 6.73
 -1 13 1 40.63 5.51
 -1 13 2 2.86 4.01
 -1 13 3 0.05 3.38
 -1 13 4 1.85 3.6
 -1 13 5 21.51 4.94
 -1 13 6 7.02 4.73
 -1 13 7 10.03 4.8
 -1 14 -8 0.49 3.37
 -1 14 -7 19.04 4.8
 -1 14 -6 5.83 3.95
 -1 14 -5 145.76 8.93
 -1 14 -4 12.83 4.82
 -1 14 -3 8.89 4.01
 -1 14 -2 3.13 3.74
 -1 14 -1 38.23 5.61
 -1 14 0 7.78 4.23
 -1 14 1 35.94 6.01
 -1 14 2 8.2 4.36
 -1 14 3 8.61 4.15
 -1 14 5 160.16 9.71
 -1 14 6 8.01 4.46
 -1 14 7 9.29 4.76
 -1 14 8 1.85 4.34
 -1 15 -4 5.75 4.29
 -1 15 -2 8.37 4.23
 -1 15 -1 18.82 5.28
 -1 15 0 29.92 5.78
 -1 15 1 20.25 5.64
 -1 15 2 4.48 3.93
 -1 15 3 15.99 5.04
 -1 15 4 4.03 4.09
 0 1 -5 1461.11 11.17
 0 1 -4 1910.02 11.09
 0 1 -3 546.12 5.16
 0 1 -2 4156.68 11.72
 0 1 -1 20.83 0.85
 0 2 -6 478.79 7.22
 0 2 -5 1188.17 10.25
 0 2 -4 1282.88 9.45
 0 2 -3 428.27 5.01
 0 2 -2 325.47 3.96
 0 2 -1 4.21 0.94
 0 3 -9 11.7 2.39
 0 3 -8 109.26 4.32
 0 3 -6 219.51 5.07
 0 3 -5 225.73 4.97
 0 3 -4 358.71 5.7
 0 3 -3 957.52 8.33
 0 3 -2 351.99 4.94
 0 3 -1 396.23 5.11
 0 4 -10 6.28 2.38
 0 4 -9 140.05 5.46
 0 4 -8 0.3 1.56
 0 4 -7 27.58 2.73
 0 4 -4 17.6 1.76
 0 4 -3 1122.75 10.03
 0 4 -2 205.92 4.33
 0 4 -1 4.4 1.39
 0 5 -10 66.15 4.51
 0 5 -9 12.77 2.68
 0 5 -7 13.23 2.17
 0 5 -6 54.01 3.16
 0 5 -3 57.86 2.94
 0 5 -2 180.23 4.53
 0 5 -1 31.65 2.58
 0 6 -12 2.09 2.5
 0 6 -9 169.25 6.35
 0 6 -8 15.09 2.55
 0 6 -7 242.26 6.79
 0 6 -6 463.89 8.72
 0 6 -5 262.37 6.38
 0 6 -4 33.02 2.88
 0 6 -3 12.51 1.93
 0 7 -13 -0.97 2.54
 0 7 -12 3.33 2.62
 0 7 -11 8.87 3.3
 0 7 -8 144.29 5.99
 0 7 -7 22.47 2.93
 0 7 -6 10.47 2.6
 0 7 -4 5.43 1.94
 0 7 -3 379.66 7.94
 0 7 -2 5.66 1.82
 0 7 -1 596.44 9.81
 0 7 0 0.64 1.87
 0 8 -13 18.53 4.12
 0 8 -12 3.75 2.79
 0 8 -11 13.16 3.34
 0 8 -10 19.01 3.56
 0 8 -6 90.97 4.81
 0 8 -5 39.74 3.44
 0 8 -4 0.34 2.06
 0 8 -3 33.39 3.32
 0 8 -2 453.14 9.26
 0 8 -1 352.05 8.24
 0 8 0 69.2 4.13
 0 9 -13 6.5 2.84
 0 9 -12 1.08 2.67
 0 9 -11 0.3 3
 0 9 -10 11.66 3.66
 0 9 -9 17.37 3.62
 0 9 -8 152.38 6.79
 0 10 -13 -1.09 2.36
 0 10 -12 7.8 2.93
 0 10 -11 1.26 2.99
 0 10 -9 69.64 5.75
 0 10 -8 5.03 3.21
 0 10 -7 0.62 2.59
 0 10 -6 14.22 3.3
 0 10 -5 44.73 4.33
 0 10 -4 5.13 2.91
 0 10 -3 26.86 3.57
 0 10 -2 109.14 5.69
 0 10 -1 37.35 4.06
 0 10 0 46.53 4.46
 0 10 1 39.51 4.05
 0 10 2 112.42 6.1
 0 11 -11 31.67 4.38
 0 11 -10 65.32 5.46
 0 11 -9 1.9 2.97
 0 11 -8 85.38 6.34
 0 11 -7 5.95 3.36
 0 11 -6 -3.12 2.61
 0 11 -5 1.08 2.97
 0 11 -4 5.71 3.25
 0 11 -3 33.3 4.39
 0 11 -2 8.77 2.93
 0 11 -1 67.48 5.38
 0 11 0 -0.35 2.38
 0 11 1 59.64 5.01
 0 11 2 4.17 2.84
 0 12 -10 9.01 3.12
 0 12 -9 14.32 3.74
 0 12 -8 33.18 4.79
 0 12 -7 9.72 3.31
 0 12 -6 2.96 3.36
 0 12 -5 84.66 6.28
 0 12 -4 17.57 3.66
 0 12 -2 67.4 5.55
 0 12 -1 7.25 3.23
 0 12 0 1.31 2.72
 0 12 1 8.13 3.31
 0 12 2 65.37 5.9
 0 12 3 51.54 5.93
 0 12 4 15.83 4.18
 0 13 -9 4.11 2.79
 0 13 -8 15.2 4.19
 0 13 -6 5.45 3.82
 0 13 -5 25.79 4.37
 0 13 -4 67.93 6.02
 0 13 -3 2.7 3.74
 0 13 -2 -1.22 3.44
 0 13 -1 78.8 6.54
 0 13 0 -0.04 3.07
 0 13 1 64.56 6.27
 0 13 2 -1.8 2.97
 0 13 3 -2.64 2.78
 0 13 4 63.31 6.67
 0 13 5 26.06 4.94
 0 14 -6 20.23 4.38
 0 14 -5 11.22 3.92
 0 14 -4 -3.03 2.86
 0 14 -3 1.14 3.31
 0 14 -2 52.09 5.63
 0 14 -1 2.07 3.55
 0 14 0 41.33 5.47
 0 14 1 -0.92 3.7
 0 14 2 43.26 6.08
 0 14 3 2.38 4.17
 0 14 4 -1.96 3.27
 0 14 5 8.39 4.77
 0 14 6 20.88 5.07
 0 14 7 6.64 4.56
 0 15 -5 7.48 3.71
 0 15 -4 1.87 3.49
 0 15 -3 36.9 5.76
 0 15 -2 35 5.43
 0 15 -1 2.49 3.59
 0 15 0 2.19 3.34
 0 15 2 33.27 5.38
 0 15 3 35.82 5.55
 0 15 4 3 4.41
 0 15 5 3.23 4.36
 1 2 -5 147.52 3.3
 1 2 -4 121.45 2.65
 1 2 -3 1002.9 6.04
 1 3 -6 146.38 3.8
 1 3 -5 372 5.3
 1 3 -4 384.89 4.9
 1 3 -3 51.49 1.86
 1 3 -2 407.55 4.35
 1 4 -9 2.37 1.54
 1 4 -8 24.6 2.51
 1 4 -7 50.3 2.79
 1 4 -5 373.91 5.71
 1 4 -3 49.02 2.14
 1 4 -2 98.16 2.75
 1 5 -10 53 3.71
 1 5 -9 24.81 2.52
 1 5 -7 5.06 1.57
 1 5 -6 107.31 3.77
 1 5 -3 312.86 5.42
 1 5 -2 506.68 6.81
 1 6 -11 9.26 2.29
 1 6 -10 159.08 5.8
 1 6 -9 11.02 2.13
 1 6 -8 52.11 3.23
 1 6 -7 180.48 5.31
 1 6 -5 12.08 1.98
 1 7 -10 9.26 2.28
 1 7 -9 25.39 3.11
 1 7 -8 82.44 4.18
 1 7 -7 49.97 3.46
 1 7 -6 156.56 5.26
 1 7 -5 6.35 1.69
 1 7 -4 237.51 5.9
 1 7 -3 18.99 2.25
 1 7 -2 38.22 2.87
 1 8 -8 10.29 2.56
 1 8 -7 101.19 4.7
 1 8 -6 35.19 3.23
 1 8 -5 29.17 3.11
 1 8 -4 104.48 4.63
 1 8 -3 8.1 2.02
 1 8 -2 47.16 3.22
 1 8 -1 200.4 6.13
 1 9 -12 2.46 1.99
 1 9 -9 1.88 2.25
 1 9 -6 7.16 2.52
 1 9 -5 25.28 3.01
 1 9 -4 123.34 5.36
 1 9 -3 61.89 3.95
 1 9 -2 134.39 5.4
 1 9 -1 61.36 4.2
 1 9 0 577.54 11
 1 10 -11 0.13 1.57
 1 10 -8 166.81 6.67
 1 10 -7 2.31 1.96
 1 11 -9 0.23 1.49
 1 11 -6 15.24 3.31
 1 11 -5 30.75 3.57
 1 11 -4 12.99 3.18
 1 11 -3 -0.02 2.1
 1 11 -2 15.67 3.07
 1 11 0 0.2 2.37
 1 11 1 55.44 4.76
 1 11 2 13.22 3.22
 1 12 -5 15.97 3.42
 1 12 -4 12.69 3.13
 1 12 -3 3.19 2.72
 1 12 -2 35.24 4.74
 1 12 -1 49.23 4.56
 1 12 0 3.2 3.31
 1 12 1 45.97 5.6
 1 12 2 31.28 4.58
 1 12 3 5.3 3.17
 1 13 -6 0.39 1.88
 1 13 -4 -0.9 2.2
 1 13 -3 1.6 3.04
 1 13 -2 2.65 2.75
 1 13 -1 45.35 5.15
 1 13 0 80 6.19
 1 13 1 42.84 5.11
 1 13 2 4.87 3.49
 1 13 4 -1.71 3.07
 1 14 -3 9.7 3.14
 1 14 -2 1.67 2.86
 1 14 0 7.27 3.38
 1 14 2 4.8 3.44
 1 14 3 4.55 3.51
 1 14 4 12.37 4.32
 1 14 5 148.93 9.04
 1 14 6 7.13 4.34
 1 15 -2 4 2.84
 1 15 -1 16.29 3.84
 1 15 0 19.3 4.47
 1 15 2 8.27 3.8
 1 15 3 8.57 3.76
 1 15 4 5.6 3.96
 2 3 -4 19.37 0.96
 2 3 -3 365.65 3.14
 2 3 -2 171.53 2.17
 2 4 -6 11.46 1.38
 2 4 -5 97.24 2.51
 2 4 -4 212.12 3.36
 2 4 -3 226.43 3.31
 2 4 -2 386.96 4.37
 2 5 -7 91.42 3.17
 2 5 -4 142.16 3.29
 2 5 -3 61.04 2.23
 2 5 -2 186.8 3.75
 2 6 -8 9.53 1.64
 2 6 -7 213.46 4.99
 2 6 -6 135.22 3.9
 2 6 -5 185.56 4.32
 2 6 -4 44.04 2.3
 2 7 -6 3.6 1.3
 2 7 -5 141.11 4.21
 2 7 -4 9.52 1.68
 2 7 -3 343.48 6.41
 2 7 -1 195.17 5.12
 2 8 -6 21.55 2.12
 2 8 -4 13.7 2.08
 2 8 -3 104.96 4.12
 2 8 -2 112.41 4.2
 2 8 -1 115.19 4.51
 2 9 -5 5.5 1.59
 2 9 -4 31.19 2.82
 2 9 -3 18.29 2.4
 2 9 -2 1.29 1.55
 2 9 -1 278.8 7.16
 2 9 0 5.07 1.94
 2 11 -2 13.72 2.74
 2 11 -1 121.54 5.69
 2 11 0 32.37 3.56
 2 12 -1 34.76 3.88
 2 12 0 1.08 2.42
 2 12 1 35.8 4.24
 2 12 2 64.83 5.19
 2 12 3 12.96 3.52
 2 13 -2 -0.85 1.54
 2 13 1 26.86 3.97
 2 13 2 3.08 2.85
 2 13 3 25.44 4.6
 2 13 4 60.34 5.98
 2 14 2 44.69 5.21
 2 14 3 4.31 3.51
 2 14 4 53.22 6.18
 2 14 5 7.02 3.44
 2 14 6 17.75 4.94
 2 15 3 12.18 3.49
 3 4 -2 12.26 0.7
 3 5 -5 32.97 1.11
 3 5 -4 419.99 3.73
 3 5 -3 59.81 1.63
 3 5 -2 362.46 4.28
 3 7 -3 24.79 1.7
 3 7 -2 32.66 2.01
 3 7 -1 78.44 3.12
 3 8 -3 -0.73 0.64
 3 8 -1 54.1 2.93
 3 9 0 9.47 1.94
 0 -3 -6 230.43 4.86
 0 -3 -5 225.12 4.37
 0 -3 -4 354.61 4.71
 0 -2 -9 93.44 4.07
 0 -2 -8 2.56 1.8
 0 -2 -7 1502.61 12.82
 0 -2 -5 1197.82 9.43
 0 -2 -4 1279.11 8.58
 0 -2 -3 429.3 4.32
 0 -2 -2 332.86 3.1
 0 -1 -10 59.08 3.69
 0 -1 -9 23.54 2.73
 0 -1 -8 0.77 1.55
 0 -1 -6 116.61 3.66
 0 -1 -5 1472.54 10.43
 0 -1 -4 1902.6 10.49
 0 -1 -3 561.17 4.98
 0 -1 -2 4045.42 10.29
 0 0 -10 361.03 8.07
 0 0 -9 -0.02 1.46
 0 0 -8 10.97 2.19
 0 0 -6 540.52 7.12
 0 0 -4 1791.07 10.18
 0 0 -3 0.7 1.15
 0 0 -2 1612 6.58
 0 1 -10 56.88 3.68
 0 1 -9 25.64 2.56
 0 1 -8 -0.26 1.36
 0 1 -7 49.58 2.8
 0 1 -6 115.84 3.64
 0 1 -5 1475.99 10.45
 0 1 -4 1958.71 10.67
 0 1 -3 560.17 4.99
 0 1 -2 4072.07 10.46
 0 2 -10 47.07 3.44
 0 2 -9 96.28 4.39
 0 2 -8 1.7 1.86
 0 2 -7 1504.65 12.91
 0 2 -6 476.07 6.66
 0 2 -5 1174.82 9.34
 0 2 -4 1289.62 8.7
 0 2 -3 436.5 4.42
 0 2 -2 327.84 3.09
 0 3 -9 12.06 2.46
 0 3 -8 108.8 4.26
 0 3 -6 231.95 4.9
 0 3 -5 219.75 4.21
 0 3 -4 358.23 4.74
 0 3 -3 950.71 6.41
 0 4 -8 0.79 1.57
 0 4 -7 27.79 2.37
 0 4 -6 18.32 1.71
 0 4 -5 12.95 1.37
 0 4 -4 18.4 1.45
 0 4 -2 199.63 2.38
 0 5 -6 54.99 2.63
 0 5 -5 873.63 8.12
 1 -6 -8 56.27 3.21
 1 -6 -7 179.43 4.61
 1 -6 -6 60.77 2.64
 1 -6 -5 9.51 1.34
 1 -6 -4 134.86 2.85
 1 -6 -3 114.24 2.13
 1 -5 -10 54.58 3.94
 1 -5 -9 20.23 2.77
 1 -5 -8 130.92 4.48
 1 -5 -7 5.22 1.54
 1 -5 -6 106.44 3.31
 1 -5 -5 29.73 1.93
 1 -5 -4 186.45 3.43
 1 -5 -3 310.39 3.7
 1 -5 -2 493.25 3.74
 1 -5 -1 31.99 0.81
 1 -4 -12 103.17 5.56
 1 -4 -9 2.52 1.96
 1 -4 -8 25.78 2.38
 1 -4 -7 53.38 2.95
 1 -4 -6 120.31 3.64
 1 -4 -5 386.53 5.5
 1 -4 -4 205.19 3.65
 1 -4 -3 48.21 1.71
 1 -4 -2 96.42 1.92
 1 -4 -1 88.06 1.57
 1 -3 -13 9.13 3.14
 1 -3 -12 3.52 2.3
 1 -3 -10 0.84 1.76
 1 -3 -9 768.35 10.93
 1 -3 -7 56.56 3.04
 1 -3 -6 152.89 3.99
 1 -3 -5 365.44 5.46
 1 -3 -3 54.7 1.94
 1 -3 -2 404.79 3.87
 1 -2 -13 79.33 5.27
 1 -2 -12 2.88 2.11
 1 -2 -10 19.94 2.68
 1 -2 -9 141.01 4.88
 1 -2 -7 1008.92 10.71
 1 -2 -6 17.33 2.01
 1 -2 -5 140.6 3.56
 1 -2 -4 116.76 2.94
 1 -2 -3 1019.22 7.17
 1 -2 -2 130.8 2.42
 1 -1 -14 3.2 2.68
 1 -1 -12 48.6 3.97
 1 -1 -10 16.36 2.6
 1 -1 -9 533.35 9.2
 1 -1 -8 86.62 3.65
 1 -1 -7 125.89 4.03
 1 -1 -6 615.34 7.65
 1 -1 -5 364.96 5.42
 1 -1 -4 241.71 4.3
 1 -1 -3 281.62 3.84
 1 -1 -2 3827.05 12.25
 1 0 -14 56.96 5.12
 1 0 -13 18.36 3.32
 1 0 -10 16.5 2.71
 1 0 -8 -0.91 1.23
 1 0 -6 113.99 3.69
 1 0 -5 4.8 1.47
 1 0 -4 32.16 1.92
 1 0 -3 370.05 4.47
 1 0 -2 1291.94 7.3
 1 1 -14 3.5 2.6
 1 1 -13 6.61 3.04
 1 1 -12 56.58 4.39
 1 1 -10 14.21 2.43
 1 1 -9 537.28 9.2
 1 1 -8 88.82 3.96
 1 1 -7 125.67 4.14
 1 1 -5 367.99 5.56
 1 1 -4 240.31 4.24
 1 1 -3 276.96 4.05
 1 1 -2 3918.43 12.84
 1 2 -14 30.88 4.25
 1 2 -13 80.28 5.48
 1 2 -12 6.65 2.41
 1 2 -10 18.14 2.79
 1 2 -9 143.9 5.06
 1 2 -8 106.02 4.02
 1 2 -7 1032.8 10.94
 1 2 -6 16.51 1.88
 1 2 -5 147.84 3.73
 1 2 -4 118.91 3.04
 1 2 -3 1015.34 7.41
 1 2 -2 137.77 2.76
 1 3 -14 9.39 3.01
 1 3 -13 12.56 3.47
 1 3 -12 6.51 2.46
 1 3 -9 762.24 11.06
 1 3 -8 17.8 2.23
 1 3 -7 59.21 3.09
 1 3 -6 151.82 4.11
 1 3 -5 366.53 5.64
 1 3 -4 385.62 5.26
 1 3 -3 52.5 2.05
 1 3 -2 418.27 4.42
 1 4 -13 57.86 4.81
 1 4 -12 99.49 5.37
 1 4 -8 24.2 2.4
 1 4 -7 47.74 2.91
 1 4 -6 118.17 3.67
 1 4 -5 386.25 5.77
 1 4 -4 205.54 3.9
 1 4 -3 47.2 1.92
 1 5 -13 75.8 5.41
 1 5 -12 1.01 2.25
 1 5 -8 122.47 4.54
 1 5 -6 105.53 3.49
 1 5 -5 30.11 1.96
 1 5 -4 174.73 3.57
 1 5 -1 35.69 1.25
 1 6 -12 83.96 5.25
 1 6 -11 7.94 2.56
 1 6 -9 10.67 2.35
 1 6 -8 54.31 3.17
 1 6 -7 182.48 4.88
 1 6 -6 57.67 2.71
 1 6 -5 8.64 1.45
 1 6 -2 21.27 1.09
 1 6 -1 61 1.48
 1 6 0 141.32 2.07
 1 7 -8 83.34 3.81
 1 7 -7 52.03 2.87
 1 7 -6 147.85 3.97
 1 7 -3 19.69 1.21
 1 7 -2 35.72 1.2
 1 7 -1 116.82 1.61
 1 8 -7 96.52 3.49
 1 8 -5 25.66 1.62
 1 8 -3 8.16 0.73
 2 -8 -7 40.06 2.45
 2 -8 -6 17.12 1.73
 2 -8 -5 204.7 3.79
 2 -8 -4 11.89 1.12
 2 -7 -11 1.86 2.43
 2 -7 -9 36.57 3.07
 2 -7 -8 39.33 2.98
 2 -7 -7 3.95 1.43
 2 -7 -6 3.37 1.27
 2 -7 -5 142.39 3.5
 2 -7 -4 13.59 1.39
 2 -7 -3 350.79 4.22
 2 -7 -2 21.01 1.14
 2 -7 -1 194.31 2.49
 2 -7 0 7.97 0.75
 2 -6 -13 3.87 2.65
 2 -6 -12 -0.56 2.37
 2 -6 -9 67.6 3.92
 2 -6 -8 7.25 1.96
 2 -6 -6 138.64 4.01
 2 -6 -5 197.6 4.35
 2 -6 -4 44.53 2.12
 2 -6 -3 16.4 1.41
 2 -6 -2 77.65 2.15
 2 -6 -1 36.74 1.47
 2 -5 -14 -0.15 2.55
 2 -5 -13 40.75 4.59
 2 -5 -12 15.94 3.05
 2 -5 -9 0.57 1.71
 2 -5 -7 91.54 3.76
 2 -5 -6 188.98 4.68
 2 -5 -5 228.76 4.75
 2 -5 -4 141.41 3.49
 2 -5 -3 64.2 2.3
 2 -5 -2 180.76 3.36
 2 -4 -15 60.17 5.56
 2 -4 -14 43.08 4.91
 2 -4 -13 66.59 5.19
 2 -4 -12 13.4 2.92
 2 -4 -9 105.81 4.43
 2 -4 -8 23.06 2.57
 2 -4 -7 131.08 4.26
 2 -4 -6 11.65 1.86
 2 -4 -5 96.29 3.27
 2 -4 -4 224.18 4.42
 2 -4 -3 231.31 4.18
 2 -4 -2 390.06 5.04
 2 -3 -16 5.07 3.27
 2 -3 -15 76.24 5.95
 2 -3 -14 5.5 3.08
 2 -3 -13 27 4.23
 2 -3 -12 34.01 4.1
 2 -3 -11 25.89 3.27
 2 -3 -9 7.47 2.08
 2 -3 -8 0.9 1.55
 2 -3 -7 108.34 4.03
 2 -3 -6 420.29 7
 2 -3 -5 435.71 6.6
 2 -3 -4 18.76 1.91
 2 -3 -3 375.81 5.37
 2 -2 -16 1.47 3.56
 2 -2 -14 2.43 2.81
 2 -2 -13 35.84 4.15
 2 -2 -12 22.55 3.6
 2 -2 -11 64.54 4.42
 2 -2 -9 25.81 2.73
 2 -2 -8 3.06 1.77
 2 -2 -7 701.8 9.45
 2 -2 -6 90 3.6
 2 -2 -5 597.83 7.7
 2 -2 -4 200.17 4.27
 2 -2 -3 287.89 4.81
 2 -1 -16 19.15 4.48
 2 -1 -15 115.7 7.07
 2 -1 -14 -1.62 2.84
 2 -1 -13 5.29 3.22
 2 -1 -12 90.42 5.23
 2 -1 -11 34.79 3.44
 2 -1 -9 147.71 5.3
 2 -1 -7 47.66 2.77
 2 -1 -6 55.02 2.97
 2 -1 -5 499.05 7.07
 2 -1 -4 97.42 3.36
 2 -1 -3 309.65 5.21
 2 0 -17 -1.36 3.44
 2 0 -16 5.31 3.44
 2 0 -15 14.85 3.58
 2 0 -14 1.3 2.54
 2 0 -12 30.76 3.89
 2 0 -11 142.27 5.73
 2 0 -9 12.8 2.48
 2 0 -8 0.32 1.46
 2 0 -7 0.23 1.24
 2 0 -6 77.96 3.47
 2 0 -5 74.83 3.01
 2 0 -4 132.5 3.82
 2 1 -17 0.09 3.8
 2 1 -16 24.52 4.84
 2 1 -15 106.54 6.73
 2 1 -14 1.8 2.82
 2 1 -12 80.83 5.22
 2 1 -11 40.42 3.56
 2 1 -9 144.05 5.16
 2 1 -8 159.37 5.14
 2 1 -7 43.23 2.79
 2 1 -6 47.79 2.8
 2 1 -5 510.39 7.34
 2 1 -4 94.33 3.16
 2 2 -17 29.5 5.32
 2 2 -16 2.43 3.11
 2 2 -15 42.31 4.82
 2 2 -14 0.61 2.54
 2 2 -13 29.44 3.86
 2 2 -12 22.09 3.6
 2 2 -11 74.51 4.5
 2 2 -9 22.58 2.9
 2 2 -8 0.71 1.43
 2 2 -7 687.75 9.66
 2 2 -6 85.8 3.41
 2 2 -5 609.35 8.09
 2 2 -4 198.72 4.41
 2 2 -3 281.23 5.07
 2 3 -16 4.86 3.9
 2 3 -14 2.62 3.33
 2 3 -12 35.46 4.29
 2 3 -9 10.35 2.55
 2 3 -8 1.33 1.58
 2 3 -7 111.21 4.33
 2 3 -6 401.65 7.06
 2 3 -5 437.71 6.8
 2 3 -4 17.61 1.78
 2 3 -3 379.25 5.84
 2 4 -16 14.07 4.58
 2 4 -15 71.24 6.19
 2 4 -13 61.33 5.06
 2 4 -12 12.87 3.27
 2 4 -11 35.58 3.85
 2 4 -8 19.73 2.46
 2 4 -6 11.97 2.1
 2 4 -5 101.49 3.64
 2 4 -3 234.11 4.66
 2 5 -16 51.44 5.27
 2 5 -15 7.69 3.34
 2 5 -14 -0.64 3.02
 2 5 -13 40.46 4.72
 2 5 -12 21.85 3.62
 2 5 -11 4.07 2.36
 2 5 -8 222.49 6.21
 2 5 -7 94.21 3.94
 2 5 -6 197.85 5.16
 2 5 -5 222.57 5
 2 5 -4 140.6 3.89
 2 5 -3 62.57 2.48
 2 6 -15 6.07 3.59
 2 6 -14 66.64 5.78
 2 6 -13 1.71 2.74
 2 6 -12 -1.67 2.11
 2 6 -10 37.73 3.75
 2 6 -7 205.26 5.54
 2 6 -6 135.66 4.3
 2 6 -5 192.27 4.65
 2 6 -4 42.29 2.36
 2 6 -3 17.35 1.67
 2 6 -2 77.47 2.62
 2 7 -14 2.34 2.96
 2 7 -13 70.96 5.57
 2 7 -12 10.75 2.9
 2 7 -11 3.31 2.2
 2 7 -8 42.12 3.24
 2 7 -7 2.31 1.39
 2 7 -6 2.29 1.31
 2 7 -5 145.58 4.04
 2 7 -4 12.96 1.67
 2 8 -12 11.7 3.14
 2 8 -11 1.43 2.05
 2 8 -10 46.18 3.66
 2 8 -8 57.59 3.41
 2 8 -6 20.23 2.02
 2 8 -3 107.42 2.88
 2 8 -2 112.65 2.76
 2 8 -1 116.74 2.68
 2 8 0 55.29 1.87
 2 9 -11 -0.46 1.45
 3 -8 -12 48.88 4.25
 3 -8 -11 10.12 2.77
 3 -8 -10 133.27 5.29
 3 -8 -8 88.54 3.93
 3 -8 -7 37.57 2.76
 3 -8 -6 33.12 2.42
 3 -8 -5 21.95 1.92
 3 -8 -4 2.89 1.12
 3 -8 -3 1.83 0.94
 3 -8 -2 27.48 1.62
 3 -8 -1 48.12 1.89
 3 -8 0 45.27 1.87
 3 -7 -14 42.37 4.85
 3 -7 -13 3.96 2.76
 3 -7 -12 22.69 3.35
 3 -7 -11 0.85 2.1
 3 -7 -10 62.77 4.1
 3 -7 -8 159.47 5.28
 3 -7 -7 43.46 3.02
 3 -7 -6 85.16 3.53
 3 -7 -4 109.93 3.44
 3 -7 -3 26.14 1.98
 3 -7 -2 32.2 1.92
 3 -7 -1 87.99 2.82
 3 -6 -15 98.58 6.6
 3 -6 -14 8.89 3.08
 3 -6 -13 22.3 3.75
 3 -6 -12 6.04 2.7
 3 -6 -11 20.18 3.39
 3 -6 -10 98.52 5.05
 3 -6 -8 130.26 4.83
 3 -6 -7 32.37 2.86
 3 -6 -6 100.89 3.87
 3 -6 -5 57.87 3.06
 3 -6 -4 82.61 3.23
 3 -6 -3 79.06 3
 3 -6 -2 47.12 2.39
 3 -5 -16 -0.45 3.28
 3 -5 -15 4.81 3.4
 3 -5 -14 75.7 6
 3 -5 -13 28.99 4.31
 3 -5 -12 11.5 3.19
 3 -5 -11 44.93 3.94
 3 -5 -10 32.08 3.89
 3 -5 -8 19.82 2.88
 3 -5 -7 18.67 2.37
 3 -5 -5 36.36 2.72
 3 -5 -4 428.37 6.92
 3 -5 -3 59.24 2.89
 3 -4 -17 3.74 3.88
 3 -4 -15 12.64 3.65
 3 -4 -14 48.91 5.02
 3 -4 -13 31.51 4.08
 3 -4 -12 11.99 3.44
 3 -4 -11 6.91 2.49
 3 -4 -10 25.68 3.32
 3 -4 -8 13.07 2.34
 3 -4 -7 86.43 3.93
 3 -4 -6 239.45 5.9
 3 -4 -5 2.66 1.48
 3 -4 -4 155.59 4.39
 3 -4 -3 31.15 2.4
 3 -3 -16 6.85 4.04
 3 -3 -15 40.28 5.2
 3 -3 -14 2.05 2.84
 3 -3 -13 2.62 2.71
 3 -3 -12 12.27 3.07
 3 -3 -11 45.98 4.26
 3 -3 -10 3.01 2.11
 3 -3 -8 6.84 2.09
 3 -3 -7 14.5 2.29
 3 -3 -6 29.59 2.65
 3 -3 -5 190.48 5.2
 3 -3 -4 130.14 4.23
 3 -2 -18 5.72 3.99
 3 -2 -17 9.83 4.02
 3 -2 -16 37.79 5.12
 3 -2 -15 30.26 4.59
 3 -2 -14 37.02 5.13
 3 -2 -13 67.16 5.09
 3 -2 -12 25.02 3.89
 3 -2 -11 7.38 2.46
 3 -2 -10 73.49 4.36
 3 -2 -8 88.2 4.23
 3 -2 -6 27.3 2.54
 3 -2 -5 32 2.48
 3 -2 -4 7.48 1.65
 3 -1 -18 12.29 4.52
 3 -1 -17 1.24 3.37
 3 -1 -16 42.13 5.24
 3 -1 -15 20.17 4.3
 3 -1 -14 45.79 5.14
 3 -1 -13 27.78 3.95
 3 -1 -12 2.65 2.57
 3 -1 -11 119.28 5.84
 3 -1 -10 11.95 2.82
 3 -1 -8 21.67 2.96
 3 -1 -4 122.81 4.18
 3 0 -18 -0.54 4.64
 3 0 -17 9.23 4.58
 3 0 -16 -0.36 3.28
 3 0 -15 71.41 5.86
 3 0 -14 160.09 7.7
 3 0 -13 14.37 3.43
 3 0 -12 75.35 5.21
 3 0 -11 15.14 2.89
 3 0 -10 233.49 7.23
 3 0 -8 6.58 2.16
 3 0 -5 -0.35 1.53
 3 0 -4 1.37 1.72
 3 1 -17 4.82 3.89
 3 1 -16 42.99 5.33
 3 1 -15 20.47 4.16
 3 1 -14 37.62 5
 3 1 -13 33.23 4.15
 3 1 -12 0.31 2.45
 3 1 -11 114.79 5.73
 3 1 -10 10.62 2.81
 3 1 -6 38.3 3.03
 3 1 -5 274.51 6.3
 3 1 -4 128.54 4.32
 3 2 -18 10.95 5
 3 2 -17 7.88 4.39
 3 2 -16 35.37 5.28
 3 2 -14 33.59 4.44
 3 2 -13 60.44 5.29
 3 2 -12 21.89 3.56
 3 2 -11 4.61 2.27
 3 2 -10 71.16 4.38
 3 2 -7 361.4 7.82
 3 2 -6 29.28 2.6
 3 2 -5 32.34 2.57
 3 3 -18 18.23 4.87
 3 3 -17 0.68 3.52
 3 3 -16 4.74 3.54
 3 3 -15 47.58 5.63
 3 3 -13 0.18 2.49
 3 3 -12 15.32 3.52
 3 3 -11 46.15 4.4
 3 3 -10 4.39 2.31
 3 3 -7 12.3 2.26
 3 3 -6 32.37 3.07
 3 3 -5 193.43 5.43
 3 3 -4 140.05 4.57
 3 4 -18 2.42 3.85
 3 4 -17 5.27 3.91
 3 4 -16 8.76 3.83
 3 4 -15 9.99 3.72
 3 4 -14 47.98 5.95
 3 4 -13 29.2 4.36
 3 4 -12 9.29 3.1
 3 4 -11 6.07 2.51
 3 4 -10 21.57 3.14
 3 4 -7 87.84 4.39
 3 4 -5 0.77 1.75
 3 4 -4 152.66 4.63
 3 5 -17 14.53 4.98
 3 5 -16 4.06 4.1
 3 5 -14 78.37 5.9
 3 5 -13 27.78 4.19
 3 5 -12 5.82 3.01
 3 5 -11 41.76 4.1
 3 5 -10 27.11 3.39
 3 5 -9 44.04 3.58
 3 5 -7 21.23 2.69
 3 5 -6 143.67 4.97
 3 5 -4 426.52 7.48
 3 5 -3 56.76 3.08
 3 6 -17 1.32 3.78
 3 6 -16 54.06 6.26
 3 6 -15 91.62 6.83
 3 6 -13 18.5 3.76
 3 6 -12 5.97 3.06
 3 6 -11 22.82 3.56
 3 6 -10 95.73 5.4
 3 6 -9 39.76 3.83
 3 6 -6 99.85 4.3
 3 6 -5 56.52 3.29
 3 6 -4 74.9 3.44
 3 6 -3 77.74 3.51
 3 7 -16 7.84 3.77
 3 7 -15 70.09 6.15
 3 7 -14 49.78 5.36
 3 7 -12 24.18 4.09
 3 7 -11 3.9 2.51
 3 7 -10 68.69 4.75
 3 7 -9 79.5 4.51
 3 7 -6 74.76 3.85
 3 7 -5 52.44 3.15
 3 7 -4 106.66 3.99
 3 7 -3 23.23 2.24
 3 7 -2 32.52 2.37
 3 8 -15 18.85 4
 3 8 -13 25.01 3.78
 3 8 -12 44.83 4.32
 3 8 -10 141.79 6.01
 3 8 -9 3.92 1.98
 3 8 -8 78.3 4.31
 3 8 -6 28.5 2.73
 3 8 -5 19.4 2.25
 3 8 -4 2.37 1.43
 3 8 -3 2.38 1.26
 3 8 -2 28.64 2.17
 3 8 -1 53.42 2.67
 3 9 -12 1.03 2
 4 -8 -12 11.41 2.93
 4 -8 -11 18.15 3.15
 4 -8 -10 16.14 3.02
 4 -8 -9 21.71 2.82
 4 -8 -6 12.12 2.26
 4 -8 -5 61.4 3.2
 4 -8 -4 29.01 2.45
 4 -8 -3 84.06 3.4
 4 -8 -2 3.55 1.38
 4 -8 -1 21.92 2.12
 4 -7 -15 60.7 5.85
 4 -7 -14 27.68 4.54
 4 -7 -13 32.78 4.33
 4 -7 -12 8.1 2.79
 4 -7 -11 10.01 3.02
 4 -7 -10 80.75 4.89
 4 -7 -9 20.45 3.21
 4 -7 -8 2.54 2.19
 4 -7 -6 69.79 3.82
 4 -7 -5 4.17 1.82
 4 -7 -3 86.9 3.67
 4 -7 -2 4.96 1.56
 4 -6 -16 12.57 3.91
 4 -6 -15 9.77 3.59
 4 -6 -14 31.04 4.61
 4 -6 -13 20.94 4.02
 4 -6 -12 3.29 2.73
 4 -6 -11 11.77 3.4
 4 -6 -10 3.14 2.31
 4 -6 -9 5.71 2.19
 4 -6 -8 4.96 2.27
 4 -6 -5 35.6 2.97
 4 -6 -4 7.32 2.07
 4 -6 -3 122.71 4.43
 4 -5 -17 -0.4 3.7
 4 -5 -16 13.36 4.12
 4 -5 -15 33.76 4.87
 4 -5 -14 6.21 3.68
 4 -5 -13 7.2 3.09
 4 -5 -12 13.78 3.37
 4 -5 -11 18.77 3.34
 4 -5 -10 0.51 2.22
 4 -5 -9 13.2 2.72
 4 -5 -8 9.9 2.43
 4 -5 -4 109.07 4.47
 4 -5 -3 4.53 1.99
 4 -4 -17 -0.37 3.43
 4 -4 -16 17.05 4.46
 4 -4 -14 18.46 4.08
 4 -4 -13 8.39 3.46
 4 -4 -12 4.3 2.86
 4 -4 -11 1.91 2.49
 4 -4 -10 2.26 2.43
 4 -4 -8 36.08 3.69
 4 -4 -5 236.91 6.33
 4 -4 -4 244.59 6.25
 4 -3 -17 5.47 3.97
 4 -3 -16 -3.66 3.08
 4 -3 -15 12.72 4.38
 4 -3 -14 9.07 3.54
 4 -3 -13 28.25 4.57
 4 -3 -12 3.07 2.7
 4 -3 -11 3.22 2.55
 4 -3 -10 22.28 3.43
 4 -3 -9 27.51 3.44
 4 -3 -5 302.59 7.24
 4 -3 -4 79.44 4.04
 4 -2 -18 6.99 4.19
 4 -2 -17 4.22 3.92
 4 -2 -16 12.52 4.77
 4 -2 -15 14.7 4.07
 4 -2 -13 10.51 3.35
 4 -2 -12 36.1 4.61
 4 -2 -11 0.3 2.55
 4 -2 -10 45.53 4.43
 4 -2 -9 30.7 3.3
 4 -2 -5 200.19 6.09
 4 -1 -18 17.15 4.93
 4 -1 -17 3.21 3.87
 4 -1 -13 14.72 3.56
 4 -1 -12 53.06 5.07
 4 -1 -11 3.33 2.45
 4 -1 -10 38.53 3.81
 4 -1 -9 131.72 5.98
 4 -1 -5 102.66 4.48
 4 0 -18 0.64 4.72
 4 0 -17 -0.07 3.9
 4 0 -15 2.3 4.08
 4 0 -14 4.86 3.23
 4 0 -13 -1.75 2.65
 4 0 -12 9.92 3.55
 4 0 -11 20.87 3.6
 4 0 -10 91.96 5.58
 4 0 -9 78.48 4.74
 4 1 -18 11.53 4.95
 4 1 -17 5.18 4.11
 4 1 -16 19.64 4.71
 4 1 -15 23.45 4.8
 4 1 -14 10.36 3.63
 4 1 -13 13.4 3.48
 4 1 -12 59.02 5.33
 4 1 -11 -0.92 2.33
 4 1 -10 40.06 4.07
 4 1 -9 132.3 5.83
 4 1 -8 281.37 7.88
 4 1 -5 98.87 4.44
 4 2 -18 8.34 5.08
 4 2 -17 0.72 3.82
 4 2 -16 14.94 4.29
 4 2 -15 5.88 4.31
 4 2 -14 15.58 3.83
 4 2 -13 9.32 3.62
 4 2 -12 37.7 4.61
 4 2 -11 1.73 2.58
 4 2 -10 44.63 4.46
 4 2 -9 28.89 3.33
 4 2 -8 0.51 2.45
 4 3 -17 6.93 4.1
 4 3 -15 12.04 4.02
 4 3 -14 3.07 3.6
 4 3 -11 2.75 3.01
 4 3 -10 21.44 3.57
 4 3 -9 34.18 3.58
 4 3 -8 20.41 3.25
 4 4 -17 0.15 3.69
 4 4 -16 9.78 4.77
 4 4 -15 11.95 4.05
 4 4 -14 16.69 4.21
 4 4 -13 11.17 3.5
 4 4 -12 0.08 3.23
 4 4 -11 0.2 2.6
 4 4 -10 3.86 2.69
 4 4 -9 33.86 4.1
 4 4 -8 33.05 3.42
 4 4 -7 31.85 3.28
 4 4 -4 240.59 6.6
 4 5 -17 2.71 4
 4 5 -14 13.15 4.05
 4 5 -13 3.51 3.14
 4 5 -11 20.93 3.97
 4 5 -10 -2.3 2.37
 4 5 -9 14.82 3.11
 4 5 -8 13.21 2.73
 4 5 -7 73.54 4.44
 4 6 -16 17.69 4.43
 4 6 -14 29.43 4.73
 4 6 -13 23.16 4.23
 4 6 -12 4 3.02
 4 6 -11 5.89 3.22
 4 6 -10 1.16 2.38
 4 6 -9 6.66 2.64
 4 6 -8 8.83 3
 4 6 -3 121.08 4.79
 4 7 -15 60.08 5.85
 4 7 -14 28.9 4.56
 4 7 -13 32.56 4.86
 4 7 -12 4.21 2.87
 4 7 -11 15.25 3.66
 4 7 -10 80.19 5.41
 4 7 -8 -0.69 2.24
 4 7 -7 1.78 2.21
 4 7 -6 73.22 4.35
 4 8 -14 11.26 3.76
 4 8 -13 31.64 4.86
 4 8 -12 12.74 3.42
 4 8 -11 25.3 3.83
 4 8 -10 18.67 3.3
 4 8 -9 33.75 4.09
 4 8 -8 139.14 5.91
 4 8 -7 9.03 2.59
 4 8 -6 12.91 2.37
 4 9 -14 35.24 4.72
 4 9 -12 11.63 2.95
 4 9 -11 1.9 2.08
 5 -8 -9 7.2 2.89
 5 -8 -8 69.16 4.41
 5 -8 -7 29.15 3.53
 5 -8 -6 43.79 3.57
 5 -8 -5 15.34 2.41
 5 -7 -14 16.81 4.19
 5 -7 -13 2.68 2.95
 5 -7 -12 48.73 5.09
 5 -7 -11 27.7 3.8
 5 -7 -10 46.4 4.58
 5 -7 -9 77.8 5.1
 5 -7 -8 40.86 4.02
 5 -7 -7 44.14 3.9
 5 -7 -6 30.68 3.39
 5 -7 -5 34.48 3.19
 5 -6 -15 30 5.01
 5 -6 -14 18.75 3.89
 5 -6 -13 36.37 5.27
 5 -6 -12 1.84 2.77
 5 -6 -11 6.73 2.94
 5 -6 -10 6.14 3.01
 5 -6 -9 49.8 4.46
 5 -6 -8 39.01 3.97
 5 -6 -7 8 2.48
 5 -6 -6 25.62 3.29
 5 -6 -5 106.69 5.03
 5 -5 -15 21.63 4.82
 5 -5 -14 10.19 3.67
 5 -5 -13 33.3 5.07
 5 -5 -12 3.18 3.14
 5 -5 -11 5.74 2.93
 5 -5 -10 0.86 2.43
 5 -5 -9 45.56 4.14
 5 -5 -8 36.82 4.12
 5 -5 -7 132.72 5.86
 5 -5 -6 43.54 3.97
 5 -5 -5 61.16 4.31
 5 -4 -16 -2.17 4
 5 -4 -15 23.81 4.61
 5 -4 -14 4.06 4.15
 5 -4 -13 3.9 3.19
 5 -4 -12 2.6 3.01
 5 -4 -11 33.35 4.66
 5 -4 -10 16.01 3.67
 5 -4 -9 115.1 6.21
 5 -4 -8 5.12 2.52
 5 -4 -7 26.89 3.57
 5 -4 -6 64.53 4.58
 5 -4 -5 75.48 4.67
 5 -3 -16 37.28 5.72
 5 -3 -15 6.59 3.94
 5 -3 -13 11.03 3.66
 5 -3 -12 -1.3 2.84
 5 -3 -10 23.15 4.07
 5 -3 -9 25.33 3.71
 5 -3 -8 78.94 5.23
 5 -3 -7 51.35 3.97
 5 -3 -6 116.74 5.56
 5 -3 -5 2.87 2.16
 5 -2 -16 48.34 6.44
 5 -2 -15 37.54 5.29
 5 -2 -14 62.29 6.25
 5 -2 -13 2.99 3.81
 5 -2 -12 11.28 3.51
 5 -2 -11 41.77 4.82
 5 -2 -10 43.07 4.63
 5 -2 -9 14.95 3.62
 5 -2 -8 69.47 4.65
 5 -2 -6 4.19 2.65
 5 -2 -5 7.94 2.68
 5 -1 -16 32.62 5.85
 5 -1 -15 5.44 3.78
 5 -1 -14 37.48 5.35
 5 -1 -13 84.25 6.87
 5 -1 -12 3 3.02
 5 -1 -11 108.6 6.59
 5 -1 -10 49.54 5
 5 -1 -9 25.44 3.81
 5 -1 -7 45.83 3.96
 5 -1 -6 36.92 3.82
 5 -1 -5 16.59 2.89
 5 0 -17 2.23 4.02
 5 0 -16 -0.87 3.73
 5 0 -15 83.97 7.09
 5 0 -14 87.55 7.07
 5 0 -13 14.4 3.89
 5 0 -12 49.25 5.02
 5 0 -11 6.25 3.02
 5 0 -8 3.17 2.36
 5 0 -6 12.87 2.75
 5 0 -5 2.01 2.04
 5 1 -16 23.52 5.6
 5 1 -15 3.9 3.73
 5 1 -14 26.04 5.07
 5 1 -13 84.68 6.54
 5 1 -12 6.61 3.11
 5 1 -11 111.98 6.38
 5 1 -10 44.95 4.38
 5 1 -8 7.47 2.64
 5 1 -6 38.14 3.93
 5 2 -15 42.11 5.81
 5 2 -14 57.41 6.33
 5 2 -13 1 3.17
 5 2 -12 21.25 4.12
 5 2 -10 46.59 4.63
 5 2 -9 10.76 2.96
 5 2 -8 72.5 5.2
 5 2 -7 40.9 3.71
 5 2 -6 3.2 2.24
 5 2 -5 5.8 2.27
 5 3 -16 35.66 5.86
 5 3 -15 9.8 4.19
 5 3 -14 24.04 4.82
 5 3 -13 11.58 4.11
 5 3 -12 4.38 3.13
 5 3 -11 9.02 3.16
 5 3 -10 23.39 3.78
 5 3 -9 19.8 3.68
 5 3 -7 54.01 4.23
 5 3 -5 0.51 1.94
 5 4 -16 0.86 4.05
 5 4 -15 23.58 4.76
 5 4 -13 1.25 3.29
 5 4 -12 7.24 3.34
 5 4 -10 14.63 3.39
 5 4 -9 116.29 6.19
 5 4 -8 7.82 2.89
 5 4 -7 33.08 3.98
 5 4 -6 67.62 4.87
 5 4 -5 79.88 4.92
 5 5 -14 9.68 3.84
 5 5 -13 36.68 5.22
 5 5 -12 1.56 3.65
 5 5 -11 5.82 3.24
 5 5 -10 3.96 2.84
 5 5 -9 48.55 4.74
 5 5 -8 29.8 4.43
 5 5 -6 37.1 4.14
 5 5 -5 54.07 4.26
 5 5 -4 114.05 5.4
 5 6 -15 16.37 4.53
 5 6 -14 21.73 4.88
 5 6 -13 33.22 4.94
 5 6 -12 3.14 3.82
 5 6 -11 15.74 3.71
 5 6 -10 13.64 3.47
 5 6 -9 40.31 4.26
 5 6 -8 41.84 4.27
 5 6 -7 6.72 3.05
 5 6 -6 21.69 3.24
 5 6 -5 119.63 5.83
 5 6 -4 6.82 2.6
 5 7 -14 19.49 4.36
 5 7 -13 0.3 3.51
 5 7 -12 45.7 5.22
 5 7 -10 43.37 5.34
 5 7 -9 70.87 5.35
 5 7 -8 46.03 4.6
 5 7 -7 39.34 4.29
 5 7 -6 31.45 3.74
 5 7 -4 30.23 3.29
 5 7 -3 5.54 2.43
 5 8 -12 9.2 3.38
 5 8 -10 40.33 4.48
 5 8 -9 4.56 2.82
 5 8 -8 66.76 5.07
 5 8 -7 31.94 3.94
 5 8 -6 50.64 4.08
 5 8 -5 15.24 3.07
 5 8 -4 39.48 3.61
 5 8 -3 5.32 2.39
 5 8 -2 7.3 2.51
 5 9 -12 12.04 3.27
 5 9 -10 48.03 4.39
 5 9 -9 24.5 3.52
 5 9 -8 24.6 3.63
 5 9 -7 3.92 2.42
 5 9 -6 25.13 3.29
 5 9 -5 6.3 2.18
 5 9 -3 0.3 1.63
 6 -8 -5 9.37 2.68
 6 -8 -4 62.1 4.31
 6 -8 -3 12.04 2.63
 6 -8 -2 26.05 3.27
 6 -8 -1 37.28 3.59
 6 -7 -12 3.25 2.89
 6 -7 -11 40.3 5.02
 6 -7 -10 -0.84 3.08
 6 -7 -9 2.95 2.87
 6 -7 -8 4.84 2.82
 6 -7 -7 2.86 2.79
 6 -7 -6 122.88 6.04
 6 -7 -5 3.18 2.36
 6 -7 -4 15.58 3.18
 6 -7 -3 -0.2 1.96
 6 -7 -2 0.9 2.29
 6 -6 -13 17 3.93
 6 -6 -12 6.32 3.5
 6 -6 -11 -0.21 3.34
 6 -6 -10 13.67 3.53
 6 -6 -9 21.1 3.67
 6 -6 -8 2.04 2.63
 6 -6 -7 10.22 3.3
 6 -6 -6 19.17 3.55
 6 -6 -4 40.36 4.21
 6 -6 -3 85.68 5.16
 6 -5 -13 15.21 3.94
 6 -5 -12 7.43 3.64
 6 -5 -11 12.06 4.12
 6 -5 -10 31.09 4.46
 6 -5 -9 3.11 2.96
 6 -5 -8 13.86 3.66
 6 -5 -7 38.04 4.65
 6 -5 -6 7.7 2.88
 6 -5 -5 68.35 5.08
 6 -5 -4 5.75 2.59
 6 -5 -3 7.11 2.69
 6 -4 -14 14.51 4.5
 6 -4 -13 9.73 4.21
 6 -4 -12 -2.31 2.8
 6 -4 -11 4.22 3.09
 6 -4 -10 21.16 4.2
 6 -4 -9 19.26 3.97
 6 -4 -8 41.38 4.52
 6 -4 -7 3.88 2.76
 6 -4 -6 11.1 3.46
 6 -4 -5 116.99 5.92
 6 -4 -4 38.15 4.38
 6 -3 -14 29.63 5.45
 6 -3 -13 4.23 3.55
 6 -3 -12 4.12 3.37
 6 -3 -11 6.2 3.42
 6 -3 -10 9.33 3.76
 6 -3 -9 16.66 3.83
 6 -3 -8 9.86 3.26
 6 -3 -7 20.94 3.69
 6 -3 -6 48.5 4.85
 6 -3 -5 40.99 4.17
 6 -3 -4 25.75 3.79
 6 -2 -15 4.3 4.3
 6 -2 -14 31.53 5.37
 6 -2 -13 -0.18 3.86
 6 -2 -11 26.5 4.41
 6 -2 -10 10.7 3.42
 6 -2 -9 55.83 5.33
 6 -2 -8 18.97 3.97
 6 -2 -7 57.82 5.2
 6 -2 -6 49.47 4.61
 6 -2 -5 34.45 4.37
 6 -1 -15 1.14 3.95
 6 -1 -14 9.46 4.16
 6 -1 -12 8.89 3.89
 6 -1 -11 6 3.37
 6 -1 -10 3.43 3.1
 6 -1 -9 11.5 3.45
 6 -1 -8 35.17 4.74
 6 -1 -7 84.27 5.8
 6 -1 -6 29.97 4
 6 -1 -5 67.86 5.28
 6 0 -15 19.27 4.83
 6 0 -14 0.49 4.36
 6 0 -13 8.07 3.82
 6 0 -12 -0.33 3.04
 6 0 -11 27.61 4.75
 6 0 -10 100.09 6.83
 6 0 -9 65.1 5.65
 6 0 -8 29.25 4.27
 6 0 -7 207.64 8.13
 6 0 -6 47.09 4.93
 6 0 -5 85.51 5.38
 6 1 -15 2.69 3.88
 6 1 -14 5 4.1
 6 1 -13 4.39 3.74
 6 1 -12 7.18 3.57
 6 1 -11 5.33 3.46
 6 1 -10 5.03 3.11
 6 1 -9 12.35 3.46
 6 1 -8 41.2 4.43
 6 1 -7 83.63 5.89
 6 1 -5 68.33 4.94
 6 2 -15 1.29 3.79
 6 2 -14 29.51 5.69
 6 2 -12 13.08 4.04
 6 2 -10 17.34 4.4
 6 2 -9 56 5.57
 6 2 -8 12.43 3.39
 6 2 -7 54.06 4.71
 6 2 -6 44.48 4.66
 6 2 -5 35.47 4.37
 6 3 -14 33.45 5.55
 6 3 -12 1.81 3.28
 6 3 -11 3.23 3.39
 6 3 -10 10.95 3.65
 6 3 -9 19.24 3.92
 6 3 -8 9.98 3.28
 6 3 -7 18.75 3.6
 6 3 -6 48.35 5.15
 6 3 -5 40.55 4.54
 6 4 -14 11.28 4.44
 6 4 -13 8.8 4.53
 6 4 -12 2.66 3.34
 6 4 -11 5.4 3.39
 6 4 -10 22.44 4.46
 6 4 -9 18.29 4.21
 6 4 -8 46.36 5.12
 6 4 -7 6.24 3.04
 6 4 -6 9.52 3.13
 6 4 -5 120.62 6.58
 6 4 -4 31.68 4.01
 6 5 -12 16.56 4.57
 6 5 -11 15.02 4.28
 6 5 -10 40.02 5.12
 6 5 -9 1.33 3.01
 6 5 -8 11.51 3.42
 6 5 -7 27.49 3.98
 6 5 -6 14.24 3.6
 6 5 -5 73.86 5.65
 6 5 -4 7.99 2.94
 6 6 -13 20.77 4.59
 6 6 -12 4.01 3.59
 6 6 -11 -1.53 3.51
 6 6 -10 14.81 3.75
 6 6 -9 14.61 3.63
 6 6 -8 0.72 2.76
 6 6 -7 3.55 2.89
 6 6 -5 40.22 4.5
 6 6 -4 43.54 4.84
 6 7 -12 2.01 3.43
 6 7 -11 46.16 5.69
 6 7 -10 0.58 3.26
 6 7 -8 1.93 2.96
 6 7 -7 2.33 2.89
 6 7 -5 4.43 3.04
 6 7 -4 15.15 3.74
 6 7 -3 0.36 2.56
 6 8 -11 11.66 3.72
 6 8 -9 51.63 5.18
 6 8 -8 74.97 5.53
 6 8 -7 -0.09 2.69
 6 8 -6 -0.85 2.53
 6 8 -5 4.12 2.64
 6 8 -4 66.19 4.83
 6 8 -3 15.42 3.24
 6 8 -2 24.46 3.71
 6 9 -10 25.7 4.11
 6 9 -9 -0.61 2.77
 6 9 -8 5.46 2.58
 6 9 -7 16.09 3.33
 6 9 -6 42.86 4.28
 6 9 -4 2.76 2.19
 6 9 -3 18.66 3.25
 6 9 -2 17.74 2.96
 6 9 -1 21.05 3.13
 7 -7 -9 9.7 3.8
 7 -7 -8 7.11 3.13
 7 -7 -7 25.01 3.89
 7 -7 -6 46.95 4.69
 7 -7 -5 10.62 3.06
 7 -7 -4 -1.31 2.36
 7 -7 -3 2.61 2.67
 7 -7 -2 13 3.32
 7 -6 -10 1.36 3.19
 7 -6 -8 64.93 5.67
 7 -6 -7 3.84 3.08
 7 -6 -6 9.57 3.39
 7 -6 -5 42.79 5.23
 7 -6 -4 4.06 2.94
 7 -6 -3 26.68 4.15
 7 -6 -2 10.89 3.24
 7 -5 -11 15.26 4.56
 7 -5 -10 20.18 4.23
 7 -5 -9 4.7 3.34
 7 -5 -8 29.82 4.49
 7 -5 -7 70.37 5.95
 7 -5 -6 0.59 2.85
 7 -5 -5 8.2 3.43
 7 -5 -4 1.8 2.77
 7 -5 -3 27.51 4.17
 7 -4 -12 9.94 3.86
 7 -4 -11 15.76 4.32
 7 -4 -10 56.81 6.44
 7 -4 -9 90.26 6.75
 7 -4 -8 30.1 4.63
 7 -4 -7 2.72 3.09
 7 -4 -6 53.33 5.17
 7 -4 -5 28.09 4.27
 7 -4 -4 87.4 6.24
 7 -3 -12 21.86 4.85
 7 -3 -11 10.69 4.35
 7 -3 -10 25.61 4.9
 7 -3 -9 28.04 4.65
 7 -3 -8 89.12 6.25
 7 -3 -7 22.53 4.22
 7 -3 -6 54.84 5.2
 7 -2 -12 2.02 3.63
 7 -2 -11 39.5 5.46
 7 -2 -10 33.3 5.19
 7 -2 -9 0.99 3.94
 7 -2 -8 38.08 5.44
 7 -2 -7 4.54 3.68
 7 -2 -6 32.6 4.97
 7 -2 -5 3.82 3.6
 7 -1 -13 21.57 5.62
 7 -1 -12 5.39 3.84
 7 -1 -11 9.6 4.12
 7 -1 -10 12.41 4.4
 7 -1 -9 26.2 5.12
 7 -1 -8 14.71 4.17
 7 -1 -7 24.77 4.4
 7 -1 -5 65.21 6.02
 7 0 -13 14.68 4.33
 7 0 -12 9.03 4.38
 7 0 -11 3.92 4.12
 7 0 -10 -0.75 3.19
 7 0 -9 28.62 4.88
 7 0 -8 6.9 3.51
 7 0 -7 1.51 3.24
 7 0 -6 2.03 3.03
 7 0 -5 9.16 3.49
 7 1 -13 19.15 4.86
 7 1 -12 0.47 3.71
 7 1 -11 9.04 4.79
 7 1 -10 17.87 4.6
 7 1 -9 29.04 4.76
 7 1 -7 27.59 4.68
 7 1 -6 26.58 4.33
 7 1 -5 65.91 5.64
 7 2 -13 21.87 4.96
 7 2 -12 -3.42 4.03
 7 2 -11 38.37 5.57
 7 2 -10 40.36 5.44
 7 2 -9 1.46 3.43
 7 2 -8 46.89 5.93
 7 2 -7 4.44 3.75
 7 2 -6 32.73 5.27
 7 2 -5 0.74 3.65
 7 3 -12 21.28 4.82
 7 3 -11 17.31 4.9
 7 3 -10 27.36 5.18
 7 3 -8 96.01 6.78
 7 3 -7 10.68 3.86
 7 3 -6 50.56 5.7
 7 3 -4 61.65 6.09
 7 4 -12 6.18 4
 7 4 -11 19.54 5.1
 7 4 -10 59.34 6.23
 7 4 -9 83.84 6.37
 7 4 -8 30.73 5
 7 4 -7 0.12 3.38
 7 4 -6 58.91 6.52
 7 4 -5 27.08 4.85
 7 5 -11 15.25 4.31
 7 5 -10 17.03 4.45
 7 5 -9 5.27 4.28
 7 5 -8 37.31 5.01
 7 5 -7 75.6 6.05
 7 5 -6 2.08 3.18
 7 5 -5 8.85 3.87
 7 5 -4 4.88 3.75
 7 6 -10 3.08 3.54
 7 6 -9 27.96 5.43
 7 6 -8 71.5 6.31
 7 6 -6 6.54 3.56
 7 6 -5 37.06 5.24
 7 6 -4 10.21 3.92
 7 6 -3 28.21 4.44
 7 7 -9 10.2 3.88
 7 7 -8 10.59 3.9
 7 7 -7 28.11 4.96
 7 7 -6 53.25 5.47
 7 7 -5 10.13 3.44
 7 7 -4 1.8 3.05
 7 7 -3 6.44 3.84
 7 7 -2 12.95 3.66
 7 8 -8 8.29 3.79
 7 8 -7 20.46 4.34
 7 8 -6 28.94 4.37
 7 8 -5 10.63 3.58
 7 8 -4 7.46 3.72
 7 8 -3 11.81 3.45
 7 8 -2 5.17 3.15
 7 8 -1 36.77 5.06
 7 9 -6 8.72 3.33
 7 9 -4 44.84 4.9
 7 9 -3 5.67 3.01
 7 9 -2 32.2 4.33
 7 9 -1 36.55 5
 7 9 0 0.48 2.49
 8 -7 -4 5.94 3.57
 8 -7 -3 9.01 3.4
 8 -7 -2 6.64 3.48
 8 -7 -1 6.25 3.46
 8 -7 0 110.9 6.77
 8 -6 -6 26.05 4.86
 8 -6 -5 8.36 3.47
 8 -6 -4 74.07 6.09
 8 -6 -3 9.22 3.85
 8 -6 -2 43.13 5.23
 8 -6 -1 51.29 5.67
 8 -5 -7 13.73 4.36
 8 -5 -5 19.09 4.03
 8 -5 -3 4.16 3.82
 8 -5 -2 25.85 4.53
 8 -4 -8 27.13 5.14
 8 -4 -7 25.75 4.78
 8 -4 -6 8.45 4.12
 8 -4 -5 5.72 3.84
 8 -4 -4 5.56 3.7
 8 -4 -3 3.28 3.97
 8 -3 -9 9.25 4.5
 8 -3 -8 35.1 5.4
 8 -3 -7 16.55 4.54
 8 -3 -6 18.04 4.83
 8 -3 -5 8.32 3.72
 8 -3 -4 21.23 4.93
 8 -3 -3 3.23 3.8
 8 -2 -9 22.49 5.46
 8 -2 -8 22.3 4.79
 8 -2 -7 8.21 4.04
 8 -2 -6 14.61 4.76
 8 -2 -5 36.14 5.51
 8 -2 -4 21.05 4.46
 8 -1 -10 5.89 4.06
 8 -1 -9 19.52 5.28
 8 -1 -8 6.54 4.06
 8 -1 -7 37.9 5.68
 8 -1 -6 8.17 4.7
 8 -1 -4 3.75 3.72
 8 0 -10 5.81 4.84
 8 0 -9 1.85 3.63
 8 0 -8 20.61 5.17
 8 0 -7 15.55 4.68
 8 0 -6 27.14 4.89
 8 0 -4 79.78 6.88
 8 1 -9 15.96 4.68
 8 1 -8 3.89 3.99
 8 1 -7 32.49 5.83
 8 1 -6 7.36 4.06
 8 1 -5 31.22 5.58
 8 1 -4 4.31 3.77
 8 2 -9 13.64 4.61
 8 2 -7 10 4.09
 8 2 -6 13.79 4.7
 8 2 -5 39.61 5.58
 8 2 -4 12.36 4.23
 8 3 -9 4.75 4.07
 8 3 -8 38.35 5.72
 8 3 -7 19.4 5.24
 8 3 -6 15.56 4.26
 8 3 -5 9.69 4.72
 8 3 -4 21.91 4.71
 8 4 -8 26.5 5.19
 8 4 -7 18.14 4.67
 8 4 -6 1.81 3.63
 8 4 -5 1.43 4.21
 8 4 -3 0.23 4.01
 8 5 -7 16.08 4.69
 8 5 -6 39.66 5.71
 8 5 -5 14.37 4.45
 8 5 -4 45.72 6.04
 8 5 -3 1.45 3.77
 8 6 -6 28.51 5.23
 8 6 -5 10.57 4.08
 8 6 -4 87.79 7.18
 8 6 -3 15.08 4.44
 8 7 -3 -0.15 3.3
 8 7 -2 5.49 4.08
 8 7 -1 5.22 3.7
 9 -3 -2 4.49 3.79
 9 -2 -4 -4.95 3.81
 9 -2 -3 7.52 4.34
 9 -1 -4 1.63 4.6
 9 0 -3 25.59 5.19
 9 1 -4 4.53 4.23
 9 1 -3 -3.64 3.53
 9 2 -4 -2.54 3.98
 9 2 -3 6.84 4.41
 -4 7 1 4.32 2.33
 -4 7 2 7.19 2.42
 -4 7 3 84.2 4.56
 -4 7 4 7.7 2.44
 -4 7 5 0.55 1.98
 -4 7 6 67.03 3.6
 -4 8 -1 23.35 3.99
 -4 8 4 25.89 3.18
 -4 8 5 60.55 4.11
 -4 8 6 6.56 2.16
 -4 9 -2 22.2 4.1
 -4 9 -1 151.4 7.92
 -4 9 0 -0.65 3.03
 -4 9 1 137.1 7.23
 -4 9 2 21.12 3.73
 -4 9 3 5.39 2.85
 -4 10 -2 -1.21 3.23
 -4 10 -1 129.3 7.97
 -4 10 0 103.8 6.75
 -4 10 1 133.34 7.51
 -4 10 2 3.67 3.78
 -4 10 3 25.15 4.18
 -4 10 5 16.41 3.67
 -4 11 -2 54.26 6.63
 -4 11 -1 34.26 5.64
 -4 11 0 1.44 3.5
 -4 11 1 35.69 5.61
 -4 11 2 42.98 5.56
 -4 11 3 47.33 5.61
 -4 11 4 3.77 3.11
 -4 11 5 18.64 3.86
 -4 12 -2 25.62 5.5
 -4 12 -1 13.54 5.46
 -4 12 0 2.32 3.84
 -4 12 1 18.85 4.6
 -4 12 2 25.94 4.74
 -4 12 3 2.83 3.45
 -4 12 4 25.29 4.49
 -4 13 -2 -4.9 4.12
 -4 13 0 9.34 4.52
 -4 13 1 3.95 4
 -4 13 2 0.47 3.55
 -4 13 3 21.59 5.06
 -4 13 4 3.34 3.87
 -4 14 0 18.84 5.26
 -4 14 1 18.03 5.02
 -3 4 0 363.62 7.23
 -3 4 1 54.04 3.22
 -3 4 2 11.1 1.88
 -3 4 4 149.46 3.72
 -3 4 5 2.72 0.99
 -3 5 -2 368.89 8.6
 -3 5 -1 31.37 3.47
 -3 5 0 134.84 4.87
 -3 5 1 28.68 3.02
 -3 5 2 361.66 7.16
 -3 5 4 414.7 6.89
 -3 5 5 34.99 2.35
 -3 5 6 135.27 3.69
 -3 5 7 20.57 1.75
 -3 5 8 15.31 1.49
 -3 6 -3 79.95 4.83
 -3 6 -1 75.45 4.32
 -3 6 0 136.32 5.51
 -3 6 2 45.55 3.52
 -3 6 3 75.21 3.9
 -3 6 4 77.29 3.78
 -3 6 5 57.96 3.25
 -3 6 6 106.5 3.93
 -3 6 7 28.33 2.41
 -3 6 8 123.11 3.77
 -3 7 -2 33.68 3.88
 -3 7 0 0.6 1.95
 -3 7 1 86.05 4.93
 -3 7 2 31.05 3.61
 -3 7 3 32.02 3.38
 -3 7 4 105.29 4.83
 -3 7 5 49.07 3.36
 -3 7 6 78.28 3.95
 -3 7 7 40.27 3.03
 -3 7 8 147.01 4.78
 -3 8 -4 3.29 3.1
 -3 8 -3 -0.76 2.3
 -3 8 2 23.76 3.35
 -3 8 3 1.07 2.5
 -3 8 4 0.64 2.16
 -3 8 5 25.16 3.36
 -3 8 7 35.42 3.36
 -3 8 8 87.6 4.35
 -3 9 -5 2.39 3.17
 -3 9 -4 2.82 3.11
 -3 9 -2 34.11 4.53
 -3 9 0 12.43 3.17
 -3 9 1 89.35 5.83
 -3 10 -6 30.22 5.29
 -3 10 -5 63.21 6.49
 -3 10 -4 21.83 4.52
 -3 10 -3 37.81 5.41
 -3 10 -2 28.83 4.43
 -3 10 -1 33.8 4.68
 -3 10 0 25.77 4.29
 -3 10 1 30.88 4.28
 -3 10 2 28.44 4.31
 -3 10 3 38.15 4.8
 -3 10 4 17.45 3.74
 -3 10 5 73.51 5.61
 -3 10 6 23.21 4
 -3 10 7 6.77 2.73
 -3 11 -5 44.22 6.03
 -3 11 -4 8.74 4.67
 -3 11 -3 1.44 3.87
 -3 11 -2 18.75 4.47
 -3 11 -1 87.7 6.78
 -3 11 1 81.14 6.7
 -3 11 2 15.74 3.79
 -3 11 3 2.18 3.65
 -3 11 4 8.28 3.83
 -3 11 6 14.49 3.56
 -3 11 7 39.98 4.84
 -3 12 -6 8.05 5.62
 -3 12 -5 69.41 7.76
 -3 12 -4 12.07 4.8
 -3 12 -3 19.38 5.01
 -3 12 -2 32.91 5.27
 -3 12 -1 25.89 4.88
 -3 12 0 11.28 4.07
 -3 12 1 22.88 5.26
 -3 12 2 31.52 5.04
 -3 12 3 15.33 4.11
 -3 12 4 4.35 3.43
 -3 12 5 66.71 5.9
 -3 12 6 6.23 3.86
 -3 12 7 90.55 6.47
 -3 13 -5 85.71 8.39
 -3 13 -4 18.82 5.69
 -3 13 -3 20.18 5.61
 -3 13 -2 30.98 5.7
 -3 13 -1 -0.78 3.81
 -3 13 0 117.27 8.71
 -3 13 1 4.3 3.94
 -3 13 2 32.9 6.15
 -3 13 3 9.47 4.68
 -3 13 4 9.06 4.62
 -3 13 6 3.15 3.78
 -3 14 -5 2.91 5.03
 -3 14 -4 10.59 5.29
 -3 14 -2 -2.65 4.12
 -3 14 -1 3.6 4.84
 -3 14 0 17.9 5.16
 -3 14 1 0.55 4.93
 -3 14 2 -1.69 3.79
 -3 14 3 8.47 4.76
 -3 14 4 10.46 4.86
 -3 14 5 1.36 3.68
 -2 2 1 0.92 1.11
 -2 2 2 719.82 6.02
 -2 2 8 1.13 0.42
 -2 2 10 24.58 1.12
 -2 3 -1 239.72 5.22
 -2 3 0 1656.06 12.2
 -2 3 1 238.55 4.68
 -2 3 2 176.75 3.82
 -2 3 3 369.1 4.88
 -2 3 4 18.6 1.41
 -2 3 5 435.51 4.77
 -2 3 6 405.89 4.53
 -2 3 8 1.66 0.74
 -2 3 9 7.69 1
 -2 3 10 65.58 2.01
 -2 4 -3 228.12 6.12
 -2 4 -2 395.75 7.55
 -2 4 -1 44.28 2.76
 -2 4 0 2379.49 16.3
 -2 4 1 46.4 2.83
 -2 4 2 388.5 6.22
 -2 4 3 229.78 4.69
 -2 4 4 218.24 4.45
 -2 4 5 98.52 3.02
 -2 4 6 11.38 1.42
 -2 4 7 126.57 3.31
 -2 4 8 19.14 1.73
 -2 4 9 103.7 2.99
 -2 4 10 15.68 1.6
 -2 5 -3 63.79 4.05
 -2 5 -2 185.19 5.74
 -2 5 -1 54.83 3.55
 -2 5 0 63.13 3.58
 -2 5 1 54.06 3.28
 -2 5 3 59.69 3.09
 -2 5 4 140.8 4.22
 -2 5 5 223.57 5.12
 -2 5 6 191.93 4.71
 -2 5 7 95.89 3.47
 -2 5 9 0.83 1.28
 -2 5 10 19.98 2
 -2 6 -6 133.54 6.31
 -2 6 -4 46.73 3.67
 -2 6 -3 19.07 2.99
 -2 6 -2 78.85 4.38
 -2 6 -1 39.53 3.2
 -2 6 0 321.59 7.62
 -2 6 1 44.08 3.4
 -2 6 3 14.86 2.22
 -2 6 4 47.04 3.26
 -2 6 5 197.1 5.53
 -2 6 6 132.96 4.6
 -2 6 7 209.35 5.49
 -2 6 9 62.99 3.39
 -2 6 10 33.77 2.69
 -2 7 -7 1.41 2.52
 -2 7 -4 11.1 2.57
 -2 7 -3 338.48 9.1
 -2 7 -2 19.37 3.01
 -2 7 -1 191.32 6.85
 -2 7 0 7.13 2.3
 -2 7 1 184.86 6.18
 -2 7 2 15.83 2.65
 -2 7 6 3.43 1.83
 -2 7 7 2.36 1.73
 -2 7 8 41.42 3.41
 -2 7 9 33.91 3.11
 -2 7 10 62.83 3.71
 -2 8 -6 16.95 3.39
 -2 8 -5 196.37 7.76
 -2 8 0 49.59 4.11
 -2 8 1 110.3 5.6
 -2 8 3 105.44 5.2
 -2 8 5 197.89 6.79
 -2 8 6 18.16 2.95
 -2 8 7 41.77 3.81
 -2 8 8 55.48 4.12
 -2 8 9 21.85 3.19
 -2 8 10 50.51 3.8
 -2 9 -8 148.42 8.65
 -2 9 -6 6.4 3
 -2 9 -5 10.14 3.27
 -2 9 -4 25.24 3.93
 -2 9 -2 3.83 2.76
 -2 9 10 24.11 3.22
 -2 10 -8 2.7 3.64
 -2 10 -7 -0.61 3.22
 -2 10 -5 96.7 6.87
 -2 10 -3 23.11 4.09
 -2 10 -2 20.57 4.2
 -2 10 -1 161.76 7.99
 -2 10 1 168.95 7.56
 -2 10 2 21.93 3.9
 -2 10 3 29.28 4.25
 -2 10 4 11.6 3.35
 -2 10 6 44.01 4.58
 -2 10 7 0.72 2.52
 -2 10 8 3.72 3.01
 -2 10 9 81.28 5.5
 -2 10 10 46.68 4.55
 -2 11 -8 89.3 8.58
 -2 11 -7 25.91 5.69
 -2 11 -6 18.72 4.68
 -2 11 -5 9.87 3.91
 -2 11 -3 62.91 6.56
 -2 11 -2 14.34 4.04
 -2 11 -1 121.05 7.83
 -2 11 1 112.59 7.29
 -2 11 2 9.74 3.69
 -2 11 3 60.26 6.06
 -2 11 4 8.94 3.48
 -2 11 5 6.72 3.9
 -2 11 6 18.29 4.17
 -2 11 7 26.33 4.6
 -2 11 8 98.74 6.33
 -2 11 9 14.77 3.7
 -2 12 -7 11.72 5.06
 -2 12 -6 6.49 4.52
 -2 12 -5 97.48 8.53
 -2 12 -4 19.31 4.89
 -2 12 -3 15.12 5.13
 -2 12 -2 65.65 6.46
 -2 12 -1 31.26 5.05
 -2 12 0 -0.19 3.25
 -2 12 1 39.2 5.49
 -2 12 3 14.43 4.64
 -2 12 4 14.22 4.02
 -2 12 5 104.82 6.88
 -2 12 6 5.25 3.44
 -2 12 7 7.01 3.77
 -2 12 8 69.13 6.07
 -2 12 9 6.33 3.68
 -2 13 -8 5.31 5.49
 -2 13 -7 10.54 5.89
 -2 13 -6 3.22 4.65
 -2 13 -5 21.86 5.95
 -2 13 -4 62.36 6.89
 -2 13 -3 22.91 5.56
 -2 13 -1 27.03 5.81
 -2 13 0 11.57 5.33
 -2 13 1 25.46 5.29
 -2 13 2 2.79 3.87
 -2 13 3 26.93 5.5
 -2 13 4 73.35 7.46
 -2 13 5 18.97 4.99
 -2 13 7 15.92 4.31
 -2 13 8 0.11 3.31
 -2 14 -7 0.05 5.93
 -2 14 -6 18.42 5.89
 -2 14 -4 46.34 7.5
 -2 14 -3 5.06 4.77
 -2 14 -2 35.86 6.31
 -2 14 -1 7.66 4.94
 -2 14 0 40.19 6.73
 -2 14 1 6.37 4.46
 -2 14 2 30.87 6.16
 -2 14 3 3.09 4.11
 -2 14 4 42.49 5.91
 -2 14 5 11.89 4.45
 -2 14 6 28.54 5.68
 -2 14 7 -0.37 3.45
 -2 15 -3 11.76 5.59
 -2 15 -2 40.11 6.71
 -2 15 -1 -1.94 4.63
 -2 15 0 19.09 6.08
 -2 15 1 8.51 4.98
 -2 15 3 6.74 5.22
 -1 1 0 962.86 5.86
 -1 1 1 241.6 2.48
 -1 2 -2 135.77 3.4
 -1 2 -1 343.13 4.89
 -1 2 0 889.03 6.95
 -1 2 1 333.46 4.06
 -1 2 2 132.31 2.52
 -1 2 3 1020.78 6.37
 -1 3 -5 390.66 7.62
 -1 3 -4 398.12 7.04
 -1 3 -3 50.71 2.99
 -1 3 -1 125.53 3.47
 -1 3 0 24.76 2.22
 -1 3 1 124.9 3.14
 -1 3 2 404.74 5.31
 -1 3 3 54.93 2.35
 -1 3 4 398.42 5.28
 -1 3 5 381.7 5.34
 -1 4 -6 123.94 4.86
 -1 4 -4 205.69 5.56
 -1 4 -2 95.73 3.86
 -1 4 -1 90.43 3.64
 -1 4 1 93.37 3.45
 -1 4 2 102.12 3.43
 -1 4 3 47.51 2.6
 -1 4 4 198.18 4.52
 -1 4 5 385.03 6.23
 -1 4 6 118.27 3.68
 -1 4 7 49.93 2.77
 -1 4 8 23.04 2.32
 -1 5 -7 6.98 2.35
 -1 5 -6 107.15 4.94
 -1 5 -5 33.54 3.18
 -1 5 -1 33.63 2.61
 -1 5 0 8.61 2.06
 -1 5 1 33.29 2.74
 -1 5 2 528.29 8.08
 -1 5 3 317.72 6.3
 -1 5 4 175.48 4.87
 -1 5 5 27.62 2.56
 -1 5 6 108.22 4.09
 -1 5 7 3.67 1.56
 -1 5 8 124.11 4.52
 -1 5 9 26.86 2.61
 -1 5 10 57.08 3.47
 -1 5 11 39.67 3.22
 -1 5 12 1.43 1.96
 -1 5 13 70.8 3.98
 -1 6 -7 178.34 7.01
 -1 6 -6 56.33 4.07
 -1 6 -1 59.12 3.49
 -1 6 1 66.38 3.62
 -1 6 2 17.43 2.42
 -1 6 3 115.39 4.61
 -1 6 4 130.26 4.65
 -1 6 5 12.16 2.49
 -1 6 6 56.71 3.68
 -1 6 7 192.38 5.81
 -1 6 8 53.93 3.68
 -1 6 9 10.22 2.24
 -1 6 10 165.06 5.73
 -1 6 11 10.78 2.65
 -1 6 12 89.2 4.62
 -1 6 13 1.92 2.01
 -1 7 -5 8.1 2.39
 -1 7 -4 251.03 7.79
 -1 7 -3 17.4 3.03
 -1 7 -2 36.12 3.49
 -1 7 -1 113.82 5.12
 -1 7 0 436.2 9.26
 -1 7 1 121.76 5.38
 -1 7 3 18.9 2.73
 -1 7 4 240.43 6.78
 -1 7 5 5.02 2.12
 -1 7 6 153.22 5.74
 -1 7 7 54.8 3.97
 -1 7 8 80.91 4.47
 -1 7 9 34.18 3.41
 -1 7 10 7.5 2.43
 -1 7 11 6.79 2.63
 -1 8 -9 5.08 3.64
 -1 8 -8 10.72 3.93
 -1 8 -7 109.26 6.56
 -1 8 -2 47.93 4.45
 -1 8 -1 209.29 7.25
 -1 8 0 37.59 3.84
 -1 8 3 11.95 2.71
 -1 8 4 105.52 5.14
 -1 8 5 22.75 3.39
 -1 8 6 38.7 4.03
 -1 8 7 98.62 5.3
 -1 8 12 20.62 3.48
 -1 9 -9 -1.55 3.34
 -1 9 -8 59.23 6.55
 -1 9 -7 57.7 5.31
 -1 9 -6 7.39 3.09
 -1 9 -4 127.48 6.61
 -1 9 8 59.31 5.19
 -1 9 9 0.64 2.93
 -1 9 10 175.86 7.19
 -1 9 11 20.4 3.34
 -1 9 12 0.81 2.51
 -1 10 -9 4.5 4.38
 -1 10 -8 159.61 8.62
 -1 10 -7 -0.25 3.7
 -1 10 -6 12.88 3.78
 -1 10 -5 82.43 6.36
 -1 10 -4 12.26 4.08
 -1 10 -3 38.05 4.77
 -1 10 -1 19.71 3.75
 -1 10 0 -1.26 2.39
 -1 10 1 24.23 4.31
 -1 10 2 22.82 3.81
 -1 10 4 15.21 3.45
 -1 10 5 71.02 5.35
 -1 10 6 14.35 4.02
 -1 10 7 0.73 2.64
 -1 10 8 157.74 7.59
 -1 10 9 10.89 3.85
 -1 10 10 90.03 6.1
 -1 10 11 3.33 2.92
 -1 11 -9 1.25 4.7
 -1 11 -8 35.09 5.76
 -1 11 -7 141.2 8.74
 -1 11 -5 28.23 5.26
 -1 11 -4 10.75 4.04
 -1 11 -3 3.01 3.45
 -1 11 -1 53.21 5.6
 -1 11 0 1.99 3.11
 -1 11 2 16.05 4.37
 -1 11 3 3 3.69
 -1 11 4 12.73 3.69
 -1 11 5 32.34 4.61
 -1 11 6 7.19 3.53
 -1 11 8 33.47 4.82
 -1 11 10 102.24 6.76
 -1 11 11 20.89 3.94
 -1 12 -9 5.81 4.62
 -1 12 -8 43.33 7.29
 -1 12 -7 34.61 6.31
 -1 12 -6 13.29 4.69
 -1 12 -5 18.79 5.23
 -1 12 -4 20.22 5.17
 -1 12 -3 10.58 4.18
 -1 12 -1 45.78 6.19
 -1 12 0 2.91 3.64
 -1 12 2 36.66 5.3
 -1 12 3 8.85 3.88
 -1 12 4 20.73 5.19
 -1 12 5 12.64 4.12
 -1 12 6 9.69 3.75
 -1 12 7 34.52 5.03
 -1 12 8 32.1 5.28
 -1 12 9 4.26 3.4
 -1 12 10 6.89 4
 -1 12 11 0.11 3.13
 -1 13 -8 1.4 4.76
 -1 13 -7 6.97 5.14
 -1 13 -6 2.27 4.84
 -1 13 -5 16.2 5.3
 -1 13 -4 -1.54 3.64
 -1 13 -3 1.86 4.39
 -1 13 -2 -1.41 3.73
 -1 13 -1 44.8 6.73
 -1 13 0 79.99 7.77
 -1 13 1 40.49 6.48
 -1 13 2 4.1 4.4
 -1 13 4 0.14 4.78
 -1 13 5 17.41 5.05
 -1 13 6 7.1 4.25
 -1 13 7 5.67 4.42
 -1 13 8 4.56 3.9
 -1 13 9 6.63 4.56
 -1 13 10 10.11 4.64
 -1 14 -8 3.93 5.49
 -1 14 -4 6.25 5.27
 -1 14 -3 10.56 5.11
 -1 14 -2 8.34 4.8
 -1 14 -1 38 6.38
 -1 14 0 4.17 4.49
 -1 14 1 32.73 6.03
 -1 14 2 5.24 4.53
 -1 14 3 5.66 4.56
 -1 14 4 13.15 5.72
 -1 14 5 168.11 10.15
 -1 14 6 6.39 5.12
 -1 14 7 13.19 4.69
 -1 14 8 -1.5 3.94
 -1 15 -3 12.29 5.58
 -1 15 -2 7.11 5.12
 -1 15 -1 12.76 5.41
 -1 15 0 23.99 6.34
 -1 15 1 19.38 6.06
 -1 15 2 10.29 5.16
 -1 15 3 8.32 4.98
 0 1 -3 568.64 5.39
 0 1 -2 4138.15 12.09
 0 1 -1 19.72 0.98
 0 1 0 0.88 0.52
 0 2 -5 1184.91 10.5
 0 2 -4 1281 9.87
 0 2 -3 446.51 5.57
 0 2 -2 331.34 4.58
 0 2 0 5431.54 15.86
 0 2 1 5.15 1.15
 0 3 -6 231.3 5.61
 0 3 -5 223.78 5.19
 0 3 -4 353.7 5.99
 0 3 -3 983.89 9.45
 0 3 -2 339.59 5.36
 0 3 -1 406.14 5.7
 0 3 0 -0.83 1.17
 0 3 1 403.21 5.69
 0 3 2 346.84 5.4
 0 4 -7 31.46 2.83
 0 4 -3 1153.22 11.49
 0 4 -2 201.59 4.92
 0 4 -1 1.68 1.47
 0 4 0 2842.49 16.69
 0 4 1 2.69 1.65
 0 4 2 210.7 5.01
 0 4 3 1139.21 11.01
 0 5 -8 716.9 12.08
 0 5 -6 52.53 3.55
 0 5 -5 878.62 11.9
 0 5 -3 60.16 3.58
 0 5 -2 177.98 5.05
 0 5 -1 32.07 2.95
 0 5 0 0.07 1.58
 0 5 1 29.28 2.7
 0 5 2 184.77 5.08
 0 5 3 65.29 3.27
 0 5 4 24.68 2.73
 0 5 5 888.02 11.37
 0 6 -8 18.71 3.28
 0 6 -6 479.42 9.9
 0 6 -4 32.89 3.06
 0 6 1 200.08 5.81
 0 6 2 5.74 1.86
 0 6 3 12.76 2.24
 0 6 4 31.19 3.18
 0 6 5 274.23 7.04
 0 6 6 472.57 9.42
 0 6 7 249.34 7.25
 0 6 8 14.9 2.76
 0 6 9 176.65 6.7
 0 6 14 1.34 2.45
 0 6 15 22.24 3.7
 0 7 -10 2.6 3.28
 0 7 -7 19.5 3.34
 0 7 -6 16.51 3.32
 0 7 -5 613.74 11.88
 0 7 -3 374.46 8.91
 0 7 -2 6.14 2.03
 0 7 0 -0.38 1.53
 0 7 1 599.3 10.73
 0 7 2 5.63 2.11
 0 7 3 384.31 8.92
 0 7 4 5.15 2.21
 0 7 5 620.65 11.49
 0 7 6 11.46 2.62
 0 7 7 18.05 2.99
 0 7 8 136.26 6.19
 0 7 12 1.64 3.15
 0 7 13 -0.84 2.29
 0 7 14 2.54 2.79
 0 8 -9 20.19 3.8
 0 8 -8 12.38 3.37
 0 8 -3 37.4 4.12
 0 8 -2 439.02 10.42
 0 8 -1 353.91 9.32
 0 8 0 71.59 4.78
 0 8 1 342.24 9.01
 0 8 2 452.55 10.41
 0 8 3 39.99 4.3
 0 8 4 0.52 2.27
 0 8 5 38.21 4.05
 0 8 11 12.61 3.26
 0 8 12 2.53 2.64
 0 8 13 19.53 4.1
 0 8 14 0.51 2.69
 0 9 -9 19.69 4.28
 0 9 -8 136.14 7.3
 0 9 -7 0.45 2.52
 0 9 -6 7.69 3.08
 0 9 -5 47.42 5.01
 0 9 6 5.46 3.17
 0 9 7 -2.34 2.36
 0 9 8 153.25 7.27
 0 9 9 18.09 3.67
 0 9 10 9.62 3.34
 0 9 11 -2.07 2.64
 0 9 12 -1.28 2.66
 0 9 13 12.07 3.98
 0 9 14 3.14 3.19
 0 10 -11 -0.9 3.56
 0 10 -10 105.65 7.75
 0 10 -8 1.2 3.25
 0 10 -7 3.46 3.25
 0 10 -5 49.36 5.7
 0 10 -4 3.75 3.01
 0 10 -1 36.71 4.79
 0 10 0 47.43 5.17
 0 10 1 37.48 4.78
 0 10 2 115.3 6.56
 0 10 6 13.86 3.58
 0 10 8 2.01 3.14
 0 10 9 67.29 6.31
 0 10 10 101.99 6.57
 0 10 11 -0.55 3.08
 0 10 12 6.76 3.44
 0 10 13 -0.22 3.18
 0 11 -11 35.77 6.42
 0 11 -9 3.51 4.06
 0 11 -8 85.23 7.3
 0 11 -7 1.78 4.38
 0 11 -6 0.79 3.21
 0 11 -5 4.75 4.11
 0 11 -3 31.56 4.9
 0 11 -2 6.37 3.13
 0 11 -1 69.64 5.72
 0 11 0 -3.15 2.51
 0 11 2 7.31 3.28
 0 11 3 30.19 4.71
 0 11 4 4.81 3.25
 0 11 5 -0.13 2.96
 0 11 6 -1.07 3.19
 0 11 7 0.37 3.74
 0 11 9 1.88 3.4
 0 11 10 73.19 6.73
 0 11 11 24.95 4.72
 0 11 12 14.42 4.55
 0 11 13 -1.69 3.09
 0 12 -11 7.46 5.01
 0 12 -10 5.6 4.43
 0 12 -9 14.42 5.38
 0 12 -8 31.88 5.76
 0 12 -7 10.71 5.18
 0 12 -6 -1.57 3.66
 0 12 -5 83.19 6.96
 0 12 -4 12.25 4.2
 0 12 -3 55.68 6.4
 0 12 -2 58.75 6.03
 0 12 -1 9.8 4.01
 0 12 0 2.72 3.58
 0 12 1 11.77 4.08
 0 12 2 54.99 6.4
 0 12 4 18.31 4.91
 0 12 5 77.05 6.91
 0 12 6 3.96 4.36
 0 12 7 10.92 4.7
 0 12 8 37.85 6.06
 0 12 9 14.85 4.38
 0 12 10 9.84 4.59
 0 12 11 11.65 4.87
 0 12 12 2.48 3.52
 0 13 -10 53.45 7.41
 0 13 -9 -0.17 4.73
 0 13 -8 15.78 5.12
 0 13 -6 1.84 5.13
 0 13 -5 25.79 6.21
 0 13 -4 61.82 7.67
 0 13 -3 3.13 4.05
 0 13 -2 -2.75 3.73
 0 13 0 1.89 4.26
 0 13 2 2.99 3.99
 0 13 3 -2.42 3.95
 0 13 4 66.99 7.07
 0 13 6 4.67 4.16
 0 13 7 64.78 7.33
 0 13 8 15.78 5.59
 0 13 9 0.84 3.88
 0 13 10 47.89 6.2
 0 13 11 3.9 3.98
 0 14 -8 15.62 5.81
 0 14 -7 9.51 5.06
 0 14 -6 17.68 5.58
 0 14 -5 13.41 5.45
 0 14 -4 0.35 5.31
 0 14 -3 1.92 4.37
 0 14 -2 44.14 7.34
 0 14 -1 0.39 4.33
 0 14 0 41.16 6.39
 0 14 1 -2.07 3.89
 0 14 2 52.17 7.3
 0 14 3 5.55 5
 0 14 4 -0.15 4.01
 0 14 5 9.4 4.66
 0 14 6 17.97 5.08
 0 14 7 4.74 4.33
 0 14 8 13.79 5.52
 0 15 -5 5.44 5.39
 0 15 -4 7.12 5.08
 0 15 -3 35.76 6.84
 0 15 -1 6.96 4.79
 0 15 0 -0.99 4.44
 0 15 1 4.51 5.21
 0 15 4 6.74 5.58
 0 15 5 12.92 5.83
 1 1 -3 283.59 3.04
 1 1 -2 3837.32 10.27
 1 2 -6 15.71 1.64
 1 2 -5 139.57 3.25
 1 2 -4 116.3 2.84
 1 2 -3 1030.04 7.58
 1 2 -2 136.8 2.93
 1 3 -5 373.07 6.05
 1 3 -4 404.91 6.11
 1 3 -3 52.32 2.41
 1 3 -2 413.27 5.84
 1 3 -1 127.61 3.42
 1 4 -7 54.41 3.28
 1 4 -4 199.29 4.94
 1 4 -3 53.34 3.04
 1 4 -2 105.12 3.74
 1 4 -1 91.59 3.7
 1 4 0 537.45 7.89
 1 4 1 84.51 3.77
 1 5 -9 20.46 2.71
 1 5 -8 117.95 4.94
 1 5 -7 6.49 1.9
 1 5 -6 107.8 4.6
 1 5 -2 506.54 8.35
 1 5 -1 34.11 2.59
 1 5 0 8.97 1.84
 1 5 1 34.63 2.6
 1 5 2 504.62 8.61
 1 6 -10 170.94 6.73
 1 6 -9 9.53 2.88
 1 6 -8 52.22 4.14
 1 6 -7 186.63 6.49
 1 6 -6 57.2 4.06
 1 6 -5 10.97 2.33
 1 6 -3 111.52 4.66
 1 6 -2 19.54 2.5
 1 6 3 109.16 4.69
 1 7 -8 82 5.29
 1 7 -7 53.84 4.14
 1 7 -6 150.29 6.33
 1 7 -5 5.36 2.3
 1 7 -4 241.57 7.44
 1 7 -2 35.41 3.7
 1 7 -1 117.04 5.37
 1 7 0 438.65 9.44
 1 7 1 117.22 5.24
 1 7 2 34.6 3.2
 1 7 3 22.39 3.31
 1 7 4 253.74 7.82
 1 7 5 3.63 2.17
 1 7 6 141.05 6.34
 1 7 15 23.92 4.69
 1 7 16 1.09 3.78
 1 8 -9 5.42 3.48
 1 8 -3 8.69 2.49
 1 8 -2 53.65 4.43
 1 8 -1 206.37 7.39
 1 8 0 37.81 4.39
 1 8 1 188.53 7.03
 1 8 8 13.66 3.4
 1 8 9 5.68 3.43
 1 8 10 60.15 5.51
 1 8 11 50.8 5.7
 1 8 12 20.5 4.55
 1 8 13 1.11 3.05
 1 8 14 23.13 4.78
 1 8 15 4.7 3.94
 1 8 16 -0.37 3.16
 1 9 -11 25.32 4.7
 1 9 -10 173.07 8.5
 1 9 -9 -0.4 2.74
 1 9 -8 60.96 5.43
 1 9 -6 5.67 2.88
 1 9 4 124.62 6.56
 1 9 5 24.47 3.89
 1 9 6 7.49 3.13
 1 9 7 52.93 5.23
 1 9 8 56.21 5.72
 1 9 9 -1.65 2.93
 1 9 10 177.8 8.47
 1 9 11 23.16 4.29
 1 9 12 5.73 3.61
 1 9 13 12.17 4.18
 1 9 14 5.1 3.76
 1 9 15 16.09 4.09
 1 10 -11 -0.02 4.28
 1 10 -10 87.58 6.88
 1 10 -9 8.94 3.96
 1 10 -8 163.59 8.63
 1 10 -7 -0.04 2.9
 1 10 -4 10.66 3.32
 1 10 -3 40.26 4.61
 1 10 -2 29.59 4.53
 1 10 -1 20.11 3.74
 1 10 0 1.84 2.36
 1 10 1 16.24 3.46
 1 10 2 30 4.27
 1 10 4 10.9 3.92
 1 10 5 84.32 6.45
 1 10 6 13.11 3.79
 1 10 7 1.21 3.73
 1 10 8 165.53 8.77
 1 10 9 9.24 4.09
 1 10 11 1.75 3.52
 1 10 13 0.21 3.48
 1 10 14 38.7 5.41
 1 10 15 7.83 3.87
 1 11 -11 18.28 5.25
 1 11 -9 -0.47 3.45
 1 11 -8 32.2 5.19
 1 11 -7 144.61 8.26
 1 11 -6 11.21 3.88
 1 11 -4 15.68 3.99
 1 11 -3 -3.18 2.88
 1 11 -1 53.86 5.39
 1 11 0 0.79 2.97
 1 11 1 41.2 5.41
 1 11 2 11.95 3.78
 1 11 3 1.94 3.61
 1 11 4 10.39 4.27
 1 11 5 35.81 5.11
 1 11 7 148.56 8.23
 1 11 8 21.97 4.57
 1 11 9 -2.41 3.51
 1 11 10 89.79 7.32
 1 11 11 16.42 4.88
 1 11 12 18.06 4.85
 1 11 13 4.66 3.95
 1 11 14 -0.21 3.58
 1 12 -11 0.72 4.27
 1 12 -10 6.12 4.57
 1 12 -9 7.55 4.48
 1 12 -8 42.54 5.95
 1 12 -7 40.59 6.03
 1 12 -6 15.74 5.21
 1 12 -5 16.34 4.67
 1 12 -4 15.62 4.57
 1 12 -3 8.19 4.29
 1 12 -2 39.64 5.95
 1 12 -1 45.92 5.92
 1 12 0 -1.19 3.37
 1 12 1 43.61 5.94
 1 12 2 46.46 6.39
 1 12 3 5.42 4.1
 1 12 4 13.06 4.97
 1 12 5 16.94 4.53
 1 12 6 9.6 4.93
 1 12 7 33.08 5.87
 1 12 8 41.95 6.56
 1 12 9 5.73 4.07
 1 12 11 -2.13 3.76
 1 12 12 25.18 5.68
 1 13 -10 16.1 6.13
 1 13 -9 2.45 4.45
 1 13 -8 0.88 4.27
 1 13 -7 12 5.01
 1 13 -6 4.66 4.53
 1 13 -5 17.88 5.17
 1 13 -4 2.75 4.2
 1 13 -3 6.33 4.24
 1 13 -2 2.91 4.06
 1 13 -1 43.94 6.58
 1 13 0 68.18 7.08
 1 13 1 34.5 5.57
 1 13 2 4.39 4.21
 1 13 3 -0.23 3.81
 1 13 4 -1.13 3.93
 1 13 5 19.05 4.99
 1 13 6 12.37 5.66
 1 13 7 14.17 5.81
 1 13 9 -1.6 4.01
 1 14 -8 4.43 4.61
 1 14 -7 14.26 5.84
 1 14 -6 11.41 5.36
 1 14 -5 163.68 10.56
 1 14 -2 7.33 4.64
 1 14 -1 38.21 6.93
 1 14 0 9.56 4.88
 1 14 2 4.11 4.66
 1 14 3 5.65 5.47
 1 14 4 18.23 5.22
 1 14 6 4.8 5.63
 1 14 7 15.47 5.97
 1 14 8 1.89 4.36
 1 15 -4 6.72 4.88
 1 15 -3 5.59 5.13
 1 15 -2 5.07 4.88
 1 15 -1 20.23 6.59
 1 15 0 18.74 6.23
 1 15 1 19.41 6.33
 1 15 2 2.98 5.08
 1 15 3 11.28 5.21
 1 15 4 5.74 5.18
 2 1 -5 512.08 3.76
 2 1 -4 93.03 1.76
 2 1 -3 295.75 3.25
 2 2 -6 90.22 2.43
 2 2 -5 618.98 6
 2 2 -4 196.62 3.48
 2 2 -3 281.9 4.21
 2 2 -2 714.84 6.94
 2 3 -6 396.59 5.95
 2 3 -5 438.03 6.17
 2 3 -4 20.57 1.65
 2 3 -3 373.73 5.7
 2 3 -2 174.98 4.11
 2 4 -9 98.96 3.88
 2 4 -8 20.16 2.22
 2 4 -7 133.99 4.23
 2 4 -2 378.07 6.7
 2 4 -1 44.65 2.67
 2 5 -9 2.35 1.51
 2 5 -8 211.29 5.95
 2 5 -7 90.97 4.14
 2 5 -4 134.98 4.57
 2 5 -3 65.02 3.62
 2 6 -10 37.94 3.22
 2 6 -8 11.36 2.74
 2 6 -5 190.69 6.05
 2 6 -4 45.52 3.63
 2 6 -3 14.69 2.43
 2 6 -1 37.47 3.39
 2 6 1 33.03 3.29
 2 6 2 80.86 4.74
 2 7 -8 40.1 3.79
 2 7 -7 2.51 2.09
 2 7 -6 2.97 2.31
 2 7 -5 141.12 5.95
 2 7 -4 11.33 2.54
 2 7 -3 340.92 8.8
 2 7 0 8.65 2.3
 2 7 1 188.63 6.82
 2 7 2 16.67 2.86
 2 7 3 339.62 9.06
 2 7 4 13.75 2.85
 2 8 -10 51.78 4.88
 2 8 -9 19.24 3.46
 2 8 7 49.55 5.13
 2 8 15 11.68 5.28
 2 8 16 -2.83 3.58
 2 9 -11 -0.9 2.35
 2 9 -10 22.72 4.12
 2 9 -9 78.9 5.89
 2 9 -8 133.11 6.98
 2 9 -7 18.38 3.69
 2 9 -6 5.9 2.99
 2 9 -5 5.17 3.35
 2 9 -4 24.41 3.85
 2 9 -3 19.73 3.6
 2 9 -2 3.08 3.07
 2 9 -1 269.76 9.24
 2 9 0 3.61 2.64
 2 9 1 277.89 9.39
 2 9 3 25.7 3.89
 2 9 5 6.29 3.42
 2 9 6 6.59 3.07
 2 9 7 17.95 4.49
 2 9 8 146.36 8.43
 2 9 9 75.22 6.73
 2 9 10 19.29 4.53
 2 9 11 -1.45 3.26
 2 9 12 4.43 3.73
 2 9 13 14.02 4.56
 2 9 14 10.5 4.29
 2 9 15 -0.67 4.07
 2 10 -12 -0.13 2.29
 2 10 -9 85.03 6.81
 2 10 -8 6.95 3.88
 2 10 -7 4.13 3.28
 2 10 -6 49.3 5.65
 2 10 -5 98.36 6.93
 2 10 -4 6.27 3.16
 2 10 -3 19.54 3.94
 2 10 -2 22.59 4.57
 2 10 0 62.94 5.66
 2 10 1 160.79 8.02
 2 10 3 32.53 5.03
 2 10 4 6.4 3.48
 2 10 6 49.72 5.47
 2 10 7 1.79 4.13
 2 10 9 78.53 7.22
 2 10 10 42.36 5.86
 2 10 11 23.27 5.21
 2 10 12 12.34 4.42
 2 10 13 -2.03 3.8
 2 10 14 13.32 4.72
 2 11 -11 7.23 3.68
 2 11 -10 16.08 4.62
 2 11 -9 15.77 4.2
 2 11 -8 94.7 7.51
 2 11 -7 20.37 4.83
 2 11 -6 17.49 4.32
 2 11 -5 12.94 4.11
 2 11 -4 14.21 4.59
 2 11 -3 63.54 5.98
 2 11 -2 12.48 4.31
 2 11 -1 118.51 7.7
 2 11 0 36.01 5.15
 2 11 1 115.73 7.88
 2 11 2 14.04 3.93
 2 11 3 63.68 6.34
 2 11 4 9.35 3.76
 2 11 5 10.12 3.9
 2 11 6 16.91 5.25
 2 11 7 25.09 5.17
 2 11 8 90.31 7.85
 2 11 9 8.84 4.97
 2 11 10 22.98 5.13
 2 11 11 0.31 3.86
 2 11 12 -0.54 3.93
 2 11 13 7.39 4.73
 2 12 -11 4.87 4.32
 2 12 -10 0.85 3.81
 2 12 -9 3.65 3.8
 2 12 -8 70.7 7.21
 2 12 -7 3.94 4.06
 2 12 -6 0.92 3.82
 2 12 -4 15.24 4.56
 2 12 -3 14.61 5.07
 2 12 -2 66.89 7.19
 2 12 -1 30.88 5.75
 2 12 0 0.44 3.69
 2 12 1 30.53 5.15
 2 12 2 67.85 6.46
 2 12 3 16.08 4.58
 2 12 4 15.79 4.53
 2 12 5 105.34 8.25
 2 12 6 4.34 4.11
 2 12 7 6.67 4.33
 2 12 8 64.94 7.06
 2 12 9 8.29 4.97
 2 12 10 1.71 4.24
 2 12 11 -3 4.75
 2 12 12 5.34 4.69
 2 13 -10 34.87 6.11
 2 13 -9 6.63 4.42
 2 13 -8 4.68 4.59
 2 13 -7 14.54 5.58
 2 13 -6 3.21 4.07
 2 13 -5 15.61 5.74
 2 13 -4 79.38 8.18
 2 13 -3 19.8 5.27
 2 13 0 13.75 4.7
 2 13 1 35.98 6.07
 2 13 2 -1.65 4.71
 2 13 3 18.36 5.27
 2 13 4 70.28 7.26
 2 13 5 19.42 6.03
 2 13 6 1.95 4.35
 2 13 7 12.67 4.94
 2 13 8 3.37 4.95
 2 13 10 35.17 6.87
 2 14 -6 25.84 6.03
 2 14 -5 11.09 4.96
 2 14 -4 41.03 6.55
 2 14 -3 1.28 4.34
 2 14 -2 46.94 6.96
 2 14 -1 2.57 4.56
 2 14 0 41.99 7.05
 2 14 1 5.78 4.95
 2 14 3 9.63 6.05
 2 14 4 45.51 6.8
 2 14 5 4.42 5.66
 2 14 6 18.52 6.1
 2 14 7 0.97 5.02
 2 15 -3 4.91 4.95
 2 15 -2 42.16 7.45
 2 15 -1 -0.45 4.68
 2 15 0 25.47 5.94
 2 15 1 6.42 5.09
 2 15 2 46.7 7.22
 2 15 3 10.59 5.75
 3 1 -5 267.85 2.47
 3 1 -4 124.49 2.34
 3 2 -7 371.16 3.91
 3 2 -6 24.97 1.28
 3 2 -5 30.21 1.52
 3 2 -4 7.57 1.08
 3 2 -3 367.3 5.4
 3 4 -8 16.26 1.7
 3 4 -7 90.39 3.37
 3 4 -6 229.16 5.18
 3 4 -5 2.44 1.32
 3 4 -3 26.8 2.4
 3 4 -2 12.79 1.98
 3 5 -8 16.99 2.22
 3 5 -7 19.26 2.45
 3 5 -6 137.16 4.73
 3 5 -5 31.56 2.58
 3 5 -4 417.19 8
 3 5 -3 60.88 3.63
 3 5 -1 28.44 3.37
 3 6 -8 123.44 4.95
 3 6 -7 29.73 2.74
 3 6 -6 100.96 4.7
 3 6 -5 53.75 3.82
 3 6 -4 81.54 4.45
 3 6 -2 45.81 3.42
 3 6 0 136.78 5.51
 3 7 -7 37.94 3.77
 3 7 -6 74 4.5
 3 7 -5 52.8 3.87
 3 7 -4 101.36 5.09
 3 7 -3 24.19 3.32
 3 7 -2 28 3.34
 3 7 -1 78.18 5.07
 3 7 0 3.01 2.16
 3 8 2 26.3 3.8
 3 8 3 3.3 2.57
 3 8 4 2.76 2.67
 3 8 5 22.09 3.79
 3 9 -8 89.75 5.94
 3 9 -7 15.43 3.31
 3 9 -6 25.07 4.14
 3 9 -5 1.53 2.8
 3 9 -4 2.67 2.64
 3 9 -2 30.76 4.46
 3 9 -1 105.77 6.73
 3 9 0 9.42 3.25
 3 9 1 105.09 6.58
 3 9 3 16.52 3.61
 3 9 4 4.63 2.91
 3 9 6 20.33 4.52
 3 9 7 21.9 4.52
 3 9 8 96.93 7.17
 3 9 9 6.98 4.45
 3 9 10 8.39 4.32
 3 9 12 5.02 4.48
 3 9 13 1.49 4.22
 3 9 14 12.11 5.22
 3 9 15 18.22 5.94
 3 10 -9 0.35 2.32
 3 10 -8 -0.07 2.51
 3 10 -7 7.44 3.44
 3 10 -6 18.81 4.38
 3 10 -5 74.6 5.98
 3 10 -4 10.76 4.11
 3 10 -2 25.8 4.43
 3 10 -1 33.03 4.64
 3 10 0 24.28 4.27
 3 10 1 42.05 5.17
 3 10 2 25.4 4.46
 3 10 4 14.41 3.9
 3 10 5 67.86 6.14
 3 10 6 22.11 5.03
 3 10 7 3.85 3.5
 3 10 9 13.79 5.17
 3 10 10 38.71 5.91
 3 10 11 -1.28 3.91
 3 10 13 7.35 4.59
 3 10 14 3.45 5.45
 3 11 -6 16.81 4.4
 3 11 -5 42.03 5.49
 3 11 -4 6.15 3.67
 3 11 -3 4.23 4.03
 3 11 -2 21.63 4.5
 3 11 -1 83.61 7.06
 3 11 0 77.32 7.19
 3 11 1 92.74 7.08
 3 11 2 16 4.9
 3 11 4 7.64 4.09
 3 11 5 37.93 6.09
 3 11 6 8.97 4.16
 3 11 8 26.28 5.61
 3 11 9 14.68 4.99
 3 11 10 16.3 5.07
 3 11 11 20.32 5.96
 3 11 12 10.04 5.28
 3 12 -9 15.38 4.08
 3 12 -8 3.17 4.24
 3 12 -7 105.97 8.23
 3 12 -6 5.4 4.49
 3 12 -5 62.58 7.57
 3 12 -4 5.37 3.92
 3 12 -3 14.62 4.83
 3 12 -2 32.06 5.43
 3 12 -1 25.49 5.08
 3 12 0 3.49 4.38
 3 12 1 21.32 4.89
 3 12 2 29.13 5.98
 3 12 3 11.56 5.12
 3 12 4 7.66 4.87
 3 12 5 74.27 7.25
 3 12 6 3.97 4.81
 3 12 7 100.77 9.09
 3 12 8 6.59 5.19
 3 12 9 11.12 4.89
 3 12 10 26.22 6.67
 3 13 -9 21.64 5.39
 3 13 -8 7.72 4.77
 3 13 -7 5.88 4.7
 3 13 -6 2.55 4.9
 3 13 -5 95 7.89
 3 13 -4 14.94 5.36
 3 13 -2 25.91 5.7
 3 13 -1 2.92 5.14
 3 13 0 104.11 8.2
 3 13 1 0.09 4.55
 3 13 2 28.15 6.3
 3 13 3 17.91 6.12
 3 13 4 16.42 5.21
 3 13 5 92.85 8.8
 3 13 6 3.34 4.47
 3 13 7 8.52 5
 3 13 8 5.87 5
 3 13 9 17.86 6.68
 3 14 -5 1.85 4.99
 3 14 -4 3.7 5.3
 3 14 -3 11.75 5.48
 3 14 -2 5.37 5.27
 3 14 -1 9.63 4.93
 3 14 0 27.15 6.71
 3 14 1 3.47 4.9
 3 14 2 -0.41 4.66
 3 14 3 5.59 5.83
 3 14 4 9.24 4.97
 3 14 5 2.45 5.98
 4 1 -5 100.41 1.91
 4 1 -4 74.55 2.26
 4 2 -6 32.15 1.3
 4 3 -6 251.6 4.52
 4 3 -5 297.59 5.33
 4 3 -4 77.4 3.1
 4 3 -3 149.84 4.39
 4 4 -6 33.82 2.23
 4 4 -5 236.39 5.49
 4 4 -4 241.57 5.76
 4 4 -3 65.86 3.53
 4 4 -2 321.77 7.29
 4 5 -5 68.79 3.67
 4 5 -3 2.95 1.69
 4 5 -2 53.29 3.72
 4 5 -1 277.04 7.56
 4 6 -6 0.8 1.31
 4 6 -5 42.2 3.5
 4 6 -4 10.88 2.65
 4 6 -2 137.91 5.9
 4 6 -1 177.1 6.72
 4 6 0 145.57 6.28
 4 7 -7 0.59 1.26
 4 7 -6 74.92 4.47
 4 7 -5 3.22 2.39
 4 7 2 6.16 2.96
 4 8 -3 82.81 5.79
 4 8 -2 1.2 2.61
 4 8 -1 27.66 4.22
 4 8 1 25.36 4.43
 4 8 2 3.55 3.32
 4 8 3 84.09 6.05
 4 8 4 15.97 3.89
 4 9 -6 47.01 4.89
 4 9 -3 6.66 3.13
 4 9 -2 21.17 4.37
 4 9 -1 134.81 7.33
 4 9 0 2.75 3.11
 4 9 1 148.54 7.7
 4 9 2 17.28 4.23
 4 9 4 1.06 3.2
 4 9 5 22.57 4.53
 4 9 6 54.98 6.59
 4 9 7 56.2 6.6
 4 9 8 46.68 6.12
 4 10 -8 -0.75 2.31
 4 10 -6 72.21 6.02
 4 10 -5 15.7 4.36
 4 10 -4 39.76 5.21
 4 10 -3 30.98 4.79
 4 10 -2 3.64 3.4
 4 10 -1 133.11 8.16
 4 10 1 132.61 8.42
 4 10 2 -1.74 3.09
 4 10 3 20.71 5.03
 4 10 4 35.33 5.85
 4 10 5 20.01 4.68
 4 10 6 71.16 7.42
 4 10 7 17.6 4.73
 4 10 8 7.38 4.44
 4 10 10 10.11 4.79
 4 10 12 -1.74 4.27
 4 11 -6 24.96 4.99
 4 11 -5 24.37 4.68
 4 11 -2 39.85 5.69
 4 11 -1 43.47 6.29
 4 11 0 -2.27 3.9
 4 11 1 33.39 5.49
 4 11 2 49.84 6.33
 4 11 4 0.32 3.83
 4 11 5 31.7 6.39
 4 11 6 32.22 5.71
 4 11 7 48.39 6.57
 4 11 8 28.55 5.89
 4 11 10 18.77 5.5
 4 11 11 12.59 5.52
 4 12 -6 45.16 5.91
 4 12 -5 25.47 5.1
 4 12 -4 28.21 5.21
 4 12 -3 5.74 4.73
 4 12 -1 21.58 5.26
 4 12 0 -3.27 3.72
 4 12 1 14.57 4.71
 4 12 3 4.94 4.66
 4 12 4 26.69 6.36
 4 12 5 21.47 5.24
 4 12 7 27.26 6.75
 4 12 8 22.71 6.01
 4 12 9 3.52 4.69
 4 13 -6 2.88 4.29
 4 13 -5 -1.82 4.4
 4 13 -4 5.48 4.12
 4 13 -2 -3.3 4.81
 4 13 0 17.25 5.3
 4 13 1 5.85 4.93
 4 13 2 -0.24 5.33
 4 13 3 17.29 6.44
 4 13 4 3.99 4.86
 4 13 5 1.7 4.84
 4 13 6 -1.42 4.4
 4 14 1 10.02 6.1
 5 3 -3 49.85 3.07
 5 4 -3 40.89 3.09
 5 5 -3 28.87 3.1
 5 5 -2 55.11 4.03
 5 5 -1 31.72 3.41
 5 6 -4 6.22 1.83
 5 7 -2 3.06 2.88
 5 7 -1 61.83 4.96
 5 7 0 12.5 3.32
 5 7 1 57.8 5.68
 5 8 -4 52.86 4.6
 5 8 -3 4.58 2.67
 5 8 -2 4.92 3.42
 5 8 -1 4.17 3.36
 5 8 0 10.98 3.58
 5 8 1 3.74 3.77
 5 8 2 5.41 3.71
 5 8 3 -1.37 2.91
 5 9 -4 9.29 3.03
 5 9 -3 -1.23 3.15
 5 9 -2 26.27 4.91
 5 9 -1 9.07 4.21
 5 9 0 32.56 4.79
 5 9 1 10.42 3.85
 5 9 2 27.69 5.33
 5 9 3 1.89 3.54
 5 9 4 10.08 4.21
 5 9 5 4.47 3.98
 5 10 -5 -0.22 2.31
 5 10 -3 13.23 3.94
 5 10 -2 19.97 4.37
 5 10 -1 31.24 5.53
 5 10 0 92.37 7.65
 5 10 1 27.12 5.5
 5 10 2 30.25 5.21
 5 10 3 9.98 4.79
 5 10 4 27.76 5.78
 5 10 5 1.82 3.85
 5 10 6 23.97 5.88
 5 10 7 1.21 4.69
 5 10 8 26.7 6.69
 5 10 10 -2.1 5
 5 10 11 3.02 4.99
 5 11 -4 19.01 4.52
 5 11 -3 18.25 5.12
 5 11 -2 38 5.81
 5 11 0 81.31 7.86
 5 11 1 32.29 5.74
 5 11 2 29.68 5.65
 5 11 3 12.35 4.71
 5 11 4 20.48 5.41
 5 11 5 14.78 5.82
 5 11 6 28.72 5.96
 5 11 7 1.6 4.62
 5 11 8 25.93 6.29
 5 11 9 9.74 6.16
 5 12 -4 22.78 5.25
 5 12 -3 8.49 4.68
 5 12 -2 12.38 4.83
 5 12 0 10.13 4.92
 5 12 1 45.4 6.37
 5 12 2 11.94 5.38
 5 12 3 15.9 5.79
 5 12 4 22.23 6.2
 5 12 5 18.47 5.29
 5 12 6 11.19 5.27
 5 13 -2 35.95 6.1
 5 13 -1 1.1 4.06
 5 13 1 2.53 4.51
 5 13 2 32.96 7.03
 6 6 -1 185.01 7.54
 6 6 0 -1.22 2.4
 6 7 -3 -0.68 1.62
 6 7 -2 -1.27 1.93
 6 7 -1 55.47 5.3
 6 7 2 1.24 3.76
 6 8 -2 27.03 4.09
 6 8 -1 35.9 4.83
 6 8 0 71.47 6.23
 6 8 2 21.29 4.44
 6 8 3 6.48 4.04
 6 8 4 68.8 7.5
 6 9 -2 16.53 4.03
 6 9 -1 22.18 4.28
 6 9 0 0.83 3.98
 6 9 1 17.23 4.81
 6 9 2 15.52 4.66
 6 9 3 10.08 4.66
 6 9 4 2.69 4.18
 6 9 5 11.35 5.07
 6 9 6 30.62 6.2
 6 9 7 10.16 4.96
 6 9 8 7.82 5.27
 6 10 -2 6.5 3.72
 6 10 -1 23.68 4.82
 6 10 0 93.22 7.86
 6 10 1 19.23 5.18
 6 10 2 11.98 4.49
 6 10 3 16.71 4.75
 6 10 4 30.5 5.61
 6 10 5 6.23 5.17
 6 10 7 22.3 5.74
 6 10 8 14.19 5.28
 6 11 -2 18.94 4.6
 6 11 -1 1.42 4.14
 6 11 0 22.36 5.56
 6 11 1 1.54 3.9
 6 11 2 23.36 6.24
 6 11 3 15.98 5.54
 6 11 4 15.06 5.59
 6 11 5 10.99 4.97
 7 6 -1 -0.32 1.8
 7 6 1 1.59 3.51
 7 7 1 27.77 4.58
 7 7 2 11.16 4.25
 7 8 1 24.45 5.14
 7 8 2 -2.05 3.34
 7 8 3 3.81 4.47
 7 8 4 1.65 4.43
 7 8 5 9.6 5.07
 7 9 0 -3.5 2.57
 7 9 3 -2.33 3.9
 7 9 4 17 5
 7 10 0 28.03 4.98
 7 10 1 0.61 3.87
 7 10 2 10.07 5.27
 8 7 3 9.52 4.16
 -6 1 -10 4.94 2.45
 -6 2 -13 -0.99 2.82
 -6 2 -12 11.65 3.5
 -6 2 -11 25.8 3.81
 -6 2 -10 12.65 2.95
 -6 2 -9 56.21 4.68
 -6 2 -8 15.1 3.16
 -6 3 -14 24.29 4.62
 -6 3 -13 12.44 4.26
 -6 3 -12 3.12 3.49
 -6 3 -11 4.56 2.95
 -6 3 -10 12.19 3.19
 -6 3 -9 18.34 3.92
 -6 3 -8 7.11 2.96
 -6 4 -14 13.73 4.48
 -6 4 -13 13.4 4.13
 -6 4 -12 1.74 3.23
 -6 4 -11 2.54 3.66
 -6 4 -10 26.83 4.61
 -6 4 -9 16.35 3.9
 -6 5 -13 12.08 4.43
 -6 5 -12 5.21 3.67
 -6 5 -11 11.25 4.2
 -6 5 -10 33.93 4.93
 -6 6 -13 19.18 5.47
 -6 6 -12 4.2 4.75
 -5 -2 -14 56.25 5
 -5 -2 -13 1.73 2.72
 -5 -2 -12 17.45 3.02
 -5 -2 -10 43.71 3.47
 -5 -2 -9 12.45 2.27
 -5 -2 -8 71.45 3.33
 -5 -2 -7 48.19 2.61
 -5 -1 -16 21.04 4.22
 -5 -1 -15 -0.23 3.1
 -5 -1 -14 32.85 4.55
 -5 -1 -13 69.98 5.26
 -5 -1 -12 3.12 2.29
 -5 -1 -11 106.31 5.18
 -5 -1 -9 22.78 2.66
 -5 -1 -8 6.45 1.8
 -5 -1 -7 53.36 2.98
 -5 -1 -6 37.43 2.41
 -5 -1 -5 15.88 1.71
 -5 0 -17 4.86 4.22
 -5 0 -16 4.07 3.4
 -5 0 -15 84.45 6.43
 -5 0 -14 84.08 6.18
 -5 0 -13 9.12 3.52
 -5 0 -12 53.07 4.61
 -5 0 -8 1.12 1.81
 -5 0 -6 9.71 1.77
 -5 0 -5 2.63 1.33
 -5 1 -16 23.84 4.85
 -5 1 -15 0.89 3.38
 -5 1 -14 32.21 4.8
 -5 1 -13 73.15 5.74
 -5 1 -12 -0.33 2.86
 -5 1 -10 50.82 4.39
 -5 1 -8 6.46 2.57
 -5 1 -7 47.34 3.5
 -5 1 -6 37.79 3
 -5 1 -5 15.03 2.11
 -5 2 -13 3.59 2.97
 -5 2 -12 11.56 3.58
 -5 2 -11 40.79 4.17
 -5 2 -10 50.5 4.71
 -5 2 -9 9.54 2.68
 -5 2 -7 46.56 3.7
 -5 2 -6 1.54 2.06
 -5 2 -5 5.75 2.27
 -5 3 -16 25.22 5.69
 -5 3 -15 11.01 4.67
 -5 3 -13 9.12 3.62
 -5 3 -12 1.78 2.96
 -5 3 -11 10.7 3.49
 -5 3 -10 23.22 3.56
 -5 3 -9 20.66 3.44
 -5 3 -8 72.24 4.95
 -5 4 -16 -3.57 4.4
 -5 4 -15 22.01 5.45
 -5 4 -14 6.4 3.97
 -5 4 -13 -2.51 3.68
 -5 4 -12 1.86 3.43
 -5 4 -11 35.86 5.16
 -5 4 -10 11.5 3.44
 -5 4 -9 112.93 6.46
 -5 4 -8 5.63 2.86
 -5 4 -7 24.33 3.72
 -5 5 -15 23.61 5.15
 -5 5 -14 7.68 4.27
 -5 5 -13 30.77 5.14
 -5 5 -12 -1.03 3.58
 -5 5 -11 6.6 3.58
 -5 5 -10 -3.22 3.41
 -5 5 -8 28.11 4.16
 -5 5 -7 136.03 7.15
 -5 6 -15 25.07 5.53
 -5 6 -14 27.11 5.87
 -5 6 -13 36.65 5.74
 -5 6 -12 2.38 3.71
 -5 6 -11 16.21 4.62
 -5 6 -10 9.54 4
 -5 6 -9 51.3 5.95
 -5 6 -8 47.23 4.89
 -5 7 -14 20.47 5.47
 -5 7 -13 -1.95 4.19
 -5 7 -11 22.53 5.58
 -5 7 -10 46.11 6.12
 -5 7 -9 83.72 6.73
 -5 8 -13 7.77 4.78
 -5 8 -11 16.74 5.09
 -4 -6 -12 2.22 2.41
 -4 -6 -11 4.58 2.4
 -4 -5 -15 21.26 3.92
 -4 -5 -14 4.66 2.62
 -4 -5 -13 3.82 2.92
 -4 -5 -12 6.43 2.46
 -4 -5 -8 11.41 1.93
 -4 -5 -7 81.25 3.17
 -4 -5 -6 92.63 2.88
 -4 -5 -5 65.58 2.03
 -4 -4 -17 0.45 3.74
 -4 -4 -16 6.78 3.49
 -4 -4 -15 13.52 3.49
 -4 -4 -14 18.72 3.68
 -4 -4 -12 0.54 2.34
 -4 -4 -10 0.34 1.82
 -4 -4 -9 30.49 2.84
 -4 -4 -8 42.87 2.81
 -4 -4 -7 36.53 2.38
 -4 -4 -6 28.73 1.9
 -4 -4 -5 243.63 3.61
 -4 -3 -17 3.33 3.54
 -4 -3 -16 0.56 3.15
 -4 -3 -15 10.66 3.38
 -4 -3 -14 9.64 3.46
 -4 -3 -13 40.87 4.42
 -4 -3 -12 5.98 2.45
 -4 -3 -10 21.04 2.84
 -4 -3 -9 33.82 3.03
 -4 -3 -8 17.01 2.25
 -4 -3 -7 72.33 3.03
 -4 -3 -6 258.39 4.71
 -4 -3 -5 287.26 4.14
 -4 -3 -4 78.41 1.72
 -4 -2 -18 5.92 3.84
 -4 -2 -17 2.88 3.68
 -4 -2 -16 9.99 3.63
 -4 -2 -15 9.36 3.36
 -4 -2 -14 12.03 3.33
 -4 -2 -12 36.97 4.14
 -4 -2 -10 43.46 3.75
 -4 -2 -8 0.28 1.38
 -4 -2 -6 34.93 2.23
 -4 -2 -5 192.77 3.77
 -4 -2 -4 182.62 3.06
 -4 -1 -18 12.5 4.55
 -4 -1 -17 7.38 3.81
 -4 -1 -16 15.83 3.99
 -4 -1 -15 27.75 4.4
 -4 -1 -14 6.57 3.14
 -4 -1 -13 12.21 3.27
 -4 -1 -12 56.85 4.67
 -4 -1 -9 130.76 5.11
 -4 -1 -8 293.12 6.64
 -4 -1 -6 129.68 3.88
 -4 -1 -5 92.69 2.98
 -4 -1 -4 76.15 2.48
 -4 -1 -3 32.65 1.56
 -4 0 -18 4.18 3.86
 -4 0 -17 2.64 3.68
 -4 0 -16 0.2 3.2
 -4 0 -15 3.74 3.37
 -4 0 -14 5.93 3.27
 -4 0 -13 1.57 2.91
 -4 0 -12 10.64 3.42
 -4 0 -11 18.27 3.03
 -4 0 -9 82.41 4.39
 -4 0 -8 7.43 2.05
 -4 0 -7 128.14 4.5
 -4 0 -6 1.76 1.64
 -4 0 -5 40.8 2.59
 -4 0 -4 4.43 1.41
 -4 0 -3 43.38 2.2
 -4 1 -18 16.32 4.84
 -4 1 -17 7.3 3.97
 -4 1 -16 22.74 4.69
 -4 1 -15 26.95 4.74
 -4 1 -14 4.69 3.51
 -4 1 -12 60.64 5.22
 -4 1 -11 0.85 2.24
 -4 1 -8 285.4 7.2
 -4 1 -7 94.92 4.18
 -4 1 -6 125.81 4.49
 -4 1 -5 95.09 3.82
 -4 1 -4 76.82 3.27
 -4 1 -3 30.34 2.19
 -4 2 -18 6.39 4.37
 -4 2 -17 1.41 4.04
 -4 2 -16 10.59 4.58
 -4 2 -15 9.51 3.96
 -4 2 -14 16.61 3.97
 -4 2 -12 32.44 4.64
 -4 2 -11 3.11 2.81
 -4 2 -10 47.66 4.46
 -4 2 -8 1.67 2.26
 -4 2 -7 100.99 4.76
 -4 2 -5 201.98 5.72
 -4 2 -4 180.61 5.28
 -4 2 -3 62.23 3.32
 -4 3 -17 1.94 4.59
 -4 3 -16 0.98 3.67
 -4 3 -15 12.86 4.17
 -4 3 -14 7.1 3.62
 -4 3 -13 36.15 4.69
 -4 3 -11 0.89 3.03
 -4 3 -10 20.8 3.38
 -4 3 -6 250.44 7.13
 -4 3 -4 80.23 4.24
 -4 4 -17 -0.39 3.81
 -4 4 -16 14.55 5.09
 -4 4 -14 11.23 4.71
 -4 4 -13 8.12 3.6
 -4 4 -12 -1.56 3.51
 -4 4 -11 2.18 3.47
 -4 4 -10 -0.91 2.48
 -4 4 -9 28.47 3.84
 -4 4 -8 35.95 3.66
 -4 4 -5 233.04 7.24
 -4 4 -4 253.48 7.36
 -4 5 -17 1.74 4.98
 -4 5 -16 17.91 4.96
 -4 5 -15 25.88 5.22
 -4 5 -14 9.77 4.47
 -4 5 -13 7.24 4
 -4 5 -12 8.62 4.36
 -4 5 -10 0.31 2.54
 -4 5 -9 9.65 3.06
 -4 5 -8 9.35 2.98
 -4 6 -16 12.98 4.99
 -4 6 -14 36.22 5.84
 -4 6 -13 17.45 5.25
 -4 6 -12 8.97 4.39
 -4 6 -11 8.9 4.14
 -4 6 -10 -1.59 2.71
 -4 6 -9 4.24 2.94
 -4 6 -8 4.27 2.83
 -4 6 -7 45.72 5.1
 -4 6 -6 0.52 2.95
 -4 6 -5 34.8 3.9
 -4 7 -15 44.31 7.01
 -4 7 -14 28.35 5.6
 -4 7 -13 28.82 5.83
 -4 7 -12 3.31 3.97
 -4 7 -9 21.82 4.84
 -4 7 -8 0.51 3.19
 -4 7 -7 4.29 3.05
 -4 7 -6 70.23 5.47
 -4 8 -15 10.39 5.36
 -4 8 -14 13.7 5.94
 -4 8 -13 31.13 5.8
 -4 8 -12 14.82 4.78
 -4 8 -11 22 5.1
 -4 8 -10 22.72 5.52
 -4 8 -8 142.05 8.54
 -4 9 -14 30.45 6.55
 -4 9 -13 2 4.44
 -4 9 -12 13.99 5.15
 -4 9 -11 -0.03 3.94
 -4 9 -10 100.9 8.53
 -4 9 -9 53.17 6.44
 -3 -6 -17 1.83 3.49
 -3 -6 -16 54.79 6.27
 -3 -5 -18 6.73 4
 -3 -5 -17 15.78 4.37
 -3 -5 -16 -0.37 3.92
 -3 -5 -15 4.74 3.43
 -3 -4 -17 10.01 4.07
 -3 -4 -16 5.02 3.28
 -3 -3 -18 21.79 5.19
 -3 -3 -17 4.14 3.93
 -3 -3 -15 37.09 4.94
 -3 -3 -14 0.79 2.93
 -3 -3 -13 0.09 3.18
 -3 -3 -12 10.91 2.83
 -3 -3 -3 3.71 0.64
 -3 -2 -18 5.98 4.26
 -3 -2 -17 13.64 4.68
 -3 -2 -16 38.26 5.16
 -3 -2 -15 32.34 4.79
 -3 -2 -13 65.96 5.48
 -3 -2 -12 21.71 3.39
 -3 -2 -8 93.91 4.17
 -3 -2 -7 373.03 6.83
 -3 -2 -6 23.18 2.02
 -3 -2 -5 31.76 1.95
 -3 -2 -4 7.06 1.11
 -3 -2 -3 348.97 3.6
 -3 -1 -19 3.33 4.2
 -3 -1 -17 1.52 4.29
 -3 -1 -16 56.56 5.88
 -3 -1 -15 23.98 4.43
 -3 -1 -14 45.87 5.56
 -3 -1 -13 25.38 4.16
 -3 -1 -12 -0.09 2.57
 -3 -1 -10 9.02 2.65
 -3 -1 -9 137.87 5.28
 -3 -1 -8 22.76 2.57
 -3 -1 -7 192.88 5.14
 -3 -1 -6 38.04 2.5
 -3 -1 -5 276.17 4.9
 -3 -1 -4 128.57 3.04
 -3 0 -19 31.7 5.56
 -3 0 -18 4.36 4.14
 -3 0 -17 9.94 4.12
 -3 0 -16 2.01 4.09
 -3 0 -13 15.21 3.41
 -3 0 -12 77.7 5.1
 -3 0 -9 731.91 11.36
 -3 0 -8 5.74 2.12
 -3 0 -6 14.68 1.96
 -3 0 -5 0.72 1.25
 -3 0 -4 1.65 0.97
 -3 0 -3 282.54 4.34
 -3 0 -2 95.61 2.46
 -3 1 -19 7.09 4.51
 -3 1 -18 19.2 5.59
 -3 1 -17 0.24 3.72
 -3 1 -16 40.12 5.61
 -3 1 -15 20.24 4.35
 -3 1 -14 44.26 5.4
 -3 1 -12 0.42 2.41
 -3 1 -9 138.7 5.64
 -3 1 -8 20.1 2.61
 -3 1 -6 37.43 2.88
 -3 1 -5 263.12 5.5
 -3 1 -4 130.98 3.66
 -3 1 -3 122.36 3.47
 -3 1 -2 166.08 3.81
 -3 2 -18 7.84 4.29
 -3 2 -17 15.52 4.84
 -3 2 -16 32.34 5.06
 -3 2 -15 29.04 4.72
 -3 2 -14 35.7 4.89
 -3 2 -13 68.77 5.91
 -3 2 -12 27.55 4.29
 -3 2 -11 3.35 2.3
 -3 2 -8 88.58 4.62
 -3 2 -6 23.94 2.77
 -3 2 -5 30.36 2.45
 -3 2 -4 9.77 1.79
 -3 2 -3 359.77 6.28
 -3 2 -2 175.26 4.34
 -3 3 -17 1.41 4.59
 -3 3 -16 10.65 4.31
 -3 3 -15 39.72 5.52
 -3 3 -14 2.48 3.22
 -3 3 -12 11.59 3.11
 -3 3 -11 46.91 4.52
 -3 3 -10 1.47 2.37
 -3 3 -8 7.63 2.36
 -3 3 -7 14.99 2.55
 -3 3 -5 188.81 5.72
 -3 3 -4 131.89 4.63
 -3 3 -3 3.71 1.55
 -3 3 -2 388.55 7.24
 -3 4 -18 7.16 4.68
 -3 4 -15 15.86 4.77
 -3 4 -13 29.09 4.6
 -3 4 -12 15.07 3.72
 -3 4 -9 59.11 4.39
 -3 4 -7 81.91 4.64
 -3 4 -6 247.02 7.12
 -3 4 -5 2.47 1.86
 -3 4 -4 148.25 5.25
 -3 5 -18 9.56 5.35
 -3 5 -17 19.31 5.08
 -3 5 -15 3.75 4.01
 -3 5 -14 80.59 7.37
 -3 5 -13 31.95 5.13
 -3 5 -12 7.54 3.42
 -3 5 -11 40.42 4.71
 -3 5 -10 28.9 4.15
 -3 5 -9 44.35 4.17
 -3 5 -8 14.76 2.96
 -3 5 -5 31.87 3.45
 -3 6 -16 45.57 7.2
 -3 6 -14 11.61 5.16
 -3 6 -13 21.98 4.58
 -3 6 -12 1.69 3.9
 -3 6 -11 24.22 4.71
 -3 6 -10 94.51 6.05
 -3 6 -9 34.68 4.7
 -3 6 -8 120.78 6.48
 -3 6 -7 29.37 3.74
 -3 7 -16 14.16 5.87
 -3 7 -15 69.37 8.01
 -3 7 -14 42.3 6.41
 -3 7 -13 8.87 4.28
 -3 7 -12 24.38 4.71
 -3 7 -11 3.19 3.35
 -3 7 -10 58.62 6.13
 -3 7 -9 91.09 6.11
 -3 7 -8 167.62 7.69
 -3 7 -7 43.63 4.95
 -3 7 -6 79.39 5.84
 -3 8 -16 1.66 5.35
 -3 8 -15 11.3 5.88
 -3 8 -14 8.9 4.46
 -3 8 -13 15.75 5.1
 -3 8 -12 48.13 6.25
 -3 8 -11 18.95 4.95
 -3 8 -10 137.27 8.28
 -3 8 -9 5.96 3.47
 -3 8 -7 38.85 5.19
 -3 8 -6 31.23 4.76
 -3 9 -15 32.89 7.01
 -3 9 -14 22.89 5.53
 -3 9 -13 0.32 5.19
 -3 9 -12 8.73 4.84
 -3 9 -11 22.42 5.45
 -3 9 -10 15.12 4.48
 -3 9 -7 23.2 4.74
 -3 10 -14 9.73 5.23
 -3 10 -13 2.46 5.34
 -3 10 -12 48.71 7.53
 -3 10 -11 6.31 5.46
 -3 10 -10 43.67 6.29
 -3 10 -9 19.14 5.74
 -3 11 -12 10.3 6.16
 -2 -5 -18 5.1 4.79
 -2 -4 -19 4.25 4.52
 -2 -4 -18 2.74 4.14
 -2 -4 -17 2.68 3.87
 -2 -3 -19 15.12 5.56
 -2 -3 -18 19.91 5.21
 -2 -3 -17 25.64 5.02
 -2 -3 -16 5.8 3.79
 -2 -2 -19 -0.2 4.16
 -2 -2 -16 4.29 3.5
 -2 -2 -15 49.62 5.17
 -2 -2 -14 1.11 2.71
 -2 -1 -19 79.46 7.81
 -2 -1 -18 8.4 4.4
 -2 -1 -17 2.33 3.94
 -2 -1 -16 24.85 5.22
 -2 -1 -15 118.68 7.2
 -2 -1 -14 0.68 2.83
 -2 -1 -13 4.92 2.98
 -2 -1 -12 80.64 5.4
 -2 -1 -3 305.36 3.89
 -2 0 -19 -0.36 4.23
 -2 0 -18 24.83 5.96
 -2 0 -17 2.96 3.79
 -2 0 -16 1 3.29
 -2 0 -14 -2.26 3.2
 -2 0 -13 16.5 3.43
 -2 0 -12 31.59 3.85
 -2 0 -9 12.59 2.39
 -2 0 -8 1.32 1.71
 -2 0 -7 0.09 1.35
 -2 0 -5 77.1 3.01
 -2 0 -4 134.16 3.26
 -2 0 -3 267.83 3.93
 -2 0 -2 833.31 5.9
 -2 0 -1 45.53 1.43
 -2 1 -19 69.33 7.82
 -2 1 -18 14.73 4.67
 -2 1 -17 1.46 4.6
 -2 1 -16 23.72 4.71
 -2 1 -14 -1.01 2.71
 -2 1 -13 4.69 2.7
 -2 1 -12 83.94 5.51
 -2 1 -9 150.87 5.37
 -2 1 -7 44.95 2.82
 -2 1 -6 50.06 2.76
 -2 1 -5 507.87 7.2
 -2 1 -4 96.53 3.22
 -2 1 -3 308.54 4.83
 -2 1 -2 769.42 6.83
 -2 1 -1 437.11 4.91
 -2 2 -19 5.71 4.48
 -2 2 -18 6.56 4.95
 -2 2 -17 20.51 5.2
 -2 2 -16 4.37 3.62
 -2 2 -15 48.56 5.61
 -2 2 -14 1.41 3.31
 -2 2 -13 32.11 4.2
 -2 2 -12 27.17 4.22
 -2 2 -11 70.44 5.02
 -2 2 -9 26.01 3.18
 -2 2 -8 1.14 1.96
 -2 2 -7 684.95 10.15
 -2 2 -6 86.09 3.73
 -2 2 -5 615.21 8.38
 -2 2 -4 204.45 4.75
 -2 2 -3 278.89 5.14
 -2 2 -2 715.27 7.67
 -2 2 -1 0.82 1.2
 -2 3 -19 11.93 5.41
 -2 3 -18 23.56 5.64
 -2 3 -17 20.66 5.17
 -2 3 -16 7.68 4.17
 -2 3 -13 29.14 4.27
 -2 3 -12 32.78 4.19
 -2 3 -11 31.21 3.69
 -2 3 -8 2.34 1.85
 -2 3 -7 111.47 4.63
 -2 3 -6 415.97 7.99
 -2 3 -5 456.48 7.9
 -2 3 -2 174.01 4.55
 -2 4 -19 0.99 4.81
 -2 4 -18 4.21 4.57
 -2 4 -17 -3.64 3.77
 -2 4 -16 10.18 4.91
 -2 4 -15 55.97 5.69
 -2 4 -14 46.07 5.44
 -2 4 -13 69.24 6.21
 -2 4 -12 13.2 3.23
 -2 4 -11 39.04 4.4
 -2 4 -8 18.72 2.93
 -2 4 -7 133.24 5.47
 -2 4 -6 9.04 2.13
 -2 4 -5 95.03 4.09
 -2 4 -4 225.76 5.83
 -2 4 -3 230.39 5.68
 -2 4 -2 388.27 7.24
 -2 5 -18 7.07 4.82
 -2 5 -17 27.52 5.81
 -2 5 -16 46.83 6.2
 -2 5 -15 11.43 4.65
 -2 5 -13 33.96 5.1
 -2 5 -12 20.04 3.8
 -2 5 -11 -1.22 2.6
 -2 5 -10 15.13 3.66
 -2 5 -9 1.72 1.96
 -2 5 -6 190.67 6.44
 -2 5 -5 231.88 6.8
 -2 5 -4 136.92 5.03
 -2 5 -3 67.47 4
 -2 5 -2 180.8 5.63
 -2 6 -18 -2.58 4.25
 -2 6 -17 15.31 5.95
 -2 6 -16 1.56 3.85
 -2 6 -14 72.65 6.45
 -2 6 -13 7.11 3.62
 -2 6 -11 32.5 4.88
 -2 6 -10 38.64 4.68
 -2 6 -9 64.38 5.23
 -2 6 -8 8.57 2.92
 -2 6 -4 48.47 3.66
 -2 6 -3 18.4 2.76
 -2 7 -17 7.42 4.92
 -2 7 -16 6.73 5.14
 -2 7 -15 18.02 5.23
 -2 7 -14 6.78 4.64
 -2 7 -13 67.43 6.76
 -2 7 -10 68.26 5.79
 -2 7 -8 41.12 4.72
 -2 7 -7 3.85 2.37
 -2 8 -16 0.71 4.49
 -2 8 -15 14.16 5.15
 -2 8 -14 21.08 4.91
 -2 8 -12 10.8 3.92
 -2 8 -10 58.49 6.25
 -2 8 -9 20.06 4.04
 -2 8 -8 58.69 5.4
 -2 8 -7 40.99 4.98
 -2 8 -5 209.95 8.05
 -2 9 -15 0.66 4.16
 -2 9 -14 10.49 5.01
 -2 9 -13 11.8 4.57
 -2 9 -12 6.45 4.49
 -2 9 -11 4.8 3.78
 -2 9 -10 25.53 4.8
 -2 9 -9 75.59 6.4
 -2 9 -8 145.35 7.95
 -2 9 -7 14.33 3.69
 -2 9 -6 6.15 3.02
 -2 10 -14 16.49 5.56
 -2 10 -13 7.55 4.85
 -2 10 -12 15.84 4.89
 -2 10 -11 26.9 5.57
 -2 10 -10 43.19 6.5
 -2 10 -9 88.81 7.46
 -2 10 -8 3.44 3.62
 -2 11 -13 3.82 4.91
 -2 11 -12 5.82 5.49
 -2 11 -11 7.11 5.19
 -2 11 -10 17.1 5.02
 -1 -4 -19 8.12 4.71
 -1 -3 -19 30.44 5.99
 -1 -2 -19 8.47 5.46
 -1 -2 -18 -1.43 3.81
 -1 -2 -17 13.26 4.53
 -1 -1 -20 25.74 5.7
 -1 -1 -19 10.34 5.67
 -1 -1 -18 40.05 6.23
 -1 -1 -17 -0.08 3.56
 -1 -1 -15 39.76 5.3
 -1 0 -20 17.64 5.4
 -1 0 -19 8.54 4.59
 -1 0 -16 12.19 3.97
 -1 0 -15 7.02 3.69
 -1 0 -14 61.2 5.64
 -1 0 -13 25.57 3.86
 -1 0 -2 1309.2 6.63
 -1 0 -1 924.05 4.26
 -1 1 -20 30.42 6.15
 -1 1 -19 14.1 5.17
 -1 1 -18 40.26 6.57
 -1 1 -17 2.14 3.57
 -1 1 -16 -1.39 3.21
 -1 1 -15 39.12 5.17
 -1 1 -14 3.72 3.34
 -1 1 -13 3.27 2.78
 -1 1 -12 52.19 4.28
 -1 1 -10 15.94 2.85
 -1 1 -9 549.68 10.03
 -1 1 -8 78.45 3.93
 -1 1 -7 125.89 4.29
 -1 1 -6 620.59 8.38
 -1 1 -5 370.14 5.91
 -1 1 -4 235.31 4.51
 -1 1 -3 280.21 4.27
 -1 1 -2 3906.02 13.18
 -1 1 -1 251.92 3.31
 -1 2 -18 -3.48 4.12
 -1 2 -17 14.82 4.38
 -1 2 -16 16.25 4.77
 -1 2 -15 3.46 3.18
 -1 2 -14 26.25 4.26
 -1 2 -13 71.36 5.47
 -1 2 -12 5.03 2.74
 -1 2 -9 140.51 5.31
 -1 2 -8 105.88 4.55
 -1 2 -7 986.76 11.7
 -1 2 -6 15.56 2.03
 -1 2 -4 121.33 3.68
 -1 2 -3 1027.47 8.73
 -1 2 -2 130.99 3.23
 -1 2 -1 341.69 4.66
 -1 3 -19 31.47 6
 -1 3 -18 8.56 4.82
 -1 3 -17 4.65 4
 -1 3 -16 99.81 7.05
 -1 3 -15 241.73 9.69
 -1 3 -14 8.36 3.35
 -1 3 -13 9.26 3.49
 -1 3 -12 2.97 2.24
 -1 3 -11 18.58 3.12
 -1 3 -9 769.82 12.29
 -1 3 -8 19.32 2.55
 -1 3 -7 60.65 3.34
 -1 3 -5 377.88 6.81
 -1 3 -4 393.11 6.55
 -1 3 -3 51.81 2.61
 -1 3 -2 426.02 6.1
 -1 3 -1 128.21 3.47
 -1 4 -19 5.46 4.88
 -1 4 -18 5.12 4.65
 -1 4 -17 24.81 5.49
 -1 4 -16 0.25 4.21
 -1 4 -14 217.64 9.16
 -1 4 -13 52.66 4.86
 -1 4 -12 102.22 5.95
 -1 4 -11 17.99 3.21
 -1 4 -8 26.73 3.08
 -1 4 -7 48.72 3.54
 -1 4 -6 127.07 4.76
 -1 4 -5 377.26 7.3
 -1 4 -4 199.02 5.24
 -1 4 -3 44.91 2.91
 -1 4 -2 93.72 3.74
 -1 4 -1 91.73 3.61
 -1 5 -19 3.68 5.08
 -1 5 -17 3.04 4.26
 -1 5 -16 47.58 6.11
 -1 5 -15 75.85 7.35
 -1 5 -14 94.11 6.64
 -1 5 -13 71.31 5.59
 -1 5 -12 0.88 2.51
 -1 5 -11 43.25 4.33
 -1 5 -10 55.03 4.64
 -1 5 -7 5.31 2.15
 -1 5 -6 107.18 4.72
 -1 5 -5 32.97 2.94
 -1 5 -4 171.4 5.21
 -1 5 -3 307.73 6.66
 -1 6 -18 -1.35 4.04
 -1 6 -17 9 4.57
 -1 6 -15 67.06 6.65
 -1 6 -14 10.67 4.01
 -1 6 -12 80.25 6.24
 -1 6 -10 165.1 7.33
 -1 6 -9 15.37 3.07
 -1 6 -6 57.26 4.3
 -1 6 -5 12.33 2.56
 -1 6 -4 129.91 5.01
 -1 6 -2 23.01 2.64
 -1 7 -17 7.9 5.56
 -1 7 -16 2.47 3.9
 -1 7 -15 31.33 5.33
 -1 7 -14 19.11 4.5
 -1 7 -13 4.66 3.44
 -1 7 -12 -1.04 2.71
 -1 7 -11 8.57 3.32
 -1 7 -10 7.98 2.98
 -1 7 -8 83.92 5.38
 -1 7 -4 234.34 7.21
 -1 7 -3 23.84 3.09
 -1 8 -17 43.63 6.61
 -1 8 -16 -0.18 4.3
 -1 8 -15 10.34 4.92
 -1 8 -14 28.91 5.46
 -1 8 -13 7.26 4.02
 -1 8 -12 20.21 4.36
 -1 8 -11 43.58 5.1
 -1 8 -10 69.87 5.91
 -1 8 -9 3.29 2.86
 -1 8 -8 11.36 3.08
 -1 8 -7 97.01 6.02
 -1 9 -16 5.75 4.97
 -1 9 -15 20.5 5.83
 -1 9 -14 1.35 4.93
 -1 9 -13 10.06 4.35
 -1 9 -12 -0.53 3.32
 -1 9 -11 30.28 5.09
 -1 9 -10 160.05 8.61
 -1 9 -9 -2.85 2.45
 -1 9 -8 61.42 5.4
 -1 9 -6 10.76 3.32
 -1 9 -5 18.73 3.87
 -1 10 -15 4.19 4.77
 -1 10 -14 40.94 6.81
 -1 10 -13 5.75 4.38
 -1 10 -12 35.9 5.97
 -1 10 -11 6.25 3.95
 -1 10 -10 90.3 7.38
 -1 10 -9 8.35 3.84
 -1 10 -8 152.11 8.06
 -1 10 -7 -2.22 2.85
 -1 11 -14 -4.35 4.07
 -1 11 -13 -2.45 4.71
 -1 11 -12 15.32 5.8
 -1 11 -11 23.62 6.07
 -1 11 -10 98.54 7.63
 -1 11 -9 2.23 4.39
 -1 12 -12 18.18 5.62
 0 -3 -19 1.42 4.34
 0 -2 -20 -0.88 4.68
 0 -2 -19 13.63 4.97
 0 -2 -18 -0.83 4.17
 0 -1 -20 14.61 5.6
 0 -1 -19 -0.6 3.87
 0 -1 -18 29.2 5.93
 0 -1 -17 -1.2 3.86
 0 0 -20 2.27 5.09
 0 0 -19 -2.54 4.21
 0 0 -18 22.75 5.45
 0 0 -17 -2.77 3.03
 0 0 -16 26.91 4.79
 0 0 -15 1.47 3.22
 0 1 -20 7.04 4.65
 0 1 -19 6.56 4.41
 0 1 -18 25.94 5.13
 0 1 -17 2.32 3.66
 0 1 -16 15.55 4.62
 0 1 -15 2.5 3.18
 0 1 -13 5.41 3.12
 0 1 -12 38.29 3.83
 0 1 -3 553.77 5.61
 0 1 -2 4061.04 12.02
 0 1 -1 20.18 1.05
 0 2 -20 5.88 5.1
 0 2 -19 16.75 4.98
 0 2 -18 -2.39 3.42
 0 2 -17 59.04 7.18
 0 2 -16 0.97 3.29
 0 2 -15 17.49 4.16
 0 2 -14 41.86 4.53
 0 2 -13 10.55 2.99
 0 2 -12 13.24 2.86
 0 2 -10 44.42 3.89
 0 2 -9 91.08 4.38
 0 2 -8 2.4 1.67
 0 2 -7 1516.12 14.35
 0 2 -6 468.03 7.45
 0 2 -4 1307.39 10.09
 0 2 -3 433.68 5.33
 0 2 -2 331.19 4.24
 0 2 -1 5.51 0.97
 0 3 -19 3.19 4.17
 0 3 -18 2.23 3.98
 0 3 -17 5.59 3.83
 0 3 -15 20.18 4.48
 0 3 -14 20.04 4.04
 0 3 -13 26.03 4.23
 0 3 -8 102.4 4.54
 0 3 -7 29.01 2.54
 0 3 -6 225.61 5.4
 0 3 -5 223.42 4.99
 0 3 -4 351.22 5.75
 0 3 -3 959.21 8.67
 0 3 -2 347.48 5.08
 0 3 -1 406.07 5.2
 0 4 -19 5.45 4.49
 0 4 -18 23.28 5.98
 0 4 -17 2.79 3.99
 0 4 -16 3.64 3.86
 0 4 -15 116.1 7.62
 0 4 -14 13.32 3.69
 0 4 -13 169.76 7.57
 0 4 -12 77.6 5.18
 0 4 -9 132.87 5.4
 0 4 -8 -0.17 1.67
 0 4 -7 29.45 2.69
 0 4 -6 17.25 2.23
 0 4 -5 10.22 1.85
 0 4 -4 18.37 1.96
 0 4 -3 1136.23 10.54
 0 4 -2 203.68 4.61
 0 4 -1 2.28 1.26
 0 5 -19 5.87 4.75
 0 5 -18 -2.23 3.8
 0 5 -17 18.59 5.08
 0 5 -16 35.53 5.28
 0 5 -14 0.98 2.96
 0 5 -13 16.99 3.84
 0 5 -12 66.51 5.41
 0 5 -11 0.53 2.18
 0 5 -10 64.79 4.55
 0 5 -8 725.88 12.02
 0 5 -7 16.06 2.51
 0 5 -6 54.07 3.34
 0 5 -5 895.58 11.25
 0 5 -4 22.21 2.17
 0 5 -3 62.25 3.34
 0 5 -2 174.3 4.6
 0 6 -17 4.44 4.91
 0 6 -16 6.87 4.05
 0 6 -15 25.62 5.42
 0 6 -14 4.74 3.41
 0 6 -12 6.08 3.58
 0 6 -11 10.31 2.94
 0 6 -7 235.21 7.01
 0 6 -5 265.3 6.92
 0 6 -4 35.36 2.84
 0 6 -3 11.08 2.02
 0 6 -2 6.04 2
 0 7 -18 1.27 4.23
 0 7 -16 -0.7 3.64
 0 7 -15 0.15 4.38
 0 7 -13 3.31 3.5
 0 7 -12 1.24 2.73
 0 7 -11 9.33 3.2
 0 7 -10 0.88 2.36
 0 7 -9 53.46 4.5
 0 7 -6 12.92 2.76
 0 7 -5 611.23 11.04
 0 7 -4 3.13 1.99
 0 8 -17 4.45 4.41
 0 8 -16 3.04 4.52
 0 8 -15 17.49 5.61
 0 8 -14 4.08 4.22
 0 8 -13 17.26 4.12
 0 8 -12 4.78 3.59
 0 8 -10 14.98 3.5
 0 8 -8 10.96 2.96
 0 8 -7 47.2 4.56
 0 9 -16 20.21 6.28
 0 9 -14 6.43 4.27
 0 9 -13 12.95 4.56
 0 9 -12 -3.57 3.11
 0 9 -11 -1.26 2.98
 0 9 -10 14.09 4.39
 0 9 -9 13.29 3.62
 0 9 -8 145.11 7.47
 0 9 -7 1.14 2.5
 0 9 -6 12.29 3.02
 0 9 -5 51.01 4.98
 0 10 -15 34.32 7
 0 10 -14 11.8 4.69
 0 10 -13 0 4.24
 0 10 -12 10.28 4.32
 0 10 -11 2.27 3.85
 0 10 -10 104.71 7.24
 0 10 -8 4.66 3.29
 0 10 -7 4.14 3.16
 0 11 -14 87.37 8.08
 0 11 -13 0.63 4.69
 0 11 -12 10.93 4.83
 0 11 -11 34.09 6.36
 0 11 -9 -1.93 3.51
 0 11 -8 85.96 6.85
 0 12 -12 6.82 4.9
 0 12 -11 4.15 5.12
 1 -2 -19 6.67 4.93
 1 -1 -19 15.87 5.71
 1 -1 -18 35.54 5.75
 1 0 -20 19.84 5.96
 1 0 -19 5.04 4.29
 1 0 -17 15.27 4.94
 1 0 -16 9.39 4
 1 1 -20 31.14 5.98
 1 1 -19 18.79 5.46
 1 1 -18 52.72 6.85
 1 1 -17 1.67 4.25
 1 1 -16 2.65 3.7
 1 1 -14 8.64 3.15
 1 2 -19 5.65 4.93
 1 2 -18 0.93 3.81
 1 2 -17 19.53 4.51
 1 2 -16 11.7 4.06
 1 2 -15 -0.69 3.04
 1 2 -14 33.8 4.41
 1 2 -13 71.5 5.58
 1 2 -12 6.91 2.95
 1 2 -10 21.25 3.13
 1 2 -9 138.94 5.55
 1 2 -8 104.29 4.3
 1 2 -6 14.5 1.96
 1 2 -5 142.2 3.99
 1 2 -3 1008.09 7.42
 1 3 -19 33.4 5.85
 1 3 -18 8.99 4.34
 1 3 -17 -2.23 4.25
 1 3 -16 98.44 7.09
 1 3 -13 10.57 3.48
 1 3 -12 7.91 2.72
 1 3 -9 757.62 11.8
 1 3 -8 17.81 2.46
 1 3 -7 55.91 3.08
 1 3 -6 142.81 4.36
 1 3 -5 376.18 6.18
 1 3 -4 383.19 5.62
 1 3 -3 54.15 2.12
 1 3 -2 399.73 4.7
 1 3 -1 124.94 2.62
 1 4 -19 6.71 4.47
 1 4 -18 7.16 4.93
 1 4 -17 22.79 5.25
 1 4 -16 4.13 3.57
 1 4 -14 213.76 8.89
 1 4 -13 59.07 5.46
 1 4 -12 104.56 5.69
 1 4 -11 13.32 2.8
 1 4 -9 5.29 2.42
 1 4 -8 22.03 2.76
 1 4 -7 55.57 3.51
 1 4 -6 127.64 4.27
 1 4 -5 383.99 6.6
 1 4 -4 204.36 4.51
 1 4 -3 50.12 2.42
 1 4 -2 101.37 2.96
 1 4 -1 92.53 2.79
 1 5 -19 4.56 5.17
 1 5 -18 0.48 4.05
 1 5 -17 0.7 3.62
 1 5 -15 79.35 6.98
 1 5 -14 73.17 5.94
 1 5 -13 75.42 5.95
 1 5 -12 0.7 2.69
 1 5 -11 34.3 4.24
 1 5 -8 132.19 5.23
 1 5 -6 113.57 4.41
 1 5 -5 33.51 2.83
 1 5 -4 179.62 4.66
 1 5 -3 323.29 5.91
 1 5 -2 514.8 7.08
 1 6 -17 9.08 4.3
 1 6 -15 56.97 6.1
 1 6 -14 11.86 4.29
 1 6 -13 1.65 3.19
 1 6 -12 80.74 6.06
 1 6 -11 8.6 2.86
 1 6 -10 161.1 6.59
 1 6 -6 59.24 3.82
 1 6 -4 128.65 4.5
 1 6 -3 113.5 4.22
 1 6 -2 21.44 2.36
 1 7 -17 0.61 3.86
 1 7 -16 5.99 4.47
 1 7 -15 25.47 4.89
 1 7 -14 22.34 4.23
 1 7 -12 0.17 3.19
 1 7 -11 6.14 3.32
 1 7 -10 6.31 2.93
 1 7 -9 34.45 4.01
 1 7 -5 5.34 2.02
 1 7 -4 242.06 6.41
 1 7 -3 21.38 2.6
 1 8 -15 11.42 4.64
 1 8 -14 32.47 5.86
 1 8 -13 1.46 3.16
 1 8 -12 20.76 4.72
 1 8 -11 45.33 5.57
 1 8 -10 61.37 4.94
 1 8 -9 5.19 2.73
 1 8 -8 14.38 3.09
 1 8 -5 25.75 3.27
 1 8 -4 109.18 5.02
 1 9 -15 12.54 4.58
 1 9 -14 6.54 4.06
 1 9 -13 8.81 4.53
 1 9 -12 -1.13 3.2
 1 9 -11 28.79 4.87
 1 9 -10 159.29 7.55
 1 9 -9 1.02 2.62
 1 9 -7 57 4.63
 1 9 -6 8.45 2.8
 1 10 -15 8 4.26
 1 10 -14 36.97 6.2
 1 10 -13 -0.91 3.43
 1 10 -12 38.65 5.45
 1 10 -11 7.64 3.78
 1 10 -10 87.48 6.91
 1 10 -8 153.33 7.46
 1 10 -7 0.84 3.36
 1 11 -14 -2.1 4.03
 1 11 -12 14.75 4.75
 1 11 -11 18.54 5.07
 1 11 -10 96.99 7.36
 1 11 -9 -3.9 2.94
 1 12 -12 14.3 5.06
 2 -1 -19 74.96 7.33
 2 0 -19 2.63 4.88
 2 0 -18 25.27 5.14
 2 0 -17 4.37 4.04
 2 1 -19 70.02 7.83
 2 1 -18 12.52 4.59
 2 1 -17 2.02 3.67
 2 1 -16 19 4.27
 2 1 -15 112.6 7
 2 2 -19 2.88 4.79
 2 2 -18 9.75 4.94
 2 2 -17 17.68 5.16
 2 2 -16 4.28 3.45
 2 2 -15 42.04 5.14
 2 2 -14 2.83 3.07
 2 2 -13 38.2 4.63
 2 2 -12 17.26 3.53
 2 2 -2 700.92 4.69
 2 3 -18 16.53 4.65
 2 3 -17 23.6 5.09
 2 3 -16 3.72 3.48
 2 3 -15 78.47 6.54
 2 3 -14 4.59 2.99
 2 3 -13 23.59 3.72
 2 3 -12 36.73 3.96
 2 3 -9 10.28 2.3
 2 3 -8 2.48 1.78
 2 3 -7 106.2 3.96
 2 3 -6 406.19 6.83
 2 3 -5 451.07 6.39
 2 3 -4 17.93 1.65
 2 3 -1 230.74 2.65
 2 4 -19 4.1 4.56
 2 4 -18 7.18 4.51
 2 4 -17 2.4 3.86
 2 4 -16 16.71 4.24
 2 4 -15 59.24 5.46
 2 4 -14 49.15 4.96
 2 4 -13 67.37 5.25
 2 4 -12 10.65 3.34
 2 4 -11 34.96 4.09
 2 4 -9 99.88 4.76
 2 4 -7 130.49 4.63
 2 4 -5 95.35 3.24
 2 4 -4 223.04 4.4
 2 4 -3 227.72 4.02
 2 5 -17 26.5 5.63
 2 5 -16 56.82 6.42
 2 5 -14 1.66 2.92
 2 5 -13 43.61 4.94
 2 5 -12 20.36 3.54
 2 5 -11 -0.2 2.53
 2 5 -8 215.02 6.36
 2 5 -7 90.44 4
 2 5 -5 214.97 5.01
 2 5 -3 62.28 2.51
 2 5 -2 183.77 3.94
 2 6 -18 2.1 4.75
 2 6 -17 15.13 5.25
 2 6 -16 1.57 3.62
 2 6 -15 10.15 3.81
 2 6 -14 68.73 5.99
 2 6 -13 1.7 3.16
 2 6 -12 -0.91 2.39
 2 6 -10 36.34 4.36
 2 6 -8 8.54 2.26
 2 6 -7 207.02 6.13
 2 6 -6 129.5 4.8
 2 6 -5 190.07 5.26
 2 6 -4 42.22 2.77
 2 7 -17 10.89 4.56
 2 7 -16 8.7 4.18
 2 7 -15 7.47 3.64
 2 7 -14 1.94 3.62
 2 7 -13 71.51 5.72
 2 7 -12 10.2 3.44
 2 7 -11 3.11 2.58
 2 7 -10 68.12 5.15
 2 7 -9 38.61 3.98
 2 7 -7 3.08 2.16
 2 7 -6 4.11 2.2
 2 7 -5 140.59 5.04
 2 7 -4 13.15 2.15
 2 8 -16 2.54 4.17
 2 8 -14 14.71 4.65
 2 8 -13 26 4.26
 2 8 -12 16.03 3.92
 2 8 -11 4.59 3.01
 2 8 -10 53.04 4.97
 2 8 -9 15.52 3.03
 2 8 -8 57.93 4.57
 2 8 -6 17.48 2.83
 2 8 -5 205.22 6.42
 2 9 -15 1.35 3.61
 2 9 -14 5.62 4.04
 2 9 -12 6.99 3.53
 2 9 -11 2.09 2.96
 2 9 -10 21.09 3.92
 2 9 -9 81.03 5.53
 2 9 -7 15.43 3.48
 2 10 -14 18.23 4.6
 2 10 -13 2.09 3.5
 2 10 -12 5.39 3.69
 2 10 -11 19.7 4.24
 2 10 -10 40.57 4.71
 2 10 -9 86.89 5.78
 2 10 -8 1.82 3.11
 2 10 -7 5.72 3.15
 2 11 -13 5.81 4.45
 2 11 -12 0.74 3.67
 2 11 -11 2.23 3.37
 2 11 -10 15.53 4.11
 3 0 -19 25.57 5.48
 3 0 -18 4.94 4.57
 3 0 -17 8.46 4.41
 3 1 -19 -1.53 3.73
 3 1 -17 5.07 4.33
 3 1 -16 35.14 5.51
 3 2 -18 7.95 4.4
 3 2 -17 7.5 4.29
 3 2 -16 35.67 5.56
 3 2 -15 38.1 5.27
 3 2 -14 35.87 4.64
 3 2 -12 25.34 3.92
 3 2 -2 174 2.13
 3 3 -18 19.71 4.74
 3 3 -17 0.9 3.79
 3 3 -16 8.48 3.84
 3 3 -15 46.88 5.79
 3 3 -14 2.13 2.85
 3 3 -13 1.66 3.1
 3 3 -12 12.17 3.38
 3 3 -11 41.4 4.13
 3 3 -9 143.05 5.42
 3 3 -8 8.19 2.1
 3 3 -7 11.46 1.89
 3 3 -6 35.62 2.39
 3 3 -5 194.51 4.18
 3 3 -3 3.97 0.7
 3 3 -2 382.93 2.93
 3 4 -18 3.95 3.98
 3 4 -17 8.21 4.52
 3 4 -16 2.85 3.32
 3 4 -15 12.6 3.74
 3 4 -14 38.74 4.6
 3 4 -13 24.92 3.81
 3 4 -12 12.33 3.45
 3 4 -11 7.17 2.56
 3 4 -9 66.59 4.04
 3 4 -8 18.6 2.4
 3 4 -7 82.24 3.67
 3 4 -6 244.52 5.25
 3 4 -5 3.34 1.1
 3 4 -3 27.35 1.36
 3 5 -18 7.01 4.04
 3 5 -17 13.49 4.29
 3 5 -16 3.16 3.64
 3 5 -15 8.12 3.5
 3 5 -14 75.49 5.89
 3 5 -13 28.57 4.07
 3 5 -12 5.31 2.98
 3 5 -9 42.65 3.64
 3 5 -8 20.08 2.67
 3 5 -7 18.19 2.18
 3 5 -6 139.1 4.18
 3 5 -5 31.56 2.16
 3 5 -3 59.79 2.12
 3 6 -17 3.65 3.8
 3 6 -16 44.53 5.86
 3 6 -15 84.73 6.46
 3 6 -14 8.39 3.76
 3 6 -13 21.4 4.26
 3 6 -12 5.29 2.98
 3 6 -11 21.82 3.5
 3 6 -10 95.68 5.12
 3 6 -8 129.36 5
 3 6 -7 29.23 2.63
 3 6 -6 97.31 3.84
 3 6 -5 56.04 2.85
 3 7 -16 5.59 3.71
 3 7 -15 79.17 6.37
 3 7 -13 7.53 3.09
 3 7 -11 1.29 2.73
 3 7 -6 76.51 3.67
 3 7 -5 50.54 2.91
 3 8 -16 8.61 3.92
 3 8 -15 19.98 4.26
 3 8 -14 13.47 3.65
 3 8 -13 17.91 4.2
 3 8 -12 51.13 5.11
 3 8 -11 11.46 3.29
 3 8 -10 134.4 6.22
 3 8 -9 1.39 2.18
 3 8 -6 31.42 2.85
 3 9 -15 30.96 4.87
 3 9 -14 23.68 4.4
 3 9 -13 1.36 2.58
 3 9 -12 1.75 2.46
 3 9 -11 18.16 3.72
 3 9 -10 15.74 3.32
 3 9 -9 12.77 2.83
 3 9 -8 87.65 4.79
 3 10 -11 1.14 2.09
 3 10 -9 -0.14 2.03
 4 0 -18 5.42 4.45
 4 0 -17 -0.2 3.54
 4 1 -18 12.35 4.59
 4 1 -17 7.11 4.51
 4 1 -16 13.83 4.24
 4 1 -15 25.92 4.5
 4 2 -17 6.88 4.15
 4 2 -16 10.2 4.28
 4 2 -14 9.85 3.27
 4 2 -11 2 2.29
 4 2 -3 64.92 1.66
 4 3 -16 0.63 3.03
 4 3 -15 10.3 3.69
 4 3 -11 0.23 1.97
 4 3 -9 35.57 3.06
 4 3 -8 23.14 2.53
 4 3 -7 77.54 3.32
 4 3 -5 289.15 4.61
 4 3 -4 77.43 2.05
 4 4 -17 -1.86 3.18
 4 4 -16 12.93 4.34
 4 4 -15 9.02 3.71
 4 4 -14 13.95 3.86
 4 4 -13 8.35 2.84
 4 4 -12 -0.13 2.1
 4 4 -11 -0.2 1.83
 4 4 -8 42.2 2.81
 4 4 -7 35.86 2.41
 4 4 -5 235.91 4.13
 4 4 -4 245.08 3.35
 4 5 -17 -0.49 3.71
 4 5 -16 18.79 4.47
 4 5 -15 19.11 4.09
 4 5 -14 8.68 3.16
 4 5 -13 5.51 2.72
 4 5 -12 9.08 2.71
 4 5 -11 19.92 2.88
 4 5 -9 17.16 2.45
 4 5 -8 12.84 1.89
 4 5 -6 83.36 2.91
 4 6 -16 12.66 3.88
 4 6 -15 8.66 3.03
 4 6 -12 0.06 1.92
 5 0 -17 7.92 3.83
 5 0 -16 -0.75 3.83
 5 1 -15 0.46 3.22
 5 2 -16 54.07 5.4
 5 2 -15 42.01 4.89
 5 2 -13 3.79 2.32
 5 2 -11 37.74 3.42
 5 3 -12 -1.93 1.19
 -1 -9 -7 60.05 4.13
 -1 -9 -4 121.87 4.29
 -1 -9 -3 70.22 3.13
 -1 -9 -2 127.15 3.56
 -1 -9 -1 62.81 2.3
 -1 -9 0 561.39 5.13
 -1 -8 -8 9.27 2.3
 -1 -8 -7 96.58 4.83
 -1 -8 -6 32.49 3.26
 -1 -8 -5 24.93 2.9
 -1 -8 -4 100.6 3.81
 -1 -8 -3 6.63 1.43
 -1 -8 -2 54.17 2.49
 -1 -8 -1 206.95 3.92
 -1 -8 0 33.87 1.52
 -1 -7 -7 52.55 3.74
 -1 -7 -6 151.67 5.27
 -1 -7 -5 7.67 1.71
 -1 -7 -4 242.86 5.5
 -1 -7 -3 20.32 1.83
 -1 -7 -2 37.35 2.08
 -1 -7 -1 117.54 2.89
 -1 -7 0 433.84 4.48
 -1 -7 1 122.37 1.95
 -1 -6 -9 11.37 2.59
 -1 -6 -8 50.07 3.6
 -1 -6 -7 187 5.92
 -1 -6 -6 64.12 3.5
 -1 -6 -5 10.76 1.84
 -1 -6 -4 131.33 4.01
 -1 -6 -2 19.29 1.57
 -1 -6 -1 63.93 2.06
 -1 -6 0 139.24 2.39
 -1 -5 -9 23.38 3.26
 -1 -5 -8 125.38 5.14
 -1 -5 -7 3.64 1.77
 -1 -5 -6 111.28 4.34
 -1 -5 -5 29.63 2.33
 -1 -5 -4 172.72 4.49
 -1 -5 -3 302.13 5.25
 -1 -5 -2 510.09 6
 -1 -5 -1 34.38 1.56
 -1 -5 0 9.53 0.81
 -1 -4 -7 49.3 3.38
 -1 -4 -6 116.77 4.24
 -1 -4 -5 389.3 7.06
 -1 -4 -4 204.56 4.65
 -1 -4 -3 48.47 2.34
 -1 -4 -2 102.29 2.71
 -1 -3 -7 61.49 3.43
 -1 -3 -6 152.57 4.65
 -1 -3 -5 376.7 6.55
 -1 -3 -4 386.51 6.01
 -1 -3 -3 51.25 2.28
 -1 -3 -2 400.87 4.66
 -1 -3 -1 121.87 2.12
 0 -10 -6 19.71 3.13
 0 -10 -5 42.25 3.5
 0 -9 -6 5.16 2.33
 0 -9 -5 43.79 3.59
 0 -9 6 5.26 1.26
 0 -8 -6 90.23 4.67
 0 -8 6 94.17 3.34
 0 -8 7 46.26 2.7
 0 -8 8 10.23 1.86
 0 -8 9 21.78 2.55
 0 -7 -8 141.15 6.26
 0 -7 -7 20.66 2.93
 0 -7 -6 16.69 2.61
 0 -7 6 18.1 1.89
 0 -7 7 23.93 2.25
 0 -7 8 143.19 4.75
 0 -7 9 55.2 3.4
 0 -7 10 1.02 1.5
 0 -6 -9 172.95 6.89
 0 -6 -8 20.59 3.27
 0 -6 -7 236.3 6.8
 0 -6 -6 478.83 9.46
 0 -6 6 484.94 7.23
 0 -6 7 246.84 5.71
 0 -6 9 169.18 5.42
 0 -6 10 27.86 2.95
 0 -5 -9 14.03 2.77
 0 -5 -8 721.74 12.11
 0 -5 -7 13.35 2.43
 0 -5 -6 50.08 3.37
 0 -5 6 53.43 2.77
 0 -5 7 19.79 2.02
 0 -5 8 740.48 10.59
 0 -5 9 10.86 2.02
 0 -5 10 72.81 4.35
 0 -4 -10 7.52 2.54
 0 -4 -9 141.12 5.87
 0 -4 -8 -0.61 1.73
 0 -4 -6 20.51 2.56
 0 -4 5 15.13 1.83
 0 -4 6 19.42 1.79
 0 -4 7 25.93 2.22
 0 -4 8 0.37 1.6
 0 -4 10 6.61 2.37
 0 -3 -9 9.16 2.3
 0 -3 -8 104.68 4.93
 0 -3 -7 26.92 2.68
 0 -3 -5 223.59 5.39
 0 -3 5 219.86 4.49
 0 -3 6 223.36 5.05
 0 -3 7 25.97 2.28
 0 -3 9 9.81 2.14
 0 -2 -10 52.45 4.16
 0 -2 -9 94.34 4.58
 0 -2 -8 2.89 2.16
 0 -2 -7 1485.28 14.89
 0 -2 -6 462.4 7.96
 0 -2 -5 1172.67 11.35
 0 -2 -4 1268.34 10.82
 0 -2 4 1300.09 9.51
 0 -2 5 1175.48 10.16
 0 -2 6 478.08 7.3
 0 -2 7 1546.77 14.07
 0 -2 8 0.21 1.41
 0 -1 -10 55.98 3.85
 0 -1 -8 -0.55 1.39
 0 -1 -7 48.62 2.91
 0 -1 -6 108.68 3.85
 0 -1 -5 1408.27 11.93
 0 -1 -4 1856.11 12.37
 0 -1 -3 554.14 6.14
 0 -1 3 536.59 5.34
 0 -1 4 1947.62 11.8
 0 -1 5 1454.41 11.64
 0 -1 6 108.5 3.89
 0 -1 7 50.71 2.98
 0 0 -7 0.07 1.5
 0 0 -6 543.52 8.06
 0 0 -5 0.07 1.32
 0 0 -4 1788.92 11.59
 0 0 -3 0.37 0.73
 0 0 -2 1625.2 7.72
 0 0 2 1627.71 7.76
 0 0 3 0.77 0.88
 0 0 4 1798.91 11.86
 1 -8 9 3.41 1.79
 1 -7 8 77.1 3.94
 1 -7 9 28.77 3.3
 1 -7 10 8.47 2.18
 1 -6 8 58.4 3.62
 1 -6 9 8.77 2.54
 1 -6 10 171.03 6.31
 1 -5 -9 19.54 3.19
 1 -5 8 130.87 5.13
 1 -5 9 24.02 3.17
 1 -5 10 53.98 3.82
 1 -4 8 19.8 2.54
 1 -4 9 3.63 1.84
 1 -4 11 13.89 2.92
 1 -3 -10 1.5 2.96
 1 -3 7 60.14 3.47
 1 -3 8 16.49 2.39
 1 -3 9 765.31 11.95
 1 -3 10 3.61 2.18
 1 -2 -8 106.25 4.9
 1 -2 7 1007.87 11.86
 1 -2 9 147.67 5.49
 1 -2 10 17.29 2.81
 1 -2 11 130.68 5.9
 1 -1 -11 21.29 3.15
 1 -1 -10 14.24 2.65
 1 -1 -9 531.3 10.22
 1 -1 -7 126.26 4.61
 1 -1 6 604.81 8.59
 1 -1 7 129.09 4.66
 1 -1 8 87.44 4.12
 1 -1 11 24.68 3.31
 1 0 -10 15.96 2.66
 1 0 -9 243.71 6.67
 1 0 -8 0.95 2.01
 1 0 -6 113.58 4.16
 1 0 5 5.34 1.54
 1 0 6 112.44 3.92
 1 0 10 14.32 2.76
 1 1 -10 14.05 2.49
 1 1 -9 516.75 9.28
 1 1 -8 89.08 4.13
 1 1 -6 603.17 8.13
 1 1 -5 365.56 6.02
 1 1 -4 233.67 4.28
 1 1 3 292.61 4.57
 1 2 -7 988.64 10.69
 1 2 -6 16.04 1.98
 1 2 -5 143.29 3.5
 1 2 -4 114.77 2.89
 1 2 1 346.42 3.43
 1 2 2 137.42 2.92
 1 2 3 1029.87 8.72
 1 2 4 119.86 3.71
 1 2 5 145.59 4.36
 1 2 6 19.63 2.29
 2 -3 9 6.8 2.3
 2 -2 9 21.25 2.96
 2 -2 10 23.87 3.47
 2 -1 -10 85.48 5.08
 2 -1 -9 150.01 5.88
 2 -1 8 161.82 5.63
 2 -1 9 145.08 5.83
 2 -1 10 79.43 4.96
 2 0 -11 154.09 6.19
 2 0 -10 20.81 2.97
 2 0 -9 11.77 2.33
 2 0 8 2.87 1.92
 2 1 -11 38.99 3.81
 2 1 -10 81.6 4.33
 2 1 -9 149.24 5.4
 2 1 -8 155.42 5.07
 2 1 -7 42.29 2.95
 2 1 7 42.23 3.21
 2 1 8 153.34 5.64
 2 1 9 147.91 5.85
 2 1 10 83.97 4.75
 2 2 -10 21.6 2.87
 2 2 -9 28.49 2.94
 2 2 -8 -0.02 1.25
 2 2 -7 700.59 9.48
 2 2 -6 82.65 3.08
 2 2 4 198.49 4.59
 2 2 5 608.02 8.79
 2 2 7 691.79 10.72
 2 2 8 0.89 1.75
 2 3 -9 10.01 1.85
 2 3 -8 2.22 1.41
 2 3 -7 103.86 3.63
 2 3 -6 410.46 6.21
 2 3 1 233.41 3.31
 2 3 2 184.18 3.63
 2 3 3 372.65 5.71
 2 3 4 20.3 2.12
 2 3 6 427.24 7.94
 2 3 7 108.29 4.81
 2 3 8 1.47 1.72
 3 -1 9 126.48 5.9
 3 0 -10 239.3 7.74
 3 0 8 10.03 2.38
 3 0 9 706.69 12.65
 3 1 -9 134.28 5.39
 3 1 7 185.85 6.17
 3 1 8 21.89 3.3
 3 1 9 132.38 6.08
 3 2 -11 2.85 1.94
 3 2 -9 121.61 4.89
 3 2 6 27.92 2.61
 3 2 7 365.1 8.28
 3 2 8 86.75 4.53
 3 2 9 119.33 5.57
 3 3 -11 43.11 3.38
 3 3 -10 2.28 1.5
 3 3 -9 136.98 4.82
 3 3 -8 7.17 1.61
 3 3 -7 9.41 1.72
 3 3 -6 32.92 2.21
 3 3 5 199.47 5.6
 3 3 6 28.43 2.7
 3 3 7 14.18 2.74
 3 3 8 8.71 2.75
 3 3 9 139.05 6.21
 3 4 -9 70.14 3.23
 3 4 -8 13.32 1.73
 3 4 -5 2.25 0.73
 3 4 -4 148.57 2.9
 3 4 1 52.77 2.02
 3 4 2 11.99 1.35
 3 4 5 3.79 1.67
 3 4 6 246.15 6.49
 3 4 7 85.02 4.46
 3 4 8 14.42 2.69
 4 2 -10 47.07 3.87
 4 2 -9 23.52 3.01
 4 2 7 110.6 5.26
 4 2 8 -0.8 1.93
 4 3 -10 21.03 2.58
 4 3 -9 31.49 2.98
 4 3 -8 21.2 2.54
 4 3 5 282.06 6.93
 4 3 6 253.89 7.08
 4 4 -6 30.2 2.02
 4 4 3 74.06 3.32
 4 4 4 254.11 6.11
 4 4 5 243.6 6.37
 4 4 6 30.97 2.79
 4 4 7 40.65 3.41
 4 4 8 34.74 3.76
 4 5 -1 272.93 3.56
 4 5 2 55.98 2.48
 4 5 3 4.94 1.37
 4 5 4 102.63 3.94
 4 5 5 60.18 3.34
 4 5 6 95.26 4.43
 4 5 7 84.3 4.56
 5 3 6 119.09 5.38
 5 4 5 82.88 4.25
 5 4 6 71.39 4.39
 -5 -1 6 35.74 1.46
 -5 1 2 13.74 1.11
 -5 1 3 23.36 1.41
 -5 2 0 93.41 3.02
 -5 2 1 82.89 2.83
 -5 2 2 72.12 2.67
 -5 2 3 6.03 1.22
 -5 3 -2 54.19 3.15
 -5 3 -1 119.49 4
 -5 3 0 10.04 1.61
 -5 3 2 55.18 2.85
 -5 3 3 50.56 2.83
 -5 4 -3 39.26 3.18
 -5 4 -2 7 1.75
 -5 4 -1 135.91 4.64
 -5 4 0 16.22 2.36
 -5 4 1 129.15 4.36
 -5 4 2 3.15 1.74
 -5 5 -3 35.16 3.35
 -5 5 -2 56.16 3.47
 -5 5 -1 31.27 3.18
 -5 5 0 37.94 2.98
 -5 5 1 27.37 2.83
 -5 5 2 51.64 3.52
 -5 5 3 30.3 2.89
 -5 6 -1 18.57 2.91
 -5 6 0 -0.76 2.03
 -5 6 1 22.75 3.09
 -5 6 2 15.19 2.82
 -4 -4 7 35.21 2.25
 -4 -4 8 37.21 2.49
 -4 -4 9 29.34 2.6
 -4 -3 6 248.46 4.21
 -4 -3 7 71.87 2.78
 -4 -3 8 21.29 2.13
 -4 -3 9 32.4 2.59
 -4 -2 5 187.57 3.02
 -4 -2 6 32.52 1.82
 -4 -2 7 106.12 3.31
 -4 -2 8 1.46 1.15
 -4 -2 9 25.6 2.4
 -4 -2 10 43.43 3.04
 -4 -1 4 75.05 1.69
 -4 1 0 442.27 5.09
 -4 1 2 1.13 0.7
 -4 2 -2 510.53 7.1
 -4 2 -1 3.76 1.23
 -4 2 0 72.45 2.73
 -4 2 1 2.66 0.99
 -4 3 -2 28.15 2.2
 -4 3 -1 239.48 5.37
 -4 3 0 864.21 9.63
 -4 3 1 236.58 5.24
 -4 4 -4 259.14 6.61
 -4 4 -3 65.46 3.66
 -4 4 -2 334.35 7.04
 -4 4 -1 66.09 3.27
 -4 4 0 715.94 9.74
 -4 4 1 70.03 3.52
 -4 5 -5 67.16 4.29
 -4 5 -4 107.01 4.95
 -4 5 -3 4.99 1.83
 -4 5 -2 62.51 3.65
 -4 5 -1 266.6 6.64
 -4 5 0 8.25 2.15
 -4 5 1 272.92 6.83
 -4 6 -3 118.03 5.38
 -4 6 -1 180.88 6.07
 -4 6 0 148.38 5.59
 -4 6 1 184.02 6.14
 -3 -5 7 20.06 2.37
 -3 -5 9 49.02 3.24
 -3 -5 10 25.75 2.68
 -3 -4 6 232.89 5.01
 -3 -4 7 87.17 3.43
 -3 -4 8 16.79 2.27
 -3 -4 9 62.93 3.55
 -3 -4 10 25.42 2.88
 -3 -4 11 5.89 1.82
 -3 -3 4 131.24 2.89
 -3 -3 5 191.63 3.94
 -3 -3 6 31.37 2.13
 -3 -3 7 15.51 2.08
 -3 -3 8 7.36 1.6
 -3 -3 9 137.91 4.79
 -3 -3 10 2.12 1.43
 -3 -3 11 45.69 3.4
 -3 -2 3 352.81 3.22
 -3 -2 4 9.11 1.12
 -3 -2 5 28.08 1.71
 -3 -2 6 22.81 1.87
 -3 -2 7 357.5 6.35
 -3 -2 8 88.34 3.61
 -3 -2 9 125.93 4.54
 -3 -2 10 73.47 3.69
 -3 -2 11 3.48 1.84
 -3 0 1 748.37 4.29
 -3 1 0 0.71 0.63
 -3 2 -3 364.68 6.3
 -3 2 -2 165.65 3.87
 -3 2 -1 136.27 3.44
 -3 2 0 509.71 6.29
 -3 3 -4 126.88 4.19
 -3 3 -3 4.02 1.35
 -3 3 -1 62.2 2.72
 -3 3 0 134.47 3.92
 -3 4 -5 2.94 1.74
 -3 4 -4 150.04 5.12
 -3 4 -3 27.97 2.42
 -3 4 -1 54.05 2.89
 -3 4 0 372.12 6.88
 -3 5 -5 37.46 3.13
 -3 5 -4 411.24 8.33
 -3 5 -3 64.11 3.69
 -3 5 -2 357.92 7.63
 -3 5 0 138.85 4.9
 -3 6 -5 51.89 3.7
 -3 6 -4 73.62 4.18
 -3 6 -3 73.8 4.12
 -3 6 -2 46.98 3.31
 -3 6 -1 70.18 3.84
 -3 6 0 139.63 5.15
 -3 7 -2 36.13 3.26
 -3 7 -1 79.7 4.61
 -2 -6 8 9.37 2.03
 -2 -6 9 66.46 4.17
 -2 -5 6 184.68 5.19
 -2 -5 7 96.16 4.11
 -2 -5 8 205.37 5.93
 -2 -5 9 1.16 1.53
 -2 -5 10 16.67 2.68
 -2 -4 5 99.74 3.35
 -2 -4 6 8.21 1.71
 -2 -4 8 16.23 2.23
 -2 -4 10 18.83 2.94
 -2 -3 3 365.51 4.79
 -2 -3 4 21.08 1.67
 -2 -3 6 415.33 6.77
 -2 -3 8 1.46 1.61
 -2 -3 9 8.47 2.12
 -2 -3 10 71.34 3.93
 -2 -3 11 31.51 3.26
 -2 -2 2 708.31 4.76
 -2 -2 3 289.43 3.85
 -2 -2 4 197.15 3.68
 -2 -2 5 611.78 7.19
 -2 -2 11 74.73 4.4
 -2 1 -2 759.49 6.73
 -2 1 -1 465.55 4.93
 -2 1 0 1041.52 6.71
 -2 2 -3 292.19 5.24
 -2 2 -1 1.65 0.99
 -2 3 -4 23.88 2.17
 -2 3 -3 382.21 6.47
 -2 3 -2 175.14 4.27
 -2 3 -1 239.77 4.93
 -2 4 -5 96.45 4.21
 -2 4 -4 218.02 5.58
 -2 4 -3 219.78 5.45
 -2 4 -2 389.1 6.81
 -2 4 -1 47.33 2.72
 -2 5 -6 195.63 6.23
 -2 5 -5 227.32 6.52
 -2 5 -4 142.13 4.9
 -2 5 -3 63.96 3.6
 -2 5 -2 181.78 5.19
 -2 5 -1 51.1 3.18
 -2 6 -6 134.08 5.65
 -2 6 -5 186.4 6.03
 -2 6 -4 43.52 3.32
 -2 6 -3 14.83 2.35
 -2 6 -2 76.64 4.18
 -2 6 -1 35.18 2.85
 -2 7 -5 137.76 5.78
 -2 7 -4 14.91 2.64
 -2 7 -3 338.72 8.2
 -2 7 -2 18.18 3.06
 -2 7 -1 195.44 6.31
 -2 8 -1 103.68 4.97
 -2 8 0 49.32 3.82
 -1 -6 7 188.17 6.33
 -1 -6 8 61.7 4.05
 -1 -5 6 104.24 4.35
 -1 -5 7 6.79 1.88
 -1 -5 8 130.5 5.06
 -1 -5 9 24.55 3.04
 -1 -5 10 53.41 3.86
 -1 -4 4 206.32 4.8
 -1 -4 5 393.82 6.93
 -1 -4 6 121.81 4.17
 -1 -4 7 52.13 3.22
 -1 -4 8 26.66 3.19
 -1 -4 9 4.26 1.99
 -1 -3 3 50.98 2.21
 -1 -3 4 403.39 5.98
 -1 -3 5 382.45 6.52
 -1 -3 6 155.77 4.59
 -1 -3 7 58.57 3.19
 -1 -3 8 18.02 2.33
 -1 -3 9 743.87 11.34
 -1 -3 10 1.07 1.99
 -1 -3 11 16.21 2.88
 -1 -2 2 138.98 2.65
 -1 -2 3 1044.25 7.86
 -1 1 -2 3891.8 13.98
 -1 2 -2 137.48 3.22
 -1 3 -4 393.51 6.66
 -1 3 -1 120.95 3.28
 -1 4 -3 47.05 2.92
 -1 4 -2 94.44 3.57
 -1 4 -1 88.21 3.47
 -1 6 -6 57.37 3.59
 -1 6 -5 12.11 2.18
 -1 6 -4 139.17 5.02
 -1 7 -5 9.6 2.25
 -1 7 -4 243.04 6.98
 -1 7 -3 15.21 2.44
 -1 7 -2 34.59 3.21
 -1 7 -1 118.94 4.91
 -1 8 -4 104.69 5.49
 -1 8 -3 7.53 2.23
 -1 8 -2 52.86 4.02
 -1 8 -1 189.21 6.22
 0 -6 7 239.33 7.03
 0 -6 8 17.31 2.87
 0 -5 5 898.51 11.56
 0 -5 6 52.87 3.34
 0 -5 7 16.95 2.63
 0 -5 9 9.21 2.52
 0 -4 4 15.11 1.89
 0 -4 5 12.8 2.21
 0 -4 6 20.88 2.79
 0 -4 7 30.83 3.09
 0 -4 8 -0.49 2.19
 0 -4 9 143.69 5.68
 0 -4 10 7.97 2.46
 0 -3 3 962.31 9.1
 0 -3 5 225.35 5.46
 0 -3 7 22.43 2.75
 0 -3 8 110.23 4.49
 0 -3 9 12.41 2.37
 0 -3 10 96.35 4.76
 0 -2 2 333.36 4.39
 0 -2 3 426.35 5.55
 0 -2 4 1241.22 10.18
 0 -2 5 1196.94 11.11
 0 -2 6 470.62 7.5
 0 -2 7 1563.34 14.49
 0 -2 8 4.29 1.74
 0 -2 9 87.71 4.19
 0 -2 10 44.61 3.67
 0 -1 2 4077.21 12.92
 0 1 -1 21.53 0.9
 0 2 -3 432.67 5.54
 0 2 -2 330.95 4.41
 0 2 -1 4.93 0.83
 0 3 -4 352.73 5.89
 0 3 -3 985.28 9.07
 0 3 -2 340.26 5.14
 0 3 -1 396.83 5.41
 0 4 -3 1125.25 10.91
 0 4 -2 195.8 4.49
 0 5 -2 178.19 4.8
 0 6 -5 272.65 6.9
 0 6 -4 32.07 2.66
 0 6 -3 15.09 2.17
 0 7 -5 635.84 10.89
 0 7 -4 5.74 2.42
 0 7 -3 372.43 7.94
 0 7 -2 7.67 2.13
 0 7 -1 598.12 9.88
 0 8 -5 41.66 3.56
 0 8 -4 0.48 1.8
 0 8 -3 37.99 3.32
 0 8 -2 434.67 9.18
 0 8 -1 351.69 8.22
 0 9 -2 8.37 2.74
 0 9 -1 169.94 6.26
 0 9 0 0.99 1.91
 1 -6 7 188.36 6.58
 1 -5 5 29.67 3.24
 1 -5 6 110 4.99
 1 -5 7 6.5 2.16
 1 -5 8 124.88 5.38
 1 -4 5 370.09 7.36
 1 -4 6 122.64 4.53
 1 -4 7 47.6 3.3
 1 -4 8 18.86 2.82
 1 -4 9 1.95 2.19
 1 -3 3 50.91 2.56
 1 -3 4 392.62 6.63
 1 -3 6 149.25 4.98
 1 -3 7 62.76 3.65
 1 -3 9 768.25 12.22
 1 -2 2 132.19 3.24
 1 -2 3 991.33 8.98
 1 -2 5 144.8 4.37
 1 -2 7 1029.13 12.25
 1 -2 9 146.53 5.74
 1 -2 10 21.61 3.35
 1 -1 1 252.01 3.28
 1 2 -1 348.16 3.54
 1 3 -3 53.63 2.16
 1 3 -1 124.15 2.77
 1 4 -4 201.84 4.69
 1 4 -3 47.91 2.3
 1 4 -2 102.91 3.07
 1 4 -1 89.6 2.85
 1 5 -5 29.39 2.33
 1 5 -2 510.7 7.32
 1 5 -1 34.74 2.23
 1 6 -5 13 2.1
 1 6 -4 134.27 4.52
 1 6 -3 113.14 4.3
 1 6 -2 22.38 2.23
 1 7 -6 143.65 5.29
 1 7 -5 9.03 2.01
 1 7 -3 20.03 2.73
 1 7 -2 40 3.03
 1 7 -1 120.73 4.41
 1 8 -6 31.36 3.11
 1 8 -5 23.58 3.14
 1 8 -4 108.35 5.04
 1 8 -3 6.72 2.32
 1 8 -2 52.91 3.41
 1 8 -1 203.21 6.1
 1 9 -4 116.84 5.68
 1 9 -3 64.91 4.1
 1 9 -2 125.45 5.42
 1 9 -1 62.89 4.27
 1 9 0 564.45 10.61
 2 -5 6 190.84 6.4
 2 -5 7 93.18 5.03
 2 -5 8 218.39 7.17
 2 -4 5 96.63 4.15
 2 -4 6 11 2.17
 2 -4 9 100.06 5.08
 2 -3 3 379.69 6.59
 2 -3 4 19.42 2.18
 2 -3 5 432.29 7.74
 2 -3 7 108.06 4.76
 2 -3 8 2.9 1.97
 2 -3 9 7.23 2.44
 2 -2 3 282.29 5.23
 2 -2 4 191.42 4.61
 2 -2 5 618.85 8.89
 2 -2 6 88.07 3.75
 2 -2 7 676.61 10.33
 2 -2 8 -0.34 1.55
 2 -2 9 21.26 2.99
 2 -2 10 28.84 3.43
 2 -1 2 794.35 7.05
 2 -1 4 94.26 3.1
 2 -1 5 514.42 7.48
 2 -1 6 50.99 3.15
 2 -1 8 163.84 5.59
 2 -1 10 86.59 4.84
 2 0 2 826.86 6.25
 2 0 3 264.21 4.29
 2 3 -2 180.58 3.02
 2 3 -1 238.22 3.21
 2 4 -3 229.7 4.25
 2 4 -1 43.77 1.79
 2 6 -4 47.1 2.85
 2 6 -2 75.27 3.07
 2 6 -1 41.47 2.54
 2 7 -4 13.64 2.01
 2 7 -2 18.98 1.99
 2 8 -5 204.53 6.22
 2 8 -4 11.89 2.39
 2 8 -3 109.55 4.49
 2 8 -2 111.41 4.52
 2 8 -1 120.22 4.68
 2 8 0 55.38 3.54
 2 9 -5 4.72 1.96
 2 9 -4 19.04 2.61
 2 9 -3 18.37 2.63
 2 9 -2 3.58 1.67
 2 9 -1 272.81 7.11
 2 9 0 6.84 1.9
 3 -5 7 16.38 2.83
 3 -4 6 245.84 6.99
 3 -4 8 12.67 2.67
 3 -3 4 127.96 4.39
 3 -3 5 192.29 5.48
 3 -3 6 32.58 2.76
 3 -3 7 14.91 2.45
 3 -3 8 9.03 2.76
 3 -3 9 128.36 5.64
 3 -2 3 357.64 6.18
 3 -2 4 8.73 1.53
 3 -2 5 33.14 2.7
 3 -2 6 25.41 2.52
 3 -2 7 362.11 7.93
 3 -2 8 83.35 4.35
 3 -2 9 124.84 5.75
 3 -1 4 129.97 3.8
 3 -1 6 38.25 2.81
 3 -1 7 191.78 5.71
 3 -1 9 135.19 5.35
 3 0 3 284.06 4.59
 3 0 4 0.62 0.8
 3 0 5 -1.15 1.16
 3 0 6 16.76 2.01
 3 0 7 3.21 1.86
 3 0 9 730.18 11.77
 3 1 2 168.5 2.8
 3 4 -1 50.25 1.53
 3 4 0 370.99 4.1
 3 5 -1 26.16 1.55
 3 5 0 136.64 3.15
 3 6 -3 79.96 2.91
 3 6 -2 46.74 2.25
 3 6 -1 74.49 2.78
 3 6 0 142.94 3.73
 3 7 -3 27.37 2.19
 3 7 -2 29.45 2.15
 3 7 -1 82.98 3.28
 3 7 0 0.43 1.04
 3 8 -4 1.08 0.99
 3 8 -3 0.99 1.04
 3 8 -2 27.16 2.26
 3 8 -1 48.65 2.92
 3 8 0 45.76 2.72
 3 8 1 52.73 3.13
 3 9 -1 89.45 4.02
 3 9 0 6.95 1.54
 3 9 1 96.31 4.22
 4 -3 8 17.75 3.19
 4 -2 5 191.26 5.38
 4 -2 6 33.75 2.78
 4 -2 7 111.99 4.93
 4 -2 8 1.76 1.76
 4 -1 6 128.58 4.56
 4 -1 7 95.18 4.15
 4 -1 8 297.91 7.58
 4 0 4 4.02 1.11
 4 0 5 38.65 2.41
 4 0 6 0.86 1.18
 4 0 8 9 2.23
 4 1 3 33.53 1.57
 4 1 5 97.67 3.38
 4 1 6 122.18 4.01
 4 1 7 92.17 3.85
 4 1 8 285.67 7.04
 4 1 9 128.18 5.36
 4 2 3 66.19 2
 4 2 5 193.86 4.46
 4 2 6 27.5 2.26
 4 5 0 4.92 0.54
 5 -2 7 46.2 3.51
 5 -1 6 40.28 2.91
 5 -1 7 53.22 3.4
 5 -1 8 5.08 1.85
 5 0 6 9.15 1.61
 5 0 7 1 1.34
 5 0 8 2.02 1.51
 5 0 9 269.95 7.44
 5 1 5 17.26 1.54
 5 1 7 52.55 3.05
 5 1 8 4.81 1.65
 5 1 9 24.83 3.06
 5 2 7 45.83 2.81
 5 2 8 71.44 3.64
 5 2 9 12.95 2.13
 -4 9 2 11.81 3.6
 -4 9 3 1.89 2.29
 -4 9 4 7.17 2.87
 -4 10 1 133.73 7.55
 -4 10 2 1.82 2.99
 -4 10 4 39.54 4.79
 -4 10 5 13.98 3.06
 -4 11 1 35.43 5.56
 -4 11 3 50.87 5.35
 -4 11 4 -0.77 2.64
 -4 11 5 21.79 3.7
 -4 12 1 19.96 4.67
 -4 12 2 30 4.88
 -4 12 3 1.7 4
 -4 12 4 19.51 4.22
 -4 13 2 -0.53 3.47
 -4 13 3 14.3 4.97
 -3 5 0 144.75 5.02
 -3 5 1 23.28 2.61
 -3 5 2 359.18 7.15
 -3 5 5 31.06 2.35
 -3 5 6 137.66 3.65
 -3 5 7 19.51 1.69
 -3 6 -2 48.78 4.11
 -3 6 -1 71.93 4.53
 -3 6 0 129.92 5.31
 -3 6 1 71.71 4.14
 -3 6 2 47.97 3.6
 -3 6 3 84.05 3.85
 -3 6 4 77.69 3.85
 -3 6 5 60.46 3.25
 -3 6 6 99.44 3.8
 -3 6 7 30.93 2.38
 -3 6 8 122.23 3.62
 -3 7 -1 82.27 4.85
 -3 7 0 2.53 2.34
 -3 7 2 32.56 3.18
 -3 7 3 32.1 3.47
 -3 7 6 79.97 3.93
 -3 7 7 40.21 3.02
 -3 7 8 147.39 4.58
 -3 8 -4 4.17 2.69
 -3 8 -3 -0.28 2.1
 -3 8 2 25.11 3.36
 -3 8 3 -1.11 2.41
 -3 8 4 0.16 2.07
 -3 8 5 19.6 2.97
 -3 8 6 29.1 3.21
 -3 8 7 30.11 3.13
 -3 8 8 78.8 4.07
 -3 9 -4 1.61 2.7
 -3 9 -3 13.3 3.59
 -3 9 -1 107.73 6.63
 -3 9 0 7.95 3.31
 -3 9 1 89.08 5.65
 -3 10 -4 19.1 4.73
 -3 10 -2 30.13 4.81
 -3 10 0 28.75 4.78
 -3 10 1 39.29 4.52
 -3 10 2 22.18 4.35
 -3 10 3 43.76 4.9
 -3 10 4 12.53 3.64
 -3 10 5 70.82 5.48
 -3 10 6 20.1 3.52
 -3 10 7 2.61 2.51
 -3 11 -4 5.27 3.93
 -3 11 -3 -0.16 3.46
 -3 11 -2 23.15 4.98
 -3 11 -1 85.58 7.04
 -3 11 0 75.24 6.19
 -3 11 1 83.99 6.71
 -3 11 2 14.47 3.92
 -3 11 3 7.43 3.48
 -3 11 4 4.87 3.27
 -3 11 5 48.7 5.38
 -3 11 6 11.7 3.47
 -3 12 -4 2.51 3.83
 -3 12 -3 17.59 4.72
 -3 12 -2 28.15 5.01
 -3 12 -1 23.36 5.02
 -3 12 0 9.04 4.02
 -3 12 1 24.6 5.02
 -3 12 2 29.58 5
 -3 12 3 11.38 4.05
 -3 12 4 4.53 3.72
 -3 12 5 64.75 5.92
 -3 12 6 6.82 3.37
 -3 12 7 95.66 6.45
 -3 13 -4 17.75 6.03
 -3 13 -1 1.36 4.06
 -3 13 0 125.76 8.54
 -3 13 2 27.35 5.52
 -3 13 3 15.35 4.74
 -3 13 4 9.53 4
 -3 13 5 83.05 7.02
 -3 13 6 1.13 3.96
 -3 14 -3 10.36 4.92
 -3 14 -2 -2.08 4.02
 -3 14 -1 9.21 5.02
 -3 14 0 21.47 5.39
 -3 14 1 2.96 4.21
 -3 14 2 -1.14 3.92
 -3 14 4 5.47 3.99
 -3 14 5 -1.16 4.21
 -2 3 -1 231.45 5.16
 -2 3 0 1668.42 12.32
 -2 3 1 230.77 4.64
 -2 3 2 181.99 3.85
 -2 3 3 369.4 4.92
 -2 3 4 20.6 1.44
 -2 3 5 436.48 4.73
 -2 3 6 407.78 4.29
 -2 3 7 108.6 2.2
 -2 3 8 2.14 0.62
 -2 4 -2 408.02 7.56
 -2 4 0 2431.15 16.49
 -2 4 1 47.07 2.77
 -2 4 2 388.63 6.31
 -2 4 3 228.19 4.75
 -2 4 4 221.02 4.55
 -2 4 5 92.56 3
 -2 4 6 9.94 1.35
 -2 4 7 131.17 3.27
 -2 4 8 21.74 1.67
 -2 4 9 102.22 2.71
 -2 5 -3 60.65 3.84
 -2 5 -1 50.9 3.21
 -2 5 0 61.61 3.52
 -2 5 1 50.66 3.12
 -2 5 2 183.76 5.02
 -2 5 4 141.92 4.39
 -2 5 5 216.59 5.1
 -2 5 6 191.18 4.76
 -2 5 7 89.84 3.4
 -2 5 9 1.79 1.21
 -2 5 10 18.32 1.87
 -2 6 -5 193.86 6.76
 -2 6 -4 42.13 3.93
 -2 6 -3 18.3 2.72
 -2 6 -2 81.84 4.43
 -2 6 -1 33.76 3.48
 -2 6 0 320.13 7.57
 -2 6 1 40.01 3.1
 -2 6 2 70.73 3.75
 -2 6 3 16.92 2.5
 -2 6 5 194.68 5.62
 -2 6 6 139.57 4.75
 -2 6 7 208.99 5.55
 -2 6 8 9.01 1.82
 -2 6 9 60.78 3.2
 -2 6 10 33.84 2.64
 -2 7 -4 13.31 3.03
 -2 7 -3 350.37 9.09
 -2 7 -2 21.73 2.96
 -2 7 -1 197.48 6.68
 -2 7 0 10.68 2.42
 -2 7 1 200.42 6.57
 -2 7 3 336.43 8.08
 -2 7 4 13.75 2.47
 -2 7 5 146.04 5.33
 -2 7 6 3.36 2.31
 -2 7 7 4.43 2.1
 -2 7 8 41.28 3.36
 -2 7 9 36.17 3.09
 -2 7 10 62.51 3.63
 -2 8 -6 20.8 3.75
 -2 8 -5 194.93 7.65
 -2 8 0 52.08 4.44
 -2 8 1 111.4 5.53
 -2 8 2 105.42 5.51
 -2 8 3 114.17 5.72
 -2 8 4 11.8 2.68
 -2 8 6 17.16 2.92
 -2 8 7 44.35 3.77
 -2 8 8 53.89 4.08
 -2 8 9 18.02 2.89
 -2 8 10 47.03 3.77
 -2 9 -7 15.43 4.2
 -2 9 -6 9.06 3.31
 -2 9 -5 3.57 3.15
 -2 9 -3 19.89 3.82
 -2 9 -2 2.81 2.52
 -2 10 -7 2.62 3.1
 -2 10 -6 35.86 4.87
 -2 10 -5 96.84 6.65
 -2 10 -4 6.37 3.67
 -2 10 -3 26.43 4.34
 -2 10 -2 17.48 3.91
 -2 10 -1 166.72 7.83
 -2 10 0 59.6 5.61
 -2 10 1 162.54 7.88
 -2 10 2 23.6 4.15
 -2 10 3 22.37 3.81
 -2 10 4 8.61 3.44
 -2 10 5 104.46 6.48
 -2 10 6 45.45 5.1
 -2 10 7 4.13 2.82
 -2 10 8 0.93 3.05
 -2 11 -7 27.82 5.19
 -2 11 -6 23.9 4.76
 -2 11 -5 11.04 4.12
 -2 11 -4 10.42 3.79
 -2 11 -3 53.35 6.41
 -2 11 -2 9.27 3.62
 -2 11 0 30.47 4.61
 -2 11 3 67.23 6.12
 -2 11 4 7.35 3.8
 -2 11 6 22.63 4.63
 -2 11 7 18.2 3.87
 -2 11 8 88.24 6.1
 -2 11 9 12.94 3.33
 -2 12 -7 11.71 4.8
 -2 12 -6 -0.85 4.49
 -2 12 -5 102.99 7.7
 -2 12 -4 17.58 5.42
 -2 12 -3 16.64 4.64
 -2 12 -2 64.54 6.12
 -2 12 -1 30.66 5.16
 -2 12 0 0.78 3.42
 -2 12 1 35.38 5.69
 -2 12 2 59.64 5.86
 -2 12 3 13.99 4.67
 -2 12 4 16.85 4.9
 -2 12 5 105.46 7.58
 -2 12 6 4.73 3.38
 -2 12 7 6.04 4.09
 -2 12 8 80.33 6.49
 -2 13 -7 15.53 5.39
 -2 13 -5 25.8 5.67
 -2 13 -4 74.76 8.06
 -2 13 -3 20.65 5.86
 -2 13 -2 7.27 4.95
 -2 13 0 9.07 4.42
 -2 13 1 26.77 5.45
 -2 13 2 0.53 3.58
 -2 13 3 24.47 5.11
 -2 13 4 72.11 7.15
 -2 13 6 -2.84 3.62
 -2 13 7 13.32 4.13
 -2 13 8 6.83 3.8
 -2 14 -5 8.43 4.96
 -2 14 -4 40.58 6.56
 -2 14 -3 9.14 4.91
 -2 14 -1 5.14 4.72
 -2 14 0 41.35 6.38
 -2 14 1 6.84 4.71
 -2 14 2 39.28 6.07
 -2 14 3 3.18 4.02
 -2 14 4 45.75 6.26
 -2 14 5 8.7 4.7
 -2 14 6 25.03 4.81
 -2 14 7 5.31 3.86
 -2 15 -3 7.43 5.1
 -2 15 -2 42.67 6.75
 -2 15 -1 4.84 5.15
 -2 15 0 20.77 5.69
 -2 15 1 3.09 5.45
 -2 15 3 10.52 5.55
 -1 2 -2 136 3.51
 -1 2 -1 340.58 4.81
 -1 2 0 896.81 6.97
 -1 2 1 331.11 4.11
 -1 2 2 131.49 2.65
 -1 2 3 1013.12 6.38
 -1 2 4 121.07 2.43
 -1 2 5 140.42 2.66
 -1 3 -3 53.49 3.02
 -1 3 -2 417.05 6.48
 -1 3 -1 123.39 3.59
 -1 3 0 23.42 2.09
 -1 3 1 127.25 3.27
 -1 3 2 426.41 5.54
 -1 3 3 54.57 2.35
 -1 3 4 397.95 5.32
 -1 3 5 386.66 5.31
 -1 3 6 146.21 3.46
 -1 3 8 16.79 1.82
 -1 3 9 773.46 8.56
 -1 3 12 3.87 1.4
 -1 4 -2 102.2 3.77
 -1 4 0 545.28 7.86
 -1 4 1 86.9 3.44
 -1 4 3 45.83 2.55
 -1 4 4 204.75 4.52
 -1 4 5 378.81 6.21
 -1 4 6 122.36 3.8
 -1 4 7 55.77 2.85
 -1 4 8 19.44 2.1
 -1 4 9 3.21 1.4
 -1 4 11 14.14 2.11
 -1 4 12 106.35 4.01
 -1 5 -6 110.21 4.82
 -1 5 -5 32.56 2.88
 -1 5 -2 502.99 8.61
 -1 5 -1 32.15 2.64
 -1 5 0 8.51 1.85
 -1 5 2 510.27 8.33
 -1 5 3 305.09 6.41
 -1 5 5 26.38 2.68
 -1 5 6 111.18 4.21
 -1 5 7 6.15 1.71
 -1 5 8 128.82 4.49
 -1 5 9 27.81 2.65
 -1 5 10 54.37 3.35
 -1 5 11 35.69 2.98
 -1 5 12 0.89 1.76
 -1 6 -7 185.82 6.7
 -1 6 -5 11.38 2.68
 -1 6 -1 61.17 3.7
 -1 6 1 57.08 3.53
 -1 6 2 18.9 2.45
 -1 6 3 110.86 4.67
 -1 6 4 125.39 4.63
 -1 6 5 8.54 2.03
 -1 6 6 61.93 3.73
 -1 6 7 186.47 5.84
 -1 6 8 56.51 3.64
 -1 6 9 11.97 2.27
 -1 6 10 158.33 5.57
 -1 6 11 8.61 2.45
 -1 6 12 83.63 4.34
 -1 7 -5 7.76 2.4
 -1 7 -4 244.55 7.66
 -1 7 -3 20.61 2.79
 -1 7 -2 37.55 3.17
 -1 7 -1 117.97 5.21
 -1 7 0 430.64 9.57
 -1 7 1 122.6 5.24
 -1 7 2 32.59 3.24
 -1 7 3 18.04 2.83
 -1 7 4 233.65 6.84
 -1 7 5 7.6 2.69
 -1 7 6 146.66 5.73
 -1 7 7 55.62 3.96
 -1 7 8 76.86 4.62
 -1 7 9 29.99 3.48
 -1 7 10 7.16 2.43
 -1 7 11 6.07 2.43
 -1 7 12 1.42 1.93
 -1 8 -8 12.14 3.23
 -1 8 -7 103.85 6.23
 -1 8 -2 50.42 4.14
 -1 8 -1 215.43 7.68
 -1 8 2 48.55 4.41
 -1 8 3 8.71 2.48
 -1 8 7 99.57 5.49
 -1 8 8 15.13 3.27
 -1 9 -9 -0.4 3
 -1 9 -8 52.33 5.03
 -1 9 -6 7 3.04
 -1 9 -5 20.75 4.12
 -1 9 -4 118.54 6.27
 -1 9 9 1.82 2.88
 -1 9 10 161.24 7.06
 -1 9 11 24.73 3.72
 -1 10 -9 8.44 3.85
 -1 10 -8 164.58 8.75
 -1 10 -7 4.43 3.61
 -1 10 -6 9.49 3.38
 -1 10 -5 72.86 5.99
 -1 10 -4 14.95 3.79
 -1 10 -3 30.61 4.42
 -1 10 -1 19.83 3.79
 -1 10 0 -3.71 3.06
 -1 10 1 21.91 3.93
 -1 10 2 23.78 3.96
 -1 10 4 11.92 3.5
 -1 10 6 15.78 3.88
 -1 10 7 3.82 3.08
 -1 10 9 8.47 3.35
 -1 10 10 92.91 6.14
 -1 10 11 2.69 3.37
 -1 11 -9 1.53 3.72
 -1 11 -8 25.35 5.06
 -1 11 -7 139.46 8.92
 -1 11 -6 16.43 4.86
 -1 11 -5 34.99 5.6
 -1 11 -4 11.31 4.13
 -1 11 -3 1.49 2.98
 -1 11 0 1.92 3.24
 -1 11 1 49.67 5.42
 -1 11 2 15.4 3.97
 -1 11 3 -2.08 3.03
 -1 11 4 11.77 3.75
 -1 11 5 32.72 5.32
 -1 11 6 9.69 4.13
 -1 11 7 135.69 7.99
 -1 11 9 3.15 3.23
 -1 11 10 96.18 6.63
 -1 12 -9 10.95 5.28
 -1 12 -8 44.86 6.93
 -1 12 -7 30.49 5.67
 -1 12 -5 17.94 5.38
 -1 12 -4 22.4 4.76
 -1 12 -3 8.44 4.12
 -1 12 -2 40.9 5.6
 -1 12 0 2.66 3.78
 -1 12 1 39.05 5.64
 -1 12 2 32.67 5.86
 -1 12 3 4.97 3.66
 -1 12 4 15.75 5.07
 -1 12 5 8.05 4.47
 -1 12 6 6.2 4.57
 -1 12 7 35.98 5.23
 -1 12 8 37.89 5.69
 -1 12 9 6 3.68
 -1 12 10 4.44 3.99
 -1 13 -8 -2.18 4.11
 -1 13 -7 10.89 4.84
 -1 13 -6 7.69 5.32
 -1 13 -5 21.07 5.4
 -1 13 -4 1.3 3.93
 -1 13 -3 0.92 3.65
 -1 13 -2 5.03 4.87
 -1 13 -1 32.72 6.15
 -1 13 1 42.55 5.95
 -1 13 2 2.37 3.84
 -1 13 3 3.46 4.19
 -1 13 4 1.3 4.27
 -1 13 5 15.83 5.11
 -1 13 6 10.43 5.07
 -1 13 7 9.17 4.3
 -1 13 8 1.75 3.86
 -1 13 9 1.11 3.71
 -1 14 -7 18.96 6.4
 -1 14 -6 7.36 4.87
 -1 14 -5 160.16 10.47
 -1 14 -4 15.55 5.37
 -1 14 -3 6.87 4.87
 -1 14 -2 7.68 5.3
 -1 14 -1 39.95 6.88
 -1 14 0 2.9 4.19
 -1 14 1 38.85 6.24
 -1 14 2 2.73 4.29
 -1 14 3 4.7 4.96
 -1 14 4 10.46 5.05
 -1 14 5 163.66 10.12
 -1 14 6 6.61 4.44
 -1 14 7 9.62 4.75
 -1 14 8 0.06 4
 -1 15 -4 8.32 5.26
 -1 15 -3 12.61 5.29
 -1 15 -2 3.97 4.53
 -1 15 -1 13.18 5.32
 -1 15 0 18.54 5.96
 -1 15 2 2.17 5.4
 -1 15 3 8.77 5.18
 -1 15 4 4.94 4.76
 0 1 -3 562.96 5.06
 0 1 -2 4114.93 11.85
 0 1 -1 21.59 1.03
 0 2 -5 1184.62 9.99
 0 2 -4 1265.9 9.62
 0 2 -3 433.87 5.45
 0 2 -2 330.24 4.53
 0 2 -1 6.26 1.18
 0 2 0 5353.21 16.25
 0 2 1 6.65 1.16
 0 3 -6 226.55 5.18
 0 3 -5 221.23 4.93
 0 3 -4 349.3 6.02
 0 3 -3 959.67 9.44
 0 3 -2 345.84 5.69
 0 3 -1 397.19 5.8
 0 3 0 0.1 1.55
 0 3 1 399.64 5.67
 0 3 2 344 5.48
 0 3 3 971.44 9.17
 0 4 -7 33.18 2.98
 0 4 -4 16.24 2.34
 0 4 -3 1132.91 11.77
 0 4 -2 212.31 5.18
 0 4 -1 2.76 1.63
 0 4 0 2883.43 17.32
 0 4 1 4.33 1.59
 0 4 2 205.78 5.08
 0 4 3 1153.66 11.35
 0 4 5 11.86 1.88
 0 5 -8 723.59 11.69
 0 5 -7 15.95 2.52
 0 5 -6 53.53 3.77
 0 5 -2 173.57 5.18
 0 5 -1 29.21 2.41
 0 5 0 1.86 1.51
 0 5 1 34.34 3.1
 0 5 2 180.07 5.35
 0 5 3 61.67 3.31
 0 5 4 26.65 2.5
 0 5 5 904.24 11.74
 0 5 6 50.89 3.27
 0 5 7 13.24 2.48
 0 5 9 9.91 2.25
 0 6 -9 169.12 6.53
 0 6 -8 14.27 2.64
 0 6 -7 231.19 7.07
 0 6 -6 473.37 9.73
 0 6 -5 277.59 7.47
 0 6 -4 36.82 3.55
 0 6 -3 11.33 2.42
 0 6 1 200.44 5.94
 0 6 2 5.85 1.94
 0 6 3 11.84 2.3
 0 6 4 32.32 3.45
 0 6 5 266.52 7.19
 0 6 6 490.5 9.7
 0 6 8 18.18 2.78
 0 6 9 162.44 6.03
 0 6 10 25.79 3.68
 0 6 11 6.46 2.84
 0 6 14 2 2.23
 0 7 -7 16.2 3.06
 0 7 -6 10.64 2.83
 0 7 -5 604.33 11.67
 0 7 -4 5.79 2.34
 0 7 -3 366.81 9.07
 0 7 -2 8.98 2.35
 0 7 0 -1.68 1.48
 0 7 1 612.89 11.13
 0 7 2 5.24 2.35
 0 7 3 366.96 8.85
 0 7 4 1.24 2.14
 0 7 6 15.5 2.92
 0 7 13 0.7 2.96
 0 8 -10 14.56 4.11
 0 8 -9 19.54 3.74
 0 8 -8 11.27 3.17
 0 8 -3 38.04 4.23
 0 8 -2 443.49 10.76
 0 8 -1 335.15 9.2
 0 8 1 346.76 9.24
 0 8 2 428.89 10.16
 0 8 3 41.89 3.85
 0 8 4 -1.85 2.59
 0 8 10 12.59 3.23
 0 8 12 8.04 3.22
 0 8 13 18.26 3.64
 0 9 -10 9.86 4.06
 0 9 -9 19.58 4.1
 0 9 -8 152.23 7.54
 0 9 -7 2.28 2.95
 0 9 -6 9.76 3.07
 0 9 -5 49.45 4.88
 0 9 -4 24.17 4.29
 0 9 7 1.32 3.12
 0 9 8 145.59 7.38
 0 9 9 19.5 3.89
 0 9 10 10.57 3.69
 0 9 11 -1.64 2.89
 0 9 12 -1.03 2.7
 0 10 -10 104.31 7.27
 0 10 -9 58.95 5.68
 0 10 -8 1.21 3.27
 0 10 -7 -2.37 2.81
 0 10 -6 19.27 4.36
 0 10 -5 49.08 5.08
 0 10 -4 5.02 3.41
 0 10 -3 24.92 4.08
 0 10 -2 109 6.59
 0 10 -1 38.07 4.74
 0 10 0 43.93 5.35
 0 10 1 36 4.96
 0 10 2 107.79 6.45
 0 10 3 25.47 4.02
 0 10 4 2.25 2.78
 0 10 6 15.67 3.73
 0 10 7 0.41 2.77
 0 10 8 -0.53 2.89
 0 10 9 63.01 6.21
 0 10 10 106.95 7.21
 0 10 11 2.39 3.38
 0 10 12 6.13 3.22
 0 10 13 3.75 3.7
 0 11 -10 72.52 6.9
 0 11 -9 -2.08 3.3
 0 11 -7 5.49 3.55
 0 11 -6 -2.75 3.8
 0 11 -5 1.45 3.28
 0 11 -4 6.23 3.5
 0 11 -3 28.03 4.63
 0 11 -2 7.52 3.42
 0 11 -1 68.15 6.56
 0 11 0 -2.75 2.47
 0 11 2 11.32 3.74
 0 11 3 26.28 4.75
 0 11 4 9.01 4.27
 0 11 5 2.09 3.22
 0 11 6 2.17 3.44
 0 11 7 3.46 3.43
 0 11 8 93.51 6.94
 0 11 9 -3.01 3.37
 0 11 10 60.74 6.39
 0 11 11 27.6 4.81
 0 11 12 5.49 3.67
 0 12 -9 9.81 4.53
 0 12 -8 30.53 5.8
 0 12 -6 3.82 3.8
 0 12 -4 22.9 4.92
 0 12 -3 62.82 6.31
 0 12 -2 58.25 6.32
 0 12 -1 11.88 4.15
 0 12 1 7.05 3.83
 0 12 2 67.42 7.1
 0 12 3 63.74 6.94
 0 12 4 22.69 4.86
 0 12 5 79.07 7.47
 0 12 6 -0.65 4.29
 0 12 7 4.84 4.28
 0 12 8 34 5.49
 0 12 9 13.85 4.55
 0 12 10 10.57 4.39
 0 12 11 1.61 3.51
 0 12 12 2.95 4.26
 0 13 -10 42.96 6.42
 0 13 -9 1.98 4.77
 0 13 -8 8.91 5.04
 0 13 -7 67.83 7.55
 0 13 -6 1.02 4.19
 0 13 -5 17.18 5.31
 0 13 -4 54.95 7.28
 0 13 -2 3.69 4.69
 0 13 -1 68.15 7.34
 0 13 0 3.76 4.12
 0 13 1 77.28 7.36
 0 13 3 -5.65 3.45
 0 13 4 65.52 7.65
 0 13 5 26.73 5.41
 0 13 6 6 4.06
 0 13 7 65.35 8.03
 0 13 8 18.77 4.78
 0 13 9 3.47 4.27
 0 13 10 49.29 6.37
 0 13 11 7.16 4.4
 0 14 -8 17.57 5.73
 0 14 -6 21.81 5.51
 0 14 -5 12.85 5.26
 0 14 -3 3.21 4.43
 0 14 -2 46.48 7.05
 0 14 -1 -1.89 4.2
 0 14 0 42.42 6.7
 0 14 1 0.14 4.35
 0 14 2 38.32 6.99
 0 14 3 2.8 4.27
 0 14 4 -0.46 4.67
 0 14 5 13.82 5.72
 0 14 7 6.85 4.53
 0 14 8 17.27 5.16
 0 15 -5 0.89 4.96
 0 15 -4 1.12 4.63
 0 15 -3 32.66 7.16
 0 15 -2 31.65 6.92
 0 15 -1 5.12 5.4
 0 15 1 -0.14 4.48
 0 15 2 32.52 7.06
 0 15 3 33.13 6.53
 0 15 4 -2.37 4.37
 0 15 5 12.47 5.31
 1 1 -4 238.59 2.97
 1 1 -3 278.2 3.02
 1 1 -2 3855.96 10.85
 1 2 -6 14.77 1.39
 1 2 -5 142.29 3.21
 1 2 -4 117.15 2.84
 1 2 -3 1004.11 7.65
 1 2 -2 132.71 2.9
 1 2 -1 346.13 4.65
 1 3 -6 146.44 3.89
 1 3 -5 386.19 6.11
 1 3 -4 400.75 6.1
 1 3 -2 426.43 6.26
 1 3 -1 123.86 3.83
 1 3 0 26.65 2.16
 1 4 -8 24.91 2.49
 1 4 -7 51.12 2.93
 1 4 -4 200.44 5.05
 1 4 -3 48.41 3.13
 1 4 -2 104.08 3.88
 1 4 -1 91.51 3.91
 1 4 0 526.8 7.96
 1 4 1 84.73 3.5
 1 5 -9 19.12 2.45
 1 5 -6 105.98 4.31
 1 5 -5 31.03 2.85
 1 5 -1 33.9 2.91
 1 5 0 9.05 2.07
 1 5 1 30.19 2.6
 1 5 2 497.34 8.93
 1 6 -9 10.28 2.67
 1 6 -8 54.2 4.06
 1 6 -7 183.15 6.34
 1 6 -6 59.97 4.2
 1 6 -5 9.32 2.56
 1 6 -4 136.17 5.39
 1 6 -3 108.3 4.74
 1 6 -2 21.5 2.85
 1 6 3 121.78 5.13
 1 6 4 132.33 5.45
 1 6 5 9.12 2.32
 1 6 6 54.88 4.09
 1 6 15 71.22 5.95
 1 7 -8 75.35 4.87
 1 7 -7 49.81 4.57
 1 7 -6 156.8 6.27
 1 7 -5 4.02 2.37
 1 7 -3 21.05 3.23
 1 7 -2 38.67 3.54
 1 7 -1 121.01 5.38
 1 7 0 456.57 9.92
 1 7 1 120.79 5.39
 1 7 2 39.82 3.83
 1 7 3 19.96 3.15
 1 7 4 234.66 7.89
 1 7 5 4.64 2.49
 1 7 6 146.93 6.77
 1 7 10 4.68 3.24
 1 7 11 4.28 3.33
 1 7 12 -0.42 2.84
 1 7 13 1.99 3.25
 1 7 14 18.79 4.17
 1 7 15 23.14 4.1
 1 8 -11 46.06 4.43
 1 8 -10 61.71 5.02
 1 8 -9 4.74 2.71
 1 8 -3 5.84 2.97
 1 8 -2 53.46 4.44
 1 8 -1 202.72 7.5
 1 8 1 188.56 7.12
 1 8 2 47.53 4.13
 1 8 3 8.45 2.72
 1 8 8 14.48 3.84
 1 8 9 0.17 2.61
 1 8 10 62.02 6.06
 1 8 11 47.83 5.64
 1 8 12 19.7 4.57
 1 8 14 31.44 4.97
 1 8 15 8.95 4.13
 1 9 -11 24.86 4.28
 1 9 -10 166.29 7.71
 1 9 -9 -1.26 2.82
 1 9 -8 59.32 5.65
 1 9 -7 58.35 5.36
 1 9 -6 5.01 3.03
 1 9 5 19.27 4.18
 1 9 6 11.08 3.36
 1 9 7 54.93 5.55
 1 9 8 52.99 5.86
 1 9 9 0.61 3.16
 1 9 10 174.84 8.76
 1 9 11 23.4 4.76
 1 9 12 1.71 3.31
 1 9 13 10.62 4.54
 1 9 14 0.62 3.63
 1 10 -11 4.42 3.38
 1 10 -10 92.03 7.11
 1 10 -9 8.54 3.78
 1 10 -8 144.54 7.63
 1 10 -7 2.1 3.13
 1 10 -6 10.54 3.54
 1 10 -4 9.97 3.59
 1 10 -3 39.11 5
 1 10 -1 22.3 3.99
 1 10 0 -0.37 2.62
 1 10 1 18.73 4.07
 1 10 2 24.55 4.06
 1 10 3 32.32 4.63
 1 10 6 10.03 4.22
 1 10 7 2.92 3.67
 1 10 8 163.77 8.84
 1 10 9 6.52 3.62
 1 10 10 86.54 7.41
 1 10 11 0.37 3.95
 1 10 12 38.28 5.28
 1 10 13 3.72 4.43
 1 10 14 32.89 5.87
 1 11 -10 90.52 7.28
 1 11 -9 -1.75 3.25
 1 11 -8 28.48 5.06
 1 11 -7 136.4 8.02
 1 11 -6 12.6 4.24
 1 11 -5 35.19 5.31
 1 11 -4 12.4 4.06
 1 11 -3 -1.59 2.83
 1 11 -2 12.99 3.82
 1 11 -1 48.06 5.3
 1 11 0 -0.31 3.4
 1 11 1 48.28 5.48
 1 11 2 12.6 4.52
 1 11 3 -1.72 3.62
 1 11 4 11.62 4
 1 11 6 14.32 4.33
 1 11 7 134.13 8.19
 1 11 8 35.14 5.46
 1 11 9 -2.91 4.34
 1 11 11 12.6 4.64
 1 11 12 10.48 4.4
 1 11 13 0.99 3.99
 1 12 -11 -0.34 4.46
 1 12 -10 0.17 4.63
 1 12 -9 3.11 4.58
 1 12 -8 34.35 5.45
 1 12 -7 29.08 5.63
 1 12 -6 12.11 4.4
 1 12 -5 15.62 5.29
 1 12 -4 12.96 4.65
 1 12 -3 6.12 4.42
 1 12 -2 32.48 5.93
 1 12 0 1.4 4.13
 1 12 1 49.52 6.09
 1 12 2 38.58 5.7
 1 12 3 4.05 3.73
 1 12 4 21.35 5.45
 1 12 5 11.44 4.45
 1 12 6 14 4.53
 1 12 8 38 6.35
 1 12 9 4.79 4.03
 1 12 10 7.37 4.4
 1 12 11 -3.03 3.63
 1 12 12 18.12 5.18
 1 13 -10 15.01 5.61
 1 13 -9 9.22 4.63
 1 13 -8 3.36 4.42
 1 13 -7 6.92 4.44
 1 13 -6 0.19 4.44
 1 13 -5 17.64 5.89
 1 13 -4 -1.72 4.35
 1 13 -3 -0.72 3.81
 1 13 -2 6.17 4.52
 1 13 1 31.92 6.46
 1 13 2 3.31 4.98
 1 13 3 -3.83 3.61
 1 13 4 -1.45 4.2
 1 13 5 17.09 5.12
 1 13 6 9.52 4.88
 1 13 7 13.83 5.29
 1 13 8 4.76 4.96
 1 13 9 1.98 4.71
 1 13 10 13.16 5.09
 1 14 -8 -2.76 3.9
 1 14 -7 13.72 5.47
 1 14 -6 6.07 5.1
 1 14 -5 148.82 10.01
 1 14 -4 9.17 5.02
 1 14 -3 3.78 5.01
 1 14 -1 34.33 6.33
 1 14 0 5.47 5.3
 1 14 1 34.73 6.61
 1 14 2 4.52 4.76
 1 14 3 1.38 5.02
 1 14 4 12.97 5.3
 1 14 5 145.03 9.75
 1 14 6 8.8 4.81
 1 14 7 9.5 5.55
 1 14 8 -0.62 4.15
 1 15 -4 7.93 6.15
 1 15 -3 10.25 5.3
 1 15 -2 5.75 4.94
 1 15 -1 18.27 5.96
 1 15 0 25.8 6.4
 1 15 1 20.01 5.83
 1 15 2 5.56 5.72
 1 15 3 11.49 5.1
 1 15 4 6.12 5.18
 2 1 -5 515.51 3.83
 2 1 -4 91 1.89
 2 1 -3 305.78 3.68
 2 2 -7 676.08 6.25
 2 2 -6 82.91 2.3
 2 2 -5 620.66 6.16
 2 2 -4 197.77 3.67
 2 2 -3 288.04 4.58
 2 3 -6 395.34 6.02
 2 3 -5 449.79 6.48
 2 3 -4 21.73 1.9
 2 3 -3 371.68 6.06
 2 3 -2 176.4 4.35
 2 4 -8 23.31 2.19
 2 4 -7 130.07 4.15
 2 4 -2 381.66 7.21
 2 4 -1 42.57 3.27
 2 4 0 2399.26 17.97
 2 5 -10 20.17 2.29
 2 5 -9 1.98 1.62
 2 5 -8 218.06 5.9
 2 5 -7 93.04 4.09
 2 5 -5 215.16 5.95
 2 5 -4 142.59 4.94
 2 5 -3 61.32 3.5
 2 6 -10 39.07 3.12
 2 6 -9 63.23 3.99
 2 6 -6 133.52 5.33
 2 6 -4 46.83 3.51
 2 6 -3 13.69 2.47
 2 6 -2 73.47 4.6
 2 6 -1 42.57 3.36
 2 6 1 34.99 3.26
 2 6 3 17.35 2.73
 2 7 -9 36.32 3.93
 2 7 -8 41.58 3.91
 2 7 -7 3.05 2.16
 2 7 -6 3.16 2.42
 2 7 -5 143.97 6.28
 2 7 -3 346.97 8.9
 2 7 -2 16.34 2.88
 2 7 -1 200.86 7.28
 2 7 0 8.83 2.72
 2 7 1 196.58 7.23
 2 7 2 23.42 3.35
 2 7 3 332.55 9.4
 2 7 4 12.33 2.8
 2 7 15 12.45 4.09
 2 7 16 9.02 4.44
 2 8 -10 50.72 4.21
 2 8 -9 15.88 3.33
 2 8 6 14.2 3.52
 2 8 8 57.6 6
 2 8 9 16.25 4.01
 2 8 11 1.77 4.08
 2 8 12 14.69 4.14
 2 8 14 19.35 5.01
 2 8 15 14.67 5
 2 9 -10 25.79 4.27
 2 9 -9 84.18 5.92
 2 9 -8 144.83 7.16
 2 9 -7 16.99 3.82
 2 9 -6 4.37 3.56
 2 9 -5 7.42 3.16
 2 9 -4 23.25 4.11
 2 9 -2 4.33 2.95
 2 9 -1 270.15 9.29
 2 9 0 6.94 2.92
 2 9 1 279.2 9.86
 2 9 2 7.04 2.83
 2 9 3 20.41 4.1
 2 9 4 18.78 3.95
 2 9 5 6.77 3.9
 2 9 6 8.27 3.44
 2 9 7 13 3.78
 2 9 8 147.91 8.13
 2 9 9 71.86 6.92
 2 9 11 3.02 3.79
 2 9 12 7.81 4.23
 2 9 13 10.06 4.35
 2 9 15 -3.22 3.82
 2 10 -10 49.78 5.49
 2 10 -9 87.32 6.76
 2 10 -7 1.93 3.48
 2 10 -6 44.29 5.16
 2 10 -5 107.21 6.9
 2 10 -4 11.15 3.65
 2 10 -2 23.02 4.32
 2 10 -1 160.46 8.31
 2 10 0 59.4 6.06
 2 10 1 163.81 8.29
 2 10 2 16.47 3.79
 2 10 3 23.51 4.32
 2 10 4 9.63 3.54
 2 10 5 112.23 7.74
 2 10 6 43.38 5.67
 2 10 7 1.89 3.39
 2 10 8 3.3 3.78
 2 10 9 97.02 8.11
 2 10 10 38.14 5.77
 2 10 11 21.57 5.13
 2 10 13 2.2 4.25
 2 10 14 12.09 5.03
 2 11 -11 1.95 2.95
 2 11 -10 17.46 4.51
 2 11 -9 11.43 4.06
 2 11 -8 92.77 7.1
 2 11 -6 23.17 4.68
 2 11 -5 13.07 4.07
 2 11 -4 9.21 4.44
 2 11 -3 64.46 5.87
 2 11 -2 14.47 4.16
 2 11 -1 116 7.47
 2 11 1 120.33 8.13
 2 11 2 8.12 3.73
 2 11 3 59.63 6.47
 2 11 4 15.35 4.72
 2 11 6 23.63 5.71
 2 11 7 18.49 5.68
 2 11 8 101.55 8.25
 2 11 10 20.43 5.19
 2 11 11 0.55 3.92
 2 11 12 7.11 4.69
 2 11 13 0.11 4.05
 2 12 -11 0.1 2.87
 2 12 -10 -3.82 4.17
 2 12 -8 64.31 7.55
 2 12 -6 5.02 4.04
 2 12 -3 15.6 4.72
 2 12 -2 58.79 6.76
 2 12 -1 31.46 5.35
 2 12 0 2.6 4.37
 2 12 2 75.65 6.92
 2 12 3 17.99 4.9
 2 12 4 12.65 5.08
 2 12 6 3.81 4.34
 2 12 7 13.05 4.87
 2 12 9 8.52 4.75
 2 12 10 -2.12 4.67
 2 12 11 0.23 4.51
 2 12 12 1.3 4.16
 2 13 -10 38.07 6.06
 2 13 -9 4.49 4.37
 2 13 -8 5.71 4.2
 2 13 -7 16.5 5.35
 2 13 -5 20.11 5.7
 2 13 -4 69.11 8.47
 2 13 -3 18.46 5.91
 2 13 -2 2.34 4.26
 2 13 -1 31.2 6.12
 2 13 0 16.26 5.1
 2 13 1 27.01 5.66
 2 13 2 1.29 3.95
 2 13 3 17.58 5.31
 2 13 4 69.3 8.54
 2 13 5 20.11 5.87
 2 13 6 -2.7 4.19
 2 13 7 11.07 5.68
 2 13 8 7.74 5.07
 2 13 9 4.87 5.23
 2 13 10 35.66 6.88
 2 14 -7 4.31 4.94
 2 14 -6 32.44 6.41
 2 14 -5 9.18 5.15
 2 14 -4 43.38 7.15
 2 14 -3 0.45 5.38
 2 14 -2 46.78 6.93
 2 14 -1 11.53 5.88
 2 14 0 34.09 7.2
 2 14 1 3.71 5.23
 2 14 2 38.6 7.33
 2 14 3 11.51 5.24
 2 14 5 8.27 5.75
 2 15 -3 11.36 6.36
 2 15 -2 43.06 7.2
 2 15 -1 -1.05 4.63
 2 15 0 28.7 6.54
 2 15 1 4.15 5
 2 15 2 38.81 7.59
 2 15 3 10.75 5.5
 3 1 -5 264.19 3.14
 3 1 -4 128.89 2.74
 3 2 -7 360.58 3.96
 3 2 -6 26.31 1.47
 3 2 -5 29.06 1.65
 3 2 -4 10.48 1.31
 3 4 -7 86.1 3.41
 3 4 -6 233.52 5.46
 3 4 -4 148.19 4.69
 3 4 -3 26.43 2.52
 3 4 -2 12.78 2.34
 3 5 -8 20.31 2.22
 3 5 -7 20.73 2.55
 3 5 -6 143.68 4.97
 3 5 -5 33.69 2.74
 3 5 -3 58.46 3.89
 3 5 -2 368.42 8.18
 3 6 -8 131.67 5.22
 3 6 -7 34.16 3.04
 3 6 -6 104.95 4.94
 3 6 -5 54.51 3.72
 3 6 -4 82.75 4.68
 3 6 -2 52.83 3.97
 3 6 -1 74.98 4.48
 3 6 0 142.6 6.22
 3 7 -8 140.1 5.89
 3 7 -7 38.97 3.9
 3 7 -6 72.68 4.56
 3 7 -5 52.42 4.01
 3 7 -4 110.52 5.77
 3 7 -2 29.02 3.83
 3 7 -1 82.38 5.12
 3 7 0 1.91 2.32
 3 8 2 22.2 4.16
 3 8 4 1.31 2.56
 3 8 5 22.73 3.96
 3 8 7 32.36 5.5
 3 8 8 99.89 7.53
 3 8 9 6.98 3.91
 3 8 10 155.62 8.95
 3 8 11 18.05 4.78
 3 8 13 13.31 4.87
 3 8 15 15.51 5.3
 3 8 16 7.45 4.43
 3 9 -10 2.07 2.18
 3 9 -8 95.16 6.11
 3 9 -7 17.01 3.92
 3 9 -6 18.01 3.92
 3 9 -5 -0.02 3.45
 3 9 -4 4.19 3.05
 3 9 -3 16.83 3.7
 3 9 1 106.55 6.79
 3 9 4 0.28 2.87
 3 9 5 1.82 3.19
 3 9 6 24.59 4.67
 3 9 7 20.82 4.63
 3 9 9 6.29 4.78
 3 9 10 11.14 4.52
 3 9 11 23.87 5.43
 3 9 12 -0.16 4.72
 3 9 13 2.54 4.37
 3 9 14 18.73 5.51
 3 10 -9 0.54 2.96
 3 10 -8 1.67 3.59
 3 10 -7 3.54 3.31
 3 10 -6 27.11 4.87
 3 10 -5 69.51 5.98
 3 10 -4 14.23 3.82
 3 10 -2 23.3 4.82
 3 10 -1 32.5 4.97
 3 10 0 24.3 4.62
 3 10 2 28.82 4.82
 3 10 3 45.98 5.63
 3 10 4 20.97 4.58
 3 10 5 79.82 7.22
 3 10 6 19.44 4.66
 3 10 8 -2.51 3.44
 3 10 9 18.63 5.59
 3 10 10 34.26 6.25
 3 10 11 1.29 4.54
 3 10 12 51.09 7.62
 3 10 13 2.4 4.32
 3 10 14 5.11 4.93
 3 11 -9 8.02 3.56
 3 11 -8 17.43 4.13
 3 11 -7 47.4 6.23
 3 11 -6 13.97 4.68
 3 11 -4 8.88 4.21
 3 11 -3 9.16 3.96
 3 11 -2 18.35 4.37
 3 11 0 77.57 6.82
 3 11 3 0.87 3.49
 3 11 4 13.21 5.23
 3 11 5 35 5.66
 3 11 6 13.11 4.83
 3 11 7 34.7 6.04
 3 11 8 27.62 5.68
 3 11 11 19.47 5.8
 3 11 12 7.63 5.47
 3 12 -9 16.54 4.09
 3 12 -8 2.47 4.26
 3 12 -6 2.87 4.3
 3 12 -5 61.06 6.52
 3 12 -4 4.95 4.88
 3 12 -3 18.97 5.11
 3 12 -2 29.39 5.82
 3 12 -1 18.25 5.4
 3 12 0 7.73 4.47
 3 12 1 20.11 5.8
 3 12 2 31.31 6.19
 3 12 3 8.71 5.4
 3 12 4 10.02 4.68
 3 12 6 5.8 5.04
 3 12 7 104.57 9.39
 3 12 8 0.43 5.03
 3 12 9 10.95 5.34
 3 12 10 34.43 6.28
 3 12 11 3.12 4.59
 3 13 -7 12.5 4.93
 3 13 -6 0.8 4.01
 3 13 -5 86.57 8.41
 3 13 -4 22.7 6.21
 3 13 -3 15.6 5.71
 3 13 -2 36.55 7.04
 3 13 -1 5.67 4.48
 3 13 0 110.63 9.38
 3 13 1 0.44 4.89
 3 13 3 17.43 5.47
 3 13 4 13.16 5.31
 3 13 5 88.98 8.54
 3 13 6 -1.84 4.46
 3 13 7 14.84 5.48
 3 13 8 9.33 5.38
 3 13 9 14.42 5.6
 3 14 -5 -2.91 4.53
 3 14 -4 10.93 5.51
 3 14 -3 8.52 6.05
 3 14 -2 -0.73 4.55
 3 14 -1 -0.92 5.34
 3 14 0 23.31 6.2
 3 14 1 -1.79 4.46
 3 14 2 -6.13 4.59
 3 14 3 12.37 5.66
 3 14 4 6.68 5.43
 3 14 5 -1.48 4.58
 4 0 -5 36.69 1.29
 4 1 -5 95.96 2.5
 4 3 -5 283.39 5.77
 4 3 -4 76.49 3.39
 4 3 -3 160.04 4.95
 4 4 -6 32.18 2.43
 4 4 -5 239.12 5.94
 4 4 -4 248.75 6.34
 4 4 -3 67.41 3.88
 4 4 -2 328.21 7.67
 4 5 -4 107.23 4.91
 4 5 -3 3.09 1.96
 4 5 -2 61.38 4.01
 4 5 -1 268.79 7.85
 4 6 -6 3.17 1.85
 4 6 -5 34.89 3.54
 4 6 -4 9.59 2.39
 4 6 -3 120.49 5.76
 4 6 -2 137.58 5.99
 4 6 -1 188.23 7.39
 4 7 2 3.88 2.98
 4 7 3 91.81 6.07
 4 8 -6 11.14 3.13
 4 8 -5 56.05 4.97
 4 8 -2 -0.26 2.71
 4 8 -1 23.49 4.12
 4 8 0 69.79 6.17
 4 8 1 22.62 4.58
 4 8 2 4.6 3.11
 4 8 3 77.36 6.54
 4 8 4 23.33 4.63
 4 8 5 65.37 6.48
 4 8 6 8.04 4.26
 4 9 -6 49.1 5.32
 4 9 -5 23.64 4.56
 4 9 -4 3.19 2.96
 4 9 -3 4.35 3.4
 4 9 -2 12.97 3.78
 4 9 -1 146.88 8.22
 4 9 0 1.08 3.2
 4 9 2 23.27 4.91
 4 9 4 3.38 4.27
 4 9 5 22.31 4.68
 4 9 7 35.4 6.18
 4 9 8 54.82 6.74
 4 9 9 59.9 7.48
 4 9 10 104.33 8.41
 4 9 11 -0.41 4.2
 4 9 12 12.21 5.68
 4 9 13 8.11 5.31
 4 9 14 32.95 7.01
 4 10 -8 -0.23 2.52
 4 10 -7 14.59 3.72
 4 10 -6 68.22 6.34
 4 10 -5 19.39 4.41
 4 10 -4 38.55 5.2
 4 10 -3 20.97 4.41
 4 10 -2 2.18 4.22
 4 10 0 114.34 8.1
 4 10 1 130.05 8.71
 4 10 5 20.65 4.94
 4 10 6 68.67 7.73
 4 10 8 6.98 4.66
 4 10 9 16.75 5.49
 4 10 10 1.75 4.56
 4 11 -7 65.95 6.39
 4 11 -6 20.78 4.6
 4 11 -5 20.64 4.51
 4 11 -4 0.39 3.51
 4 11 -2 41.04 6.04
 4 11 -1 33.45 5.43
 4 11 0 0.13 4.27
 4 11 1 41.49 6.06
 4 11 2 46.78 6.74
 4 11 3 39.69 6.33
 4 11 4 1.32 4.17
 4 11 5 30.42 6.52
 4 11 6 24.66 6.04
 4 11 7 47.78 7.66
 4 11 8 25.05 6.48
 4 11 9 10.46 5.2
 4 11 11 12.69 5.61
 4 12 -7 19.49 4.77
 4 12 -6 40.48 6.62
 4 12 -5 25.87 5.41
 4 12 -4 27.73 5.94
 4 12 -3 -2.2 3.73
 4 12 -2 35.95 5.75
 4 12 -1 19.11 5.2
 4 12 0 3.58 4.74
 4 12 1 19.84 5.4
 4 12 2 24.26 5.7
 4 12 3 3.71 4.49
 4 12 4 21.99 6.22
 4 12 6 33.04 6.32
 4 12 7 21.07 5.79
 4 12 8 23.16 6.45
 4 12 9 5.15 5
 4 13 -4 4.28 4.86
 4 13 -3 15.26 5.3
 4 13 -2 1.39 4.46
 4 13 -1 11.06 5.38
 4 13 0 12.33 5.31
 4 13 1 5.46 4.69
 4 13 2 -0.84 4.36
 4 13 3 16.98 6.07
 4 13 4 7.76 5.34
 4 13 5 -4.58 5.13
 4 13 6 3.9 5.64
 4 14 -1 14.61 5.81
 4 14 0 13.89 5.63
 4 14 1 13.61 5.46
 5 2 -4 23.8 2.13
 5 3 -5 -1.17 0.62
 5 4 -4 13.53 2.28
 5 4 -3 42.63 3.59
 5 5 -4 107.22 5.09
 5 5 -3 30.26 3.59
 5 5 -2 53.47 4.23
 5 7 -4 29.5 4.07
 5 7 -2 4.32 2.91
 5 7 -1 60.27 5.43
 5 7 0 10.5 3.36
 5 7 1 55.72 5.28
 5 7 2 -1.12 3
 5 8 -3 3.92 3.08
 5 8 -2 8.78 3.42
 5 8 0 8.94 3.61
 5 8 1 6.15 3.47
 5 8 2 7.39 4.21
 5 8 3 6.24 3.93
 5 8 4 38.37 5.82
 5 8 5 10.23 4.11
 5 9 -4 12.79 3.73
 5 9 -3 5.23 3.49
 5 9 -2 20.99 4.41
 5 9 0 40.81 6.04
 5 9 1 17.7 4.46
 5 9 2 29.65 5.28
 5 9 3 1.12 3.61
 5 9 4 12.84 4.78
 5 9 5 7.94 4.24
 5 9 6 31.92 6.42
 5 9 7 3.01 5.02
 5 9 11 16.25 5.91
 5 9 12 5.52 5.91
 5 10 -4 30.47 5.37
 5 10 -3 19.8 5.17
 5 10 -2 24.5 4.84
 5 10 -1 35.86 5.55
 5 10 0 81.15 7.39
 5 10 2 25.73 5.28
 5 10 3 10.27 4.58
 5 10 4 28.19 5.54
 5 10 5 4.44 5.29
 5 10 6 17.55 5.85
 5 10 7 -0.12 4.97
 5 10 8 29.38 6.48
 5 10 9 23.41 6.49
 5 10 10 -2 4.43
 5 10 11 1.95 4.96
 5 11 -5 12.53 4.01
 5 11 -4 17.27 4.55
 5 11 -3 16.62 4.71
 5 11 -1 35.8 5.9
 5 11 0 89.48 7.59
 5 11 1 40.3 7.01
 5 11 2 39.37 6.83
 5 11 4 20.57 5.83
 5 11 5 20.23 5.81
 5 11 6 26.31 6.01
 5 11 7 4.59 4.99
 5 11 8 30.07 7.3
 5 12 -4 20.78 5.18
 5 12 -3 17.46 5.51
 5 12 -2 5.71 5.25
 5 12 -1 52.71 7.34
 5 12 0 5.66 4.51
 5 12 1 43.37 6.82
 5 12 2 13.92 6.41
 5 12 3 7.96 5.36
 5 12 4 21.86 5.95
 5 12 5 15.25 5.74
 5 12 6 13.42 6.43
 5 13 -1 1.18 5.11
 5 13 0 27.95 6.04
 5 13 1 -1.28 4.68
 5 13 2 33.81 6.51
 6 5 -1 251.8 8.7
 6 6 -2 51.35 4.85
 6 6 -1 188.26 8.05
 6 6 0 -2.1 3.04
 6 7 -3 -1.08 2.04
 6 7 -2 3.93 3.56
 6 7 0 81.59 6.95
 6 7 2 3.1 3.73
 6 8 -2 22.79 4.35
 6 8 -1 33.94 5.16
 6 8 0 73.86 6.4
 6 8 1 28.45 5
 6 8 2 23.53 5.76
 6 8 3 14.77 5.26
 6 8 4 68.12 7.88
 6 8 5 8.61 4.51
 6 8 6 -1.77 3.98
 6 9 -4 -1.27 1.97
 6 9 -3 17.59 4.14
 6 9 -2 18.69 4.31
 6 9 -1 25.95 5.49
 6 9 0 8.76 4.48
 6 9 1 22.35 5.56
 6 9 2 19.58 5.29
 6 9 3 12 4.81
 6 9 4 2.4 4.8
 6 9 5 10.96 4.85
 6 9 8 3.6 4.73
 6 9 9 5.18 5.89
 6 9 10 23.89 6.93
 6 10 -3 15.94 4.42
 6 10 -2 9.73 4.34
 6 10 -1 20.61 5.56
 6 10 0 99.87 8.57
 6 10 1 19.52 5.13
 6 10 2 7.32 4.86
 6 10 3 10.84 4.96
 6 10 4 26.25 5.95
 6 10 5 10.09 5.84
 6 10 6 14.78 6.25
 6 10 7 28.45 7.35
 6 11 -2 24.11 5.55
 6 11 -1 8.26 5.38
 6 11 0 25.51 5.61
 6 11 1 2.46 4.77
 6 11 2 21.83 5.75
 6 11 3 23.04 6.13
 6 11 4 10.3 6.55
 6 11 5 8.24 5.1
 7 6 -1 -1.34 2.59
 7 6 1 1.01 3.44
 7 7 0 4.11 3.6
 7 7 2 10.96 4.94
 7 7 3 1.89 4.21
 7 8 0 57.25 6.84
 7 8 1 24.6 5.37
 7 8 2 4.07 4.21
 7 8 3 9.7 4.68
 7 8 4 5.41 4.45
 7 8 5 6.25 5.66
 7 8 6 20.9 6.29
 7 9 -1 31.9 5.59
 7 9 0 1.09 4.64
 7 9 1 25.23 5.66
 7 9 2 25.27 6.01
 7 9 3 -4.59 4.31
 7 9 4 20.01 6.17
 7 9 5 23.92 5.89
 7 10 -1 3.21 4.22
 7 10 0 21.24 5.82
 7 10 2 10.08 5.07
 8 7 2 5.51 4.13
 8 7 3 4.15 4.29
 -6 8 9 61.5 7.52
 -6 8 10 -1.67 3.44
 -6 9 7 21.72 6.1
 -6 9 8 5.66 4.42
 -6 9 9 -5.27 3.46
 -6 9 10 27.91 5.55
 -6 10 8 24.64 6.17
 -5 5 7 151.77 7.21
 -5 5 8 29.45 4.47
 -5 5 9 42.82 4.75
 -5 5 10 1.04 2.77
 -5 6 4 8.14 3.34
 -5 6 5 119.09 7.36
 -5 6 7 7.83 3.49
 -5 6 8 51.63 5.13
 -5 6 9 44.8 5.48
 -5 6 10 9.28 3.86
 -5 6 11 11.62 4.18
 -5 7 2 1.23 3.05
 -5 7 3 5.73 3.68
 -5 7 4 30.86 5.2
 -5 7 6 23.79 5.06
 -5 7 7 41.13 5.77
 -5 7 8 41.81 5.94
 -5 7 9 69.54 6.44
 -5 7 10 54.5 6.49
 -5 7 11 27.61 4.8
 -5 8 1 10.09 3.94
 -5 8 2 5.6 3.81
 -5 8 3 2.89 3.6
 -5 8 4 40.7 5.94
 -5 8 6 47.25 6.66
 -5 8 7 37.68 6.2
 -5 8 9 6.66 4.33
 -5 8 10 39.29 5.78
 -5 8 11 8.89 4.39
 -5 8 12 15.18 5.08
 -5 9 2 20.66 5.1
 -5 9 3 -2.52 4.43
 -5 9 4 9.89 4.49
 -5 9 6 42.18 6.82
 -5 9 8 23.31 5.9
 -5 9 9 21.03 5.48
 -5 9 10 48.77 6.65
 -5 9 11 13.16 4.88
 -5 10 1 28.88 5.76
 -5 10 3 15.89 5.62
 -5 10 4 37.98 6.5
 -5 10 5 1.04 5.2
 -5 10 6 22.07 6.39
 -5 10 8 29.83 5.78
 -5 10 9 24.46 6.29
 -5 10 10 0.56 4.49
 -5 11 1 26.53 6.54
 -5 11 2 39.85 7.45
 -5 11 3 17.58 5.64
 -5 11 4 16.6 5.97
 -5 11 6 27.52 6.21
 -5 11 7 2.01 4.71
 -5 11 8 30.68 7.31
 -5 12 1 53.36 7.96
 -5 12 3 8.77 6.31
 -5 12 4 12.61 5.58
 -5 12 6 15.84 6
 -5 13 2 32.52 6.99
 -4 2 5 194.08 5.84
 -4 2 6 35.07 3.13
 -4 2 7 111.45 4.54
 -4 2 8 0.75 1.66
 -4 2 9 24.88 2.66
 -4 2 10 45.53 3.03
 -4 3 3 148.66 5.95
 -4 3 5 294.62 7.73
 -4 3 7 73.67 4.43
 -4 3 8 17.91 2.75
 -4 3 9 37.29 3.43
 -4 3 10 19.36 2.87
 -4 3 11 1.35 1.85
 -4 4 1 66.07 4.33
 -4 4 2 341.71 8.99
 -4 4 3 66.8 4.35
 -4 4 5 240.04 7.5
 -4 4 7 35.07 4.03
 -4 4 8 33.07 3.77
 -4 4 9 27.94 3.56
 -4 4 10 3.66 2.65
 -4 5 2 52.95 4.71
 -4 5 4 102.57 6.06
 -4 5 5 63.6 5.1
 -4 5 11 16.86 3.64
 -4 5 12 10.47 3.49
 -4 6 7 45.27 5.14
 -4 6 9 10.52 3.88
 -4 6 11 9.81 3.52
 -4 6 12 7.14 3.41
 -4 6 13 15.78 3.73
 -4 7 -1 8.61 3.62
 -4 7 1 6.38 3.48
 -4 7 2 7.22 3.14
 -4 7 3 87.02 6.61
 -4 7 5 0.61 3.3
 -4 7 8 1.81 3.36
 -4 7 9 16.78 4.05
 -4 7 10 85.49 6.98
 -4 7 11 11.09 4.51
 -4 7 12 10.02 4.02
 -4 7 13 35.9 5.61
 -4 8 -1 20.1 4.37
 -4 8 1 26.78 4.48
 -4 8 3 84.33 6.38
 -4 8 5 53.76 6.21
 -4 8 8 136.62 8.44
 -4 8 9 34.65 5.39
 -4 8 10 15.36 4.88
 -4 8 11 22.04 5.45
 -4 8 12 9.86 4.23
 -4 8 13 30.48 5.54
 -4 9 -2 21.23 4.64
 -4 9 0 -2.16 2.8
 -4 9 1 141.66 8.7
 -4 9 2 13.65 4.17
 -4 9 4 3.04 3.52
 -4 9 5 19.9 5.32
 -4 9 6 51.7 6.35
 -4 9 7 53.05 6.16
 -4 9 9 65.82 7.91
 -4 9 10 100.23 7.99
 -4 9 12 14.05 5.07
 -4 9 14 40.99 6.58
 -4 10 -2 -4.36 4.08
 -4 10 -1 136.83 9.08
 -4 10 0 106.58 7.75
 -4 10 1 143.97 9.37
 -4 10 2 -2.3 3.7
 -4 10 3 26.43 5.63
 -4 10 4 38.97 6.61
 -4 10 5 16.79 4.91
 -4 10 6 68.97 7.29
 -4 10 7 10.96 4.77
 -4 10 8 1.99 4.29
 -4 10 9 20.2 5.9
 -4 10 10 8.15 4.85
 -4 11 -2 54.28 7.63
 -4 11 0 -1.93 4.12
 -4 11 1 32.16 5.78
 -4 11 2 43.12 6.3
 -4 11 3 54.8 7.18
 -4 11 5 25.45 5.78
 -4 11 6 26.85 6.06
 -4 11 7 54.49 7.21
 -4 11 8 39.5 6.72
 -4 11 11 16.45 5.96
 -4 12 0 4.42 4.96
 -4 12 1 25.99 6.04
 -4 12 2 25.4 5.97
 -4 12 3 3.41 4.96
 -4 12 5 26.39 6.56
 -4 12 6 40.85 7.17
 -4 12 7 26.61 6.53
 -4 12 8 26.9 7.24
 -4 12 9 -0.16 4.78
 -4 13 -1 15.46 6.23
 -4 13 0 11.72 5.86
 -4 13 2 1.51 5.51
 -4 13 3 18.48 6.61
 -4 13 4 8.08 5.61
 -4 14 0 18.94 6.33
 -4 14 1 16.03 6.13
 -3 0 8 6.7 1.04
 -3 1 4 131.17 3.92
 -3 1 5 259.76 5.32
 -3 1 7 187.63 4.4
 -3 1 8 21.1 2.03
 -3 1 9 135.1 3.84
 -3 1 10 9.26 1.58
 -3 2 2 177.81 5.04
 -3 2 3 352.65 7
 -3 2 4 6.09 1.69
 -3 2 5 30.29 2.73
 -3 2 6 29.55 2.55
 -3 2 7 353.67 6.92
 -3 2 8 89.68 3.84
 -3 2 9 123.59 4.4
 -3 2 10 67.03 3.52
 -3 2 11 6.29 1.93
 -3 2 12 25.85 2.69
 -3 3 0 134.55 5.19
 -3 3 1 63.31 3.52
 -3 3 2 386.92 8.11
 -3 3 3 3.54 1.88
 -3 3 5 186.01 5.71
 -3 3 7 12.59 2.22
 -3 3 8 7.79 2.1
 -3 3 10 2.16 1.81
 -3 3 11 42.61 3.52
 -3 3 12 14.84 2.59
 -3 4 0 371.56 8.65
 -3 4 2 12.57 2.45
 -3 4 3 26.43 3.46
 -3 4 5 4.78 2.12
 -3 4 6 233.45 6.96
 -3 4 7 89.72 4.81
 -3 4 8 15.25 2.73
 -3 4 9 67.91 4.27
 -3 4 10 18.06 3.04
 -3 4 11 8.61 2.52
 -3 5 -2 357.53 9.2
 -3 5 -1 28.73 3.43
 -3 5 0 134.12 5.72
 -3 5 1 21.76 3.03
 -3 5 4 414.82 9.69
 -3 5 5 38.94 3.98
 -3 5 6 144.91 6.35
 -3 5 7 17.88 3.38
 -3 5 8 19.97 3.27
 -3 5 12 9.98 3.49
 -3 5 13 30.85 4.2
 -3 5 14 75.58 5.64
 -3 6 -2 45.88 4
 -3 6 0 137.91 6.16
 -3 6 1 70.83 5.06
 -3 6 2 49.77 4.18
 -3 6 3 77.92 4.95
 -3 6 4 82.62 5.31
 -3 6 5 54.56 4.39
 -3 6 10 98.76 6.23
 -3 6 11 19.48 4.25
 -3 6 13 20.59 4
 -3 6 14 7.51 3.24
 -3 7 8 151.23 7.79
 -3 7 10 68.1 6.19
 -3 7 11 3.39 3.29
 -3 7 13 5.7 3.86
 -3 7 14 50.91 6.04
 -3 7 15 67.5 6.57
 -3 8 -3 0.61 2.83
 -3 8 -2 27.55 4.16
 -3 8 -1 44.49 5.18
 -3 8 1 44.32 4.58
 -3 8 3 4.4 2.86
 -3 8 4 1.8 3.32
 -3 8 5 30.85 5.04
 -3 8 6 29.25 4.44
 -3 8 7 34.35 5.51
 -3 8 8 94.03 7.21
 -3 8 10 140.3 8.27
 -3 8 11 9.41 4.01
 -3 8 12 51.37 6.57
 -3 8 13 23.96 5.13
 -3 8 14 12.98 4.75
 -3 8 15 15.45 5.01
 -3 9 -4 5.66 3.38
 -3 9 -3 11.75 3.93
 -3 9 -2 38.28 5.25
 -3 9 -1 108.65 7.34
 -3 9 0 10.77 3.75
 -3 9 1 94.72 6.81
 -3 9 3 10.66 3.86
 -3 9 4 0 3.02
 -3 9 5 5.45 3.89
 -3 9 7 17.7 4.7
 -3 9 8 93.63 7.5
 -3 9 9 10.82 4.14
 -3 9 10 13.43 5.28
 -3 9 11 17.46 5.19
 -3 9 12 3.93 4.93
 -3 9 13 3.32 3.94
 -3 9 14 28.21 5.9
 -3 10 -4 20.11 4.57
 -3 10 -3 37.97 5.4
 -3 10 -2 23.76 4.76
 -3 10 -1 43.72 6.16
 -3 10 0 31.76 5.23
 -3 10 1 31.96 5.1
 -3 10 2 20.95 5.16
 -3 10 3 48.46 6.01
 -3 10 4 12 4.26
 -3 10 5 72.5 7.08
 -3 10 6 21.67 4.9
 -3 10 8 2.1 3.85
 -3 10 9 7.23 5.16
 -3 10 11 5.15 4.39
 -3 10 12 46.46 6.69
 -3 10 13 8.71 5.75
 -3 10 14 12.98 5.16
 -3 11 -4 7 4.28
 -3 11 -3 3.76 4.76
 -3 11 -2 16.73 5.01
 -3 11 -1 84.11 7.67
 -3 11 0 87.23 7.98
 -3 11 2 13.22 5
 -3 11 3 5.59 5.12
 -3 11 5 39.82 6.29
 -3 11 6 9.41 4.53
 -3 11 7 45.2 6.6
 -3 11 8 10.99 4.94
 -3 11 9 11.31 5.21
 -3 11 10 16.02 5.22
 -3 11 11 23.29 6.12
 -3 11 12 12.89 5.17
 -3 12 -3 20.03 5.6
 -3 12 -2 36.45 6.25
 -3 12 -1 24.73 5.96
 -3 12 0 10.65 5.07
 -3 12 1 26.77 6.25
 -3 12 3 13.81 5.1
 -3 12 4 4.13 5.07
 -3 12 6 1.6 5.42
 -3 12 7 106.84 9.88
 -3 12 8 4.21 5.03
 -3 12 9 20.94 6.33
 -3 12 10 27.3 6.14
 -3 12 11 -1.36 4.84
 -3 13 -3 14.55 6.03
 -3 13 -2 31.43 6.98
 -3 13 -1 3.56 4.77
 -3 13 1 3.68 4.94
 -3 13 2 32.55 6.77
 -3 13 3 11.49 5.48
 -3 13 4 16.04 6
 -3 13 5 91.24 9.13
 -3 13 6 4.42 5.77
 -3 13 7 9.01 6.1
 -3 13 8 5.48 5.33
 -3 13 9 13.43 6.17
 -3 14 -3 4.01 4.85
 -3 14 -2 -1.95 4.54
 -3 14 -1 2.26 5.39
 -3 14 0 23.05 6.21
 -3 14 1 5.53 5.24
 -3 14 2 5.28 5.41
 -3 14 3 6.8 5.5
 -3 14 4 12.47 6.41
 -3 14 5 0.19 4.99
 -2 0 3 258.45 3.72
 -2 0 4 134.97 2.74
 -2 0 5 75.38 2.08
 -2 0 6 80.01 2.15
 -2 0 7 0.71 0.73
 -2 0 8 1.89 0.9
 -2 0 9 11.71 1.36
 -2 0 10 26.5 1.83
 -2 0 11 152.82 3.64
 -2 1 1 434.33 6.05
 -2 1 2 774.44 7.73
 -2 1 3 305.3 4.95
 -2 1 4 93.65 2.82
 -2 1 5 503.33 6.15
 -2 1 6 51.14 2.32
 -2 1 7 40.82 2.23
 -2 1 8 153.02 3.97
 -2 1 9 147.12 4.08
 -2 1 10 85.22 3.39
 -2 1 11 37 2.67
 -2 1 12 81.57 3.53
 -2 2 0 325.35 6.26
 -2 2 1 1.31 1.88
 -2 2 2 725.28 8.57
 -2 2 5 608.02 7.94
 -2 2 6 82.6 3.36
 -2 2 7 687.15 8.94
 -2 2 8 1.89 1.45
 -2 2 9 28.75 2.76
 -2 2 10 27.64 2.65
 -2 2 11 70.92 3.76
 -2 2 12 19.5 2.79
 -2 2 13 38.09 3.3
 -2 3 -1 242.92 5.79
 -2 3 0 1666.03 14.48
 -2 3 1 233.13 5.51
 -2 3 2 178.65 4.84
 -2 3 3 378.89 7.01
 -2 3 4 19.29 2.36
 -2 3 5 449.47 7.78
 -2 3 6 394.94 7.43
 -2 3 7 110.45 4.49
 -2 3 8 1.81 1.8
 -2 3 9 11.25 2.52
 -2 3 10 64.25 3.8
 -2 3 11 25.64 2.97
 -2 3 12 32.62 3.58
 -2 3 13 26.88 3.44
 -2 4 0 2377.53 18.72
 -2 4 1 46.2 3.2
 -2 4 2 393.68 7.8
 -2 4 3 228.47 6.15
 -2 4 4 216.94 5.96
 -2 4 5 98.5 4.57
 -2 4 6 10.31 2.2
 -2 4 7 128.09 5.19
 -2 4 8 22.03 3.06
 -2 4 9 104.14 5.24
 -2 4 10 15.68 3.02
 -2 4 11 37.55 4.11
 -2 4 14 41.46 4.39
 -2 4 15 68.81 5.26
 -2 5 -3 64.18 4.13
 -2 5 2 188.31 5.99
 -2 5 3 65.07 3.87
 -2 5 5 224.03 6.81
 -2 5 6 183.26 6.48
 -2 5 7 87.3 5.04
 -2 5 8 213.53 7.32
 -2 5 9 2.54 2.78
 -2 5 13 46.95 4.98
 -2 5 14 1.31 2.83
 -2 5 15 13.78 3.71
 -2 6 -4 50.13 3.94
 -2 6 -3 15.34 2.97
 -2 6 -2 80.27 4.75
 -2 6 -1 34.69 3.55
 -2 6 2 78.18 4.65
 -2 6 3 17.72 2.85
 -2 6 4 45.51 3.99
 -2 6 5 192.34 7.06
 -2 6 7 199.72 7.33
 -2 6 11 31.02 4.6
 -2 6 14 72.2 6.08
 -2 6 15 7.49 3.71
 -2 6 16 4.26 3.2
 -2 7 -3 347.52 9.41
 -2 7 -2 18.01 3.15
 -2 7 0 8.32 2.56
 -2 7 3 336.09 9.26
 -2 7 8 36.52 5.09
 -2 7 10 66.14 5.94
 -2 7 11 0.36 3.05
 -2 7 13 75.58 6.53
 -2 7 14 3.31 4.03
 -2 7 16 10.39 4.3
 -2 8 6 15.58 3.46
 -2 8 7 45.07 5.38
 -2 8 8 54.31 5.85
 -2 8 9 22.26 4.57
 -2 8 11 6.9 3.73
 -2 8 13 24.56 5.06
 -2 8 14 22.82 5.45
 -2 8 15 17.55 5.29
 -2 8 16 3.26 3.89
 -2 9 -5 4.92 3.51
 -2 9 -4 24.29 4.05
 -2 9 0 8.76 3.09
 -2 9 2 3.48 2.87
 -2 9 4 25.91 4.25
 -2 9 5 6.74 3.38
 -2 9 6 9.24 3.58
 -2 9 7 17.88 4.6
 -2 9 8 138.36 8.28
 -2 9 9 84.44 7.1
 -2 9 11 5.11 3.89
 -2 9 12 9.31 4.71
 -2 9 13 17.22 5.05
 -2 9 14 16.56 5.47
 -2 9 15 3.4 4.67
 -2 10 -5 100.48 7.17
 -2 10 -4 4.43 3.33
 -2 10 -3 23.96 4.39
 -2 10 -2 17.15 4.02
 -2 10 1 176.6 8.92
 -2 10 2 20.94 4.63
 -2 10 3 26.75 4.63
 -2 10 4 11.93 3.8
 -2 10 5 103.22 7.47
 -2 10 6 41.2 5.54
 -2 10 7 6.4 4.5
 -2 10 8 5.74 4.31
 -2 10 10 44.45 6.71
 -2 10 11 22.85 6.01
 -2 10 12 12.27 5.58
 -2 10 14 22.82 6.15
 -2 11 -5 10.79 4.11
 -2 11 -4 17.26 4.9
 -2 11 -3 61.69 6.48
 -2 11 -2 13.1 4.2
 -2 11 -1 117.02 8.16
 -2 11 0 34.49 5.73
 -2 11 1 113.48 7.56
 -2 11 3 62.33 6.28
 -2 11 4 5.1 3.91
 -2 11 5 6.84 4.35
 -2 11 6 15.69 4.54
 -2 11 7 20.79 4.94
 -2 11 9 14.92 5.5
 -2 11 11 4.51 4.45
 -2 11 13 0.76 4.9
 -2 12 -4 19.51 5.52
 -2 12 -2 66.31 7.46
 -2 12 -1 31.29 5.64
 -2 12 0 -3.25 3.62
 -2 12 1 35.19 6.05
 -2 12 2 65.32 7.43
 -2 12 3 17.31 4.88
 -2 12 4 14.31 5.06
 -2 12 6 2.91 4.8
 -2 12 7 7.79 5.05
 -2 12 8 75.38 8.64
 -2 12 9 12.82 5.33
 -2 12 11 2.59 4.99
 -2 12 12 6.14 5.82
 -2 13 -4 69.62 7.38
 -2 13 -3 28.99 6.04
 -2 13 -2 3.96 4.25
 -2 13 0 12.48 4.95
 -2 13 1 29.9 6.27
 -2 13 3 12.04 5.48
 -2 13 4 72.95 8.48
 -2 13 5 22.01 5.74
 -2 13 6 -0.02 4.68
 -2 13 7 17.93 5.91
 -2 13 8 3.86 5.15
 -2 13 9 4.17 5.85
 -2 13 10 33.07 6.92
 -2 14 -4 51.19 7.41
 -2 14 -3 6.09 4.68
 -2 14 -2 42.71 6.7
 -2 14 -1 5.97 4.99
 -2 14 1 3.9 4.76
 -2 14 2 39.97 6.7
 -2 14 3 4.15 4.94
 -2 14 4 44.87 7.33
 -2 14 6 27.79 7.52
 -2 14 7 6.11 6.69
 -2 15 -3 15.03 5.66
 -2 15 -2 37.91 6.75
 -2 15 -1 -4.04 4.77
 -2 15 0 22.88 6.45
 -2 15 1 8.34 6.06
 -2 15 2 50.87 8.33
 -2 15 3 16.37 6.96
 -1 -2 12 3.66 1.11
 -1 -1 5 353.71 2.82
 -1 -1 11 22.21 1.96
 -1 -1 12 47.81 2.59
 -1 -1 13 4.54 1.54
 -1 0 1 947.39 4.99
 -1 0 2 1305.13 5.52
 -1 0 4 35.01 1.36
 -1 0 5 5.07 0.96
 -1 0 6 114.09 2.67
 -1 0 7 19.01 1.61
 -1 0 8 0.38 1.13
 -1 0 9 247.56 4.92
 -1 0 10 13.75 1.73
 -1 0 11 7.07 1.63
 -1 0 12 8.84 1.77
 -1 0 13 22.37 2.74
 -1 1 0 959.16 6.84
 -1 1 1 250.08 3.59
 -1 1 2 3917.19 13.34
 -1 1 4 244.15 3.94
 -1 1 5 359.89 5.06
 -1 1 6 614.14 6.95
 -1 1 7 128.11 3.54
 -1 1 8 88.7 3.27
 -1 1 9 541.5 7.94
 -1 1 10 13.13 2.14
 -1 1 11 20.08 2.45
 -1 1 12 51.69 3.44
 -1 1 13 6.84 2.06
 -1 1 14 7.52 2.4
 -1 2 -2 138.24 3.7
 -1 2 -1 336.98 5.08
 -1 2 0 869.18 7.83
 -1 2 1 343.77 5.03
 -1 2 2 136.98 3.29
 -1 2 3 1022.11 8.86
 -1 2 4 117.4 3.39
 -1 2 5 145.78 3.94
 -1 2 6 16.26 1.86
 -1 2 7 993.52 10.66
 -1 2 9 142.08 4.84
 -1 2 10 21.31 2.54
 -1 2 11 132.7 5.19
 -1 2 12 6.04 2.05
 -1 2 13 81.23 4.71
 -1 2 14 35.15 3.79
 -1 3 -3 55.48 2.79
 -1 3 -1 120.13 3.59
 -1 3 0 26.15 2.47
 -1 3 1 123.6 3.74
 -1 3 2 413.12 6.43
 -1 3 3 54.15 2.78
 -1 3 4 405.75 7.02
 -1 3 5 381.67 7.02
 -1 3 7 60.49 3.63
 -1 3 8 18.2 2.76
 -1 3 9 752.23 11.29
 -1 3 10 2.5 2.01
 -1 3 11 19.57 3.18
 -1 3 12 2.32 2.52
 -1 3 13 12.52 2.98
 -1 3 15 230.37 8.12
 -1 3 16 100.74 6.1
 -1 4 -4 203.23 5.3
 -1 4 -3 49.04 2.82
 -1 4 -1 90.97 3.91
 -1 4 0 528.32 8
 -1 4 5 381.39 7.84
 -1 4 6 118.51 4.94
 -1 4 9 4.96 2.15
 -1 4 11 11.33 3.31
 -1 4 14 249.01 8.85
 -1 4 15 52.33 5.26
 -1 4 16 3.2 3.11
 -1 5 -1 30.97 3.12
 -1 5 0 8.33 1.86
 -1 5 1 33.94 3.13
 -1 5 4 181.03 5.76
 -1 5 5 28.47 3.44
 -1 5 6 109.5 5.22
 -1 5 7 7.43 2.42
 -1 5 8 128.28 5.65
 -1 5 9 25.34 3.43
 -1 5 14 88.13 6.08
 -1 5 15 76.09 6.37
 -1 5 16 50.6 5.63
 -1 5 17 1.14 3.21
 -1 6 -5 13.63 2.41
 -1 6 -4 133.92 5.15
 -1 6 -3 118.56 4.81
 -1 6 -2 17.8 2.72
 -1 6 4 132.35 5.77
 -1 6 5 11.47 2.61
 -1 6 7 180.01 6.9
 -1 6 8 51.93 4.54
 -1 6 11 11.39 3.44
 -1 6 12 91.68 6.85
 -1 6 16 11.77 4.27
 -1 6 17 6.61 3.81
 -1 7 -5 5.28 2.23
 -1 7 -4 248.75 7.3
 -1 7 -3 18.84 2.82
 -1 7 -2 40.94 3.62
 -1 7 -1 117.27 5.16
 -1 7 0 440.71 9.57
 -1 7 1 118.6 5.29
 -1 7 2 32.63 3.22
 -1 7 4 240.48 7.73
 -1 7 5 7.14 2.39
 -1 7 9 24.75 4.06
 -1 7 10 10.34 3.39
 -1 7 11 10.31 3.66
 -1 7 12 1.3 3.63
 -1 7 13 6.65 3.74
 -1 7 14 26.69 4.89
 -1 7 15 23.37 4.89
 -1 7 16 1.97 4.51
 -1 7 17 3.53 4.05
 -1 8 -6 33.58 3.73
 -1 8 -5 23.78 3.29
 -1 8 -4 110.3 5.56
 -1 8 -3 7.41 3.05
 -1 8 -1 193.5 7.4
 -1 8 0 36.89 4.29
 -1 8 2 46.27 4.18
 -1 8 8 13.91 3.68
 -1 8 9 3.97 3.19
 -1 8 10 63.88 6.11
 -1 8 11 48.24 5.79
 -1 8 12 17.05 4.31
 -1 8 14 29.08 5.74
 -1 8 16 1.62 4.15
 -1 8 17 44.49 6.97
 -1 9 4 127.16 6.95
 -1 9 5 27.8 4.58
 -1 9 6 10.04 3.37
 -1 9 7 59.03 6.16
 -1 9 8 57.48 6.45
 -1 9 9 2.55 3.39
 -1 9 11 24.26 5.17
 -1 9 12 -0.49 3.78
 -1 9 13 11.61 5.28
 -1 9 15 12.92 4.99
 -1 10 -6 13.2 3.68
 -1 10 -5 70.84 5.82
 -1 10 -4 18.14 4.06
 -1 10 -3 28.41 4.42
 -1 10 -2 29.08 4.67
 -1 10 -1 12.57 3.86
 -1 10 0 -0.23 2.61
 -1 10 1 22.63 4.45
 -1 10 4 13.61 3.64
 -1 10 5 69.19 6.15
 -1 10 6 11.23 3.85
 -1 10 8 154.9 9.13
 -1 10 9 8.44 4.2
 -1 10 10 85.94 8.1
 -1 10 11 -0.12 5.04
 -1 10 12 39.84 6.42
 -1 10 13 5.51 4.55
 -1 10 14 52.1 7.23
 -1 10 15 4.89 4.72
 -1 11 -6 13.41 3.5
 -1 11 -5 24.33 4.17
 -1 11 -4 9.34 3.57
 -1 11 -3 -2.67 2.73
 -1 11 -1 49.6 5.67
 -1 11 0 -0.72 2.82
 -1 11 2 15.79 4.18
 -1 11 3 0.77 3.07
 -1 11 4 16.66 4.3
 -1 11 5 30.13 5.14
 -1 11 6 6.7 4.63
 -1 11 7 145.41 9.35
 -1 11 8 32.75 6.43
 -1 11 9 0.78 4.06
 -1 11 10 94.85 8.9
 -1 11 11 13.63 6.1
 -1 11 12 17.89 6
 -1 11 13 7.5 4.96
 -1 12 -6 5.94 3.09
 -1 12 -5 10.94 3.76
 -1 12 -4 18.6 4.93
 -1 12 -3 8.79 4.65
 -1 12 -2 35.41 5.64
 -1 12 -1 41.43 5.87
 -1 12 0 -2.1 3.42
 -1 12 1 42.29 5.87
 -1 12 2 34.29 5.79
 -1 12 3 8.4 4.91
 -1 12 4 17.07 5.6
 -1 12 5 11.81 4.48
 -1 12 6 13.74 5.58
 -1 12 7 36.96 6.71
 -1 12 8 38.59 6.83
 -1 12 9 5.66 4.67
 -1 12 12 16.82 6.53
 -1 13 -4 1.88 3.79
 -1 13 -3 1.75 4.26
 -1 13 -2 4.87 4.11
 -1 13 -1 44.54 6.78
 -1 13 0 69.48 7.92
 -1 13 1 36.21 5.91
 -1 13 2 -1.22 4.56
 -1 13 4 0.61 4.79
 -1 13 5 18.71 5.28
 -1 13 6 2.59 5.61
 -1 13 7 9.99 5.88
 -1 13 8 -0.86 4.9
 -1 13 9 3.9 4.93
 -1 13 10 16.37 6.05
 -1 14 -4 11.08 4.72
 -1 14 -3 9.36 5.35
 -1 14 -2 3.5 4.28
 -1 14 -1 30.96 5.75
 -1 14 0 5.85 4.59
 -1 14 1 37.06 7.55
 -1 14 2 -0.25 4.37
 -1 14 3 1.67 4.73
 -1 14 4 14.45 6.1
 -1 14 5 150.91 10.28
 -1 14 6 7.3 6.2
 -1 14 7 13.29 6.89
 -1 14 8 0.56 4.94
 -1 15 -4 3.79 4.46
 -1 15 -3 17.56 5.17
 -1 15 -2 6.68 5.45
 -1 15 -1 18.53 6.39
 -1 15 1 16.47 6.22
 -1 15 2 9.61 5.61
 -1 15 3 15.76 5.86
 -1 15 4 10.19 6.28
 0 1 16 19.72 3.39
 0 2 -2 329.63 3.78
 0 2 -1 5.75 0.98
 0 2 0 5297.33 15.5
 0 2 1 4.62 1.1
 0 2 2 333.94 4.77
 0 2 15 23.26 3.8
 0 2 16 -3.36 2.31
 0 3 -3 969.84 8
 0 3 -2 356.49 4.9
 0 3 -1 393.81 5.27
 0 3 0 -0.79 1.05
 0 3 2 348.92 5.81
 0 3 3 955.4 9.69
 0 3 4 359.61 6.5
 0 3 11 36.31 3.47
 0 3 12 113.57 5.93
 0 3 14 24.5 3.67
 0 3 16 5.84 3.32
 0 3 17 3.58 3.43
 0 4 -4 15.53 1.9
 0 4 -3 1128.91 9.95
 0 4 -2 197.17 4.35
 0 4 -1 1.6 1.64
 0 4 0 2832.79 16.57
 0 4 1 3.68 1.82
 0 4 2 210.64 5.07
 0 4 4 16.34 2.42
 0 4 5 12.69 2.29
 0 4 6 20.81 2.6
 0 4 7 27.22 2.95
 0 4 8 -1.33 1.63
 0 4 9 140.03 5.76
 0 4 10 7.01 3.05
 0 4 14 18.85 4.39
 0 4 15 117.84 7.22
 0 4 16 1.15 3.75
 0 4 17 5.36 3.29
 0 5 -3 63.34 3.1
 0 5 -2 171.62 4.67
 0 5 -1 32.86 2.69
 0 5 0 0.25 1.45
 0 5 1 35.77 2.95
 0 5 2 182.11 5.57
 0 5 6 55.42 3.63
 0 5 7 16.06 2.79
 0 5 8 727.43 12.84
 0 5 9 8.78 3.16
 0 5 14 -1.26 2.99
 0 5 15 57.6 6.18
 0 5 16 36.58 5.6
 0 5 17 10.37 4.37
 0 5 18 -1.02 3.3
 0 6 -5 267.16 6.15
 0 6 -4 35.23 2.86
 0 6 5 266.48 7.63
 0 6 6 480.47 10.57
 0 6 7 240.46 7.96
 0 6 8 21.4 3.55
 0 6 11 6.18 3.09
 0 6 12 5.82 3.14
 0 6 13 35.77 4.94
 0 6 14 1.43 3.38
 0 6 15 16.8 5
 0 6 16 8.9 4.33
 0 6 17 3.93 3.74
 0 7 -6 16.7 2.54
 0 7 -5 611 10.06
 0 7 -4 0.52 1.73
 0 7 -3 380.64 8.1
 0 7 -2 10.2 2.58
 0 7 -1 599.92 10.55
 0 7 0 0.09 1.94
 0 7 1 585.71 10.83
 0 7 2 4.89 2.11
 0 7 4 3.97 2.59
 0 7 5 620.2 12.6
 0 7 6 17.01 3.01
 0 7 9 53.24 5.42
 0 7 11 11.62 3.59
 0 7 12 2.15 3.74
 0 7 13 4.5 3.87
 0 7 14 8.02 4.12
 0 7 15 -0.42 4.49
 0 7 16 1.4 3.91
 0 7 17 6.11 4.15
 0 7 18 1.06 3.9
 0 8 -6 96.3 4.75
 0 8 -5 37.08 3.34
 0 8 -4 0.2 1.78
 0 8 -3 35.88 3.39
 0 8 -2 439.49 9.59
 0 8 -1 350.62 8.87
 0 8 0 74.68 4.5
 0 8 1 360.84 9.28
 0 8 2 445.18 10.71
 0 8 8 15.18 3.5
 0 8 9 21.61 4.71
 0 8 10 18.65 4.6
 0 8 12 5.41 3.67
 0 8 13 18.16 5.51
 0 8 14 2.72 5.11
 0 8 15 20.03 5.49
 0 8 16 8.37 4.54
 0 8 17 3.61 4.72
 0 9 -6 12.92 2.71
 0 9 -5 44.52 3.73
 0 9 -4 28.47 3.8
 0 9 -3 18.45 3.04
 0 9 -2 8.47 2.98
 0 9 -1 173.19 6.92
 0 9 0 1.2 2.46
 0 9 6 8.62 3.69
 0 9 7 4.82 3.37
 0 9 10 11.09 4.08
 0 9 11 -3.09 3.41
 0 9 12 -0.95 4.05
 0 9 13 16.58 5.01
 0 9 14 6.77 4.67
 0 9 15 0.91 4.41
 0 9 16 17.5 5.32
 0 10 2 112.48 6.64
 0 10 4 0.1 3.26
 0 10 5 38.08 5.39
 0 10 6 14.91 4.09
 0 10 7 4.01 3.34
 0 10 8 1.78 3.33
 0 10 9 63.33 7.09
 0 10 10 94.95 8.53
 0 10 11 0.68 4.92
 0 10 12 5.31 4.58
 0 10 13 -3.95 4.06
 0 10 14 13.96 5.36
 0 11 -6 -2.28 1.76
 0 11 -5 4.52 3.12
 0 11 -4 3.58 2.79
 0 11 -3 32.57 4.79
 0 11 -2 10.26 3.46
 0 11 -1 71.75 5.77
 0 11 0 -0.59 3.01
 0 11 2 8.58 3.7
 0 11 3 26.52 4.78
 0 11 4 5.19 3.49
 0 11 5 0.84 3.39
 0 11 6 2.26 3.88
 0 11 7 1.95 4.4
 0 11 8 82.26 7.46
 0 11 9 3.65 4.32
 0 11 10 69.33 7.37
 0 11 11 22.85 5.58
 0 11 12 8.83 5.13
 0 11 13 1.13 5.67
 0 12 -6 -0.51 2.14
 0 12 -3 62.85 6.25
 0 12 -2 61.03 6.34
 0 12 -1 5.81 4.32
 0 12 0 2.06 3.48
 0 12 1 8.16 3.86
 0 12 2 60.54 6.9
 0 12 3 62.51 6.81
 0 12 4 14.39 4.57
 0 12 5 67.53 7.63
 0 12 6 4.16 4.13
 0 12 7 11.82 4.79
 0 12 8 31.46 6.42
 0 12 9 12.99 5.23
 0 12 10 10.14 6.27
 0 12 11 5.9 5.55
 0 12 12 5.41 6.25
 0 13 -3 -3.31 2.96
 0 13 -2 2.95 3.61
 0 13 -1 64.55 7.05
 0 13 0 0.25 3.78
 0 13 1 63.89 7.59
 0 13 2 -3 3.75
 0 13 3 -2.64 4.65
 0 13 4 70.59 8.18
 0 13 5 34.88 6.2
 0 13 6 3.73 4.75
 0 13 7 62.29 8.26
 0 13 8 15.08 5.49
 0 13 9 -0.95 4.81
 0 13 10 50.48 7.6
 0 13 11 -0.08 4.97
 0 14 -4 -2.87 2.8
 0 14 -3 7.32 4.07
 0 14 -2 44.49 6.37
 0 14 -1 0.23 4.23
 0 14 1 5.08 5.29
 0 14 2 54.48 7.14
 0 14 3 3.78 4.48
 0 14 4 -1.59 4.4
 0 14 5 9.82 6.11
 0 14 6 18.77 5.94
 0 14 7 4.44 5.29
 0 14 8 15.72 6.22
 0 15 -2 31.9 5.79
 0 15 -1 1.93 4.41
 0 15 0 4.73 5.09
 0 15 1 2.36 4.45
 0 15 2 32.36 7.28
 0 15 3 38.38 7.16
 0 15 4 7.02 6.37
 0 15 5 11.54 5.62
 1 2 -2 129.33 1.85
 1 2 17 18.82 4.01
 1 2 18 0.06 3.38
 1 3 -4 383.67 3.54
 1 3 -3 51.34 1.59
 1 3 -2 412.94 4.49
 1 3 -1 124.92 2.91
 1 3 16 103.34 7.15
 1 3 17 1.06 3.38
 1 3 18 7.38 3.88
 1 4 -4 198.08 3.45
 1 4 -3 47.21 1.94
 1 4 -2 97.35 2.91
 1 4 -1 84.57 2.97
 1 4 0 540.99 7.2
 1 4 1 85.44 3.32
 1 4 16 3.43 3.56
 1 4 17 23.52 5.05
 1 4 18 9.71 3.99
 1 4 19 5.21 3.98
 1 5 -5 28.01 1.74
 1 5 -4 177.87 3.95
 1 5 -2 520.35 7.29
 1 5 -1 32.75 2.54
 1 5 0 9.24 2.04
 1 5 1 31.64 2.63
 1 5 12 1.52 3.15
 1 5 13 67.66 5.65
 1 5 14 96.76 7.32
 1 5 15 70.94 7
 1 5 16 42.32 6.04
 1 5 17 1.21 4.5
 1 5 18 -0.56 3.71
 1 5 19 6.7 4.67
 1 6 4 125.01 5.24
 1 6 5 14.35 2.63
 1 6 6 57.02 4.39
 1 6 7 180.37 6.93
 1 6 11 6.03 3.08
 1 6 12 90.04 6.48
 1 6 13 -1.93 3.04
 1 6 14 12.49 4.75
 1 6 16 10.81 4.42
 1 6 17 11.24 4.7
 1 6 18 -2.68 3.7
 1 7 -6 145.41 4.32
 1 7 -5 8.54 1.68
 1 7 -4 248.01 5.99
 1 7 -3 21.78 2.46
 1 7 -2 36.5 3.08
 1 7 -1 123.44 4.8
 1 7 2 38.19 3.63
 1 7 3 23.01 3.07
 1 7 5 3.3 2.25
 1 7 9 29.65 4.71
 1 7 11 11.64 3.84
 1 7 12 -1.98 3.09
 1 7 13 2.13 3.61
 1 7 14 24.8 5
 1 7 15 27.07 6.04
 1 7 16 2.67 4.23
 1 8 -6 34.23 2.62
 1 8 -5 28.83 2.81
 1 8 -4 113.44 4.66
 1 8 -3 8.48 2.08
 1 8 -1 199.58 6.65
 1 8 0 41.32 3.64
 1 8 1 197.51 7.01
 1 8 2 55.21 4.6
 1 8 3 8.16 2.86
 1 8 8 14.79 3.6
 1 8 9 7.46 3.36
 1 8 10 59.86 5.91
 1 8 11 47.25 6.4
 1 8 13 1.58 3.89
 1 8 14 30.34 5.8
 1 8 15 5.03 4.67
 1 8 16 1.33 5.57
 1 8 17 47.42 7.11
 1 9 -5 23.44 2.69
 1 9 -4 124.3 5.42
 1 9 -3 62.92 4.03
 1 9 -2 135.19 5.89
 1 9 0 555.52 11.81
 1 9 4 119.18 6.65
 1 9 5 20.44 4.2
 1 9 6 8.19 3.23
 1 9 7 59.62 5.84
 1 9 8 49.22 6.08
 1 9 9 0.31 3.51
 1 9 10 179.59 9.69
 1 9 11 28.5 6.09
 1 9 12 5.7 4.38
 1 9 13 13.64 5.74
 1 9 14 1.96 5.13
 1 9 16 0.96 4.6
 1 10 -4 14 3.06
 1 10 2 26.43 4.11
 1 10 3 33.88 5.13
 1 10 5 78.85 6.58
 1 10 6 14.8 4.57
 1 10 7 -3.03 3.61
 1 10 9 8.75 4.27
 1 10 11 6.53 4.79
 1 10 12 46.6 6.97
 1 10 13 0.66 4.89
 1 10 14 37.61 6.66
 1 10 15 4.6 5.08
 1 11 -2 12.01 3.3
 1 11 -1 49.61 4.77
 1 11 0 1.79 2.98
 1 11 1 46.05 5.12
 1 11 2 13.61 3.84
 1 11 5 33.94 5.17
 1 11 6 20.11 5.49
 1 11 7 145.62 9.51
 1 11 8 34.59 5.69
 1 11 9 3.38 4.37
 1 11 10 98.4 8.67
 1 11 11 13.49 5.43
 1 11 12 10.54 6.15
 1 11 13 3.67 4.82
 1 12 -3 6.74 2.84
 1 12 -2 37.25 4.91
 1 12 -1 47.71 5.88
 1 12 0 2.21 3.63
 1 12 1 44.1 6.11
 1 12 2 36.85 5.24
 1 12 3 7.28 4.75
 1 12 4 11.93 5.07
 1 12 5 10.13 4.41
 1 12 6 11.61 5.45
 1 12 7 28.57 6.46
 1 12 9 1.78 5.01
 1 12 12 23.78 6.71
 1 13 -3 -1.95 2.02
 1 13 -2 4.36 3.5
 1 13 -1 36.21 5.24
 1 13 0 74.59 7.19
 1 13 1 44.79 6.12
 1 13 2 3.01 4.32
 1 13 3 -1.14 3.89
 1 13 4 -0.58 4.61
 1 13 5 17.21 5.12
 1 13 6 4.16 5.63
 1 13 7 8.09 5.75
 1 13 8 3.79 4.94
 1 13 9 6.93 5.38
 1 13 10 11.8 5.52
 1 14 -1 35.85 5.44
 1 14 0 7.81 4.14
 1 14 1 40.32 6.06
 1 14 2 3.81 4.8
 1 14 3 6.61 4.62
 1 14 5 168.17 10.73
 1 14 7 22.22 6.94
 1 14 8 1.2 5.62
 1 15 0 24.46 6.04
 1 15 1 24.32 5.84
 1 15 2 7.05 4.99
 1 15 3 8.82 5.07
 1 15 4 6.23 5.25
 2 3 -3 364.68 3.71
 2 3 19 18.88 5.23
 2 4 -4 215.23 2.96
 2 4 -3 232.67 3.76
 2 4 -2 388.55 5.37
 2 4 17 -1.44 3.36
 2 4 18 1.42 4.5
 2 4 19 1.85 4.5
 2 5 -5 218.92 3.22
 2 5 -4 137.07 3.09
 2 5 -3 59.07 2.4
 2 5 -2 187.21 4.32
 2 5 16 45.47 6.27
 2 5 17 29.82 6.22
 2 5 18 3.34 4.1
 2 6 -6 128.54 2.71
 2 6 -1 37.42 2.74
 2 6 0 330.66 7.22
 2 6 1 34.55 3.15
 2 6 2 77.78 4.06
 2 6 14 74.65 7.45
 2 6 16 2.45 4.12
 2 6 17 20.09 5.23
 2 6 18 4.39 4.45
 2 7 -5 145.16 3.93
 2 7 -4 13.63 1.78
 2 7 -3 340.38 6.84
 2 7 -2 21.95 2.59
 2 7 -1 191.48 5.73
 2 7 0 11.74 2.37
 2 7 1 195.04 6.28
 2 7 2 19.84 2.9
 2 7 3 352.44 9.18
 2 7 4 8.77 3.07
 2 7 8 44.83 4.92
 2 7 9 38.89 4.71
 2 7 10 62.9 6.22
 2 7 12 9.96 3.86
 2 7 14 -0.06 4.43
 2 7 15 9.11 4.69
 2 7 16 5.54 5.51
 2 7 17 10.86 5.96
 2 8 -4 9.63 1.76
 2 8 -3 101.47 4.29
 2 8 -2 111.81 4.69
 2 8 -1 112.49 5.09
 2 8 0 55.26 4.31
 2 8 2 126.52 6.26
 2 8 6 19.22 3.71
 2 8 7 48.87 4.91
 2 8 9 21.51 4.33
 2 8 10 56.72 5.74
 2 8 11 1 4.07
 2 8 13 24.9 5.74
 2 8 14 13.53 5.46
 2 8 15 12.82 5.27
 2 9 -3 21.89 3.02
 2 9 -2 4.51 2.14
 2 9 0 7.18 3.04
 2 9 4 21.25 4.33
 2 9 5 6.27 3.16
 2 9 7 21.6 4.37
 2 9 9 84.32 7.48
 2 9 10 19.59 5.25
 2 9 11 1.73 3.79
 2 9 12 9.4 5.7
 2 9 13 13.92 5.54
 2 9 14 15.03 5.86
 2 9 15 5.38 6.12
 2 10 1 158.66 7.54
 2 10 2 19.84 4.02
 2 10 4 3.64 3.37
 2 10 5 112.43 7.18
 2 10 6 40.41 5.74
 2 10 7 3.17 3.58
 2 10 8 1.3 3.58
 2 10 9 75.36 7.01
 2 10 11 21.12 5.57
 2 10 12 10.84 5.29
 2 10 13 6.31 5.43
 2 10 14 12.51 5.75
 2 11 -2 17.93 3.13
 2 11 -1 121.45 6.65
 2 11 0 33.15 4.73
 2 11 2 10.67 4.3
 2 11 3 63.25 5.79
 2 11 4 11.79 4.09
 2 11 5 10.04 4.79
 2 11 6 20.89 5.06
 2 11 7 19.37 5.46
 2 11 9 11.62 5.53
 2 11 10 15.67 5.61
 2 11 11 2.51 5.39
 2 11 12 -0.9 4.61
 2 11 13 -0.75 4.87
 2 12 -1 42.67 4.97
 2 12 0 -4.64 2.58
 2 12 1 32.64 5.18
 2 12 2 71.77 6.32
 2 12 3 9.37 4.95
 2 12 4 21.1 5.53
 2 12 6 4.17 4.35
 2 12 9 12.53 5.67
 2 12 10 -3.33 5.52
 2 12 11 7.29 6.65
 2 12 12 2.72 4.97
 2 13 -2 -1.24 1.94
 2 13 0 12.9 3.76
 2 13 1 33.06 5.16
 2 13 2 0.08 3.79
 2 13 3 18.25 5.08
 2 13 4 63.59 6.89
 2 13 5 18.93 5.68
 2 13 6 3.29 4.48
 2 13 7 13.08 5.13
 2 13 8 2.65 5.35
 2 13 9 5.35 5.13
 2 13 10 34.76 7.43
 2 14 1 5.75 4.01
 2 14 2 29.5 6.14
 2 14 3 9.91 4.82
 2 14 4 41.53 6.91
 2 14 5 7.6 5.05
 2 14 6 22.14 6.55
 2 14 7 3.74 5.51
 2 15 1 5.01 4.01
 2 15 2 39.75 6.08
 2 15 3 10.86 5.83
 3 4 -4 150.12 2.7
 3 5 -5 34.57 1.07
 3 5 -4 424.38 5.22
 3 5 18 8.61 5.21
 3 6 -4 77.99 2.7
 3 6 -3 78.11 3.1
 3 6 -2 42.77 2.66
 3 6 -1 70.66 3.58
 3 6 17 10.01 5.86
 3 7 -3 28.13 2.32
 3 7 -2 33.13 2.81
 3 7 -1 84.52 4.22
 3 7 0 -0.48 1.56
 3 7 1 81.97 4.77
 3 7 14 38.95 6.05
 3 7 15 77.34 8.47
 3 7 16 11.14 5.66
 3 8 -3 -0.29 1.15
 3 8 -2 31.45 3
 3 8 -1 47.11 3.48
 3 8 0 43.74 3.98
 3 8 1 52.26 4.08
 3 8 5 25.22 4.02
 3 8 6 27.95 4.75
 3 8 7 32.38 4.56
 3 8 8 96.41 6.83
 3 8 9 7.48 3.84
 3 8 10 154.3 9.34
 3 8 11 7.28 4
 3 8 12 40.7 6.08
 3 8 13 22.6 5.42
 3 8 14 9.85 5.06
 3 8 15 15.94 6.24
 3 8 16 11.2 5.81
 3 9 -2 37.67 3.25
 3 9 -1 95.21 5.09
 3 9 3 12.65 3.35
 3 9 4 5.02 3.05
 3 9 5 6.07 3.29
 3 9 6 18.73 4.15
 3 9 7 16.39 4.61
 3 9 9 7.46 3.98
 3 9 10 11.41 4.69
 3 9 11 15.58 5.02
 3 9 12 8.97 5.26
 3 9 13 5.28 4.85
 3 9 14 21.75 6.29
 3 9 15 26.78 7.02
 3 10 1 30.77 4.51
 3 10 2 33.82 4.73
 3 10 3 37.31 5.25
 3 10 4 12.41 4.41
 3 10 5 71.67 6.49
 3 10 6 24.1 4.79
 3 10 7 8.66 4.62
 3 10 8 -1.16 3.62
 3 10 9 23.25 5.28
 3 10 10 32.74 5.94
 3 10 11 1.55 4.69
 3 10 12 44.96 6.98
 3 10 13 1.5 5.96
 3 10 14 11.99 6.54
 3 11 0 89.7 5.99
 3 11 1 76.04 6.27
 3 11 2 21.99 4.32
 3 11 3 -0.99 4.06
 3 11 4 7.2 4.29
 3 11 5 32.27 5.47
 3 11 7 36.49 6.07
 3 11 8 17.97 5.24
 3 11 10 22.23 6.52
 3 11 11 26.89 6.73
 3 11 12 16.21 5.76
 3 12 1 16.83 4.13
 3 12 2 38.2 5.27
 3 12 3 13.98 5.06
 3 12 4 8.67 4.93
 3 12 5 68.99 7.33
 3 12 6 4.7 4.4
 3 12 7 102.66 8.39
 3 12 8 7.04 5.44
 3 12 9 15.81 5.62
 3 12 10 29.32 6.53
 3 12 11 4.45 5.18
 3 13 1 1.3 3.49
 3 13 2 26.08 5.32
 3 13 3 16.77 4.97
 3 13 4 17.92 5.45
 3 13 6 0.39 5.37
 3 13 7 3.57 5.62
 3 13 8 5.03 4.93
 3 13 9 17.22 6.74
 3 14 2 -3.8 3.39
 3 14 4 5.88 4.59
 3 14 5 3.5 5.54
 4 6 -2 129.9 4.37
 4 7 -2 3.15 1.5
 4 7 -1 4.68 1.76
 4 7 0 14.85 2.47
 4 8 -1 25.8 2.95
 4 8 0 69.34 4.53
 4 8 3 84.32 5.99
 4 8 12 7.3 4.69
 4 8 13 37.78 6.56
 4 8 14 16.23 6.1
 4 8 15 5.28 5.34
 4 9 1 135.82 6.71
 4 9 2 18.35 3.6
 4 9 3 5.15 3.17
 4 9 4 7.24 3.67
 4 9 5 21.1 4.53
 4 9 6 52.19 6.37
 4 9 7 47.75 5.95
 4 9 9 59.2 6.54
 4 9 10 97.78 8.39
 4 9 11 0.47 4.68
 4 9 12 18.69 6.21
 4 9 13 5.81 5.35
 4 9 14 31.36 7.43
 4 10 1 127.49 6.91
 4 10 2 0.08 2.75
 4 10 3 22.75 4.5
 4 10 5 17.32 4.57
 4 10 6 69.17 6.95
 4 10 7 11.19 4.39
 4 10 8 6.68 4.32
 4 10 9 16.53 5.37
 4 10 10 5.09 4.62
 4 10 11 34.17 7.03
 4 10 12 3.09 5.06
 4 11 0 -0.2 1.95
 4 11 2 46.48 5.72
 4 11 3 42.49 5.7
 4 11 4 3.93 4.36
 4 11 5 27.75 5.3
 4 11 6 28.9 5.53
 4 11 7 50.03 6.88
 4 11 8 36.09 6.3
 4 11 9 11.04 6.13
 4 11 10 18.2 6.32
 4 11 11 15.78 5.66
 4 12 2 19.22 4.14
 4 12 3 0.39 4.31
 4 12 4 32.33 5.84
 4 12 5 22.64 5.36
 4 12 6 51.56 6.82
 4 12 7 23.27 5.88
 4 12 8 21.24 6.15
 4 13 3 17.45 4.54
 4 13 4 3.27 4.16
 4 13 5 4.02 4.85
 4 13 6 3.03 4.69
 5 8 1 9.24 2.6
 5 9 2 24.86 4.27
 5 9 3 -0.93 2.9
 5 9 4 15.12 4.06
 5 9 5 2.63 3.67
 5 9 6 32.54 5.27
 5 9 7 3.59 3.92
 5 9 8 20.44 5.36
 5 9 9 20.29 5.32
 5 9 10 47.78 7.04
 5 9 11 21.16 5.97
 5 9 12 2.61 5.71
 5 10 3 15.9 4.19
 5 10 4 28.49 5.1
 5 10 5 3.83 4.65
 5 10 6 16.34 5.4
 5 10 7 3.72 4.35
 5 10 8 29.01 5.72
 5 10 9 14.28 5.16
 5 10 10 9.43 5.25
 5 10 11 -1.71 5.63
 5 11 3 9.11 3.44
 5 11 4 18.35 4.94
 5 11 5 12.03 4.34
 5 11 7 5.17 4.92
 5 11 8 19.81 5.35
 5 11 9 7.53 4.87
 5 12 4 29.57 5.06
 5 12 5 22.02 5.62
 5 12 6 8.78 5.06
 6 9 4 -2.96 2.85
 6 9 5 8.22 3.87
 6 9 6 34.39 5.73
 6 9 9 3.32 4.69
 6 9 10 20.42 6.38
 6 10 5 6.73 4.55
 6 10 6 15.13 4.77
 6 10 8 10.95 4.91
 6 11 5 13.85 4.66
 7 9 6 9.87 4.96
 -8 3 -2 19.8 3.19
 -8 4 -5 1.88 2.53
 -8 4 -4 4.26 2.48
 -8 4 -3 4.62 2.95
 -8 4 -2 4.87 2.62
 -8 5 -7 13.54 3.37
 -8 5 -6 46.82 4.71
 -8 5 -5 14.68 3.33
 -8 5 -3 6.55 3.41
 -8 5 -2 20.75 4.01
 -8 6 -6 28.75 4.11
 -8 6 -5 5.35 2.89
 -8 6 -4 79.87 5.75
 -8 6 -3 11.5 3.44
 -8 6 -2 47 5.34
 -8 7 -4 3.64 3.2
 -8 7 -3 5.52 3.42
 -8 7 -2 4.69 3.6
 -7 2 -8 46.12 3.95
 -7 2 -7 4.56 2.07
 -7 2 -6 34.97 3.36
 -7 2 -5 2.45 1.98
 -7 2 -3 13.08 2.45
 -7 3 -11 8.82 2.92
 -7 3 -10 26.59 3.56
 -7 3 -9 18.55 3.4
 -7 3 -8 88.33 5.05
 -7 3 -7 17.09 3.24
 -7 3 -6 58.39 4.45
 -7 3 -4 60.12 4.43
 -7 3 -3 44.95 4.12
 -7 4 -12 3.76 2.82
 -7 4 -11 10.76 3.18
 -7 4 -10 55.81 4.96
 -7 4 -9 83.7 5.69
 -7 4 -8 30.57 4.14
 -7 4 -7 3 2.53
 -7 4 -4 88.1 5.21
 -7 4 -3 48 4.36
 -7 5 -11 10.74 3.35
 -7 5 -10 14.38 3.75
 -7 5 -9 4.62 3.41
 -7 5 -8 33.11 4.55
 -7 5 -7 81.49 5.35
 -7 5 -6 2.34 2.83
 -7 5 -5 8 3.04
 -7 5 -4 3.04 2.57
 -7 6 -10 4.51 3.17
 -7 6 -9 23.39 3.97
 -7 6 -8 57.37 5.06
 -7 6 -7 6.65 3.15
 -7 6 -6 6.45 3.05
 -7 6 -5 44.05 4.98
 -7 6 -4 11.83 3.77
 -7 7 -9 9.69 3.66
 -7 7 -8 10.03 3.77
 -7 7 -7 24.83 4.71
 -7 7 -6 47.39 5.59
 -7 7 -5 11.94 4.27
 -7 7 -4 1.38 3.3
 -7 8 -8 1.63 3.15
 -7 8 -7 28.69 4.9
 -7 8 -6 25.75 4.95
 -7 8 -5 8.05 3.59
 -7 8 -4 4.9 3.25
 -7 8 -3 6.61 4.02
 -7 9 -6 13.93 3.94
 -7 9 -5 28.62 5.32
 -7 9 -4 28.82 4.75
 -7 9 -3 -2.63 3.79
 -6 -1 -3 6.41 1.28
 -6 -1 -2 27.87 1.94
 -6 0 -7 189.88 5.37
 -6 0 -6 47.66 2.95
 -6 0 -5 88.63 3.56
 -6 0 -4 7.1 1.68
 -6 0 -3 3.87 1.5
 -6 1 -12 6.35 2.55
 -6 1 -11 6.9 2.44
 -6 1 -10 6.98 2.31
 -6 1 -9 14.35 2.78
 -6 1 -8 35.64 3.43
 -6 1 -5 62.93 3.4
 -6 1 -4 50.6 3.19
 -6 1 -3 5.52 1.79
 -6 2 -14 24.68 4.07
 -6 2 -13 3.27 2.91
 -6 2 -12 11.04 3.24
 -6 2 -11 27.84 3.87
 -6 2 -10 16.91 2.93
 -6 2 -9 56.73 4.3
 -6 2 -8 18.53 2.97
 -6 2 -7 63.36 4.11
 -6 3 -14 33.2 4.63
 -6 3 -13 12.76 3.35
 -6 3 -12 1.04 2.61
 -6 3 -11 7.99 3.28
 -6 3 -10 15.59 3.4
 -6 3 -9 22.59 3.34
 -6 3 -8 8.65 2.46
 -6 3 -7 22.6 3.24
 -6 3 -6 55.47 4.07
 -6 3 -5 40.81 3.36
 -6 3 -4 30.79 3.45
 -6 4 -14 15.3 3.58
 -6 4 -12 1.35 2.76
 -6 4 -11 2.38 2.9
 -6 4 -10 24.32 4.09
 -6 4 -9 17.48 3.25
 -6 4 -7 11.23 2.78
 -6 4 -6 10.79 2.78
 -6 4 -5 120.18 5.53
 -6 4 -4 38.16 3.55
 -6 5 -13 17.94 4.29
 -6 5 -12 12.76 3.95
 -6 5 -11 10.49 3.74
 -6 5 -10 34.13 4.66
 -6 5 -9 4.58 2.67
 -6 5 -8 10.12 3.05
 -6 5 -7 37.34 4.53
 -6 5 -6 9.6 3.07
 -6 5 -5 73.8 4.87
 -6 5 -4 7.69 2.81
 -6 6 -13 22.28 4.44
 -6 6 -12 5.52 3.23
 -6 6 -11 -0.81 2.79
 -6 6 -10 17.7 3.77
 -6 6 -8 1.01 3.27
 -6 6 -7 5.04 3
 -6 6 -6 17.73 3.54
 -6 6 -5 31.61 4.37
 -6 6 -4 41.56 4.33
 -6 7 -12 6.38 3.55
 -6 7 -10 1.7 3.01
 -6 7 -9 2.71 2.95
 -6 7 -8 2.72 2.96
 -6 7 -7 2.43 2.98
 -6 7 -6 130.67 7.09
 -6 7 -5 6.73 3.4
 -6 7 -4 12.23 3.85
 -6 8 -11 9.8 3.91
 -6 8 -10 -0.88 3.59
 -6 8 -8 85.81 6.42
 -6 8 -7 -0.2 2.86
 -6 8 -6 -1.47 2.68
 -6 8 -5 9.67 3.37
 -6 8 -4 58.07 5.48
 -6 9 -10 30.14 5.47
 -6 9 -9 -0.2 3.15
 -6 9 -8 3.95 3.24
 -6 9 -7 14.06 4.15
 -6 9 -6 30.67 5.04
 -6 9 -5 12.79 3.74
 -6 9 -4 -1.03 2.9
 -6 10 -8 17.81 4.56
 -6 10 -7 28.52 4.93
 -6 10 -6 17.89 4.85
 -6 10 -5 11.87 3.78
 -6 10 -3 13.36 3.86
 -6 11 -3 22.87 4.6
 -5 -2 -10 45.53 2.97
 -5 -2 -9 13.1 1.86
 -5 -2 -8 66.09 2.86
 -5 -2 -7 47.46 2.29
 -5 -2 -6 2.61 0.93
 -5 -2 -5 8.01 1.14
 -5 -2 -4 20.25 1.33
 -5 -2 -2 69.32 1.87
 -5 -2 -1 79.04 2.05
 -5 -1 -14 27.46 3.65
 -5 -1 -13 72.95 4.59
 -5 -1 -12 3.31 2.09
 -5 -1 -9 24.27 2.43
 -5 -1 -8 2.86 1.4
 -5 -1 -7 51.91 2.78
 -5 -1 -6 38.61 2.39
 -5 -1 -5 15.17 1.81
 -5 -1 -4 108.5 3.09
 -5 -1 -3 22.78 1.7
 -5 -1 -2 12.92 1.59
 -5 0 -16 3.11 2.63
 -5 0 -15 81.28 5.39
 -5 0 -14 90.53 5.52
 -5 0 -13 13.78 2.85
 -5 0 -12 54.22 4.2
 -5 0 -11 5.37 2.34
 -5 0 -8 2.74 1.8
 -5 0 -7 1.31 1.44
 -5 0 -6 6.54 1.7
 -5 0 -5 0.91 1.13
 -5 0 -4 0.2 1.19
 -5 0 -3 3.17 1.33
 -5 1 -16 20.38 3.85
 -5 1 -15 2.72 2.6
 -5 1 -13 81.07 5.23
 -5 1 -12 3.31 2.1
 -5 1 -11 118.48 5.47
 -5 1 -10 51.08 4.05
 -5 1 -7 53.76 3.29
 -5 1 -6 37.41 2.64
 -5 1 -4 105.7 3.9
 -5 2 -16 49.62 5.33
 -5 2 -14 61.49 5.24
 -5 2 -13 3.93 2.89
 -5 2 -12 16.08 3.33
 -5 2 -11 37.75 4.03
 -5 2 -10 50.66 4.08
 -5 2 -9 13.78 2.61
 -5 2 -5 6.48 2.07
 -5 3 -16 25.84 4.25
 -5 3 -15 11.85 3.83
 -5 3 -14 22.8 4.4
 -5 3 -13 6.9 2.97
 -5 3 -12 -0.31 2.58
 -5 3 -11 9.71 3.22
 -5 3 -10 16.48 3.1
 -5 3 -9 24.57 3.57
 -5 3 -8 81.06 4.64
 -5 4 -16 -0.97 3.04
 -5 4 -14 7.33 3.33
 -5 4 -13 -1.51 2.54
 -5 4 -12 4.4 2.87
 -5 4 -11 26.83 4.07
 -5 4 -10 11.05 3.13
 -5 4 -9 116.12 5.63
 -5 4 -8 5.58 2.36
 -5 4 -7 31.13 3.6
 -5 5 -15 17.46 4.52
 -5 5 -14 5.85 3.88
 -5 5 -13 31.16 4.81
 -5 5 -12 3.3 3.36
 -5 5 -11 2.54 3.34
 -5 5 -10 -2.37 2.36
 -5 5 -9 49.36 4.37
 -5 5 -7 146.87 6.38
 -5 5 -6 43.57 3.79
 -5 5 -5 55.73 4.01
 -5 6 -14 24.99 4.5
 -5 6 -13 32.98 4.79
 -5 6 -12 -2.66 2.55
 -5 6 -11 8.27 3.23
 -5 6 -10 12.23 3.24
 -5 6 -8 45.92 4.69
 -5 6 -7 6.9 2.77
 -5 6 -6 26.88 3.63
 -5 6 -5 123.36 6.23
 -5 7 -14 22.12 5.17
 -5 7 -13 -1.34 3.13
 -5 7 -11 22.8 4.09
 -5 7 -10 56.07 5.13
 -5 7 -9 89.65 5.88
 -5 7 -8 48.16 5.09
 -5 7 -7 46.48 4.9
 -5 7 -6 37.06 4.36
 -5 7 -5 27.54 3.7
 -5 8 -13 17.21 4.25
 -5 8 -12 12.14 4.24
 -5 8 -11 8.61 3.95
 -5 8 -10 41.18 5.47
 -5 8 -9 4.69 3.54
 -5 8 -8 72.04 5.84
 -5 8 -6 46.05 5.06
 -5 8 -5 16.79 3.67
 -5 9 -12 11.35 4.07
 -5 9 -11 15.13 4.37
 -5 9 -10 51.91 6.31
 -5 9 -9 23.69 4.45
 -5 9 -8 21.36 4.11
 -5 9 -7 -1.37 2.67
 -5 9 -6 29.62 4.37
 -5 9 -5 3.4 3.11
 -5 9 -4 13.48 3.78
 -5 10 -11 9.38 4.62
 -5 10 -10 3.31 3.56
 -5 10 -9 21.1 4.55
 -5 10 -8 30.49 5.2
 -5 10 -7 4.32 3.3
 -5 10 -6 21.95 4.18
 -5 10 -5 7.61 3.93
 -5 10 -4 32.73 4.69
 -5 11 -9 13.83 4.22
 -5 11 -8 28.83 5.25
 -5 11 -7 -1.26 3.21
 -5 11 -6 33.86 5.46
 -5 11 -5 18.78 4.2
 -5 11 -4 21.83 4.86
 -5 11 -3 13.2 3.87
 -5 12 -6 16.04 4.33
 -5 12 -5 25.08 4.73
 -5 12 -4 22.7 5.15
 -5 12 -3 13.16 4.31
 -4 -3 -13 32.3 3.34
 -4 -3 -11 2.83 1.58
 -4 -3 -9 33.28 2.36
 -4 -3 -8 19.39 1.8
 -4 -3 -7 74.7 2.51
 -4 -3 -6 253.44 3.8
 -4 -3 -5 290.19 3.33
 -4 -3 -4 79.84 1.32
 -4 -2 -16 13.51 3.36
 -4 -2 -15 6.85 2.43
 -4 -2 -14 13.23 2.94
 -4 -2 -13 10.83 2.5
 -4 -2 -11 1.71 1.93
 -4 -2 -10 42 2.89
 -4 -2 -9 27.26 2.3
 -4 -2 -8 0.67 1.09
 -4 -2 -7 102.34 3.2
 -4 -2 -6 32.31 1.88
 -4 -2 -5 193.31 3.55
 -4 -2 -4 188.17 3.15
 -4 -2 -3 62.36 1.7
 -4 -2 -2 521.71 4.23
 -4 -1 -18 8.4 3.22
 -4 -1 -17 4.92 3.39
 -4 -1 -16 16.53 3.62
 -4 -1 -15 24.43 3.58
 -4 -1 -14 6.18 2.54
 -4 -1 -13 14.59 2.78
 -4 -1 -12 55.35 3.99
 -4 -1 -10 49.61 3.29
 -4 -1 -9 128.29 4.52
 -4 -1 -7 95.77 3.47
 -4 -1 -6 128.05 3.69
 -4 -1 -5 99.77 2.97
 -4 -1 -4 77.71 2.49
 -4 -1 -3 36.88 1.8
 -4 0 -18 3.41 3.18
 -4 0 -17 -2.7 2.76
 -4 0 -16 1.28 3.13
 -4 0 -15 1.53 2.87
 -4 0 -14 6.93 2.82
 -4 0 -13 -1.93 1.84
 -4 0 -12 12.98 2.87
 -4 0 -9 83.36 4.08
 -4 0 -8 8 1.78
 -4 0 -7 126.79 4.16
 -4 0 -6 0.98 1.16
 -4 0 -5 39.82 2.31
 -4 0 -3 45.37 2.21
 -4 1 -18 18.25 4.67
 -4 1 -17 1.93 3.05
 -4 1 -16 20.94 3.83
 -4 1 -15 24.34 3.8
 -4 1 -14 8.09 3.09
 -4 1 -13 11.52 2.78
 -4 1 -12 55.73 4.33
 -4 1 -11 2.29 2.16
 -4 1 -8 284.15 6.78
 -4 1 -7 95.54 3.95
 -4 1 -6 127.47 4.17
 -4 1 -5 98.17 3.65
 -4 1 -4 71.91 2.97
 -4 2 -18 4.66 3.26
 -4 2 -17 4.09 3.28
 -4 2 -16 12.18 3.73
 -4 2 -15 10.79 3.15
 -4 2 -11 -1.75 2.04
 -4 2 -10 41.85 3.86
 -4 2 -8 0.85 1.78
 -4 2 -7 106.93 4.43
 -4 2 -6 28.94 2.77
 -4 2 -5 191.73 5.15
 -4 2 -4 181.03 4.89
 -4 3 -17 1.52 3.85
 -4 3 -16 -2.36 2.54
 -4 3 -15 14.34 4.03
 -4 3 -14 3.8 2.82
 -4 3 -13 27.58 3.9
 -4 3 -12 6.22 2.73
 -4 3 -10 23.99 3.44
 -4 3 -7 73.51 4.14
 -4 3 -6 251.08 6.5
 -4 3 -5 276.58 6.58
 -4 4 -17 -2.68 2.86
 -4 4 -16 8.42 3.68
 -4 4 -15 14.82 3.8
 -4 4 -13 8.66 3.17
 -4 4 -12 0.24 2.35
 -4 4 -11 -0.35 2.11
 -4 4 -10 2.73 2.25
 -4 4 -9 33.82 3.51
 -4 4 -8 36.18 3.56
 -4 5 -17 4.11 3.55
 -4 5 -16 23.71 4.43
 -4 5 -15 33.3 5.26
 -4 5 -14 5.69 3.21
 -4 5 -13 4.07 2.93
 -4 5 -12 6.62 3.02
 -4 5 -11 14.96 3.3
 -4 5 -10 2.85 2.75
 -4 5 -9 11.22 2.7
 -4 5 -8 13.83 3.1
 -4 6 -16 18.38 4.73
 -4 6 -15 7.98 3.6
 -4 6 -14 42.82 5.34
 -4 6 -13 14.58 3.93
 -4 6 -12 6.51 3.42
 -4 6 -11 7.52 3.21
 -4 6 -10 0.55 2.42
 -4 6 -9 7.13 2.75
 -4 6 -8 7.48 2.67
 -4 6 -6 0.99 1.97
 -4 6 -5 37.26 3.5
 -4 7 -15 58.81 7.05
 -4 7 -14 30.36 5
 -4 7 -12 8.57 3.49
 -4 7 -11 12.3 3.5
 -4 7 -10 81.46 5.75
 -4 7 -9 24.74 3.71
 -4 7 -8 3.02 2.5
 -4 7 -7 5.03 2.53
 -4 7 -6 70.75 5.08
 -4 7 -5 4.84 2.38
 -4 8 -15 7.71 3.93
 -4 8 -14 11.51 4.16
 -4 8 -13 24.5 4.78
 -4 8 -12 12.66 4.4
 -4 8 -10 20.03 3.82
 -4 8 -9 27.96 4.09
 -4 8 -8 144.12 7.21
 -4 8 -6 13.48 3
 -4 8 -5 68.31 4.86
 -4 9 -14 36.49 5.83
 -4 9 -13 6.83 3.78
 -4 9 -12 22.41 4.73
 -4 9 -11 1.5 3.85
 -4 9 -10 106.27 6.94
 -4 9 -8 54.27 5
 -4 9 -7 53 4.79
 -4 9 -6 46.38 4.6
 -4 9 -5 24.51 3.73
 -4 10 -12 4.43 4.17
 -4 10 -11 44.04 5.47
 -4 10 -10 10.52 3.71
 -4 10 -9 17.4 4.27
 -4 10 -8 4.96 3.55
 -4 10 -7 11.76 3.49
 -4 10 -6 76.25 5.69
 -4 10 -5 19.75 3.7
 -4 10 -4 40.16 5
 -4 11 -11 18.56 4.85
 -4 11 -10 15.76 4.26
 -4 11 -9 5.02 3.73
 -4 11 -8 30.63 4.88
 -4 11 -7 57.42 5.45
 -4 11 -6 28.75 4.8
 -4 11 -5 23.28 4.36
 -4 11 -4 1.34 2.8
 -4 12 -9 0.31 3.96
 -4 12 -8 20.6 4.36
 -4 12 -7 33.63 5.56
 -4 12 -6 47.84 5.31
 -4 12 -5 25.14 4.88
 -4 12 -4 38.27 5.02
 -4 12 -3 0.07 3.13
 -4 13 -6 2.16 3.35
 -4 13 -5 1.01 3.27
 -4 13 -4 3.69 3.81
 -4 13 -3 20.2 4.52
 -4 13 -2 0.35 3.17
 -4 14 -1 11.9 3.89
 -3 -3 -13 2.01 2.02
 -3 -3 -11 41.12 3.21
 -3 -3 -10 3.19 1.55
 -3 -3 -9 133.76 4.19
 -3 -3 -8 9.64 1.59
 -3 -3 -7 13.87 1.65
 -3 -3 -6 31.27 1.72
 -3 -3 -5 189.66 3.07
 -3 -3 -4 127.46 1.99
 -3 -2 -15 28.74 3.98
 -3 -2 -14 40.58 3.88
 -3 -2 -11 3.26 1.82
 -3 -2 -10 73.81 3.76
 -3 -2 -9 124.57 4.21
 -3 -2 -8 84.87 3.31
 -3 -2 -7 361.33 5.75
 -3 -2 -6 23.51 1.66
 -3 -2 -5 29.53 1.57
 -3 -2 -4 10.19 0.98
 -3 -2 -3 366.53 3.48
 -3 -2 -2 176.4 2.02
 -3 -2 -1 130.01 1.65
 -3 -1 -18 17.71 4.37
 -3 -1 -17 1.43 2.88
 -3 -1 -16 56.18 5.3
 -3 -1 -15 23.4 3.99
 -3 -1 -14 45.61 4.23
 -3 -1 -13 23.57 3.22
 -3 -1 -10 11.75 2.19
 -3 -1 -9 129.63 4.38
 -3 -1 -8 19.67 2.26
 -3 -1 -7 193.33 4.58
 -3 -1 -6 36.56 2.24
 -3 -1 -4 126.25 2.8
 -3 -1 -3 122.22 2.54
 -3 -1 -2 160.68 2.67
 -3 0 -19 33.43 4.94
 -3 0 -18 4.69 3.36
 -3 0 -17 12.78 3.86
 -3 0 -16 2.76 3.06
 -3 0 -15 73.14 5.57
 -3 0 -14 168.94 7.18
 -3 0 -13 12.17 3.02
 -3 0 -12 74.28 4.49
 -3 0 -9 704.08 10.33
 -3 0 -8 9.84 1.85
 -3 0 -7 0.07 1.15
 -3 0 -6 17.73 1.86
 -3 0 -5 -0.47 1.12
 -3 0 -4 0.8 0.91
 -3 0 -3 281.3 4.32
 -3 1 -19 2.02 3.64
 -3 1 -18 13.89 4.11
 -3 1 -17 4.63 3.28
 -3 1 -16 47.25 5.04
 -3 1 -15 16.26 3.39
 -3 1 -14 43.49 4.3
 -3 1 -13 20.53 3.33
 -3 1 -12 -0.1 1.85
 -3 1 -10 9.43 2.34
 -3 1 -9 136.26 4.89
 -3 1 -8 21.33 2.6
 -3 1 -7 190.97 5
 -3 1 -6 38.8 2.41
 -3 1 -5 262.13 5.17
 -3 1 -4 123.14 3.5
 -3 2 -18 6.55 3.47
 -3 2 -17 10.5 3.83
 -3 2 -16 32.26 4.84
 -3 2 -15 32.61 4.19
 -3 2 -14 36.24 4.41
 -3 2 -13 73.81 5.18
 -3 2 -12 20.6 3.4
 -3 2 -11 5.5 2.48
 -3 2 -9 116.95 4.8
 -3 2 -8 85.64 3.91
 -3 2 -7 351.62 7.15
 -3 2 -6 27.02 2.52
 -3 2 -5 31.45 2.52
 -3 2 -4 8.95 1.51
 -3 3 -18 13.24 4.05
 -3 3 -17 1.1 3.68
 -3 3 -16 4.04 3.23
 -3 3 -15 43.06 4.94
 -3 3 -13 0.6 2.42
 -3 3 -12 15.7 3.12
 -3 3 -7 14.59 2.36
 -3 3 -6 34.92 2.95
 -3 3 -5 190.93 5.17
 -3 4 -18 3.6 3.73
 -3 4 -17 7.75 3.63
 -3 4 -16 1.6 3.58
 -3 4 -15 10.92 3.38
 -3 4 -13 35.75 4.51
 -3 4 -12 12.35 2.91
 -3 4 -11 8.73 2.6
 -3 4 -10 20.55 3.32
 -3 4 -6 239.56 6.33
 -3 4 -5 3.75 1.54
 -3 5 -18 13.32 4.43
 -3 5 -17 11.45 3.92
 -3 5 -16 -2.22 3.17
 -3 5 -15 5.55 3.26
 -3 5 -14 79.95 6.22
 -3 5 -13 30.93 4.51
 -3 5 -12 8.56 3.15
 -3 5 -10 27.43 3.62
 -3 5 -9 40.79 3.81
 -3 5 -5 32.85 2.8
 -3 6 -17 6.2 3.74
 -3 6 -16 61.87 6.21
 -3 6 -14 13.28 4.19
 -3 6 -13 23.23 4.06
 -3 6 -12 8.79 3.13
 -3 6 -11 25.59 3.8
 -3 6 -10 97.98 5.59
 -3 6 -9 37.85 3.82
 -3 6 -7 26.32 2.93
 -3 7 -15 71.76 6.28
 -3 7 -14 54.27 5.95
 -3 7 -13 6.32 3.8
 -3 7 -12 22.93 4.05
 -3 7 -11 0.72 2.43
 -3 7 -10 65.95 5.2
 -3 7 -9 88.94 5.58
 -3 7 -7 40.36 4.04
 -3 7 -6 83.37 4.77
 -3 7 -5 45.9 3.65
 -3 8 -15 14.97 4.22
 -3 8 -14 10.53 4.36
 -3 8 -13 21.95 4.38
 -3 8 -11 14.52 3.57
 -3 8 -10 156.36 7.36
 -3 8 -9 5.21 2.68
 -3 8 -8 86.62 5.34
 -3 8 -7 34.55 4.29
 -3 8 -6 30.87 3.46
 -3 8 -5 25.3 3.58
 -3 9 -15 23.47 5.55
 -3 9 -14 18.06 4.45
 -3 9 -13 1.77 3.87
 -3 9 -12 0.99 3.12
 -3 9 -11 15.52 3.82
 -3 9 -10 10.1 3.27
 -3 9 -9 5.88 2.88
 -3 9 -8 92.52 5.7
 -3 9 -7 17.24 3.31
 -3 9 -6 24.3 3.67
 -3 9 -5 3.09 2.77
 -3 9 -4 -0.43 2.09
 -3 10 -14 4.04 3.72
 -3 10 -13 4.52 4.15
 -3 10 -11 3.33 3.37
 -3 10 -10 39.4 5.41
 -3 10 -9 16.65 3.91
 -3 10 -8 -1.93 2.44
 -3 10 -7 3.2 2.68
 -3 10 -6 28.85 4.17
 -3 10 -5 72.27 5.16
 -3 10 -4 15.75 3.3
 -3 11 -12 15.51 4.63
 -3 11 -11 26.6 4.96
 -3 11 -10 19.82 4.41
 -3 11 -9 13.03 4.32
 -3 11 -8 23.46 4.39
 -3 11 -6 11.34 3.58
 -3 11 -5 46.16 5.48
 -3 11 -4 7.54 3.19
 -3 12 -11 -0.81 3.27
 -3 12 -10 34.22 5.53
 -3 12 -8 6.76 3.69
 -3 12 -6 2.51 3.13
 -3 12 -4 5.95 3.09
 -3 12 -3 15.05 3.77
 -3 13 -9 17.72 4.66
 -3 13 -8 8.99 3.8
 -3 13 -7 6.11 4.18
 -3 13 -6 0.12 3.13
 -3 13 -5 93.14 6.84
 -3 13 -4 14.63 3.97
 -3 13 -3 11.92 3.66
 -3 13 -2 27.84 4.79
 -3 14 -5 -2.82 3.01
 -3 14 -4 9.73 3.8
 -3 14 -3 4.22 3.26
 -3 14 -2 0.8 3.79
 -3 14 -1 5.89 4.13
 -2 -3 -11 24.81 2.66
 -2 -3 -10 68.82 3.61
 -2 -3 -9 8.22 1.72
 -2 -3 -8 0.1 1.41
 -2 -3 -7 106.94 3.37
 -2 -3 -6 404.4 5.48
 -2 -3 -5 434.48 4.99
 -2 -2 -15 39.97 4.02
 -2 -2 -14 1.67 2.33
 -2 -2 -13 31.98 3.43
 -2 -2 -11 76.43 4.04
 -2 -2 -10 24.54 2.5
 -2 -2 -9 23.59 2.39
 -2 -2 -8 0.54 1.36
 -2 -2 -7 684.86 8.01
 -2 -2 -6 86.02 2.69
 -2 -2 -5 608.02 6.03
 -2 -2 -4 192.27 2.96
 -2 -2 -3 274.9 2.82
 -2 -1 -18 10.24 3.44
 -2 -1 -17 -2.77 2.77
 -2 -1 -16 29.96 4.2
 -2 -1 -15 114.59 6.43
 -2 -1 -14 1.95 2.35
 -2 -1 -11 37.91 3.13
 -2 -1 -10 78.84 3.88
 -2 -1 -9 152.18 4.8
 -2 -1 -8 156.9 4.49
 -2 -1 -7 44.27 2.45
 -2 -1 -6 53.13 2.47
 -2 -1 -5 508.25 5.84
 -2 -1 -4 96.02 2.4
 -2 -1 -3 303.37 3.46
 -2 -1 -2 777.65 4.64
 -2 0 -19 1.47 3.72
 -2 0 -18 25.33 4.79
 -2 0 -17 1.28 2.83
 -2 0 -16 2.21 2.98
 -2 0 -15 11.02 2.96
 -2 0 -14 1.09 2.22
 -2 0 -13 16.08 3.01
 -2 0 -10 21.86 2.61
 -2 0 -9 8.8 1.8
 -2 0 -8 0.95 1.34
 -2 0 -7 2.15 1.29
 -2 0 -6 77.79 2.98
 -2 0 -5 73.25 2.64
 -2 0 -3 267.14 3.79
 -2 1 -18 13.32 3.93
 -2 1 -17 -1.12 2.83
 -2 1 -16 20.83 4.01
 -2 1 -15 114.6 6.62
 -2 1 -14 2.41 2.7
 -2 1 -13 3.41 2.42
 -2 1 -10 87.5 4.2
 -2 1 -9 153.59 5.14
 -2 1 -8 160.49 4.81
 -2 1 -7 48.37 2.65
 -2 1 -6 53.34 2.62
 -2 1 -5 502.39 6.61
 -2 1 -4 96.86 2.94
 -2 1 -3 316.26 4.67
 -2 2 -19 2.29 3.86
 -2 2 -18 8.91 3.76
 -2 2 -17 30.73 4.73
 -2 2 -16 6.44 3.27
 -2 2 -15 47.76 4.98
 -2 2 -14 1.93 2.91
 -2 2 -10 25.16 2.97
 -2 2 -9 24.92 2.62
 -2 2 -8 1.43 1.53
 -2 2 -7 700.05 9.41
 -2 2 -6 88.29 3.34
 -2 2 -5 606.65 7.75
 -2 3 -18 23.47 4.61
 -2 3 -17 21.79 4.28
 -2 3 -16 8.93 3.72
 -2 3 -15 64.89 5.57
 -2 3 -14 3.67 2.57
 -2 3 -13 25.72 3.79
 -2 3 -12 37.95 3.67
 -2 3 -11 29.93 3.23
 -2 3 -8 2.34 1.58
 -2 3 -7 106.54 4.21
 -2 3 -6 408.56 7.27
 -2 3 -5 440.53 7.14
 -2 3 -4 23.94 2.22
 -2 4 -19 6.73 4.69
 -2 4 -18 2.11 3.6
 -2 4 -17 -1.41 3.02
 -2 4 -16 12.64 3.65
 -2 4 -14 42.35 5.06
 -2 4 -13 73.35 5.28
 -2 4 -12 12.75 2.95
 -2 4 -11 44.21 3.79
 -2 4 -8 20.03 2.53
 -2 4 -7 124.55 4.64
 -2 4 -6 9.12 1.76
 -2 5 -18 1.78 3.82
 -2 5 -17 29.67 4.75
 -2 5 -16 53.03 5.43
 -2 5 -15 12.62 3.8
 -2 5 -14 0.18 2.57
 -2 5 -13 40.42 4.95
 -2 5 -12 13.88 3.29
 -2 5 -11 1.19 1.91
 -2 5 -10 17.52 2.96
 -2 5 -5 232.6 5.94
 -2 6 -18 -0.57 3.5
 -2 6 -17 17.36 4.68
 -2 6 -16 -1.1 3.05
 -2 6 -15 10.99 3.81
 -2 6 -13 4.83 3.33
 -2 6 -12 3.71 2.62
 -2 6 -11 37.98 3.91
 -2 6 -10 38.98 4.05
 -2 6 -9 69.79 4.59
 -2 6 -6 137.18 5.28
 -2 6 -5 187.45 5.71
 -2 7 -17 13.61 4.36
 -2 7 -16 9.95 3.97
 -2 7 -15 14.03 4.19
 -2 7 -14 3.44 3.24
 -2 7 -13 69.6 5.72
 -2 7 -12 11.65 3.64
 -2 7 -11 0.83 2.77
 -2 7 -9 40.53 3.99
 -2 7 -8 33.89 3.45
 -2 7 -4 10.75 2.12
 -2 8 -16 4.24 3.63
 -2 8 -15 16.92 4.67
 -2 8 -14 17.98 4.16
 -2 8 -13 26.03 4.6
 -2 8 -12 15.45 3.7
 -2 8 -11 5.79 2.84
 -2 8 -9 20.31 3.37
 -2 8 -8 59.47 4.81
 -2 8 -7 44.94 3.87
 -2 8 -6 17.05 3.05
 -2 9 -15 -3.62 3.04
 -2 9 -14 8.38 4.36
 -2 9 -13 15.6 4
 -2 9 -12 3.02 3.47
 -2 9 -11 4.49 3.4
 -2 9 -10 30.01 4.06
 -2 9 -9 77.85 5.29
 -2 9 -8 144.43 6.72
 -2 9 -7 21.19 3.58
 -2 9 -6 11.44 2.75
 -2 9 -5 7 2.49
 -2 10 -14 14.95 4.8
 -2 10 -13 5.79 3.49
 -2 10 -12 11.49 4.15
 -2 10 -11 19.45 4.05
 -2 10 -10 44.08 4.96
 -2 10 -9 86.67 6.15
 -2 10 -8 5.01 2.98
 -2 10 -7 3.66 2.69
 -2 10 -6 42.94 4.3
 -2 10 -5 108.12 5.68
 -2 10 -4 6.6 2.62
 -2 11 -13 3.09 3.88
 -2 11 -12 -0.26 3.27
 -2 11 -11 1.01 3.38
 -2 11 -10 21.89 4.26
 -2 11 -8 97.82 6.49
 -2 11 -7 18.59 4.11
 -2 11 -6 21.49 3.85
 -2 11 -5 12.75 3.3
 -2 11 -4 12.38 3.2
 -2 11 -3 60.48 4.99
 -2 12 -12 5.14 3.59
 -2 12 -11 4.61 3.76
 -2 12 -10 2.27 3.26
 -2 12 -8 73.73 6.24
 -2 12 -7 9.53 3.38
 -2 12 -6 6.72 3.36
 -2 12 -5 93.5 6.33
 -2 12 -4 15.99 3.43
 -2 12 -3 15.28 3.37
 -2 12 -2 70.87 5.64
 -2 13 -9 3.7 3.32
 -2 13 -8 3.86 3.36
 -2 13 -7 15.59 3.78
 -2 13 -6 4.88 3.43
 -2 13 -5 19.01 3.72
 -2 13 -3 24.61 4.12
 -2 13 -2 3.05 3.05
 -2 14 -7 6.16 3.28
 -2 14 -6 22.61 4.37
 -2 14 -5 8.25 3.68
 -2 14 -4 49.27 5.42
 -2 14 -3 5 3.08
 -2 14 -2 30.82 4.79
 -2 14 -1 8.46 3.42
 -2 15 -3 18.46 4
 -2 15 -2 31.68 4.47
 -2 15 -1 -0.8 2.65
 -2 15 0 14.28 3.56
 -2 15 1 4.49 2.97
 -1 -2 -14 30.51 3.81
 -1 -2 -13 83.41 5.18
 -1 -2 -11 126.86 5.21
 -1 -2 -10 20.56 2.54
 -1 -2 -9 143.79 4.66
 -1 -2 -8 108.8 3.85
 -1 -2 -7 1007.68 10.08
 -1 -2 -5 140.82 3.27
 -1 -2 -3 1001.96 5.95
 -1 -1 -17 -0.18 2.83
 -1 -1 -16 0.99 2.75
 -1 -1 -15 49.82 4.88
 -1 -1 -14 4.67 2.67
 -1 -1 -13 5.08 2.67
 -1 -1 -11 23.56 3.08
 -1 -1 -9 529.61 8.76
 -1 -1 -8 82.73 3.55
 -1 -1 -7 120.44 3.71
 -1 -1 -6 612.86 7.17
 -1 -1 -5 356.52 4.93
 -1 -1 -4 231.38 3.53
 -1 -1 -3 273.82 3.17
 -1 -1 -2 3871.15 9.07
 -1 0 -18 29.2 4.97
 -1 0 -17 12.8 3.61
 -1 0 -16 7.54 3.67
 -1 0 -15 7.84 2.89
 -1 0 -14 55.28 4.63
 -1 0 -13 26.07 3.53
 -1 0 -11 4.64 2.13
 -1 0 -10 15.67 2.28
 -1 0 -9 245.64 5.97
 -1 0 -8 0.48 1.29
 -1 0 -7 18.8 1.82
 -1 0 -6 109.04 3.33
 -1 0 -5 5.71 1.22
 -1 0 -4 34.52 1.84
 -1 0 -3 381.24 4.11
 -1 0 -2 1310.07 6.07
 -1 1 -20 28.26 5.05
 -1 1 -17 2.99 3.19
 -1 1 -16 -0.8 3.24
 -1 1 -15 43.32 4.45
 -1 1 -14 4.09 2.49
 -1 1 -13 5.72 2.61
 -1 1 -10 16.13 2.32
 -1 1 -9 535.96 9.04
 -1 1 -8 78.88 3.44
 -1 1 -7 127.92 3.91
 -1 1 -6 618.73 7.68
 -1 1 -5 375.25 5.54
 -1 1 -4 238.17 4.02
 -1 1 -3 287.27 4.01
 -1 1 -2 3875.85 12.48
 -1 2 -19 2.5 3.65
 -1 2 -18 1.14 3.97
 -1 2 -17 14.26 3.77
 -1 2 -15 2.81 2.59
 -1 2 -14 37.88 4.36
 -1 2 -13 80.13 5.18
 -1 2 -12 7.8 2.44
 -1 2 -9 142.16 4.89
 -1 2 -6 18.85 1.84
 -1 2 -5 148.39 3.76
 -1 2 -4 117.17 3.1
 -1 2 -3 1038.86 8.19
 -1 3 -19 27.68 5.56
 -1 3 -18 10.86 3.82
 -1 3 -16 103.16 6.53
 -1 3 -15 234.92 8.72
 -1 3 -14 5.97 2.54
 -1 3 -12 7.07 2.56
 -1 3 -10 0.15 2.01
 -1 3 -9 749.46 11.4
 -1 3 -5 388.39 6.24
 -1 4 -19 8.52 4.33
 -1 4 -18 12.99 4.21
 -1 4 -17 23.26 4.61
 -1 4 -16 -1.35 2.88
 -1 4 -14 224.25 8.32
 -1 4 -11 14.15 2.58
 -1 4 -9 3.41 1.71
 -1 4 -8 23.3 2.6
 -1 4 -4 210.85 4.84
 -1 5 -19 4.79 4.24
 -1 5 -18 1.33 3.81
 -1 5 -17 0.38 3.35
 -1 5 -15 71.12 5.59
 -1 5 -14 92.27 6.05
 -1 5 -13 76.35 5.52
 -1 5 -12 1.85 2.06
 -1 5 -11 36.07 3.57
 -1 5 -7 6.62 1.76
 -1 5 -6 104.22 4.1
 -1 5 -5 32.85 2.6
 -1 6 -18 0.89 3.55
 -1 6 -17 11.63 4.32
 -1 6 -16 15.97 4.62
 -1 6 -15 69.34 5.84
 -1 6 -14 16.02 3.59
 -1 6 -13 0.44 2.76
 -1 6 -11 8.41 2.69
 -1 6 -7 176.64 5.72
 -1 6 -6 58.11 3.5
 -1 6 -5 10.2 1.87
 -1 6 -4 130.73 4.37
 -1 7 -17 4.02 3.92
 -1 7 -16 2.24 3.18
 -1 7 -15 26.84 4.45
 -1 7 -14 25.24 4.73
 -1 7 -13 4.97 2.92
 -1 7 -12 4.25 3.28
 -1 7 -11 11.8 2.93
 -1 7 -10 3.77 2.3
 -1 7 -9 30.83 3.38
 -1 7 -6 150.89 5.38
 -1 7 -5 4.85 1.79
 -1 7 -4 249.89 6.31
 -1 8 -16 -0.12 3.45
 -1 8 -15 10.66 3.86
 -1 8 -13 -0.33 2.66
 -1 8 -12 21.45 4.11
 -1 8 -11 48.75 4.58
 -1 8 -10 65.29 4.81
 -1 8 -9 3.13 2.21
 -1 8 -8 13.35 2.68
 -1 8 -7 104.47 5.32
 -1 9 -16 3.65 3.62
 -1 9 -15 14.4 4.57
 -1 9 -14 3.07 3.39
 -1 9 -13 8.85 3.6
 -1 9 -12 3.58 3.15
 -1 9 -11 31.82 4.98
 -1 9 -10 171.09 7.42
 -1 9 -9 -1.2 2.18
 -1 9 -8 52.2 4.2
 -1 9 -7 57.13 4.32
 -1 9 -6 14.44 2.99
 -1 10 -15 4.03 3.92
 -1 10 -13 2.91 3.44
 -1 10 -12 38.87 5.18
 -1 10 -11 7.75 3.53
 -1 10 -10 89.07 5.92
 -1 10 -9 10.13 3.32
 -1 10 -8 164.15 7.29
 -1 10 -7 1.76 2.55
 -1 10 -6 15.72 3
 -1 10 -5 81.2 4.79
 -1 10 -4 18.68 3.21
 -1 10 -3 32.56 3.32
 -1 11 -14 -0.98 3.62
 -1 11 -13 2.86 3.49
 -1 11 -12 14.76 4.37
 -1 11 -11 20.91 4.18
 -1 11 -10 85.84 6.45
 -1 11 -9 4.18 2.99
 -1 11 -7 142.37 6.96
 -1 11 -6 15.13 3.48
 -1 11 -5 35.99 4.34
 -1 11 -4 13.21 3.29
 -1 11 -3 2.25 2.27
 -1 11 -2 12.06 2.69
 -1 12 -12 16.76 4.63
 -1 12 -11 -2.1 2.86
 -1 12 -10 3.61 3.49
 -1 12 -9 2.24 3.07
 -1 12 -8 47.15 5.61
 -1 12 -7 36.63 4.46
 -1 12 -6 10.58 3.24
 -1 12 -5 15.75 3.75
 -1 12 -4 19.14 3.51
 -1 12 -3 8.16 2.89
 -1 12 -2 36.41 4.29
 -1 13 -10 18.32 4.17
 -1 13 -9 3.46 3.3
 -1 13 -8 4.69 3.18
 -1 13 -7 3.71 2.87
 -1 13 -6 3.97 3.02
 -1 13 -5 20.76 3.82
 -1 13 -4 2.09 2.67
 -1 13 -3 3.68 3.14
 -1 13 -2 -0.44 2.27
 -1 13 -1 47.26 4.56
 -1 14 -8 1.57 3.15
 -1 14 -7 16.18 3.75
 -1 14 -6 13.26 3.62
 -1 14 -5 165.27 7.66
 -1 14 -4 8.83 2.87
 -1 14 -3 6.27 3.02
 -1 14 -2 2.52 2.3
 0 -2 -10 51.8 3.4
 0 -2 -9 90.82 4.19
 0 -2 -8 1.47 1.44
 0 -2 -7 1532.39 13.07
 0 -2 -6 481.5 6.84
 0 -1 -15 1.7 2.6
 0 -1 -14 5.38 2.59
 0 -1 -13 0.69 2.48
 0 -1 -11 49.51 3.82
 0 -1 -10 56.68 3.5
 0 -1 -9 24.22 2.39
 0 -1 -8 1.2 1.33
 0 -1 -7 49.88 2.59
 0 -1 -6 113.15 3.4
 0 -1 -5 1425.78 10.23
 0 -1 -4 1930.79 10.54
 0 -1 -3 562.47 5.02
 0 0 -17 1.38 3.51
 0 0 -16 30.85 4.69
 0 0 -15 -1.5 2.61
 0 0 -13 -0.33 2.2
 0 0 -11 1.27 2
 0 0 -10 352.74 7.83
 0 0 -9 -0.02 1.37
 0 0 -8 9.16 1.69
 0 0 -7 1.55 1.15
 0 0 -6 544.78 7.08
 0 0 -5 0.44 1.26
 0 0 -4 1820.58 10.06
 0 0 -3 0.27 0.74
 0 0 -2 1585.87 6.39
 0 1 -18 19.24 4.51
 0 1 -17 2.89 3.28
 0 1 -16 17.5 3.79
 0 1 -15 2.42 2.97
 0 1 -14 5.48 2.52
 0 1 -13 4.93 2.14
 0 1 -10 59.71 3.46
 0 1 -6 112.62 3.35
 0 1 -5 1454.14 10.52
 0 1 -4 1878.07 10.56
 0 1 -2 4117.61 11.06
 0 1 -1 20.26 0.89
 0 2 -18 3.29 3.64
 0 2 -17 52.8 5.42
 0 2 -16 -0.24 2.72
 0 2 -15 23.06 3.78
 0 2 -14 44.61 4.44
 0 2 -13 13.58 2.76
 0 2 -12 8.22 2.21
 0 2 -10 43.69 3.09
 0 2 -4 1239.07 9.05
 0 2 -3 428.67 4.83
 0 3 -19 3.16 4
 0 3 -18 3.37 3.92
 0 3 -17 2.38 3.19
 0 3 -16 7.65 3.56
 0 3 -15 17.77 3.41
 0 3 -14 26.34 3.8
 0 3 -13 26.16 3.55
 0 3 -12 125.81 5.74
 0 3 -10 90.3 4.41
 0 3 -9 10.95 2
 0 3 -8 108.09 4.27
 0 3 -6 223.76 4.97
 0 3 -3 953.04 7.73
 0 3 -2 343.13 4.34
 0 4 -19 4.23 3.96
 0 4 -18 20.9 4.79
 0 4 -17 6.85 4.11
 0 4 -16 5.21 3.28
 0 4 -15 109.84 6.38
 0 4 -14 18.33 3.41
 0 4 -13 173.74 7.26
 0 4 -12 77.67 5.03
 0 4 -8 0.04 1.45
 0 4 -7 28.97 2.41
 0 4 -4 15.89 1.59
 0 4 -3 1143.68 9.29
 0 5 -19 3.14 3.81
 0 5 -18 0.6 3.72
 0 5 -17 16.24 4.74
 0 5 -16 28.41 4.54
 0 5 -15 51.08 5.15
 0 5 -14 2.52 2.74
 0 5 -13 15.94 3.21
 0 5 -12 70.38 5.07
 0 5 -11 -0.02 1.8
 0 5 -9 10.28 2.18
 0 5 -8 741.53 11.08
 0 5 -7 14.73 2.21
 0 5 -6 51.25 2.99
 0 5 -3 57.36 2.67
 0 6 -18 4.83 3.81
 0 6 -17 3.08 3.33
 0 6 -16 7.82 3.39
 0 6 -15 26.52 4.45
 0 6 -14 -1.16 2.46
 0 6 -12 7.49 3.05
 0 6 -11 9.36 2.5
 0 6 -10 28.96 3.61
 0 6 -8 18.24 2.56
 0 6 -7 243.11 6.47
 0 6 -6 484.36 8.45
 0 6 -5 256.86 5.85
 0 6 -4 34.74 2.38
 0 6 -3 15.96 2.02
 0 7 -18 5.67 4.5
 0 7 -17 3.36 4.08
 0 7 -16 -2.5 3.36
 0 7 -15 -0.82 3.4
 0 7 -14 8.66 3.71
 0 7 -13 1.59 2.7
 0 7 -12 -0.33 2.27
 0 7 -10 1.71 2.16
 0 7 -6 16.29 2.32
 0 7 -4 2.45 1.74
 0 7 -3 380.8 7.03
 0 8 -17 4.05 3.76
 0 8 -16 8.52 3.88
 0 8 -15 20.54 4.55
 0 8 -14 -1.04 3.35
 0 8 -13 15.42 3.9
 0 8 -12 4.89 2.9
 0 8 -11 12.1 3.41
 0 8 -10 16.04 3.08
 0 8 -9 15.96 3.07
 0 8 -8 9.51 2.52
 0 8 -5 40.87 3.01
 0 8 -4 2.85 1.6
 0 8 -3 40.93 2.79
 0 8 -2 447.93 7.93
 0 9 -16 11.6 4.26
 0 9 -15 2.9 3.24
 0 9 -14 5.35 3.21
 0 9 -13 13.36 3.54
 0 9 -12 2.12 3.38
 0 9 -11 0.88 2.48
 0 9 -9 18.1 3.32
 0 9 -8 155.34 6.26
 0 9 -7 2.9 2.09
 0 9 -4 25.25 3
 0 9 -2 11.55 2.08
 0 10 -15 30.46 4.99
 0 10 -14 13.39 3.84
 0 10 -13 -2.24 3.05
 0 10 -12 10.75 3.71
 0 10 -10 107.34 6.52
 0 10 -9 70.08 4.98
 0 10 -8 2.14 2.6
 0 10 -7 0.58 2.35
 0 10 -6 15.92 3.14
 0 10 -5 41.77 3.7
 0 11 -14 85.78 6.88
 0 11 -13 0.38 2.99
 0 11 -12 11.22 3.65
 0 11 -11 29.65 4.71
 0 11 -10 70.46 5.66
 0 11 -9 -3.01 2.6
 0 11 -8 98.28 5.68
 0 11 -7 4.41 2.66
 0 11 -6 0.08 2.57
 0 11 -5 2.67 2.41
 0 11 -4 3.93 2.4
 0 11 -3 30.29 3.51
 0 12 -11 4.42 3.23
 0 12 -10 11.57 3.66
 0 12 -9 14.73 3.65
 0 12 -8 27.11 4.08
 0 12 -7 12.07 3.1
 0 12 -6 3.77 2.39
 0 12 -5 74.36 4.9
 0 12 -4 21.8 3.22
 0 12 -3 60.42 4.25
 0 12 -2 58.78 4.08
 0 12 0 -0.95 1.46
 0 13 -11 5.57 3.81
 0 13 -9 4.51 2.77
 0 13 -8 11.12 2.96
 0 13 -6 -1.06 1.88
 0 13 -3 2.11 1.76
 0 13 -2 -0.68 1.34
 0 13 0 0.93 1.37
 1 -1 -9 530.53 9.22
 1 0 -14 60.49 4.71
 1 0 -13 22 3.58
 1 0 -10 12.82 2.27
 1 0 -6 113.4 3.71
 1 0 -5 3.96 1.24
 1 0 -3 377.28 4.58
 1 1 -16 2.17 2.79
 1 1 -15 48.06 4.62
 1 1 -14 6.65 2.54
 1 1 -13 3.32 2.04
 1 1 -12 46.96 4.15
 1 1 -10 15.85 2.34
 1 1 -5 359.41 5.41
 1 1 -4 240.27 4.13
 1 1 -3 274.34 3.69
 1 1 -2 3902.29 11.33
 1 1 -1 241.07 2.21
 1 2 -18 -2.07 3.18
 1 2 -17 17.23 4.21
 1 2 -16 8.67 3.81
 1 2 -15 3.7 3.07
 1 2 -14 28.35 4
 1 2 -13 83.94 5.37
 1 2 -12 6.36 2.29
 1 2 -9 147.57 5.04
 1 2 -8 105.71 3.97
 1 2 -6 16.61 1.7
 1 2 -5 148.3 3.65
 1 2 -4 116.67 2.89
 1 2 -3 1026.34 7.16
 1 2 -2 136.44 2.34
 1 2 -1 342.78 2.74
 1 3 -19 32.29 5.51
 1 3 -18 13.3 4.39
 1 3 -17 -1.85 2.64
 1 3 -16 102.83 6.77
 1 3 -15 238.02 9.2
 1 3 -13 10.99 2.79
 1 3 -12 6.96 2.52
 1 3 -10 1.27 1.66
 1 3 -7 61.39 2.93
 1 3 -5 386.61 5.93
 1 3 -4 404.03 5.47
 1 3 -3 54.87 1.95
 1 3 -2 422.07 4.23
 1 3 -1 122.76 2.02
 1 4 -19 4.05 4.15
 1 4 -18 8.36 3.98
 1 4 -17 19.49 4.37
 1 4 -16 1.58 3.2
 1 4 -15 42.45 4.61
 1 4 -13 57.25 4.46
 1 4 -12 112.5 5.74
 1 4 -9 2.61 1.58
 1 4 -8 20.08 2.54
 1 4 -7 51.2 2.93
 1 4 -6 121.93 3.98
 1 4 -4 204.12 4.16
 1 4 -2 100.17 2.36
 1 4 -1 87.35 2.06
 1 5 -18 4.38 3.77
 1 5 -17 4.22 3.51
 1 5 -16 51.46 5.71
 1 5 -15 79.11 6.31
 1 5 -14 84.49 5.62
 1 5 -13 79.34 5.44
 1 5 -12 2.88 2.28
 1 5 -8 125.17 4.74
 1 5 -7 5.78 1.77
 1 5 -6 103.1 3.9
 1 5 -5 29.34 2.11
 1 5 -3 307.37 4.9
 1 5 -2 508.31 5.73
 1 5 -1 33.87 1.65
 1 6 -16 21.76 4.81
 1 6 -15 64.93 5.67
 1 6 -14 11.07 3.38
 1 6 -13 4.19 2.9
 1 6 -11 9.91 2.67
 1 6 -8 56.95 3.56
 1 6 -7 179.61 5.56
 1 6 -6 55.77 3.29
 1 6 -4 138.77 3.92
 1 7 -17 -0.35 3.32
 1 7 -16 6.67 3.73
 1 7 -15 23.51 4.5
 1 7 -14 22.7 4.15
 1 7 -13 2.41 2.7
 1 7 -12 1.73 2.31
 1 7 -11 6.32 2.49
 1 7 -10 5.1 2.25
 1 7 -7 58.42 3.73
 1 7 -6 149.97 4.96
 1 7 -3 22.35 1.98
 1 7 -2 37.18 2.13
 1 7 -1 116.39 3.35
 1 8 -17 54.01 6.51
 1 8 -16 3.73 3.53
 1 8 -15 8.55 4.04
 1 8 -14 36.88 5.06
 1 8 -13 3.36 2.8
 1 8 -12 21.75 3.59
 1 8 -11 49.6 4.44
 1 8 -10 62.5 4.81
 1 8 -9 4.53 2.43
 1 8 -6 34.69 3
 1 8 -5 28.87 2.43
 1 8 -4 112.02 4.03
 1 8 -3 10.85 1.66
 1 8 -2 48.73 2.56
 1 8 -1 208.81 4.73
 1 9 -16 3.9 3.44
 1 9 -15 17.57 4.11
 1 9 -14 5.78 3.27
 1 9 -13 6.72 3.11
 1 9 -12 -3.15 2.35
 1 9 -11 24.85 3.86
 1 9 -10 176 6.99
 1 9 -9 3.15 2.19
 1 9 -8 61.8 4.37
 1 9 -5 22.18 2.62
 1 9 -4 113.54 4.35
 1 9 -3 68.04 3.37
 1 9 -1 67.64 3.14
 1 10 -15 3.29 3.4
 1 10 -14 44.09 5.41
 1 10 -13 1.85 2.85
 1 10 -11 5.07 2.73
 1 10 -10 89.58 5.41
 1 10 -9 12.45 2.89
 1 10 -8 163.11 6.57
 1 10 -7 0.81 1.8
 1 10 -4 17.63 2.3
 1 10 -3 36.65 2.84
 1 10 -2 26.47 2.28
 1 10 -1 19.45 2.04
 1 10 0 -0.39 0.99
 1 11 -14 -2.99 2.86
 1 11 -13 8.6 3.41
 1 11 -12 13.93 3.69
 1 11 -11 16.23 3.65
 1 11 -8 38.83 3.63
 1 12 -11 1.99 2.36
 1 12 -10 1.57 2.2
 1 12 -9 1.82 1.96
 2 1 -10 78 4.27
 2 1 -9 150.46 5.24
 2 1 -5 505.99 6.87
 2 2 -15 42.95 4.71
 2 2 -14 1.82 2.47
 2 2 -13 37.93 4.47
 2 2 -12 16.47 2.99
 2 2 -9 22.15 2.65
 2 2 -8 -0.17 1.37
 2 2 -7 668.2 9.26
 2 2 -5 601.08 7.37
 2 2 -3 280.75 4
 2 3 -16 10.71 3.69
 2 3 -15 70.15 5.55
 2 3 -14 5.86 2.89
 2 3 -13 26.67 3.92
 2 3 -12 37.35 3.63
 2 3 -9 7.76 1.97
 2 3 -8 1.23 1.49
 2 3 -7 104.7 4
 2 3 -4 20.04 1.53
 2 3 -3 365.58 4.54
 2 3 -2 174.67 2.69
 2 3 -1 234.61 2.34
 2 4 -17 5.05 3.76
 2 4 -16 13.72 4.31
 2 4 -15 64.41 5.91
 2 4 -13 69.45 5.33
 2 4 -12 12.95 2.95
 2 4 -9 101.01 4.4
 2 4 -8 21.2 2.53
 2 4 -7 131.18 4.38
 2 4 -6 9.73 1.52
 2 4 -4 215.9 4.07
 2 4 -3 233.59 3.75
 2 4 -2 384.76 4.06
 2 4 -1 45.75 1.18
 2 5 -18 4.35 3.79
 2 5 -17 30.73 5.09
 2 5 -16 54.74 6.29
 2 5 -15 10.26 3.81
 2 5 -14 0.94 2.75
 2 5 -13 42.16 4.58
 2 5 -12 18.23 3.15
 2 5 -11 2.05 2.02
 2 5 -9 1.79 1.61
 2 5 -8 213.26 5.96
 2 5 -7 92.29 3.86
 2 5 -6 193.75 4.84
 2 5 -5 222.04 4.7
 2 5 -3 66.32 2.24
 2 5 -2 187.93 3.14
 2 5 -1 53.92 1.52
 2 5 0 67.17 1.36
 2 5 1 51.48 1
 2 6 -18 0.41 3.72
 2 6 -17 14.09 4.47
 2 6 -16 4.23 3.31
 2 6 -15 12.68 3.59
 2 6 -14 67.29 5.75
 2 6 -13 0.48 2.54
 2 6 -12 0.78 2.17
 2 6 -11 34.14 3.89
 2 6 -8 7.72 2.03
 2 6 -7 210.18 5.57
 2 6 -6 140.82 4.4
 2 6 -5 195.46 4.66
 2 6 -4 45.12 2.29
 2 6 -1 37.71 1.49
 2 7 -17 11.3 4.21
 2 7 -16 5.54 3.4
 2 7 -14 2.62 2.77
 2 7 -13 72.04 5.52
 2 7 -12 12.98 3.26
 2 7 -11 1.1 2.05
 2 7 -10 67.49 4.6
 2 7 -8 38.69 3.29
 2 7 -7 1.68 1.41
 2 7 -6 1.98 1.29
 2 7 -5 150.56 4.35
 2 7 -4 15.11 1.75
 2 7 -2 19.86 1.48
 2 8 -16 4.58 3.26
 2 8 -14 23.51 4.01
 2 8 -12 20.22 3.65
 2 8 -11 7.18 2.73
 2 8 -10 48.53 4.03
 2 8 -9 18.92 2.92
 2 8 -7 39.45 3.01
 2 8 -6 19.68 2.45
 2 8 -4 12.64 1.77
 2 8 -3 113.99 3.46
 2 8 -2 119.7 3.25
 2 8 -1 114.62 2.94
 2 8 0 50.34 1.86
 2 9 -15 4.32 3.23
 2 9 -14 18.03 4.32
 2 9 -13 14.37 3.41
 2 9 -12 2.92 2.93
 2 9 -11 5.07 2.29
 2 9 -10 20.33 3.11
 2 9 -9 84.38 4.66
 2 9 -6 3.31 1.44
 2 10 -14 15.22 3.48
 2 10 -13 2 2.33
 2 10 -12 -0.82 2.08
 2 10 -8 0.51 1.26
 3 3 -11 42.33 3.76
 3 3 -9 129.49 5.05
 3 3 -8 9.45 1.95
 3 3 -7 11.53 1.85
 3 4 -13 28.87 4.08
 3 4 -12 12.82 2.97
 3 4 -11 5.38 2.41
 3 4 -9 71.97 4.12
 3 4 -8 16.78 2.34
 3 4 -7 91.84 3.78
 3 4 -6 236.71 5.27
 3 4 -5 2.35 1.07
 3 5 -14 80.67 6.12
 3 5 -13 30.79 4.08
 3 5 -12 5.23 2.97
 3 5 -11 42.12 4.14
 3 5 -8 17.22 2.38
 3 5 -7 20.61 2.22
 3 5 -6 141.86 4.19
 3 5 -5 37.1 2.14
 3 6 -15 91.75 6.73
 3 6 -14 11.42 3.4
 3 6 -13 16.5 3.63
 3 6 -12 4.11 2.86
 3 6 -11 21.26 3.09
 3 6 -8 126.31 4.74
 3 6 -7 27.19 2.49
 3 6 -6 102.81 3.64
 3 6 -5 55.28 2.52
 3 6 -4 82.43 2.64
 3 6 -2 44.99 1.38
 3 7 -16 4.32 3.81
 3 7 -13 2.7 2.61
 3 7 -12 19.82 3.28
 3 7 -11 -0.86 2.05
 3 7 -10 64.46 4.17
 3 7 -8 147.79 5.02
 3 7 -7 41.43 2.63
 3 8 -15 19.24 3.82
 3 8 -14 17.16 3.32
 1 -4 2 98.65 2.06
 1 -4 3 50.16 1.3
 1 -4 6 118.48 1.74
 1 -3 -1 123.31 2.9
 1 -3 0 26.13 1.63
 1 -3 1 123.95 2.36
 1 -3 2 399.24 3.54
 1 -3 4 380.2 3.31
 1 -2 -2 136.79 3.14
 1 -2 -1 340.45 4.22
 1 -2 1 334.35 3.32
 1 -2 2 134.76 2.11
 1 -1 -3 281.53 4.28
 1 -1 -2 3824.33 13.81
 1 -1 -1 250.38 3.37
 1 -1 0 943.79 5.61
 1 -1 1 249.17 2.84
 1 0 -4 35.11 1.99
 1 0 -3 377.1 4.55
 1 0 -2 1309.98 7.18
 1 0 -1 943.61 5.56
 1 0 0 -0.45 0.81
 1 1 -4 235.09 3.56
 1 1 -3 282.82 3.5
 1 1 -2 3858.36 11.25
 1 1 -1 242.5 2.8
 1 3 -4 381.96 3.54
 1 4 -4 199.36 2.32
 1 4 -3 45.94 1.22
 1 6 -4 127.33 1.5
 2 -6 2 75.94 2.78
 2 -6 3 15.84 1.43
 2 -6 4 43.8 1.84
 2 -6 5 192.31 3.18
 2 -6 6 134.15 2.39
 2 -5 -1 52.28 2.85
 2 -5 0 64.14 2.71
 2 -5 1 52.65 2.46
 2 -5 2 186.84 3.93
 2 -5 3 59.21 2.18
 2 -5 4 140.45 3
 2 -5 5 220.48 3.54
 2 -5 6 192.65 3.21
 2 -5 7 93.18 2.28
 2 -5 8 212.56 3.34
 2 -5 9 2.03 0.72
 2 -4 -2 390.88 6.59
 2 -4 -1 47.48 2.64
 2 -4 0 2499.58 14.56
 2 -4 1 49.16 2.26
 2 -4 2 384.02 5.15
 2 -4 4 224.26 3.78
 2 -4 6 8.91 1.09
 2 -4 7 125.61 2.97
 2 -4 8 19.76 1.57
 2 -3 -4 19.94 2.14
 2 -3 -2 182.07 4.48
 2 -3 -1 238.53 4.74
 2 -3 0 1651.45 11.21
 2 -3 1 237.03 4.16
 2 -3 2 181.83 3.57
 2 -3 3 382.12 4.91
 2 -3 4 19.36 1.41
 2 -3 5 430.57 5.27
 2 -2 -5 599.78 8.62
 2 -2 -4 198.57 4.95
 2 -2 -3 294.38 5.6
 2 -2 -2 699.69 7.87
 2 -2 -1 1.41 1.12
 2 -2 0 322.03 4.96
 2 -2 1 1.36 1.23
 2 -2 2 734.43 6.91
 2 -2 3 281.83 4.35
 2 -1 -4 96.85 3.34
 2 -1 -3 316.62 5.46
 2 -1 -1 441.28 5.63
 2 -1 0 1025.75 8.12
 2 -1 1 434.8 5.32
 2 0 -5 80.14 3.11
 2 0 -4 136.01 3.66
 2 0 -3 270.93 4.69
 2 0 -2 845.5 7.78
 2 0 -1 43.82 2.02
 2 0 0 9932.32 24.94
 2 1 -6 52.92 2.67
 2 1 -5 525.15 6.99
 2 1 -4 96.41 3.01
 2 1 -3 311 4.81
 2 1 -2 780.87 7.13
 2 1 -1 439.64 5.48
 2 2 -7 690.34 8.36
 2 2 -6 85.93 2.93
 2 2 -4 198.01 3.96
 2 2 -3 280.32 4.43
 2 2 -2 706.13 6.75
 2 3 -7 104.84 3.2
 2 3 -6 413.13 5.85
 2 3 -5 434.33 5.61
 2 3 -4 21.32 1.55
 2 3 -3 365.09 4.9
 2 3 -2 177.18 3.64
 2 4 -4 219.02 3.8
 2 4 -3 228.33 3.91
 2 5 -6 187.69 3.47
 2 5 -3 61.99 2.21
 2 6 -6 135.78 2.66
 2 6 -5 186.66 3.24
 2 6 -4 41.53 1.75
 2 7 -5 142.92 2.59
 2 7 -4 12.68 1.14
 3 -7 1 87.89 3.69
 3 -7 2 31.69 2.55
 3 -7 3 28.48 2.29
 3 -7 4 109.34 3.5
 3 -7 6 78.25 2.67
 3 -6 -1 71.19 3.69
 3 -6 0 142.59 4.75
 3 -6 1 70.3 3.3
 3 -6 2 43.59 2.62
 3 -6 3 83.27 3.32
 3 -6 4 84.13 3.18
 3 -6 5 55.53 2.6
 3 -6 6 99.26 3.1
 3 -6 7 30.62 1.89
 3 -6 8 124.91 3.23
 3 -5 -3 58.51 3.67
 3 -5 -2 362.18 7.65
 3 -5 -1 29.73 2.52
 3 -5 0 142.21 4.48
 3 -5 1 23.04 2.2
 3 -5 2 360.86 6.5
 3 -5 3 57.68 2.83
 3 -5 4 432.68 6.63
 3 -5 5 32.93 2.26
 3 -5 6 141.8 3.82
 3 -5 7 19.9 1.87
 3 -5 8 16.47 1.76
 3 -5 9 42.9 2.33
 3 -5 10 28.36 2.05
 3 -4 -5 2.77 1.86
 3 -4 -3 26.04 2.87
 3 -4 -2 12.6 2.04
 3 -4 -1 54.29 3.32
 3 -4 1 49.37 2.68
 3 -4 2 12.67 1.69
 3 -4 4 153.84 4.08
 3 -4 5 2.99 1.33
 3 -4 7 89.29 3.32
 3 -4 8 12.79 1.81
 3 -4 9 69.16 3.04
 3 -4 10 22.12 2.12
 3 -4 11 4.71 1.62
 3 -3 -6 35.61 3.44
 3 -3 -4 134.84 4.86
 3 -3 -2 391.87 7.26
 3 -3 -1 61.74 3.05
 3 -3 0 135.69 4.22
 3 -3 1 62.1 2.82
 3 -3 2 392.72 6.48
 3 -3 3 3.69 1.25
 3 -3 4 135.47 3.95
 3 -3 5 195.72 4.59
 3 -3 6 31.8 2.4
 3 -2 -7 365.14 8.42
 3 -2 -5 32.41 2.89
 3 -2 -4 8.61 1.84
 3 -2 -3 369.73 7.16
 3 -2 -2 172.84 4.84
 3 -2 -1 138.27 4.32
 3 -2 0 516.94 7.56
 3 -2 3 363.39 6.23
 3 -2 4 8.39 1.51
 3 -1 -7 195.23 5.89
 3 -1 -6 35.42 3.1
 3 -1 -5 271.15 6.35
 3 -1 -4 128.54 4.3
 3 -1 -2 158.05 4.35
 3 -1 -1 180.8 4.53
 3 -1 0 1.23 1.52
 3 -1 1 183.58 4.42
 3 -1 2 156.46 4.21
 3 0 -8 9.76 2.38
 3 0 -7 2.69 1.71
 3 0 -6 14.66 2.18
 3 0 -5 -0.91 1.49
 3 0 -4 1.38 1.25
 3 0 -3 282.38 5.74
 3 0 -2 92.1 3.53
 3 0 -1 776.25 9.08
 3 0 0 -0.35 1.14
 3 1 -6 34.88 2.85
 3 1 -4 131.27 4.05
 3 1 -3 117.38 3.88
 3 1 -2 159.66 4.26
 3 1 0 0.97 1.15
 3 2 -8 85.9 3.88
 3 2 -7 369.83 7.19
 3 2 -6 29.55 2.65
 3 2 -5 31.76 2.4
 3 2 -4 8.76 1.57
 3 2 -3 350.47 6.2
 3 2 -2 178.72 4.49
 3 2 -1 130.84 3.97
 3 3 -8 8.8 1.83
 3 3 -7 12.19 1.84
 3 3 -6 31.16 2.28
 3 3 -4 128.75 3.84
 3 3 -3 3.39 1.28
 3 3 -2 381.25 6.36
 3 4 -8 15 2.05
 3 4 -7 87 3.37
 3 4 -6 232.82 5.09
 3 4 -5 2.11 1.21
 3 4 -4 155.69 4.21
 3 4 -3 29.23 2.2
 3 4 -2 11.35 1.65
 3 5 -6 141.71 3.89
 3 5 -5 34.85 2.12
 3 5 -3 60.37 2.73
 3 6 -4 78.29 3.12
 3 6 -3 79.58 3.13
 3 6 -2 43.68 2.71
 3 7 -4 105.05 3.38
 3 7 -3 31.78 2.26
 3 8 -3 0.46 1.04
 3 9 -2 39.48 2.5
 4 -8 2 -0.36 1.65
 4 -8 3 77.7 3.81
 4 -8 4 31.12 2.59
 4 -8 5 60.8 3.19
 4 -7 1 3.33 1.89
 4 -7 2 8.68 2.06
 4 -7 3 90.01 4.18
 4 -7 4 8.39 1.94
 4 -7 5 3.67 1.53
 4 -7 6 69.46 3.32
 4 -6 0 152.33 5.76
 4 -6 1 198.1 6.18
 4 -6 2 138.52 5.15
 4 -6 3 119.2 4.57
 4 -6 4 6.75 1.72
 4 -6 5 38.53 2.89
 4 -6 6 0.09 1.33
 4 -6 7 41.12 2.79
 4 -6 8 7.73 1.69
 4 -5 -5 62.92 4.35
 4 -5 -1 267 7.19
 4 -5 0 7.48 2.35
 4 -5 2 55.25 3.52
 4 -5 3 3.38 1.66
 4 -5 7 78.91 3.73
 4 -5 8 11.03 2.06
 4 -5 9 11.98 2.12
 4 -5 10 -0.29 1.31
 4 -4 -6 25.6 3.24
 4 -4 -2 335.64 8
 4 -4 -1 65.94 3.99
 4 -4 1 66.82 3.8
 4 -4 3 73.7 3.63
 4 -4 5 240.48 5.99
 4 -4 7 32.77 2.81
 4 -4 8 42.47 3.04
 4 -4 9 27.4 2.63
 4 -4 10 2 1.9
 4 -3 -7 70.13 4.62
 4 -3 -2 25.34 2.67
 4 -3 0 892.93 11.75
 4 -3 1 245.88 6.34
 4 -3 3 155.46 4.95
 4 -3 4 79.06 3.84
 4 -3 5 291.44 6.57
 4 -3 6 260.85 6.43
 4 -3 7 73.97 3.73
 4 -3 8 22.76 2.77
 4 -3 9 31.74 3.1
 4 -2 -8 -0.56 1.77
 4 -2 -4 186.98 6.01
 4 -2 -3 66.28 3.65
 4 -2 -2 526.18 9.39
 4 -2 -1 3.8 1.77
 4 -2 0 76.43 3.98
 4 -2 1 4.35 1.62
 4 -2 2 513.26 8.7
 4 -2 3 65.32 3.39
 4 -2 4 182.24 5.38
 4 -2 5 194.11 5.73
 4 -1 -5 96.56 4.6
 4 -1 -4 74.36 4.18
 4 -1 -3 29.98 2.86
 4 -1 -2 0.13 1.42
 4 -1 -1 128.38 4.66
 4 -1 0 436.76 8.14
 4 -1 1 127.95 4.59
 4 -1 2 1.77 1.52
 4 -1 3 32.13 2.85
 4 0 -6 2.53 1.96
 4 0 -5 43 3.11
 4 0 -4 4.22 1.81
 4 0 -3 47.36 3.24
 4 0 -1 1.57 1.64
 4 0 0 80.2 3.64
 4 0 1 1.91 1.47
 4 0 3 46.98 3.02
 4 1 -6 128.94 5.12
 4 1 -4 76.05 3.99
 4 1 -2 2.13 1.65
 4 1 1 131.12 4.64
 4 2 -7 110.28 4.72
 4 2 -5 188.89 5.83
 4 2 -3 65.31 3.6
 4 2 -1 1.22 1.55
 4 2 1 4.22 1.61
 4 3 -8 20.02 2.86
 4 3 -7 71.97 3.81
 4 3 -6 259.01 6.61
 4 3 -4 83.05 3.84
 4 3 -3 161.52 5.27
 4 3 -2 27.69 2.42
 4 3 -1 243.65 6.25
 4 3 0 884.08 11.73
 4 4 -8 37.1 2.94
 4 4 -7 32.19 2.83
 4 4 -6 33.17 2.96
 4 4 -5 233.51 6.12
 4 4 -4 240.81 6.25
 4 4 -3 64.6 3.42
 4 4 -2 332.39 7.38
 4 4 -1 72.11 3.94
 4 5 -9 16.23 2.32
 4 5 -8 9.51 1.89
 4 5 -6 92.44 4.04
 4 5 -3 2.71 1.61
 4 5 -2 51.99 3.47
 4 5 -1 273.87 6.81
 4 6 -7 46.93 2.88
 4 6 -6 2.02 1.4
 4 6 -5 35.94 2.81
 4 6 -4 7.82 1.86
 4 6 -3 122.63 4.65
 4 6 -2 140.89 4.95
 4 6 -1 200.1 5.86
 4 7 -5 6.53 1.58
 4 7 -4 5.08 1.65
 4 7 -3 84.12 3.8
 4 7 -2 6.37 1.98
 5 -8 0 12.73 2.93
 5 -8 1 8.83 2.46
 5 -8 2 7.69 2.53
 5 -8 3 5.25 2.24
 5 -7 -3 6.92 3.25
 5 -7 -2 1.93 2.33
 5 -7 -1 60.43 4.94
 5 -7 0 7.35 2.76
 5 -7 1 58.27 4.27
 5 -7 2 2.97 2.27
 5 -7 3 5.42 2.09
 5 -6 -4 2.03 2.58
 5 -6 -3 136.05 6.66
 5 -6 -2 13.98 3.3
 5 -6 -1 20.29 3.17
 5 -6 0 0.47 1.98
 5 -6 1 19.88 3.2
 5 -5 -6 44.08 4.5
 5 -5 -5 57.58 4.63
 5 -5 -4 115.91 6.41
 5 -5 -3 24.47 3.72
 5 -5 -2 52.18 4.43
 5 -5 -1 32.51 3.48
 5 -5 9 44.08 3.51
 5 -5 10 2.85 1.8
 5 -4 -7 28.46 3.98
 5 -4 -6 67.49 5.07
 5 -4 -5 80.17 5.48
 5 -4 -4 16.04 3.1
 5 -4 -3 38.53 3.92
 5 -4 -2 6.52 2.35
 5 -4 8 6.73 2.14
 5 -4 9 112.13 5.16
 5 -4 10 11.69 2.47
 5 -4 11 33.58 3.46
 5 -3 -8 73.19 5.19
 5 -3 -7 53.97 4.9
 5 -3 -6 121.91 6.38
 5 -3 -5 2.8 2.53
 5 -3 -4 29.83 3.72
 5 -3 -3 46.86 3.79
 5 -3 8 78 4.42
 5 -3 9 22.75 3.28
 5 -3 10 22.23 3.37
 5 -3 11 10 2.65
 5 -3 12 1.15 2.14
 5 -3 13 7.34 2.43
 5 -2 -8 66.45 5.01
 5 -2 -7 49.23 4.41
 5 -2 -6 2.77 2.26
 5 -2 -5 7.33 2.43
 5 -2 7 41.8 3.57
 5 -2 8 72.53 4.41
 5 -2 9 10.52 2.88
 5 -2 10 41.31 4.13
 5 -2 11 43.45 4.26
 5 -2 12 21.41 3.23
 5 -2 14 53.81 4.54
 5 -1 -9 19.53 3.48
 5 -1 -7 45.03 4.21
 5 -1 -6 33.98 3.61
 5 -1 -5 18.91 2.98
 5 0 -9 268.8 8.87
 5 0 -8 2.17 2.4
 5 0 -7 0.39 2.46
 5 1 -10 46.35 4.28
 5 1 -9 27.04 3.68
 5 1 -7 49.51 4.05
 5 1 -6 35.41 3.47
 5 2 -10 45.16 4.3
 5 2 -9 13.23 3.26
 5 2 -8 66.13 4.87
 5 2 -6 2.17 2.06
 5 3 -10 18.52 3.27
 5 3 -9 24.09 3.51
 5 3 -8 80.72 4.77
 5 4 -10 13.75 2.82
 5 4 -9 118.38 5.6
 5 4 -7 32.8 3.54
 5 4 -6 60.5 4.27
 5 4 1 134.35 5.6
 5 5 -10 1.55 1.37
 5 5 -9 47.99 3.75
 5 5 -8 33.19 3.25
 5 5 -7 148.51 5.79
 5 5 -6 38.65 3.75
 5 5 -1 23.26 3.07
 5 5 0 37.82 3.74
 5 5 1 28.19 3.18
 5 6 -7 4.49 1.97
 5 6 -6 22.41 2.87
 5 6 -4 8.82 2.41
 5 6 -3 122.87 5.28
 5 6 -2 14.05 2.88
 5 6 -1 24.41 3.36
 5 6 0 0.22 2.06
 5 7 -5 31.93 3.21
 5 7 -3 5.77 2.47
 5 7 -2 3.59 2.17
 5 7 -1 65.83 4.39
 5 7 0 5.22 2.69
 5 8 -4 47.21 3.45
 5 8 -3 4.38 2.08
 5 8 -2 5.5 2.16
 5 8 -1 4.69 2.25
 5 8 0 9.96 3.05
 5 9 -3 0.05 1.48
 5 9 -2 27.39 3.06
 5 9 -1 9.55 2.51
 5 9 0 37.07 3.89
 5 10 1 34.07 4
 5 11 1 42.03 4.08
 6 -9 3 13.12 3.2
 6 -8 -1 32.32 4.49
 6 -8 0 70.93 5.25
 6 -8 1 39.87 4.98
 6 -8 2 29.19 4.06
 6 -8 4 63.85 4.62
 6 -7 -3 2.88 2.83
 6 -7 -1 54.65 5.28
 6 -7 0 92.25 5.98
 6 -7 1 44 4.68
 6 -7 2 1.17 2.43
 6 -7 4 13.29 3.01
 6 -7 5 2.83 2.42
 6 -7 6 127.36 5.86
 6 -6 -5 40.38 5.57
 6 -6 -4 50.96 5.14
 6 -6 -3 82.44 6.11
 6 -6 -2 46.11 5.27
 6 -6 0 0.03 2.95
 6 -6 1 185.81 7.63
 6 -6 2 50.19 4.39
 6 -6 3 72.17 4.83
 6 -6 4 46.89 4.05
 6 -6 7 1.63 2.32
 6 -6 8 -0.51 2.11
 6 -5 -6 13.5 4.27
 6 -5 -3 15.58 3.76
 6 -5 -2 4.55 2.88
 6 -5 -1 245.51 8.66
 6 -5 0 15.23 3.43
 6 -5 1 242.73 8.41
 6 -5 2 3.13 2.45
 6 -5 3 13.79 3.06
 6 -5 4 5.76 2.63
 6 -5 5 81.85 5.28
 6 -5 6 10.62 2.73
 6 -5 7 37.77 4.2
 6 -5 8 11.45 2.86
 6 -5 9 4.09 2.4
 6 -5 10 35.52 4.16
 6 -4 -7 8.61 3.28
 6 -4 -6 10.38 3.39
 6 -4 -5 112.14 6.77
 6 -4 -4 38.03 5.11
 6 -4 -3 86.6 5.96
 6 -4 -2 48.98 4.48
 6 -4 -1 27.59 3.76
 6 -4 0 16.33 3.21
 6 -4 2 55.28 4.63
 6 -4 3 78.12 5.16
 6 -4 4 32.38 3.81
 6 -4 5 119.81 6.17
 6 -4 6 9.35 2.75
 6 -4 7 9.6 2.8
 6 -4 8 47.05 4.49
 6 -4 9 19.73 3.53
 6 -4 11 1.68 2.25
 6 -3 -8 10.27 3.92
 6 -3 -7 24.91 4.16
 6 -3 -5 42.9 4.61
 6 -3 -4 27.82 4.15
 6 -3 -3 71.92 4.92
 6 -3 -2 13.05 3
 6 -3 -1 86.81 5.67
 6 -3 0 160.19 6.91
 6 -3 1 77.98 5.51
 6 -3 2 13.87 3.24
 6 -3 3 65.38 4.7
 6 -3 4 32.7 4.16
 6 -3 5 40.24 4.2
 6 -3 6 51.13 4.3
 6 -3 7 22.63 3.69
 6 -3 8 11.79 2.82
 6 -3 9 15.53 3.34
 6 -3 10 10.26 3
 6 -3 11 4.56 2.61
 6 -3 12 4.99 2.66
 6 -3 13 7.98 2.92
 6 -2 -9 56.93 5.86
 6 -2 -8 19.18 3.88
 6 -2 -7 55.04 5.13
 6 -2 -6 51.35 5.14
 6 -2 -5 33.61 4.29
 6 -2 -4 52.94 4.57
 6 -2 -3 40.05 4.31
 6 -2 -2 188.47 7.42
 6 -2 -1 35.96 4.35
 6 -2 0 20.1 3.33
 6 -2 3 43.35 4.01
 6 -2 4 43.71 4.51
 6 -2 5 30.14 3.83
 6 -2 6 51.77 4.34
 6 -2 7 63.64 5.03
 6 -2 8 12.82 3
 6 -2 9 50.96 4.86
 6 -2 10 12.49 3.57
 6 -2 12 13 3.6
 6 -2 13 -0.46 2.59
 6 -2 14 24.13 4.16
 6 -1 -9 15.54 3.89
 6 -1 -7 90.17 6.32
 6 -1 -6 39.63 5.02
 6 -1 -5 67.72 5.48
 6 -1 -3 4.17 2.46
 6 -1 0 114.43 5.77
 6 -1 1 45.37 4.38
 6 -1 2 23.28 3.47
 6 -1 3 5.21 2.3
 6 -1 4 51.58 4.23
 6 -1 5 65.79 4.62
 6 -1 6 36.03 4.19
 6 -1 7 89.94 5.4
 6 -1 8 32.86 4.34
 6 -1 9 14.97 3.36
 6 -1 10 7.45 3
 6 -1 11 3.17 2.96
 6 -1 12 8.4 3.12
 6 -1 13 4.78 2.97
 6 -1 14 4.08 3.04
 6 0 -9 57.97 5.73
 6 0 -8 33.23 4.36
 6 0 -7 199.81 8.13
 6 0 -6 55.82 4.67
 6 0 -5 84.39 5.63
 6 0 -4 8.69 3.04
 6 0 -3 3.98 2.91
 6 0 0 35.17 4.33
 6 0 1 91.77 5.25
 6 0 3 2.42 2.36
 6 0 4 9.59 2.8
 6 0 5 95.09 5.47
 6 0 6 46.54 4.45
 6 0 9 55.43 5.09
 6 0 10 89.55 6.05
 6 1 -10 2.81 2.92
 6 1 -9 13.9 3.58
 6 1 -8 28.42 4.3
 6 1 -7 83.12 5.58
 6 1 -6 33.85 4.48
 6 1 -5 67.33 4.94
 6 1 -4 50.28 4.31
 6 1 -3 8.45 2.67
 6 1 -1 44.49 3.99
 6 1 1 39.88 4.27
 6 1 2 21.48 3.59
 6 1 4 51.86 4.37
 6 1 6 36.41 4.41
 6 1 7 87.77 5.76
 6 2 -10 13.26 3.54
 6 2 -9 49.06 5.14
 6 2 -8 15.77 3.5
 6 2 -5 29.71 3.9
 6 2 -4 47.39 4.78
 6 2 -3 46 4.15
 6 2 -2 196.76 7.35
 6 2 -1 41.67 3.95
 6 2 0 24.21 3.68
 6 2 1 40.29 3.9
 6 2 2 194.81 7.48
 6 2 3 38.8 4.12
 6 2 4 50.16 4.42
 6 2 5 31.31 3.99
 6 3 -10 12.28 3.61
 6 3 -9 17.54 3.89
 6 3 -8 7.73 3.34
 6 3 -6 49.61 4.35
 6 3 -5 45.14 4.25
 6 3 -4 24.31 3.94
 6 3 -3 70.7 4.82
 6 3 -2 7.47 2.61
 6 3 -1 87.7 5.23
 6 3 0 157.04 6.6
 6 3 1 91.77 5.74
 6 3 2 10.87 2.98
 6 3 4 24.64 3.73
 6 4 -10 19.83 3.64
 6 4 -9 19.75 3.66
 6 4 -8 44.8 4.31
 6 4 -7 7.88 2.91
 6 4 -6 9.11 2.94
 6 4 -5 110.74 6.1
 6 4 -4 40.84 4.07
 6 4 -2 57.67 4.53
 6 4 -1 31.36 3.89
 6 4 0 18.36 3.26
 6 4 1 24.45 3.92
 6 4 3 81.27 5.74
 6 4 4 47.16 4.57
 6 5 -9 4.55 2.36
 6 5 -8 11.9 3.19
 6 5 -7 32.95 4.05
 6 5 -6 13.21 3.03
 6 5 -5 84.57 5.32
 6 5 -4 5.7 2.53
 6 5 -3 9.66 2.78
 6 5 -2 4.75 2.61
 6 5 -1 245.68 8.44
 6 5 0 14.34 3.23
 6 5 1 252.29 8.62
 6 5 2 3.88 2.66
 6 5 3 8.58 2.89
 6 6 -8 -0.39 1.61
 6 6 -7 4.32 2.4
 6 6 -6 13.86 3.15
 6 6 -5 41.8 4.35
 6 6 -4 39.43 4.6
 6 6 -3 79.41 5.44
 6 6 -2 52.75 4.44
 6 6 -1 176.94 7.39
 6 6 0 -0.02 2.41
 6 6 1 173.88 7.55
 6 6 3 86.63 5.67
 6 7 -5 5.92 2.63
 6 7 -4 11.1 2.82
 6 7 -3 -1.15 2.18
 6 7 -2 5.47 3.11
 6 7 -1 51.75 4.77
 6 7 0 83.55 5.79
 6 7 1 56.21 5.14
 6 7 2 2.66 3.32
 6 8 -4 68.6 4.69
 6 8 -3 10 3.08
 6 8 -2 30.77 3.93
 6 8 0 67.26 5.48
 6 8 1 33.62 4.31
 6 8 2 24.11 4.37
 6 9 -2 17.66 3.42
 6 9 -1 26.92 3.74
 6 9 0 6.29 2.85
 6 9 1 23.6 4
 6 9 2 15.72 3.76
 6 9 3 12.28 3.37
 6 10 0 95.54 5.87
 6 10 1 21.31 4.14
 6 10 2 2.23 2.91
 6 10 3 23.87 4.16
 6 11 1 6.14 2.61
 6 11 2 25.42 4.44
 6 11 3 24.3 4.39
 7 -8 0 49.32 5.18
 7 -8 1 27.15 4.44
 7 -8 2 1.98 2.8
 7 -8 3 14.44 3.8
 7 -8 4 3.32 3.17
 7 -7 -3 5.76 3.69
 7 -7 -2 12.58 4.33
 7 -7 -1 30.04 5.11
 7 -7 0 3.57 3.85
 7 -7 1 33.4 4.83
 7 -7 2 12.19 3.52
 7 -7 3 10.63 3.85
 7 -7 4 0.09 2.47
 7 -7 5 7.67 2.89
 7 -6 -5 39 5.78
 7 -6 -4 9.61 3.74
 7 -6 -3 32.16 5.4
 7 -6 -2 9.66 3.64
 7 -6 -1 -0.38 3.08
 7 -6 0 40.59 5.58
 7 -6 1 -1.77 2.84
 7 -6 2 9.82 3.82
 7 -6 3 32.64 4.61
 7 -6 4 7.43 3.14
 7 -6 5 43.11 5.14
 7 -6 7 9.38 3.13
 7 -5 -6 0.43 3.64
 7 -5 -5 5.42 3.84
 7 -5 -4 6.24 3.58
 7 -5 -3 28.4 4.84
 7 -5 -2 10.86 4.05
 7 -5 0 -0.67 2.72
 7 -5 1 16.78 4.17
 7 -5 2 5.05 3.23
 7 -5 4 3.63 3.5
 7 -5 5 10.29 3.24
 7 -5 6 0.27 2.98
 7 -5 7 81.22 5.73
 7 -5 8 31.71 4.44
 7 -5 9 4.14 3.14
 7 -4 -7 4.24 3.39
 7 -4 -5 29.2 4.87
 7 -4 -4 86.13 6.59
 7 -4 -3 50.79 6.12
 7 -4 -2 5.55 3.9
 7 -4 -1 45.38 4.66
 7 -4 1 42.85 5.27
 7 -4 2 3 3.39
 7 -4 3 45.56 5.22
 7 -4 4 82.16 6.11
 7 -4 5 23.84 4.2
 7 -4 6 55.43 4.96
 7 -4 7 -0.34 2.78
 7 -4 8 28.94 4.46
 7 -4 9 80.8 5.94
 7 -4 10 56.6 5.03
 7 -3 -8 89.27 7.4
 7 -3 -7 23.81 4.73
 7 -3 -6 61.73 5.98
 7 -3 -5 32.68 4.99
 7 -3 -4 60.83 6.12
 7 -3 -2 19.13 3.93
 7 -3 -1 64.27 5.36
 7 -3 0 3.99 2.89
 7 -3 1 66.91 5.83
 7 -3 2 17.57 3.66
 7 -3 3 42.05 5
 7 -3 4 56.58 5.32
 7 -3 5 33.09 4.39
 7 -3 7 19.13 3.92
 7 -3 8 95.41 6.6
 7 -3 9 21.57 4.27
 7 -3 10 24.74 3.97
 7 -3 11 13.72 3.68
 7 -3 12 21.4 4.07
 7 -2 -9 0.68 3.61
 7 -2 -7 8.52 4.15
 7 -2 -6 30.15 4.71
 7 -2 -5 1.48 3.42
 7 -2 -3 11.67 3.67
 7 -2 -2 18.84 3.93
 7 -2 -1 36.21 4.55
 7 -2 0 -0.12 2.47
 7 -2 1 33.83 4.66
 7 -2 2 16.86 3.64
 7 -2 3 13.06 3.44
 7 -2 5 -0.84 3.12
 7 -2 6 27.13 4.26
 7 -2 7 2.61 3
 7 -2 8 50.7 4.93
 7 -2 9 4.94 3.12
 7 -2 10 51.23 5.24
 7 -2 11 43.14 5.38
 7 -2 12 -1.74 2.78
 7 -2 13 11.14 3.52
 7 -1 -9 29.41 5.37
 7 -1 -8 20.83 4.77
 7 -1 -7 24.85 4.79
 7 -1 -6 23.57 4.69
 7 -1 -5 70.71 5.78
 7 -1 -3 5.07 2.75
 7 -1 -2 30.35 4.24
 7 -1 -1 110.07 6.69
 7 -1 0 182.56 7.96
 7 -1 1 101.29 6.17
 7 -1 2 29.34 4.38
 7 -1 3 3.67 2.73
 7 -1 4 59.26 5.61
 7 -1 5 62.57 5.57
 7 -1 6 21.79 3.89
 7 -1 7 23.7 4.45
 7 -1 8 16.55 3.77
 7 -1 9 28.46 4.42
 7 -1 10 13.9 3.9
 7 -1 11 7.4 3.93
 7 -1 12 0.17 3.01
 7 -1 13 18.95 4.16
 7 0 -10 -3.2 3.36
 7 0 -8 11.64 4.26
 7 0 -6 2.97 3.13
 7 0 -5 6.58 3.38
 7 0 -4 -1.64 2.72
 7 0 -2 26.18 4.13
 7 0 0 2.26 2.85
 7 0 1 5.73 2.86
 7 0 2 28.12 4.22
 7 0 3 0.5 2.88
 7 0 4 -0.36 2.78
 7 0 5 8.79 3.32
 7 0 6 4.96 3.47
 7 0 7 2.18 2.92
 7 0 8 13.75 4.3
 7 0 9 23.14 4.6
 7 0 10 -0.24 3.53
 7 0 11 3.44 3.22
 7 0 12 3.72 3.55
 7 0 13 11.43 4.36
 7 1 -10 15.07 4.2
 7 1 -9 32.3 4.92
 7 1 -8 11.11 3.69
 7 1 -7 26.77 4.4
 7 1 -6 26.5 4.31
 7 1 -5 69.32 5.83
 7 1 -4 61.46 5.87
 7 1 -3 5.02 2.84
 7 1 -2 36.99 4.94
 7 1 -1 111.09 6.57
 7 1 0 185.21 8.05
 7 1 1 110.81 6.55
 7 1 2 35.17 4.53
 7 1 3 3.51 2.99
 7 1 4 65.89 5.74
 7 1 5 67.85 5.74
 7 1 6 21.17 4.48
 7 1 7 23.96 4.32
 7 1 8 17.59 4.55
 7 1 9 29.15 5.04
 7 1 10 17.41 4.59
 7 1 11 8.48 3.64
 7 1 12 4.95 3.71
 7 1 13 25.23 5.2
 7 2 -10 46.8 5.79
 7 2 -9 6.57 3.45
 7 2 -8 47.17 5.73
 7 2 -7 1.33 3.15
 7 2 -6 29.97 4.67
 7 2 -3 9 3.33
 7 2 -1 37.7 4.57
 7 2 0 -2.12 3.16
 7 2 1 35.56 4.86
 7 2 2 16.34 3.72
 7 2 3 7.5 3.21
 7 2 4 34.02 4.66
 7 2 6 35.09 4.76
 7 2 7 3.81 3.59
 7 2 8 41.38 5.01
 7 2 9 5.61 3.44
 7 2 10 41.97 5.59
 7 2 11 36.31 5.7
 7 2 12 4.21 3.7
 7 2 13 10.4 4.07
 7 3 -10 31.82 5.01
 7 3 -9 22.13 4.24
 7 3 -6 48.62 4.99
 7 3 -5 32.02 4.45
 7 3 -4 60.92 5.44
 7 3 -3 41.62 4.97
 7 3 -2 21.89 4.02
 7 3 -1 77.01 5.8
 7 3 0 3.58 3.36
 7 3 1 71.23 5.82
 7 3 2 14.02 3.58
 7 3 3 47.68 4.93
 7 3 4 64.33 5.73
 7 3 5 27.49 4.35
 7 3 6 56.55 5.57
 7 3 7 15.61 4.12
 7 3 8 88.84 6.63
 7 3 9 29.02 4.92
 7 3 10 25.94 4.69
 7 4 -10 48.95 5.45
 7 4 -9 86.77 6.48
 7 4 -8 31.24 4.45
 7 4 -7 2.34 3.09
 7 4 -6 61 5.35
 7 4 -5 30.38 4.61
 7 4 -4 82.2 6.27
 7 4 -3 42.73 5.24
 7 4 -2 5.02 2.95
 7 4 0 10.79 3.42
 7 4 1 41.13 5.08
 7 4 2 2.69 2.87
 7 4 3 49.35 5.94
 7 4 4 86.25 6.35
 7 4 5 23.7 4.27
 7 4 6 52.34 5.85
 7 4 7 -0.67 2.95
 7 4 8 25.49 4.86
 7 5 -9 4.61 2.94
 7 5 -7 66.73 5.39
 7 5 -6 0.19 2.82
 7 5 -5 6.23 3.02
 7 5 -4 5.12 3.39
 7 5 -3 22.78 4.46
 7 5 -2 7.87 3.41
 7 5 -1 14.27 3.61
 7 5 0 -1.47 2.89
 7 5 2 3.61 2.91
 7 5 3 18.58 4.05
 7 5 4 6.12 3.35
 7 5 5 9.73 3.64
 7 5 6 0.97 3.19
 7 6 -8 25.82 3.84
 7 6 -7 10.7 3.1
 7 6 -6 7.03 3.16
 7 6 -5 42.71 5.33
 7 6 -4 10.53 3.46
 7 6 -3 34.23 4.59
 7 6 -1 0.4 2.99
 7 6 0 41.7 5.04
 7 6 1 0.4 2.87
 7 6 2 12.3 3.65
 7 6 3 25.97 4.87
 7 6 4 7.44 3.51
 7 6 5 47.66 6.09
 7 6 6 10.41 3.85
 7 7 -6 53.48 4.75
 7 7 -5 5.88 2.78
 7 7 -4 -2.03 2.56
 7 7 -3 10.49 3.39
 7 7 -2 7.77 3.15
 7 7 -1 41.02 5.1
 7 7 0 6.93 3.65
 7 7 1 30.92 5.02
 7 7 2 10.73 4.22
 7 7 3 2.42 3.2
 7 7 4 -3.33 3.4
 7 7 5 8.24 4.41
 7 7 6 42.21 5.56
 7 8 -4 3.33 2.48
 7 8 -3 8.08 3.12
 7 8 -2 -1.82 2.67
 7 8 -1 36.16 5.09
 7 8 0 59.03 5.8
 7 8 1 29.6 5.07
 7 8 2 -0.99 3.55
 7 8 3 11.07 3.8
 7 8 4 8.5 4.27
 7 8 5 4.83 4.36
 7 8 6 26.89 5.11
 7 9 -3 -2.17 1.97
 7 9 -2 30.98 4.26
 7 9 -1 30.8 4.5
 7 9 0 2.09 3.05
 7 9 1 32.34 4.84
 7 9 2 26.7 4.6
 7 9 3 -1.38 3.3
 7 9 4 19.31 4.42
 7 9 5 20.86 4.43
 7 9 6 13.33 4.54
 7 10 -1 5.31 2.88
 7 10 0 22.69 4.26
 7 10 1 2.82 3.15
 7 10 2 9.67 3.56
 8 -7 -3 1.36 3.72
 8 -7 -2 1.41 3.51
 8 -7 -1 7.37 4.02
 8 -7 0 110.01 7.68
 8 -7 1 6.52 3.92
 8 -7 2 6.48 3.55
 8 -7 3 7.72 4.18
 8 -7 4 2.18 3.13
 8 -6 -4 77.08 6.88
 8 -6 -3 12.78 4.6
 8 -6 -2 50.19 6.93
 8 -6 -1 44.6 6.25
 8 -6 0 8.19 4.24
 8 -6 1 41.66 6.03
 8 -6 2 33.98 4.91
 8 -6 3 13.79 4.21
 8 -6 4 78.6 6.26
 8 -6 5 4.38 3.23
 8 -6 6 28.43 4.32
 8 -5 -6 44.83 6.92
 8 -5 -5 14.56 4.69
 8 -5 -4 37.02 5.89
 8 -5 -3 5.59 4.1
 8 -5 -2 28.19 5.54
 8 -5 -1 38.08 5.86
 8 -5 0 29.06 4.94
 8 -5 1 40.24 5.52
 8 -5 2 20.7 4.54
 8 -5 3 1.87 3.85
 8 -5 4 46.51 5.7
 8 -5 5 19.48 4.46
 8 -5 6 50.2 6.05
 8 -5 7 15.06 4.23
 8 -4 -7 19.92 5.05
 8 -4 -6 12.77 4.6
 8 -4 -5 5.39 4.42
 8 -4 -4 7.57 4.1
 8 -4 -3 8.39 4.12
 8 -4 -2 1.9 3.57
 8 -4 0 50.9 6.24
 8 -4 1 19 4.25
 8 -4 2 7.56 3.55
 8 -4 3 4.64 3.48
 8 -4 4 4.62 3.7
 8 -4 5 -0.67 2.97
 8 -4 6 4.96 3.66
 8 -4 7 24.9 4.89
 8 -3 -8 33.99 6.16
 8 -3 -7 13.63 4.62
 8 -3 -6 13.47 4.64
 8 -3 -5 12.06 4.92
 8 -3 -4 30.51 5.56
 8 -3 -3 1.28 3.68
 8 -3 -2 25.48 5.01
 8 -3 -1 12.33 4.02
 8 -3 1 12.5 3.9
 8 -3 2 21.23 4.46
 8 -3 3 -1.94 3.05
 8 -3 4 33.27 5.36
 8 -3 6 21.16 4.5
 8 -3 7 13.82 3.84
 8 -3 8 31.05 4.97
 8 -3 9 5.61 3.62
 8 -2 -9 18.03 5.17
 8 -2 -8 13.41 4.41
 8 -2 -7 5.6 3.87
 8 -2 -6 21.22 4.9
 8 -2 -4 19.08 4.71
 8 -2 0 10.21 3.72
 8 -2 1 68.33 6.55
 8 -2 3 39.77 5.7
 8 -2 4 18.26 4.88
 8 -2 6 10.9 3.94
 8 -2 7 9.96 3.77
 8 -2 8 22.45 4.5
 8 -2 9 10.97 3.88
 8 -1 -9 14.77 4.68
 8 -1 -8 7.59 4.14
 8 -1 -7 27.97 5.66
 8 -1 -6 6.2 4.09
 8 -1 -5 22.85 4.69
 8 -1 -4 7.89 3.77
 8 -1 -3 11.28 4.16
 8 -1 -2 25.5 4.76
 8 -1 -1 109.75 7.87
 8 -1 0 6.12 3.6
 8 -1 2 20.8 4.41
 8 -1 3 12.12 3.89
 8 -1 4 5.32 3.45
 8 -1 5 28.66 5.12
 8 -1 6 9.25 3.71
 8 -1 7 34.59 5.45
 8 -1 8 8.2 4.11
 8 -1 10 1.23 3.33
 8 0 -10 5.54 4.51
 8 0 -9 3.6 4.08
 8 0 -8 20.65 4.78
 8 0 -7 6.62 4.28
 8 0 -6 21.14 4.83
 8 0 -5 104.81 7.29
 8 0 -4 84.93 7.07
 8 0 -3 38.37 5.71
 8 0 -2 28.46 5.25
 8 0 -1 93.02 6.86
 8 0 0 3.58 3.48
 8 0 1 94.42 7.32
 8 0 2 35.63 5.5
 8 0 3 30.17 4.82
 8 0 5 98.02 7.48
 8 0 6 23.68 4.58
 8 0 7 8.13 3.95
 8 0 8 21.94 4.68
 8 0 9 1.89 3.42
 8 0 10 9.92 4.57
 8 1 -10 3.03 3.75
 8 1 -9 9.92 4.23
 8 1 -8 7.18 4.55
 8 1 -7 31.97 5.18
 8 1 -5 22.24 4.72
 8 1 -4 4.99 3.8
 8 1 -3 7.84 4.16
 8 1 -2 19.61 4.64
 8 1 -1 123.68 8.14
 8 1 0 5.8 3.73
 8 1 1 113.28 7.31
 8 1 2 22.42 4.51
 8 1 3 9.92 4.61
 8 1 5 20.49 4.63
 8 1 6 14.55 4.18
 8 1 7 26.19 4.86
 8 1 8 12.95 4.73
 8 1 10 5.89 3.79
 8 2 -9 8.87 4.31
 8 2 -8 16.75 4.75
 8 2 -7 8.3 4.25
 8 2 -6 16.72 4.43
 8 2 -5 36.17 5.67
 8 2 -4 19.85 4.56
 8 2 -2 38.31 5.51
 8 2 -1 69.49 6.61
 8 2 0 8.56 3.98
 8 2 2 43.93 6.03
 8 2 3 41.92 5.61
 8 2 4 10.07 3.82
 8 2 5 38.04 5.59
 8 2 6 13.2 4.06
 8 2 7 11.67 4.52
 8 2 8 16.12 4.46
 8 2 9 18.12 4.8
 8 3 -9 6.52 4.16
 8 3 -8 33.8 5.55
 8 3 -7 18.58 4.96
 8 3 -6 20.15 4.52
 8 3 -5 8.85 3.82
 8 3 -4 28.34 5.19
 8 3 -3 -2.29 3.07
 8 3 -2 23.13 4.56
 8 3 -1 19.11 4.42
 8 3 0 7.29 3.69
 8 3 1 13.89 4.27
 8 3 2 21.73 4.53
 8 3 3 4.16 3.92
 8 3 4 32.79 5.54
 8 3 5 12.46 4.74
 8 3 7 7.26 4.77
 8 3 8 28.26 5.47
 8 3 9 7.61 4.35
 8 4 -8 37.25 5.16
 8 4 -6 9.44 3.82
 8 4 -5 0.07 3.13
 8 4 -4 8.83 4.14
 8 4 -3 8.33 3.63
 8 4 -2 7.4 4.19
 8 4 -1 17.38 4.81
 8 4 1 20.03 4.46
 8 4 3 4.13 3.54
 8 4 4 2.23 3.57
 8 4 5 4.45 3.7
 8 4 6 8.52 4.16
 8 4 7 14.66 4.32
 8 4 8 33.28 5.48
 8 5 -7 16.45 4.21
 8 5 -5 13.09 4.55
 8 5 -4 38.9 5.3
 8 5 -3 0.55 3.24
 8 5 -2 25.47 4.83
 8 5 -1 55.41 6.75
 8 5 0 27.21 5.4
 8 5 1 46.07 5.79
 8 5 2 26.07 4.9
 8 5 3 5.66 3.76
 8 5 5 18.79 4.69
 8 5 6 34.35 5.79
 8 5 7 18.14 4.78
 8 6 -6 30.36 4.96
 8 6 -5 3.46 3.55
 8 6 -4 73.03 6.46
 8 6 -3 16.24 4.07
 8 6 -2 39.85 5.66
 8 6 0 18 4.58
 8 6 1 37.1 5.39
 8 6 3 12.42 4.31
 8 6 5 9.31 4.26
 8 6 6 28.63 5.64
 8 7 -4 5.92 3.51
 8 7 -3 7.23 3.49
 8 7 -2 3.01 3.43
 8 7 -1 10.14 3.75
 8 7 0 114.56 7.74
 8 7 1 9.44 4
 8 7 2 6.16 4.02
 8 7 3 6.3 3.76
 8 7 4 7.27 3.97
 9 -3 -2 8.05 5.09
 9 -3 -1 4.02 4.23
 9 -3 0 4.24 3.92
 9 -3 1 4.03 3.86
 9 -3 2 3.73 3.89
 9 -2 -4 -3.02 4.1
 9 -2 -3 11.91 4.61
 9 -2 -1 0.53 3.91
 9 -2 0 -0.51 3.62
 9 -2 1 6.08 3.93
 9 -2 2 2.85 3.64
 9 -2 3 10.51 4.38
 9 -2 4 -1.48 3.72
 9 -1 -4 -2.03 4.09
 9 -1 -3 0.52 4.08
 9 -1 -2 4.82 4.03
 9 -1 -1 24.28 5.69
 9 -1 0 11.59 4.66
 9 -1 1 25.88 5.09
 9 -1 2 -1.07 3.5
 9 -1 4 3.6 4.44
 9 0 -4 20.09 5.08
 9 0 -3 19.6 5.35
 9 0 -2 2.7 3.98
 9 0 -1 -1.88 3.57
 9 0 0 -2.21 3.31
 9 0 1 -2.79 3.97
 9 0 3 26.99 5.54
 9 0 4 26.34 5.35
 9 1 -4 3.25 4.3
 9 1 -3 0.02 4.21
 9 1 -2 2.29 3.8
 9 1 -1 26.8 5.07
 9 1 0 10.12 4.4
 9 1 1 23.26 5.43
 9 1 2 0.85 3.93
 9 1 3 -2.6 3.34
 9 1 4 5.18 4.74
 9 2 -4 0.1 3.48
 9 2 -3 7.12 4.18
 9 2 -2 3.09 3.79
 9 2 -1 1.57 4.04
 9 2 0 -1.89 3.57
 9 2 1 -2.24 4.15
 9 2 2 -1.65 3.62
 9 2 3 10.46 4.66
 9 2 4 1.02 4.22
 9 3 -2 1.78 4.12
 9 3 -1 6.33 4.18
 9 3 0 2.51 4.21
 9 3 1 9.61 4.23
 9 3 2 1.47 4.02

_iucr_refine_fcf_details
;
data_fk_03426_intdb_v128
_computing_structure_refinement   'olex2.refine 1.5-alpha (Bourhis et al., 2015)'
_shelx_refln_list_code            4
loop_
  _space_group_symop_id
  _space_group_symop_operation_xyz
  1  x,y,z
  2  x+1/2,-y+1/2,-z
  3  -x,y+1/2,-z+1/2
  4  -x+1/2,-y,z+1/2

_space_group_crystal_system       orthorhombic
_space_group_IT_number            19
_space_group_name_H-M_alt         'P 21 21 21'
_space_group_name_Hall            ' P 2ac 2ab'
_symmetry_space_group_name_H-M    'P 21 21 21'
_symmetry_space_group_name_Hall   ' P 2ac 2ab'
_symmetry_Int_Tables_number       19
_cell_length_a                    5.2782(11)
_cell_length_b                    8.8690(18)
_cell_length_c                    11.525(2)
_cell_angle_alpha                 90
_cell_angle_beta                  90
_cell_angle_gamma                 90
_cell_volume                      539.49(19)
loop_
  _refln_index_h
  _refln_index_k
  _refln_index_l
  _refln_F_squared_calc
  _refln_F_squared_meas
  _refln_F_squared_sigma
  _refln_F_squared_weight
  _refln_observed_status
-9 -3 -2 3.097 2.423 1.109 141.014 o
-9 -3 -1 4.799 4.674 1.203 113.318 o
-9 -2 -4 0.414 -0.932 1.033 178.448 o
-9 -2 -3 5.443 5.022 1.208 110.161 o
-9 -2 -2 0.135 -0.158 1.068 168.114 o
-9 -2 -1 2.084 1.581 1.105 147.509 o
-9 -1 -4 2.274 2.899 1.112 142.704 o
-9 -1 -3 2.379 0.482 1.123 144.064 o
-9 -1 -2 1.956 0.819 1.108 148.568 o
-9 -1 -1 19.996 23.943 1.512 42.431 o
-8 -7 -4 4.745 4.220 1.255 106.105 o
-8 -7 -3 4.826 3.340 1.131 128.184 o
-8 -7 -2 4.776 3.698 1.204 114.683 o
-8 -7 -1 5.298 5.161 1.194 112.489 o
-8 -6 -6 26.148 26.225 1.790 30.187 o
-8 -6 -5 5.059 5.307 1.363 90.177 o
-8 -6 -4 60.747 69.426 2.289 9.342 o
-8 -6 -3 9.805 11.700 1.373 73.329 o
-8 -6 -2 34.784 34.944 1.902 21.854 o
-8 -6 -1 34.456 34.092 2.052 20.756 o
-8 -5 -7 11.271 13.089 1.465 63.261 o
-8 -5 -6 35.760 39.648 1.967 19.939 o
-8 -5 -5 13.223 14.420 1.628 51.252 o
-8 -5 -4 32.820 34.162 1.546 26.811 o
-8 -5 -3 2.557 1.156 1.064 157.209 o
-8 -5 -2 22.660 22.921 1.502 40.411 o
-8 -5 -1 36.602 40.699 1.743 21.207 o
-8 -4 -8 26.113 26.753 2.075 25.620 o
-8 -4 -7 17.881 18.628 1.692 41.903 o
-8 -4 -6 6.865 4.506 1.334 90.585 o
-8 -4 -5 0.408 -0.165 0.963 205.145 o
-8 -4 -4 4.882 7.399 1.123 121.899 o
-8 -4 -3 4.935 3.625 0.962 166.054 o
-8 -4 -2 2.608 3.574 1.086 146.249 o
-8 -4 -1 18.875 18.055 1.429 50.050 o
-8 -3 -9 6.452 7.435 1.335 88.149 o
-8 -3 -8 28.275 31.380 1.810 27.017 o
-8 -3 -7 13.384 14.942 1.433 60.306 o
-8 -3 -6 18.014 18.905 1.529 47.002 o
-8 -3 -5 8.577 7.139 1.506 69.221 o
-8 -3 -4 23.797 23.935 1.479 39.282 o
-8 -3 -3 1.697 -0.883 0.952 201.988 o
-8 -3 -2 20.876 20.854 1.363 47.745 o
-8 -3 -1 10.589 12.060 1.021 104.178 o
-8 -2 -9 11.003 12.173 1.426 66.921 o
-8 -2 -8 16.997 17.261 1.610 46.212 o
-8 -2 -7 6.388 7.620 1.388 82.649 o
-8 -2 -6 11.381 11.083 1.432 66.827 o
-8 -2 -5 33.539 32.269 1.638 25.890 o
-8 -2 -4 14.990 14.594 1.257 67.766 o
-8 -2 -3 36.207 34.244 1.748 22.817 o
-8 -2 -2 34.504 33.338 1.709 24.291 o
-8 -2 -1 57.545 60.501 1.693 12.002 o
-8 -1 -10 4.197 1.146 1.229 115.729 o
-8 -1 -9 13.309 10.905 1.395 66.058 o
-8 -1 -8 7.441 5.653 1.285 93.598 o
-8 -1 -7 29.500 28.758 1.771 27.617 o
-8 -1 -6 7.064 6.764 1.388 82.173 o
-8 -1 -5 21.989 25.431 1.809 32.883 o
-8 -1 -4 6.259 4.368 1.175 113.747 o
-8 -1 -3 11.386 10.470 1.387 70.511 o
-8 -1 -2 17.949 18.981 1.409 51.455 o
-8 -1 -1 102.751 105.728 2.116 4.489 o
-7 -10 -2 10.860 9.587 1.485 65.358 o
-7 -10 -1 0.925 2.598 1.062 161.678 o
-7 -9 -6 11.560 8.304 2.092 37.594 o
-7 -9 -5 25.296 28.001 2.966 16.066 o
-7 -9 -4 26.169 28.346 2.412 21.049 o
-7 -9 -3 1.002 0.269 0.914 222.349 o
-7 -9 -2 25.513 27.039 1.496 35.777 o
-7 -9 -1 26.363 29.234 1.400 35.839 o
-7 -8 -8 5.783 7.263 1.822 52.264 o
-7 -8 -7 18.604 18.858 2.387 25.607 o
-7 -8 -6 22.704 24.123 2.045 28.434 o
-7 -8 -5 7.785 8.380 1.617 61.733 o
-7 -8 -4 6.719 3.878 1.025 140.278 o
-7 -8 -3 10.126 10.429 1.172 92.132 o
-7 -8 -2 1.914 1.171 0.963 192.657 o
-7 -8 -1 28.715 28.333 1.389 34.279 o
-7 -7 -9 5.749 8.188 2.042 42.245 o
-7 -7 -8 9.054 8.216 1.876 46.978 o
-7 -7 -7 18.917 22.424 2.176 28.395 o
-7 -7 -6 37.860 46.893 2.201 16.415 o
-7 -7 -5 8.052 6.731 1.192 101.775 o
-7 -7 -4 0.706 0.041 0.933 216.074 o
-7 -7 -3 5.306 6.847 1.087 127.744 o
-7 -7 -2 10.440 10.701 1.018 107.962 o
-7 -7 -1 31.160 31.329 1.520 29.169 o
-7 -6 -10 2.888 2.783 1.837 54.814 o
-7 -6 -9 22.389 23.789 3.157 15.395 o
-7 -6 -8 48.616 47.926 6.233 3.993 o
-7 -6 -7 7.077 8.865 1.184 102.494 o
-7 -6 -6 7.401 7.184 1.438 76.527 o
-7 -6 -5 34.304 32.708 1.578 25.992 o
-7 -6 -4 7.636 8.740 1.230 95.372 o
-7 -6 -3 27.143 30.139 1.603 31.253 o
-7 -6 -2 10.000 9.037 1.116 100.963 o
-7 -6 -1 0.463 -0.324 0.672 415.068 o
-7 -5 -11 9.770 12.938 2.030 39.249 o
-7 -5 -10 13.112 14.306 1.971 38.691 o
-7 -5 -9 3.259 4.295 1.263 108.588 o
-7 -5 -8 28.699 31.430 1.806 26.817 o
-7 -5 -7 61.021 65.187 1.952 10.332 o
-7 -5 -6 0.170 -0.341 0.773 319.495 o
-7 -5 -5 7.942 8.298 1.043 120.582 o
-7 -5 -4 2.981 2.675 0.951 185.304 o
-7 -5 -3 18.373 19.791 1.310 54.122 o
-7 -5 -2 4.662 3.959 0.848 203.362 o
-7 -5 -1 13.234 13.762 0.927 99.511 o
-7 -4 -12 7.156 8.079 1.707 57.057 o
-7 -4 -11 10.960 12.870 1.700 51.252 o
-7 -4 -10 45.925 47.282 2.010 15.195 o
-7 -4 -9 64.992 71.031 2.103 9.028 o
-7 -4 -8 26.200 26.212 1.506 35.349 o
-7 -4 -7 2.335 1.882 0.852 233.892 o
-7 -4 -6 48.199 51.507 1.847 14.755 o
-7 -4 -5 21.968 23.156 1.252 48.086 o
-7 -4 -4 69.697 72.967 1.990 8.490 o
-7 -4 -3 39.059 37.575 1.507 22.703 o
-7 -4 -2 3.266 3.939 0.792 241.888 o
-7 -4 -1 36.095 37.296 1.361 25.721 o
-7 -3 -12 19.457 20.180 1.726 38.812 o
-7 -3 -11 12.360 13.888 1.504 58.781 o
-7 -3 -10 22.817 23.313 1.697 35.446 o
-7 -3 -9 21.670 20.991 1.530 41.702 o
-7 -3 -8 78.861 82.010 2.616 6.351 o
-7 -3 -7 12.854 14.024 1.488 58.856 o
-7 -3 -6 46.752 47.960 1.781 15.957 o
-7 -3 -5 28.059 28.953 1.378 34.780 o
-7 -3 -4 48.909 52.495 1.763 14.775 o
-7 -3 -3 37.334 40.415 1.593 22.156 o
-7 -3 -2 16.442 15.454 1.043 76.356 o
-7 -3 -1 62.357 63.906 1.482 11.179 o
-7 -2 -13 12.098 14.269 1.342 68.560 o
-7 -2 -12 1.603 -0.233 0.984 190.087 o
-7 -2 -11 30.113 32.294 1.654 27.751 o
-7 -2 -10 35.296 38.585 1.626 23.343 o
-7 -2 -9 2.972 4.149 1.111 137.785 o
-7 -2 -8 39.280 42.836 1.983 18.002 o
-7 -2 -7 4.683 2.135 0.983 166.423 o
-7 -2 -6 25.988 24.213 1.328 40.296 o
-7 -2 -5 2.966 0.126 0.965 188.584 o
-7 -2 -4 38.057 40.409 1.896 19.482 o
-7 -2 -3 8.963 10.542 1.061 108.877 o
-7 -2 -2 13.580 13.213 1.054 87.780 o
-7 -2 -1 34.255 33.081 1.416 27.717 o
-7 -1 -13 18.556 17.328 1.350 54.144 o
-7 -1 -12 2.186 1.609 1.069 156.440 o
-7 -1 -11 7.679 6.646 1.130 111.699 o
-7 -1 -10 12.772 11.712 1.233 77.669 o
-7 -1 -9 26.594 26.196 1.677 31.846 o
-7 -1 -8 15.702 16.054 1.508 52.502 o
-7 -1 -7 20.830 22.750 1.591 40.015 o
-7 -1 -6 23.023 21.951 1.318 45.507 o
-7 -1 -5 58.946 60.396 2.116 10.680 o
-7 -1 -4 53.987 54.515 2.082 12.209 o
-7 -1 -3 3.218 2.538 0.884 208.935 o
-7 -1 -2 30.630 31.351 1.400 31.213 o
-7 -1 -1 84.272 92.965 1.874 6.181 o
-6 -11 -5 9.513 8.499 2.551 27.014 o
-6 -11 -4 13.097 12.967 1.752 46.892 o
-6 -11 -3 20.112 16.765 1.585 43.961 o
-6 -11 -2 23.765 22.826 1.473 40.040 o
-6 -11 -1 3.760 4.435 1.109 134.602 o
-6 -10 -8 16.319 19.697 1.915 36.363 o
-6 -10 -7 26.636 27.839 2.167 23.916 o
-6 -10 -6 13.408 11.863 1.737 47.750 o
-6 -10 -5 9.330 7.495 2.057 40.091 o
-6 -10 -4 26.664 28.389 1.910 27.320 o
-6 -10 -3 14.826 14.319 1.426 58.871 o
-6 -10 -2 5.527 6.358 1.159 115.394 o
-6 -10 -1 19.409 20.455 1.340 50.887 o
-6 -9 -10 21.162 22.553 1.874 33.078 o
-6 -9 -9 0.061 -1.675 1.109 156.277 o
-6 -9 -8 8.227 5.730 1.444 75.897 o
-6 -9 -7 13.707 15.115 1.482 57.121 o
-6 -9 -6 34.115 37.319 2.054 20.258 o
-6 -9 -5 11.416 11.015 1.593 57.134 o
-6 -9 -4 1.422 0.699 0.782 291.779 o
-6 -9 -3 10.833 12.848 1.039 99.600 o
-6 -9 -2 16.175 16.903 1.140 69.354 o
-6 -9 -1 23.594 21.584 1.236 47.321 o
-6 -8 -11 11.297 11.229 2.003 39.736 o
-6 -8 -10 2.524 -0.152 1.494 83.498 o
-6 -8 -9 47.767 46.485 2.733 11.720 o
-6 -8 -8 62.521 62.887 2.956 8.134 o
-6 -8 -7 0.728 1.787 1.182 133.375 o
-6 -8 -6 0.330 -0.334 1.140 147.114 o
-6 -8 -5 7.181 5.639 1.188 106.727 o
-6 -8 -4 53.906 57.607 1.571 13.485 o
-6 -8 -3 12.136 11.232 1.011 100.650 o
-6 -8 -2 23.733 23.017 1.122 49.303 o
-6 -8 -1 30.509 32.326 1.484 29.766 o
-6 -7 -12 4.467 2.756 1.793 56.431 o
-6 -7 -11 33.324 41.349 2.994 13.303 o
-6 -7 -10 0.403 1.425 1.542 79.830 o
-6 -7 -9 2.031 3.962 1.908 51.121 o
-6 -7 -8 1.748 0.376 1.264 116.493 o
-6 -7 -7 1.689 1.707 1.039 167.113 o
-6 -7 -6 113.179 117.399 2.586 3.626 o
-6 -7 -5 4.454 4.351 0.904 184.393 o
-6 -7 -4 11.002 11.593 0.983 107.870 o
-6 -7 -3 0.751 -0.302 0.634 456.832 o
-6 -7 -2 1.816 1.305 0.782 282.141 o
-6 -7 -1 41.081 45.802 1.702 18.649 o
-6 -6 -13 16.077 15.368 3.113 17.351 o
-6 -6 -12 3.856 1.320 1.702 63.268 o
-6 -6 -11 0.063 -0.981 1.723 64.763 o
-6 -6 -10 12.971 14.196 2.145 33.918 o
-6 -6 -9 16.757 14.839 1.868 39.090 o
-6 -6 -8 0.337 -0.772 0.704 380.906 o
-6 -6 -7 4.528 3.536 0.800 225.484 o
-6 -6 -6 15.380 14.398 1.184 71.580 o
-6 -6 -5 31.970 34.781 1.289 30.270 o
-6 -6 -4 38.730 38.423 1.355 23.883 o
-6 -6 -3 68.332 69.067 1.637 9.473 o
-6 -6 -2 41.681 43.225 1.354 21.116 o
-6 -6 -1 149.671 157.710 2.186 2.266 o
-6 -5 -13 11.387 13.717 2.410 28.552 o
-6 -5 -12 8.674 11.440 1.954 43.013 o
-6 -5 -11 10.258 12.241 2.095 37.140 o
-6 -5 -10 28.913 33.049 1.944 24.513 o
-6 -5 -9 2.185 2.601 1.054 158.330 o
-6 -5 -8 10.686 9.896 1.109 97.849 o
-6 -5 -7 30.096 29.183 1.476 31.375 o
-6 -5 -6 10.347 10.323 1.123 96.807 o
-6 -5 -5 65.117 68.550 1.616 10.044 o
-6 -5 -4 6.112 5.541 0.806 195.969 o
-6 -5 -3 9.881 10.093 0.874 132.584 o
-6 -5 -2 2.990 1.887 0.764 273.275 o
-6 -5 -1 213.474 215.248 2.564 1.191 o
-6 -4 -14 12.387 10.204 2.092 36.656 o
-6 -4 -13 10.438 12.131 1.893 43.905 o
-6 -4 -12 0.632 0.400 1.492 85.500 o
-6 -4 -11 4.437 2.865 1.105 135.864 o
-6 -4 -10 19.682 17.756 1.424 49.342 o
-6 -4 -9 16.601 17.133 1.320 58.860 o
-6 -4 -8 41.634 39.556 1.579 20.487 o
-6 -4 -7 9.421 9.226 1.012 116.455 o
-6 -4 -6 9.062 8.922 0.934 131.088 o
-6 -4 -5 99.011 102.090 1.736 4.955 o
-6 -4 -4 37.269 32.347 1.053 29.585 o
-6 -4 -3 70.856 67.412 1.274 9.718 o
-6 -4 -2 45.243 49.145 1.236 18.856 o
-6 -4 -1 22.335 24.879 1.367 43.189 o
-6 -3 -14 26.523 28.214 1.921 27.285 o
-6 -3 -13 8.631 7.062 1.278 89.638 o
-6 -3 -12 3.316 3.275 1.055 151.431 o
-6 -3 -11 4.735 3.997 0.982 160.745 o
-6 -3 -10 10.375 9.616 1.017 110.694 o
-6 -3 -9 16.025 16.139 1.128 71.354 o
-6 -3 -8 8.092 7.473 0.911 145.438 o
-6 -3 -7 19.633 18.769 1.251 55.220 o
-6 -3 -6 47.073 47.292 1.464 17.451 o
-6 -3 -5 36.352 36.176 1.343 26.080 o
-6 -3 -4 24.287 24.189 0.979 51.366 o
-6 -3 -3 58.494 56.961 1.143 13.508 o
-6 -3 -2 9.044 8.769 0.693 179.946 o
-6 -3 -1 68.757 73.534 1.365 9.455 o
-6 -2 -15 2.050 3.308 1.455 86.263 o
-6 -2 -14 24.307 24.606 1.777 32.187 o
-6 -2 -13 0.931 -0.162 1.036 175.048 o
-6 -2 -12 7.659 8.695 1.087 114.215 o
-6 -2 -11 27.916 28.251 1.967 25.891 o
-6 -2 -10 14.598 12.296 1.191 75.539 o
-6 -2 -9 48.094 47.763 1.705 15.933 o
-6 -2 -8 12.946 12.050 1.014 95.669 o
-6 -2 -7 54.125 53.294 1.879 12.971 o
-6 -2 -6 45.788 44.820 1.628 17.541 o
-6 -2 -5 27.854 27.613 1.106 40.697 o
-6 -2 -4 41.450 40.277 1.169 23.187 o
-6 -2 -3 41.649 42.194 1.302 21.716 o
-6 -2 -2 172.172 167.422 2.034 1.853 o
-6 -2 -1 39.620 36.735 1.229 24.862 o
-6 -1 -15 2.703 1.385 1.294 108.365 o
-6 -1 -14 6.449 4.299 1.281 98.103 o
-6 -1 -13 3.798 4.534 1.080 140.470 o
-6 -1 -12 5.870 5.871 1.024 139.628 o
-6 -1 -11 3.361 3.504 1.058 149.760 o
-6 -1 -10 4.917 4.838 1.012 149.869 o
-6 -1 -9 12.168 11.037 1.100 91.888 o
-6 -1 -8 30.643 30.638 1.758 26.569 o
-6 -1 -7 75.601 75.367 1.831 7.869 o
-6 -1 -6 27.505 31.040 1.449 33.145 o
-6 -1 -5 60.282 59.008 1.383 12.310 o
-6 -1 -4 42.210 44.475 1.294 20.933 o
-6 -1 -3 4.416 5.649 0.662 277.844 o
-6 -1 -2 22.900 23.480 0.972 54.778 o
-6 -1 -1 37.957 35.900 1.064 27.597 o
-5 -13 -2 28.719 30.861 2.698 17.246 o
-5 -13 -1 3.329 2.447 1.453 85.358 o
-5 -12 -6 11.183 10.469 1.826 46.608 o
-5 -12 -5 16.870 17.270 2.172 30.638 o
-5 -12 -4 20.894 17.875 1.935 33.446 o
-5 -12 -3 9.764 11.756 1.493 64.848 o
-5 -12 -2 9.923 10.170 1.462 67.965 o
-5 -12 -1 42.255 45.867 2.365 14.500 o
-5 -11 -9 12.264 9.860 2.249 32.571 o
-5 -11 -8 22.330 23.684 2.220 25.851 o
-5 -11 -7 1.790 2.325 1.617 71.186 o
-5 -11 -6 27.171 26.899 2.164 23.927 o
-5 -11 -5 16.368 14.828 1.862 39.570 o
-5 -11 -4 15.950 16.073 1.428 55.724 o
-5 -11 -3 12.936 12.713 1.270 73.402 o
-5 -11 -2 28.688 33.311 1.715 27.509 o
-5 -11 -1 32.037 29.802 1.785 25.684 o
-5 -10 -11 2.938 1.045 1.850 54.533 o
-5 -10 -10 4.599 2.414 1.958 47.785 o
-5 -10 -9 15.895 18.416 2.187 30.514 o
-5 -10 -8 23.519 24.936 1.812 31.953 o
-5 -10 -7 3.434 6.255 1.345 94.605 o
-5 -10 -6 16.628 18.117 1.555 48.153 o
-5 -10 -5 3.136 0.597 0.885 217.119 o
-5 -10 -4 30.814 29.588 1.322 32.926 o
-5 -10 -3 12.907 14.363 1.177 78.260 o
-5 -10 -2 23.921 21.895 1.375 42.876 o
-5 -10 -1 26.012 26.981 1.419 36.893 o
-5 -9 -12 5.490 6.908 1.383 85.535 o
-5 -9 -11 12.814 10.492 1.567 57.117 o
-5 -9 -10 41.347 44.589 1.970 17.131 o
-5 -9 -9 20.383 21.908 1.692 38.188 o
-5 -9 -8 20.761 22.257 1.609 39.849 o
-5 -9 -7 1.071 0.397 0.971 197.024 o
-5 -9 -6 28.928 30.119 1.519 31.259 o
-5 -9 -5 5.618 4.678 0.932 166.335 o
-5 -9 -4 9.019 8.786 0.919 134.189 o
-5 -9 -3 1.456 1.015 0.633 423.314 o
-5 -9 -2 19.507 21.035 1.175 56.429 o
-5 -9 -1 12.190 10.387 1.004 102.951 o
-5 -8 -13 12.119 12.657 2.191 33.489 o
-5 -8 -12 11.107 10.673 1.498 63.312 o
-5 -8 -11 12.213 10.101 1.642 54.219 o
-5 -8 -10 34.901 35.824 1.997 20.747 o
-5 -8 -9 5.703 4.239 1.448 80.907 o
-5 -8 -8 62.225 57.901 2.537 9.365 o
-5 -8 -7 26.511 28.596 1.683 30.951 o
-5 -8 -6 39.661 41.114 1.791 19.498 o
-5 -8 -5 13.506 12.751 0.995 94.038 o
-5 -8 -4 38.497 40.112 1.238 24.448 o
-5 -8 -3 2.800 4.021 0.662 326.225 o
-5 -8 -2 6.310 6.541 0.718 217.794 o
-5 -8 -1 7.900 5.344 0.807 179.433 o
-5 -7 -14 19.516 19.328 1.964 33.200 o
-5 -7 -13 0.213 1.386 1.479 87.002 o
-5 -7 -12 40.290 45.909 2.412 14.699 o
-5 -7 -11 25.118 21.987 1.751 33.050 o
-5 -7 -10 42.879 43.072 1.960 16.950 o
-5 -7 -9 67.129 64.251 2.582 8.304 o
-5 -7 -8 38.599 38.432 2.039 18.576 o
-5 -7 -7 35.697 34.646 1.683 23.596 o
-5 -7 -6 26.827 29.967 1.355 35.879 o
-5 -7 -5 24.192 25.034 1.207 44.888 o
-5 -7 -4 24.874 25.202 1.215 43.661 o
-5 -7 -3 6.243 4.810 0.695 239.246 o
-5 -7 -2 3.419 2.762 0.657 329.748 o
-5 -7 -1 51.034 52.175 1.391 15.612 o
-5 -6 -15 21.660 16.687 1.894 34.269 o
-5 -6 -14 20.625 18.561 2.051 30.907 o
-5 -6 -13 27.616 29.721 2.544 19.057 o
-5 -6 -12 1.123 0.384 1.019 179.128 o
-5 -6 -11 9.310 11.239 1.286 82.148 o
-5 -6 -10 10.352 9.351 1.393 73.036 o
-5 -6 -9 36.408 38.941 1.920 20.208 o
-5 -6 -8 41.715 41.693 1.685 19.303 o
-5 -6 -7 4.061 4.518 0.828 214.006 o
-5 -6 -6 22.262 19.463 1.129 54.569 o
-5 -6 -5 99.755 104.892 2.352 4.545 o
-5 -6 -4 5.236 5.381 0.744 229.359 o
-5 -6 -3 112.774 109.108 1.727 4.090 o
-5 -6 -2 15.412 12.838 0.880 96.489 o
-5 -6 -1 21.745 19.558 0.947 62.200 o
-5 -5 -15 18.278 20.142 2.092 30.904 o
-5 -5 -14 7.931 7.157 1.276 91.462 o
-5 -5 -13 29.559 34.360 2.200 21.116 o
-5 -5 -12 3.133 2.685 1.062 151.808 o
-5 -5 -11 4.422 3.406 0.914 184.896 o
-5 -5 -10 0.579 0.663 0.584 526.794 o
-5 -5 -9 39.172 40.611 1.407 22.650 o
-5 -5 -8 30.176 28.291 1.300 34.434 o
-5 -5 -7 123.630 130.058 2.895 3.016 o
-5 -5 -6 37.584 36.508 1.230 26.211 o
-5 -5 -5 46.897 48.382 1.472 17.285 o
-5 -5 -4 96.228 94.558 1.347 5.541 o
-5 -5 -3 25.161 23.289 0.813 54.923 o
-5 -5 -2 48.916 48.029 1.109 18.120 o
-5 -5 -1 26.112 23.346 0.953 49.595 o
-5 -4 -16 0.037 0.307 1.095 159.840 o
-5 -4 -15 18.669 18.188 1.935 34.769 o
-5 -4 -14 5.015 6.689 1.185 112.451 o
-5 -4 -13 2.402 3.853 1.133 135.736 o
-5 -4 -12 2.842 4.958 1.082 143.243 o
-5 -4 -11 27.762 30.172 1.448 33.319 o
-5 -4 -10 11.662 12.284 0.835 121.033 o
-5 -4 -9 100.735 102.096 1.981 4.748 o
-5 -4 -8 6.577 7.575 0.836 173.437 o
-5 -4 -7 26.466 28.923 1.239 38.983 o
-5 -4 -6 60.998 56.355 1.748 11.591 o
-5 -4 -5 72.204 71.344 1.256 9.233 o
-5 -4 -4 15.181 13.488 0.710 111.112 o
-5 -4 -3 36.282 35.522 0.948 30.068 o
-5 -4 -2 5.757 3.617 0.782 218.336 o
-5 -4 -1 114.639 112.375 1.978 3.868 o
-5 -3 -16 30.237 28.561 2.064 23.500 o
-5 -3 -15 7.229 6.980 1.284 92.526 o
-5 -3 -14 24.197 22.458 1.632 36.099 o
-5 -3 -13 6.097 6.797 0.998 141.522 o
-5 -3 -12 1.115 0.516 0.625 450.572 o
-5 -3 -11 10.908 8.180 0.993 114.708 o
-5 -3 -10 17.481 18.575 1.090 66.991 o
-5 -3 -9 22.294 20.659 1.070 55.463 o
-5 -3 -8 67.759 67.688 1.410 10.011 o
-5 -3 -7 45.118 45.365 1.187 19.958 o
-5 -3 -6 108.405 106.509 2.068 4.225 o
-5 -3 -5 0.925 -0.022 0.344 1348.680 o
-5 -3 -4 29.356 29.456 1.074 38.361 o
-5 -3 -3 48.488 44.379 1.048 19.301 o
-5 -3 -2 47.591 48.473 1.179 18.285 o
-5 -3 -1 106.044 106.662 2.026 4.346 o
-5 -2 -16 40.538 44.273 2.280 15.574 o
-5 -2 -15 36.216 33.826 1.669 23.680 o
-5 -2 -14 51.265 49.718 1.873 14.091 o
-5 -2 -13 0.981 0.821 0.739 329.760 o
-5 -2 -12 13.795 15.668 1.077 81.454 o
-5 -2 -11 34.167 33.233 1.353 28.448 o
-5 -2 -10 39.438 39.685 1.108 24.971 o
-5 -2 -9 11.988 11.183 0.773 130.545 o
-5 -2 -8 59.500 60.237 1.128 12.879 o
-5 -2 -7 40.862 40.429 0.785 25.839 o
-5 -2 -6 1.897 2.246 0.446 670.300 o
-5 -2 -5 5.591 5.809 0.435 382.763 o
-5 -2 -4 19.709 18.108 0.647 83.287 o
-5 -2 -3 6.856 5.396 0.589 269.854 o
-5 -2 -2 63.869 60.787 0.931 12.127 o
-5 -2 -1 69.189 69.470 0.945 10.200 o
-5 -1 -16 21.468 19.234 1.488 44.114 o
-5 -1 -15 2.101 1.212 1.038 166.402 o
-5 -1 -14 28.387 28.152 1.283 36.518 o
-5 -1 -13 66.049 68.145 1.583 9.981 o
-5 -1 -12 2.368 2.859 0.756 280.618 o
-5 -1 -11 97.528 99.348 2.130 4.924 o
-5 -1 -10 43.293 43.236 1.502 19.494 o
-5 -1 -9 20.993 21.492 1.147 54.385 o
-5 -1 -8 6.123 4.460 0.642 267.783 o
-5 -1 -7 44.468 45.709 1.145 20.387 o
-5 -1 -6 33.674 32.773 0.778 35.519 o
-5 -1 -5 18.262 13.755 0.619 100.928 o
-5 -1 -4 100.780 95.522 1.435 5.173 o
-5 -1 -3 19.240 19.929 0.583 84.468 o
-5 -1 -2 11.646 11.724 0.544 164.943 o
-5 -1 -1 60.894 63.877 1.099 12.184 o
-4 -14 -1 12.297 12.891 1.613 53.939 o
-4 -13 -6 2.133 1.519 2.016 46.345 o
-4 -13 -5 0.765 -0.888 2.142 41.733 o
-4 -13 -4 5.293 3.118 1.276 103.164 o
-4 -13 -3 17.819 15.871 1.499 50.229 o
-4 -13 -2 0.029 -0.542 1.088 162.407 o
-4 -13 -1 7.199 6.751 1.480 73.610 o
-4 -12 -9 2.124 -0.002 1.790 58.920 o
-4 -12 -8 21.131 26.037 2.986 16.836 o
-4 -12 -7 20.142 18.858 1.761 37.874 o
-4 -12 -6 34.595 35.920 1.955 21.234 o
-4 -12 -5 23.825 22.647 1.894 30.926 o
-4 -12 -4 25.123 21.863 1.428 40.203 o
-4 -12 -3 1.871 1.749 1.013 173.924 o
-4 -12 -2 26.697 26.758 1.529 34.239 o
-4 -12 -1 14.070 16.893 1.328 63.197 o
-4 -11 -11 12.432 11.509 1.989 39.442 o
-4 -11 -10 13.508 9.864 1.948 40.616 o
-4 -11 -9 5.257 4.623 1.752 57.577 o
-4 -11 -8 26.072 32.477 2.602 18.553 o
-4 -11 -7 41.446 53.914 2.204 14.549 o
-4 -11 -6 23.500 25.298 1.763 32.788 o
-4 -11 -5 21.162 19.823 1.348 48.558 o
-4 -11 -4 2.821 1.178 0.887 216.539 o
-4 -11 -3 43.778 44.563 1.621 18.352 o
-4 -11 -2 38.845 37.192 1.501 22.962 o
-4 -11 -1 32.092 32.527 1.375 29.964 o
-4 -10 -12 3.096 3.748 1.337 98.790 o
-4 -10 -11 38.034 45.983 2.637 13.964 o
-4 -10 -10 6.651 8.504 1.610 63.454 o
-4 -10 -9 14.296 16.400 1.595 50.322 o
-4 -10 -8 5.443 0.937 0.965 170.574 o
-4 -10 -7 11.053 12.431 1.418 67.203 o
-4 -10 -6 56.191 61.406 2.123 11.042 o
-4 -10 -5 16.387 14.534 0.951 84.081 o
-4 -10 -4 34.432 33.396 1.179 30.148 o
-4 -10 -3 23.178 23.723 1.093 50.481 o
-4 -10 -2 0.760 0.900 0.646 427.353 o
-4 -10 -1 112.686 118.780 1.794 3.872 o
-4 -9 -14 30.219 33.295 2.847 15.514 o
-4 -9 -13 2.448 -2.283 1.032 169.589 o
-4 -9 -12 14.469 14.073 1.261 69.167 o
-4 -9 -11 1.495 1.256 0.951 199.441 o
-4 -9 -10 82.591 87.773 2.894 5.607 o
-4 -9 -9 46.082 52.842 1.912 14.863 o
-4 -9 -8 46.524 46.522 1.857 15.874 o
-4 -9 -7 41.016 42.724 1.606 19.893 o
-4 -9 -6 39.494 44.053 1.597 20.320 o
-4 -9 -5 21.166 22.085 1.253 50.033 o
-4 -9 -4 4.679 4.751 0.740 242.672 o
-4 -9 -3 4.003 3.832 0.661 303.805 o
-4 -9 -2 17.195 15.163 0.877 85.216 o
-4 -9 -1 126.927 121.408 1.921 3.287 o
-4 -8 -15 7.308 4.015 2.286 34.464 o
-4 -8 -14 9.971 9.916 2.614 25.576 o
-4 -8 -13 24.658 26.546 1.866 29.717 o
-4 -8 -12 11.845 10.373 1.312 75.240 o
-4 -8 -11 22.484 22.225 1.544 39.884 o
-4 -8 -10 16.427 14.741 1.252 64.894 o
-4 -8 -9 23.310 27.948 1.733 32.551 o
-4 -8 -8 114.710 121.592 2.270 3.602 o
-4 -8 -7 9.057 6.642 0.947 135.405 o
-4 -8 -6 8.627 8.922 0.887 142.031 o
-4 -8 -5 55.651 53.014 1.236 14.593 o
-4 -8 -4 24.045 24.232 1.008 50.955 o
-4 -8 -3 70.006 69.389 1.433 9.490 o
-4 -8 -2 2.169 1.911 0.597 429.872 o
-4 -8 -1 21.961 21.008 0.992 58.473 o
-4 -7 -15 43.368 53.186 4.024 7.723 o
-4 -7 -14 26.638 25.941 2.413 21.279 o
-4 -7 -13 26.655 28.497 1.872 27.866 o
-4 -7 -12 7.560 6.340 1.298 90.936 o
-4 -7 -11 10.393 10.664 1.199 88.215 o
-4 -7 -10 67.371 73.568 2.309 8.230 o
-4 -7 -9 18.392 17.168 1.322 55.695 o
-4 -7 -8 0.014 -0.456 0.834 276.239 o
-4 -7 -7 3.888 1.876 0.697 301.357 o
-4 -7 -6 63.465 63.074 1.102 11.708 o
-4 -7 -5 3.578 3.499 0.531 423.960 o
-4 -7 -4 6.931 6.933 0.655 229.047 o
-4 -7 -3 73.445 74.584 1.454 8.613 o
-4 -7 -2 6.422 5.163 0.456 352.373 o
-4 -7 -1 4.559 4.251 0.450 445.838 o
-4 -6 -16 15.100 13.056 2.087 34.612 o
-4 -6 -15 10.125 7.641 1.781 50.681 o
-4 -6 -14 31.830 26.170 2.048 23.511 o
-4 -6 -13 14.961 17.869 1.451 54.786 o
-4 -6 -12 5.059 2.805 0.766 238.386 o
-4 -6 -11 5.729 5.752 1.079 129.632 o
-4 -6 -10 1.194 1.589 0.703 350.131 o
-4 -6 -9 5.702 6.633 1.012 141.141 o
-4 -6 -8 4.518 5.619 0.809 210.914 o
-4 -6 -7 37.719 38.001 0.987 27.625 o
-4 -6 -6 0.425 0.715 0.406 1036.840 o
-4 -6 -5 33.257 32.925 0.892 34.661 o
-4 -6 -4 8.337 7.406 0.611 219.276 o
-4 -6 -3 102.884 104.209 1.385 4.810 o
-4 -6 -2 121.074 118.759 1.440 3.632 o
-4 -6 -1 167.418 166.432 2.371 1.898 o
-4 -5 -17 4.639 2.369 1.592 70.534 o
-4 -5 -16 17.437 13.391 1.618 47.558 o
-4 -5 -15 20.505 19.877 1.291 51.419 o
-4 -5 -14 6.575 7.207 0.917 155.166 o
-4 -5 -13 5.467 6.054 0.849 185.987 o
-4 -5 -12 6.811 7.780 0.961 142.244 o
-4 -5 -11 13.876 15.129 0.992 88.633 o
-4 -5 -10 0.870 -1.109 0.678 399.215 o
-4 -5 -9 13.502 12.814 0.780 115.428 o
-4 -5 -8 12.507 10.520 0.587 155.831 o
-4 -5 -7 70.633 69.348 1.206 9.683 o
-4 -5 -6 80.730 78.459 1.049 7.826 o
-4 -5 -5 61.186 58.261 0.775 13.302 o
-4 -5 -4 94.523 89.891 1.109 5.936 o
-4 -5 -3 2.487 2.654 0.325 872.010 o
-4 -5 -2 52.376 48.777 0.894 17.334 o
-4 -5 -1 252.791 239.780 1.584 0.917 o
-4 -4 -17 0.176 -0.710 1.268 119.339 o
-4 -4 -16 10.787 9.074 1.361 74.959 o
-4 -4 -15 11.948 10.778 1.171 86.342 o
-4 -4 -14 16.837 13.993 1.221 66.579 o
-4 -4 -13 10.581 9.041 0.901 127.358 o
-4 -4 -12 1.388 0.181 0.690 373.219 o
-4 -4 -11 0.306 0.382 0.701 381.449 o
-4 -4 -10 1.943 1.425 0.533 535.046 o
-4 -4 -9 26.424 25.754 0.907 48.141 o
-4 -4 -8 32.589 33.986 0.733 36.521 o
-4 -4 -7 32.303 30.355 0.746 38.909 o
-4 -4 -6 25.723 26.954 0.559 55.409 o
-4 -4 -5 215.014 208.781 1.102 1.245 o
-4 -4 -4 224.560 217.220 1.217 1.145 o
-4 -4 -3 66.492 60.828 0.842 11.664 o
-4 -4 -2 284.081 289.179 1.774 0.698 o
-4 -4 -1 61.638 60.313 1.066 12.477 o
-4 -3 -17 5.384 4.334 1.579 69.627 o
-4 -3 -16 0.246 1.583 1.066 165.357 o
-4 -3 -15 10.171 10.124 1.113 98.827 o
-4 -3 -14 5.879 5.945 0.969 151.441 o
-4 -3 -13 29.797 30.701 1.244 34.540 o
-4 -3 -12 6.043 4.309 0.908 171.322 o
-4 -3 -11 1.298 1.561 0.579 489.941 o
-4 -3 -10 18.930 17.424 0.798 79.820 o
-4 -3 -9 31.314 30.330 0.801 39.504 o
-4 -3 -8 16.921 17.470 0.602 99.396 o
-4 -3 -7 64.216 66.081 0.835 11.598 o
-4 -3 -6 219.458 222.686 1.154 1.162 o
-4 -3 -5 271.467 251.223 1.034 0.816 o
-4 -3 -4 73.029 69.443 0.553 9.854 o
-4 -3 -3 147.000 136.046 1.150 2.652 o
-4 -3 -2 26.240 24.124 0.641 55.775 o
-4 -3 -1 209.345 213.772 1.779 1.253 o
-4 -2 -18 5.395 6.722 1.735 57.625 o
-4 -2 -17 2.432 2.542 1.225 119.283 o
-4 -2 -16 10.413 10.514 1.144 94.007 o
-4 -2 -15 9.373 7.877 1.011 119.862 o
-4 -2 -14 14.155 10.502 1.126 84.161 o
-4 -2 -13 9.139 8.763 0.874 141.501 o
-4 -2 -12 31.810 33.026 1.479 28.658 o
-4 -2 -11 1.479 1.015 0.699 353.981 o
-4 -2 -10 36.947 38.052 0.911 28.799 o
-4 -2 -9 25.966 23.854 0.962 49.196 o
-4 -2 -8 0.484 0.476 0.352 1352.680 o
-4 -2 -7 95.676 94.482 1.198 5.643 o
-4 -2 -6 29.103 27.876 0.439 49.354 o
-4 -2 -5 173.348 168.933 0.955 1.885 o
-4 -2 -4 168.230 160.948 1.102 2.013 o
-4 -2 -3 50.785 56.274 0.675 17.044 o
-4 -2 -2 430.602 449.248 1.757 0.305 o
-4 -2 -1 2.591 1.865 0.386 758.602 o
-4 -1 -18 13.061 10.011 1.477 62.190 o
-4 -1 -17 5.857 4.894 1.130 121.672 o
-4 -1 -16 17.706 14.803 1.112 69.793 o
-4 -1 -15 23.182 20.552 1.260 47.944 o
-4 -1 -14 6.246 7.705 0.934 151.795 o
-4 -1 -13 12.614 11.143 0.925 108.293 o
-4 -1 -12 45.790 46.727 1.325 18.708 o
-4 -1 -11 0.358 -0.572 0.828 277.037 o
-4 -1 -10 38.004 39.764 1.177 25.333 o
-4 -1 -9 112.904 111.857 1.699 4.033 o
-4 -1 -8 251.598 251.496 2.217 0.886 o
-4 -1 -7 82.974 81.859 1.481 7.088 o
-4 -1 -6 116.930 112.809 0.990 4.000 o
-4 -1 -5 92.414 86.329 0.716 6.398 o
-4 -1 -4 71.077 66.494 0.647 10.391 o
-4 -1 -3 32.524 30.020 0.596 40.482 o
-4 -1 -2 0.102 0.816 0.298 1883.720 o
-4 -1 -1 112.452 112.242 1.227 4.165 o
-3 -14 -5 1.359 0.045 1.399 96.485 o
-3 -14 -4 8.419 6.552 1.586 64.121 o
-3 -14 -3 8.337 7.664 1.364 81.097 o
-3 -14 -2 1.046 0.423 1.164 138.469 o
-3 -14 -1 5.056 2.874 1.330 96.675 o
-3 -13 -9 14.815 16.366 2.864 20.189 o
-3 -13 -8 8.274 6.167 2.091 39.764 o
-3 -13 -7 8.485 7.662 1.826 49.880 o
-3 -13 -6 0.530 1.167 1.361 102.192 o
-3 -13 -5 72.551 79.333 2.752 6.797 o
-3 -13 -4 13.933 15.083 1.320 65.614 o
-3 -13 -3 14.175 12.386 1.337 66.703 o
-3 -13 -2 24.951 26.501 1.543 35.580 o
-3 -13 -1 2.033 1.615 1.157 135.387 o
-3 -12 -11 2.625 1.809 1.858 54.083 o
-3 -12 -10 27.713 22.854 2.852 17.040 o
-3 -12 -9 13.310 14.871 1.860 41.936 o
-3 -12 -8 3.556 2.883 1.738 60.444 o
-3 -12 -7 75.357 86.240 2.781 6.271 o
-3 -12 -6 2.487 3.544 1.459 85.136 o
-3 -12 -5 48.360 54.613 2.076 13.410 o
-3 -12 -4 6.288 5.671 1.118 120.619 o
-3 -12 -3 11.221 11.536 1.252 80.198 o
-3 -12 -2 29.969 26.882 1.459 32.670 o
-3 -12 -1 21.548 21.366 1.374 46.169 o
-3 -11 -12 14.790 11.700 2.854 20.754 o
-3 -11 -11 19.676 20.192 3.269 15.161 o
-3 -11 -10 18.838 16.754 1.777 39.357 o
-3 -11 -9 10.562 8.471 1.352 76.751 o
-3 -11 -8 19.294 14.447 1.562 46.919 o
-3 -11 -7 36.027 37.982 1.792 21.645 o
-3 -11 -6 11.312 11.570 1.170 87.116 o
-3 -11 -5 37.265 38.862 1.620 22.342 o
-3 -11 -4 6.802 6.857 0.921 153.831 o
-3 -11 -3 2.243 3.451 0.881 214.506 o
-3 -11 -2 16.580 15.492 1.120 71.236 o
-3 -11 -1 70.168 74.364 2.018 8.307 o
-3 -10 -14 7.539 9.881 3.025 19.857 o
-3 -10 -13 5.987 5.882 2.380 32.064 o
-3 -10 -12 41.019 37.041 3.029 12.251 o
-3 -10 -11 3.750 1.446 1.106 141.255 o
-3 -10 -10 33.153 34.637 2.237 19.463 o
-3 -10 -9 14.612 7.091 2.272 31.634 o
-3 -10 -8 0.877 0.772 1.054 167.938 o
-3 -10 -7 3.855 4.421 0.879 197.300 o
-3 -10 -6 20.993 19.418 1.324 49.873 o
-3 -10 -5 62.309 61.440 1.436 11.519 o
-3 -10 -4 15.274 13.534 0.925 91.876 o
-3 -10 -3 38.541 38.322 1.369 23.901 o
-3 -10 -2 24.416 20.908 1.089 50.852 o
-3 -10 -1 28.675 28.742 1.201 37.366 o
-3 -9 -15 25.316 26.502 3.346 13.478 o
-3 -9 -14 20.711 22.561 2.679 20.404 o
-3 -9 -13 1.642 2.568 1.665 67.331 o
-3 -9 -12 3.294 0.965 0.872 220.009 o
-3 -9 -11 17.674 16.831 1.454 51.560 o
-3 -9 -10 9.339 9.570 1.269 85.740 o
-3 -9 -9 9.738 9.260 1.182 93.980 o
-3 -9 -8 80.290 80.749 2.001 6.933 o
-3 -9 -7 19.600 16.484 1.188 60.010 o
-3 -9 -6 19.834 20.624 1.250 53.379 o
-3 -9 -5 1.625 2.458 0.888 221.067 o
-3 -9 -4 2.545 1.375 0.573 454.009 o
-3 -9 -3 12.551 11.066 0.785 125.772 o
-3 -9 -2 32.079 31.937 0.883 36.574 o
-3 -9 -1 85.385 84.243 1.396 6.803 o
-3 -8 -16 7.312 7.654 2.707 24.712 o
-3 -8 -15 16.957 16.499 1.703 43.410 o
-3 -8 -14 11.247 13.301 1.913 42.183 o
-3 -8 -13 18.163 18.234 1.604 44.656 o
-3 -8 -12 41.703 42.941 1.784 18.437 o
-3 -8 -11 12.841 10.644 1.108 89.539 o
-3 -8 -10 118.661 123.295 2.222 3.451 o
-3 -8 -9 5.171 4.018 0.844 199.789 o
-3 -8 -8 76.023 74.564 1.597 8.132 o
-3 -8 -7 28.930 29.456 1.422 33.051 o
-3 -8 -6 24.504 26.929 0.964 49.021 o
-3 -8 -5 21.915 21.505 1.212 50.658 o
-3 -8 -4 2.124 1.556 0.416 749.037 o
-3 -8 -3 1.794 0.946 0.304 1232.640 o
-3 -8 -2 25.153 24.646 0.753 55.022 o
-3 -8 -1 45.599 43.752 1.090 20.582 o
-3 -7 -16 7.963 5.540 1.627 62.481 o
-3 -7 -15 59.345 63.478 2.511 9.437 o
-3 -7 -14 40.843 42.533 2.282 15.713 o
-3 -7 -13 5.859 4.772 1.097 127.815 o
-3 -7 -12 21.559 20.397 1.201 52.486 o
-3 -7 -11 0.868 1.138 0.671 393.791 o
-3 -7 -10 52.282 57.513 1.541 13.998 o
-3 -7 -9 72.203 70.432 1.712 8.730 o
-3 -7 -8 132.247 127.279 1.728 3.076 o
-3 -7 -7 38.353 35.795 0.859 28.977 o
-3 -7 -6 73.262 67.241 0.983 9.670 o
-3 -7 -5 41.587 44.946 0.950 23.075 o
-3 -7 -4 96.342 92.723 1.045 5.716 o
-3 -7 -3 26.934 24.404 0.590 54.982 o
-3 -7 -2 34.597 27.592 0.694 38.346 o
-3 -7 -1 79.867 72.736 1.039 8.287 o
-3 -6 -17 5.752 2.512 1.311 98.016 o
-3 -6 -16 42.606 46.661 2.152 15.439 o
-3 -6 -15 76.531 78.057 2.121 7.289 o
-3 -6 -14 7.277 7.503 1.061 122.323 o
-3 -6 -13 17.521 16.624 1.066 70.538 o
-3 -6 -12 5.511 4.336 0.709 247.610 o
-3 -6 -11 18.722 17.920 0.921 73.259 o
-3 -6 -10 83.363 83.636 1.692 6.798 o
-3 -6 -9 32.784 34.154 1.099 32.139 o
-3 -6 -8 117.360 110.953 1.234 3.976 o
-3 -6 -7 26.561 26.503 0.614 53.122 o
-3 -6 -6 94.507 89.571 0.871 6.038 o
-3 -6 -5 48.627 49.316 0.601 19.572 o
-3 -6 -4 69.791 69.431 0.594 10.395 o
-3 -6 -3 63.820 68.720 0.700 11.548 o
-3 -6 -2 40.559 40.687 0.479 27.393 o
-3 -6 -1 64.774 61.126 0.634 12.241 o
-3 -5 -18 7.994 7.875 1.449 74.007 o
-3 -5 -17 13.059 14.227 1.518 56.825 o
-3 -5 -16 0.526 0.850 1.303 111.639 o
-3 -5 -15 3.040 4.073 0.954 179.192 o
-3 -5 -14 62.107 67.990 1.712 10.414 o
-3 -5 -13 28.722 26.623 1.201 38.460 o
-3 -5 -12 6.976 6.624 0.774 191.448 o
-3 -5 -11 38.447 37.239 1.357 24.363 o
-3 -5 -10 25.626 24.318 0.924 50.308 o
-3 -5 -9 38.150 37.766 0.889 28.133 o
-3 -5 -8 16.535 15.995 0.542 109.400 o
-3 -5 -7 17.733 17.418 0.431 104.779 o
-3 -5 -6 131.441 123.203 0.819 3.285 o
-3 -5 -5 30.872 30.161 0.407 44.614 o
-3 -5 -4 378.040 369.590 1.416 0.411 o
-3 -5 -3 56.195 51.035 0.516 16.296 o
-3 -5 -2 334.499 319.974 1.690 0.529 o
-3 -5 -1 26.534 22.799 0.544 58.566 o
-3 -4 -18 4.449 3.368 1.440 84.341 o
-3 -4 -17 5.956 5.253 1.228 105.408 o
-3 -4 -16 4.308 4.994 1.313 98.183 o
-3 -4 -15 13.223 9.778 1.237 78.630 o
-3 -4 -14 39.399 38.650 1.665 21.041 o
-3 -4 -13 25.386 23.812 1.118 46.303 o
-3 -4 -12 10.598 11.665 0.988 108.853 o
-3 -4 -11 4.820 4.979 0.672 271.488 o
-3 -4 -10 22.139 17.891 0.835 67.663 o
-3 -4 -9 61.023 60.072 0.953 12.841 o
-3 -4 -8 13.667 13.695 0.474 144.443 o
-3 -4 -7 76.575 76.317 0.638 8.740 o
-3 -4 -6 217.696 208.786 1.068 1.225 o
-3 -4 -5 2.879 2.599 0.218 1095.770 o
-3 -4 -4 135.262 130.953 0.799 3.051 o
-3 -4 -3 26.158 24.310 0.519 58.141 o
-3 -4 -2 9.839 10.829 0.383 224.976 o
-3 -4 -1 41.871 44.689 0.744 23.986 o
-3 -3 -18 15.998 16.814 1.599 47.980 o
-3 -3 -17 0.767 0.545 1.238 123.232 o
-3 -3 -16 6.534 4.569 1.057 132.991 o
-3 -3 -15 35.833 39.281 1.838 21.048 o
-3 -3 -14 1.743 0.790 0.861 239.959 o
-3 -3 -13 1.625 1.661 0.688 353.969 o
-3 -3 -12 11.906 11.280 0.715 138.979 o
-3 -3 -11 39.065 37.306 1.041 26.499 o
-3 -3 -10 2.647 2.311 0.527 490.063 o
-3 -3 -9 122.847 117.735 1.242 3.622 o
-3 -3 -8 6.650 8.058 0.389 332.626 o
-3 -3 -7 11.852 10.821 0.379 193.282 o
-3 -3 -6 31.099 28.098 0.453 45.503 o
-3 -3 -5 164.331 165.771 0.967 2.043 o
-3 -3 -4 111.340 116.163 0.794 4.206 o
-3 -3 -3 4.900 3.078 0.285 642.685 o
-3 -3 -2 355.303 339.258 1.550 0.471 o
-3 -3 -1 48.439 52.374 0.771 18.535 o
-3 -2 -18 5.239 5.487 1.371 88.747 o
-3 -2 -17 11.450 10.434 1.430 67.400 o
-3 -2 -16 31.467 30.326 1.918 24.249 o
-3 -2 -15 28.363 29.546 1.424 33.470 o
-3 -2 -14 31.920 34.285 1.398 29.145 o
-3 -2 -13 54.415 54.607 1.280 14.596 o
-3 -2 -12 20.978 21.635 0.868 64.528 o
-3 -2 -11 4.138 3.355 0.592 354.187 o
-3 -2 -10 65.408 62.291 1.254 11.152 o
-3 -2 -9 108.181 105.087 1.452 4.483 o
-3 -2 -8 73.035 78.057 1.072 8.815 o
-3 -2 -7 316.669 318.780 1.432 0.571 o
-3 -2 -6 23.096 22.965 0.478 69.015 o
-3 -2 -5 27.746 26.866 0.407 53.425 o
-3 -2 -4 8.516 7.559 0.283 320.718 o
-3 -2 -3 335.886 312.982 1.122 0.536 o
-3 -2 -2 154.914 154.583 0.866 2.308 o
-3 -2 -1 107.020 113.097 0.853 4.483 o
-3 -1 -19 1.007 0.936 1.361 101.658 o
-3 -1 -18 11.902 13.797 1.689 50.336 o
-3 -1 -17 1.060 1.801 0.945 202.966 o
-3 -1 -16 43.050 40.953 2.639 13.462 o
-3 -1 -15 17.254 18.736 1.178 62.923 o
-3 -1 -14 34.479 36.134 1.451 26.199 o
-3 -1 -13 23.332 24.131 0.968 53.443 o
-3 -1 -12 1.055 -0.127 0.581 525.722 o
-3 -1 -11 102.795 98.590 1.678 4.864 o
-3 -1 -10 8.926 9.067 0.681 182.325 o
-3 -1 -9 112.971 116.766 1.250 4.037 o
-3 -1 -8 19.284 18.177 0.583 87.905 o
-3 -1 -7 178.894 166.628 1.496 1.802 o
-3 -1 -6 30.978 31.362 0.576 41.918 o
-3 -1 -5 231.343 235.302 1.256 1.046 o
-3 -1 -4 107.737 111.399 0.790 4.501 o
-3 -1 -3 113.699 105.892 0.775 4.341 o
-3 -1 -2 131.301 140.256 0.998 3.014 o
-3 -1 -1 148.202 160.444 1.277 2.356 o
-2 -15 -3 10.570 9.851 1.644 56.092 o
-2 -15 -2 35.272 41.465 2.559 15.507 o
-2 -15 -1 2.087 2.641 1.304 106.746 o
-2 -14 -7 5.738 3.857 1.605 67.510 o
-2 -14 -6 22.085 23.407 2.082 28.294 o
-2 -14 -5 9.005 9.095 1.720 54.101 o
-2 -14 -4 40.450 39.163 2.323 16.005 o
-2 -14 -3 3.553 2.887 1.409 89.712 o
-2 -14 -2 33.795 34.935 1.837 22.933 o
-2 -14 -1 5.608 6.278 1.301 95.297 o
-2 -13 -10 30.183 30.175 2.716 16.842 o
-2 -13 -9 1.129 4.039 2.135 41.339 o
-2 -13 -8 3.751 3.736 1.375 92.725 o
-2 -13 -7 15.204 13.492 1.781 43.680 o
-2 -13 -6 2.706 0.582 1.640 69.228 o
-2 -13 -5 18.261 17.986 1.621 44.105 o
-2 -13 -4 55.716 61.513 2.013 11.416 o
-2 -13 -3 20.931 18.672 1.474 45.491 o
-2 -13 -2 2.649 1.396 0.801 259.633 o
-2 -13 -1 27.557 25.901 1.682 31.172 o
-2 -12 -12 4.976 5.232 3.165 18.697 o
-2 -12 -11 2.471 1.222 1.532 78.874 o
-2 -12 -10 1.208 0.213 1.811 58.008 o
-2 -12 -9 8.627 6.472 1.717 55.851 o
-2 -12 -8 59.300 63.553 2.758 8.870 o
-2 -12 -7 7.313 5.190 1.487 74.096 o
-2 -12 -6 2.831 3.373 1.113 139.386 o
-2 -12 -5 87.572 90.284 2.651 5.431 o
-2 -12 -4 14.409 14.376 1.311 65.905 o
-2 -12 -3 15.146 12.985 1.213 71.936 o
-2 -12 -2 55.316 56.692 1.931 12.192 o
-2 -12 -1 30.349 30.835 1.271 33.552 o
-2 -11 -13 4.258 4.101 1.959 47.483 o
-2 -11 -12 2.550 2.148 2.315 35.173 o
-2 -11 -11 3.917 3.251 1.296 103.397 o
-2 -11 -10 17.640 14.888 1.815 39.983 o
-2 -11 -9 12.441 12.639 1.393 66.177 o
-2 -11 -8 72.410 80.986 2.484 7.089 o
-2 -11 -7 20.276 17.894 1.617 42.239 o
-2 -11 -6 18.376 17.915 1.282 56.831 o
-2 -11 -5 9.141 8.755 1.032 115.807 o
-2 -11 -4 11.850 9.364 1.093 96.543 o
-2 -11 -3 49.805 54.552 1.639 14.727 o
-2 -11 -2 13.072 13.342 1.085 86.593 o
-2 -11 -1 98.965 102.471 1.748 4.941 o
-2 -10 -14 15.691 15.749 1.822 40.982 o
-2 -10 -13 1.723 2.533 1.544 77.825 o
-2 -10 -12 8.400 2.621 1.974 45.022 o
-2 -10 -11 17.647 18.270 2.122 31.077 o
-2 -10 -10 37.617 40.120 1.954 19.257 o
-2 -10 -9 64.824 71.739 1.937 9.295 o
-2 -10 -8 3.551 2.762 0.709 291.790 o
-2 -10 -7 3.402 2.926 0.764 260.684 o
-2 -10 -6 36.426 39.220 1.324 25.259 o
-2 -10 -5 88.812 90.919 2.123 5.737 o
-2 -10 -4 6.757 7.818 0.795 181.880 o
-2 -10 -3 23.617 21.509 1.050 52.905 o
-2 -10 -2 20.185 19.779 1.170 56.523 o
-2 -10 -1 144.311 146.776 2.107 2.486 o
-2 -9 -15 0.298 2.292 1.685 66.809 o
-2 -9 -14 11.080 10.015 2.170 35.108 o
-2 -9 -13 9.799 13.170 2.037 38.945 o
-2 -9 -12 4.730 6.013 1.546 72.090 o
-2 -9 -11 3.920 1.674 0.647 338.633 o
-2 -9 -10 22.007 20.471 1.174 52.602 o
-2 -9 -9 65.996 73.304 1.787 9.270 o
-2 -9 -8 116.560 121.670 2.819 3.363 o
-2 -9 -7 15.593 15.856 1.181 69.573 o
-2 -9 -6 6.236 5.054 0.689 239.982 o
-2 -9 -5 6.321 6.085 0.708 224.285 o
-2 -9 -4 24.148 22.098 1.097 50.103 o
-2 -9 -3 21.005 17.265 0.869 70.207 o
-2 -9 -2 3.265 3.027 0.579 395.699 o
-2 -9 -1 248.909 238.515 2.606 0.920 o
-2 -8 -16 1.662 2.742 1.472 85.272 o
-2 -8 -15 14.023 14.119 2.424 27.355 o
-2 -8 -14 17.681 17.239 1.713 42.063 o
-2 -8 -13 22.032 21.417 1.698 36.834 o
-2 -8 -12 13.640 14.582 1.309 67.382 o
-2 -8 -11 4.951 4.449 0.809 212.417 o
-2 -8 -10 42.757 43.129 1.102 22.107 o
-2 -8 -9 16.900 16.288 0.868 84.841 o
-2 -8 -8 45.215 48.654 1.208 19.098 o
-2 -8 -7 39.597 36.380 1.032 26.518 o
-2 -8 -6 18.760 16.510 0.592 93.440 o
-2 -8 -5 180.419 178.354 1.602 1.705 o
-2 -8 -4 13.936 11.050 0.554 144.869 o
-2 -8 -3 90.844 94.731 0.986 6.084 o
-2 -8 -2 110.028 100.385 1.173 4.588 o
-2 -8 -1 107.127 101.237 1.228 4.706 o
-2 -7 -17 10.413 9.577 1.649 56.154 o
-2 -7 -16 8.809 6.920 1.439 74.317 o
-2 -7 -15 12.383 8.230 1.590 57.856 o
-2 -7 -14 2.449 2.201 1.009 171.071 o
-2 -7 -13 58.832 64.526 1.722 11.284 o
-2 -7 -12 8.857 9.184 0.862 144.153 o
-2 -7 -11 1.810 1.939 0.684 351.410 o
-2 -7 -10 49.296 56.285 1.438 15.349 o
-2 -7 -9 29.883 33.928 0.913 37.564 o
-2 -7 -8 36.570 35.615 0.876 30.405 o
-2 -7 -7 3.288 2.666 0.324 770.890 o
-2 -7 -6 2.601 2.617 0.350 798.311 o
-2 -7 -5 140.114 126.511 0.850 2.973 o
-2 -7 -4 11.706 11.289 0.363 194.399 o
-2 -7 -3 318.665 301.186 1.669 0.586 o
-2 -7 -2 20.786 16.108 0.509 89.149 o
-2 -7 -1 185.936 169.623 1.450 1.698 o
-2 -6 -18 2.216 2.083 1.813 56.872 o
-2 -6 -17 15.087 12.084 1.559 53.589 o
-2 -6 -16 1.112 1.972 1.169 134.931 o
-2 -6 -15 8.660 8.873 1.138 103.188 o
-2 -6 -14 62.386 62.450 1.828 10.599 o
-2 -6 -13 3.510 0.943 0.591 408.584 o
-2 -6 -12 0.501 0.324 0.615 485.921 o
-2 -6 -11 29.461 29.709 1.446 32.137 o
-2 -6 -10 31.456 31.687 0.946 36.620 o
-2 -6 -9 61.621 56.415 1.010 13.048 o
-2 -6 -8 7.605 8.220 0.482 268.200 o
-2 -6 -7 196.845 182.201 1.167 1.519 o
-2 -6 -6 126.776 117.764 0.722 3.546 o
-2 -6 -5 173.089 167.937 0.834 1.900 o
-2 -6 -4 38.817 38.898 0.438 29.723 o
-2 -6 -3 13.405 14.098 0.374 154.914 o
-2 -6 -2 61.793 67.225 0.811 12.029 o
-2 -6 -1 38.585 34.835 0.643 30.688 o
-2 -5 -18 4.073 4.039 1.776 57.280 o
-2 -5 -17 26.785 22.483 1.980 27.777 o
-2 -5 -16 48.619 48.691 1.966 14.507 o
-2 -5 -15 10.491 10.244 1.227 85.846 o
-2 -5 -14 1.748 1.635 0.873 230.281 o
-2 -5 -13 33.565 37.527 1.533 25.490 o
-2 -5 -12 18.154 17.580 0.968 72.929 o
-2 -5 -11 0.616 1.125 0.639 438.172 o
-2 -5 -10 16.652 15.881 0.666 100.515 o
-2 -5 -9 2.080 1.646 0.329 1001.110 o
-2 -5 -8 187.127 188.109 1.193 1.589 o
-2 -5 -7 87.749 81.191 0.666 7.099 o
-2 -5 -6 170.100 167.864 0.926 1.940 o
-2 -5 -5 211.909 194.247 0.987 1.329 o
-2 -5 -4 120.766 121.622 0.722 3.699 o
-2 -5 -3 62.319 54.827 0.459 13.832 o
-2 -5 -2 147.654 162.516 1.156 2.355 o
-2 -5 -1 45.542 45.579 0.633 21.994 o
-2 -4 -19 4.322 4.869 1.515 76.073 o
-2 -4 -18 3.759 4.606 1.566 72.451 o
-2 -4 -17 0.998 2.085 1.367 99.838 o
-2 -4 -16 8.332 10.438 1.329 81.420 o
-2 -4 -15 51.832 57.198 1.888 13.018 o
-2 -4 -14 39.965 38.754 1.603 21.241 o
-2 -4 -13 58.393 56.770 1.689 12.226 o
-2 -4 -12 12.689 10.174 0.738 134.110 o
-2 -4 -11 30.497 32.246 0.967 37.092 o
-2 -4 -10 17.272 15.211 0.594 103.983 o
-2 -4 -9 97.758 90.291 0.848 5.766 o
-2 -4 -8 18.617 17.511 0.371 102.179 o
-2 -4 -7 109.316 112.484 0.753 4.399 o
-2 -4 -6 8.378 8.881 0.307 298.169 o
-2 -4 -5 79.878 84.790 0.693 7.752 o
-2 -4 -4 202.938 190.821 0.891 1.424 o
-2 -4 -3 206.064 201.253 0.835 1.351 o
-2 -4 -2 310.026 338.653 1.003 0.565 o
-2 -4 -1 40.865 40.084 0.527 27.204 o
-2 -3 -19 13.182 14.301 2.150 33.654 o
-2 -3 -18 20.952 18.055 1.707 38.972 o
-2 -3 -17 22.299 21.775 1.822 33.679 o
-2 -3 -16 7.013 5.200 1.212 104.586 o
-2 -3 -15 59.614 65.775 2.464 9.358 o
-2 -3 -14 5.142 4.814 1.022 146.520 o
-2 -3 -13 22.060 21.687 1.229 49.721 o
-2 -3 -12 30.420 29.197 0.939 39.394 o
-2 -3 -11 26.753 22.716 0.920 49.843 o
-2 -3 -10 63.209 57.724 0.852 12.751 o
-2 -3 -9 7.770 7.930 0.326 324.559 o
-2 -3 -8 1.894 1.369 0.186 1786.600 o
-2 -3 -7 93.571 93.568 0.634 6.020 o
-2 -3 -6 356.557 356.443 1.128 0.456 o
-2 -3 -5 370.355 385.665 1.072 0.412 o
-2 -3 -4 20.158 17.267 0.264 97.986 o
-2 -3 -3 307.233 327.130 1.128 0.585 o
-2 -3 -2 158.418 154.902 0.761 2.244 o
-2 -3 -1 208.245 207.581 0.932 1.305 o
-2 -2 -19 3.868 2.856 1.679 64.319 o
-2 -2 -18 8.975 8.396 1.651 58.293 o
-2 -2 -17 20.717 20.867 1.710 37.882 o
-2 -2 -16 3.429 3.960 1.256 109.694 o
-2 -2 -15 37.529 38.233 1.640 22.197 o
-2 -2 -14 1.874 1.071 0.745 308.529 o
-2 -2 -13 28.375 29.241 0.978 41.330 o
-2 -2 -12 18.982 17.696 0.749 81.762 o
-2 -2 -11 61.012 62.321 1.198 12.155 o
-2 -2 -10 22.859 22.146 0.556 68.969 o
-2 -2 -9 23.697 22.353 0.560 66.126 o
-2 -2 -8 1.081 0.721 0.210 2325.330 o
-2 -2 -7 581.081 598.894 1.781 0.170 o
-2 -2 -6 68.666 74.885 0.590 10.113 o
-2 -2 -5 503.780 534.403 1.391 0.222 o
-2 -2 -4 175.454 171.383 0.760 1.845 o
-2 -2 -3 235.282 246.316 0.830 0.998 o
-2 -2 -2 573.362 624.101 2.567 0.168 o
-2 -2 -1 0.211 1.296 0.264 2085.670 o
-2 -1 -19 58.423 64.565 2.702 9.043 o
-2 -1 -18 10.753 10.092 1.396 71.357 o
-2 -1 -17 1.418 0.437 1.045 169.089 o
-2 -1 -16 25.376 22.399 1.393 40.469 o
-2 -1 -15 91.079 98.215 2.283 5.242 o
-2 -1 -14 1.257 1.136 0.920 214.747 o
-2 -1 -13 4.915 3.685 1.038 146.815 o
-2 -1 -12 74.829 71.602 1.142 8.952 o
-2 -1 -11 33.627 33.693 0.925 33.535 o
-2 -1 -10 72.124 71.462 0.870 9.615 o
-2 -1 -9 132.285 128.290 0.955 3.165 o
-2 -1 -8 128.837 139.657 0.888 3.104 o
-2 -1 -7 44.283 38.823 0.527 25.192 o
-2 -1 -6 40.559 44.368 0.861 24.335 o
-2 -1 -5 445.486 449.289 1.622 0.292 o
-2 -1 -4 86.164 82.844 0.586 7.204 o
-2 -1 -3 257.668 267.034 0.902 0.841 o
-2 -1 -2 644.709 683.407 2.452 0.136 o
-2 -1 -1 404.649 385.217 1.581 0.366 o
-1 -15 -4 5.767 6.356 1.601 66.365 o
-1 -15 -3 8.973 9.486 1.578 62.105 o
-1 -15 -2 4.815 4.759 1.279 101.918 o
-1 -15 -1 15.883 16.572 1.680 45.207 o
-1 -14 -8 0.806 0.296 1.430 92.841 o
-1 -14 -7 13.337 10.297 1.734 48.673 o
-1 -14 -6 6.817 6.886 1.651 61.429 o
-1 -14 -5 123.280 138.936 3.037 2.873 o
-1 -14 -4 10.027 10.921 1.825 47.427 o
-1 -14 -3 6.085 5.255 1.292 96.444 o
-1 -14 -2 3.365 3.251 1.245 112.528 o
-1 -14 -1 33.538 33.075 1.815 23.727 o
-1 -13 -10 11.357 11.671 2.172 34.571 o
-1 -13 -9 3.704 3.261 1.383 92.173 o
-1 -13 -8 1.909 1.186 1.460 87.324 o
-1 -13 -7 7.212 7.854 1.435 76.578 o
-1 -13 -6 5.847 4.289 1.176 115.056 o
-1 -13 -5 18.010 15.622 1.500 50.115 o
-1 -13 -4 0.020 0.141 1.041 177.011 o
-1 -13 -3 1.581 0.551 0.989 186.959 o
-1 -13 -2 2.401 2.496 1.027 165.305 o
-1 -13 -1 36.549 34.645 1.601 23.945 o
-1 -12 -12 19.169 14.764 2.512 24.118 o
-1 -12 -11 0.212 0.968 1.274 117.122 o
-1 -12 -10 6.139 3.621 1.086 131.192 o
-1 -12 -9 4.748 3.777 1.037 147.586 o
-1 -12 -8 37.500 32.689 1.816 21.954 o
-1 -12 -7 29.887 31.100 1.689 27.796 o
-1 -12 -6 9.241 9.573 1.291 83.791 o
-1 -12 -5 10.557 11.812 1.228 83.611 o
-1 -12 -4 14.585 13.799 1.216 72.107 o
-1 -12 -3 5.280 5.793 0.969 155.449 o
-1 -12 -2 31.585 30.052 1.377 31.299 o
-1 -12 -1 41.157 40.623 1.659 19.914 o
-1 -11 -14 0.319 -2.082 1.811 58.455 o
-1 -11 -13 3.046 6.188 1.910 49.881 o
-1 -11 -12 11.386 11.890 1.983 40.163 o
-1 -11 -11 18.598 16.060 1.572 46.463 o
-1 -11 -10 75.685 83.750 2.385 6.798 o
-1 -11 -9 2.013 0.154 0.815 266.491 o
-1 -11 -8 27.424 29.955 1.545 32.063 o
-1 -11 -7 117.928 121.227 2.404 3.457 o
-1 -11 -6 11.087 10.037 1.057 102.052 o
-1 -11 -5 29.106 28.575 1.373 34.094 o
-1 -11 -4 11.345 11.222 0.964 109.396 o
-1 -11 -3 0.361 -0.233 0.730 354.748 o
-1 -11 -2 14.846 12.856 0.969 91.163 o
-1 -11 -1 41.672 44.505 1.544 19.651 o
-1 -10 -15 2.281 4.009 1.576 73.538 o
-1 -10 -14 37.054 39.720 2.454 15.967 o
-1 -10 -13 1.875 1.527 1.443 89.070 o
-1 -10 -12 34.778 33.748 2.907 14.213 o
-1 -10 -11 2.711 2.159 0.759 278.549 o
-1 -10 -10 70.389 78.267 1.825 8.313 o
-1 -10 -9 7.600 7.749 1.050 122.153 o
-1 -10 -8 129.381 137.466 2.126 2.943 o
-1 -10 -7 0.943 0.980 0.724 341.663 o
-1 -10 -6 13.569 11.802 1.259 73.773 o
-1 -10 -5 70.019 64.400 2.146 8.732 o
-1 -10 -4 11.829 12.407 0.925 109.002 o
-1 -10 -3 30.507 32.004 1.301 32.456 o
-1 -10 -2 21.723 22.931 1.011 56.365 o
-1 -10 -1 17.630 17.867 0.873 79.310 o
-1 -9 -16 3.000 2.285 1.581 73.180 o
-1 -9 -15 17.622 12.813 1.561 49.911 o
-1 -9 -14 3.704 5.681 1.278 103.591 o
-1 -9 -13 10.179 9.211 1.253 85.579 o
-1 -9 -12 0.659 -0.396 0.727 352.374 o
-1 -9 -11 22.739 21.877 1.019 55.148 o
-1 -9 -10 137.469 147.644 2.179 2.613 o
-1 -9 -9 0.320 0.366 0.658 431.593 o
-1 -9 -8 44.756 49.548 1.220 19.048 o
-1 -9 -7 51.924 49.861 1.205 16.341 o
-1 -9 -6 7.528 7.190 0.647 221.053 o
-1 -9 -5 22.453 20.320 0.817 64.315 o
-1 -9 -4 111.000 105.776 1.272 4.376 o
-1 -9 -3 58.574 58.400 1.230 13.117 o
-1 -9 -2 114.034 114.177 1.680 3.942 o
-1 -9 -1 56.979 55.430 1.153 14.094 o
-1 -8 -17 38.703 43.758 2.914 12.634 o
-1 -8 -16 0.349 0.904 1.383 99.472 o
-1 -8 -15 11.914 10.048 1.628 55.283 o
-1 -8 -14 30.204 29.789 1.847 25.900 o
-1 -8 -13 3.050 2.089 0.891 209.180 o
-1 -8 -12 18.126 17.765 1.203 60.953 o
-1 -8 -11 34.880 40.397 1.363 25.500 o
-1 -8 -10 51.694 54.405 1.893 13.352 o
-1 -8 -9 2.819 3.890 0.632 349.788 o
-1 -8 -8 9.856 10.827 0.649 170.134 o
-1 -8 -7 96.331 88.814 1.197 5.803 o
-1 -8 -6 32.130 30.586 0.732 39.147 o
-1 -8 -5 20.993 23.828 0.546 72.438 o
-1 -8 -4 98.623 94.395 0.798 5.567 o
-1 -8 -3 7.714 7.462 0.332 331.659 o
-1 -8 -2 46.036 45.026 0.644 21.839 o
-1 -8 -1 189.252 178.383 1.102 1.622 o
-1 -7 -17 2.293 1.825 1.243 117.340 o
-1 -7 -16 2.877 3.662 1.307 103.578 o
-1 -7 -15 22.971 22.543 1.562 38.785 o
-1 -7 -14 21.854 22.721 1.559 39.860 o
-1 -7 -13 3.804 4.306 1.001 160.246 o
-1 -7 -12 0.973 1.599 0.701 356.137 o
-1 -7 -11 7.091 6.856 0.823 175.712 o
-1 -7 -10 5.361 6.132 0.614 280.278 o
-1 -7 -9 31.283 26.397 0.759 42.784 o
-1 -7 -8 68.665 71.217 0.872 10.211 o
-1 -7 -7 43.129 46.850 0.728 22.659 o
-1 -7 -6 135.985 131.006 0.926 3.019 o
-1 -7 -5 6.191 6.395 0.308 425.287 o
-1 -7 -4 225.222 213.757 1.182 1.153 o
-1 -7 -3 17.039 17.777 0.390 109.830 o
-1 -7 -2 36.592 32.306 0.445 35.183 o
-1 -7 -1 114.031 104.234 0.702 4.377 o
-1 -6 -18 0.268 -3.651 1.519 83.126 o
-1 -6 -17 8.851 6.193 1.476 71.799 o
-1 -6 -16 13.425 15.807 1.623 50.463 o
-1 -6 -15 54.117 53.960 2.129 12.086 o
-1 -6 -14 10.533 10.544 1.280 80.605 o
-1 -6 -13 2.935 2.643 0.746 279.476 o
-1 -6 -12 67.316 75.281 1.454 9.424 o
-1 -6 -11 8.009 7.787 0.676 201.820 o
-1 -6 -10 140.818 144.331 1.494 2.666 o
-1 -6 -9 11.850 9.467 0.453 191.059 o
-1 -6 -8 47.982 47.175 0.641 20.288 o
-1 -6 -7 169.865 161.053 0.969 1.993 o
-1 -6 -6 57.320 52.135 0.591 15.611 o
-1 -6 -5 8.896 9.305 0.301 279.982 o
-1 -6 -4 122.304 114.241 0.663 3.789 o
-1 -6 -3 109.215 100.685 0.787 4.708 o
-1 -6 -2 14.786 17.868 0.403 124.046 o
-1 -6 -1 56.040 53.998 0.660 15.617 o
-1 -5 -19 6.805 4.703 1.857 50.693 o
-1 -5 -18 0.475 3.955 1.680 66.503 o
-1 -5 -17 2.768 1.671 1.142 136.286 o
-1 -5 -16 39.409 44.259 2.247 16.067 o
-1 -5 -15 64.036 65.903 1.926 9.856 o
-1 -5 -14 70.735 72.528 1.848 8.594 o
-1 -5 -13 59.799 65.812 1.596 11.256 o
-1 -5 -12 1.742 1.548 0.532 543.607 o
-1 -5 -11 35.146 31.173 1.019 32.270 o
-1 -5 -10 42.665 46.899 0.890 22.220 o
-1 -5 -9 17.453 21.021 0.567 90.415 o
-1 -5 -8 112.071 110.365 0.848 4.300 o
-1 -5 -7 4.466 4.605 0.296 600.273 o
-1 -5 -6 95.427 93.807 0.683 5.853 o
-1 -5 -5 24.813 25.366 0.398 62.269 o
-1 -5 -4 146.242 154.686 0.872 2.481 o
-1 -5 -3 266.429 273.856 1.282 0.790 o
-1 -5 -2 432.102 447.835 1.268 0.305 o
-1 -5 -1 32.186 29.900 0.402 42.805 o
-1 -4 -19 4.104 6.635 1.599 68.180 o
-1 -4 -18 6.649 6.386 1.525 71.043 o
-1 -4 -17 21.155 20.433 1.729 37.212 o
-1 -4 -16 2.362 2.129 1.103 145.848 o
-1 -4 -15 38.276 40.718 1.790 20.130 o
-1 -4 -14 192.422 203.945 4.251 1.292 o
-1 -4 -13 49.005 48.707 1.435 16.663 o
-1 -4 -12 93.746 92.452 1.550 5.692 o
-1 -4 -11 17.797 10.924 0.673 106.891 o
-1 -4 -10 219.840 216.833 2.003 1.161 o
-1 -4 -9 4.947 2.491 0.345 588.189 o
-1 -4 -8 20.966 19.741 0.466 82.377 o
-1 -4 -7 45.049 45.460 0.566 22.511 o
-1 -4 -6 110.335 106.707 0.664 4.507 o
-1 -4 -5 313.751 335.285 1.110 0.560 o
-1 -4 -4 165.834 177.592 0.701 1.939 o
-1 -4 -3 37.279 42.921 0.354 29.612 o
-1 -4 -2 81.912 87.852 0.479 7.423 o
-1 -4 -1 72.713 78.410 0.608 9.163 o
-1 -3 -19 25.343 27.144 1.874 29.004 o
-1 -3 -18 10.028 9.791 1.482 66.704 o
-1 -3 -17 0.393 0.213 1.160 141.535 o
-1 -3 -16 83.348 89.340 2.323 6.025 o
-1 -3 -15 187.721 199.185 3.270 1.420 o
-1 -3 -14 7.988 7.283 1.267 92.230 o
-1 -3 -13 9.874 10.872 0.960 117.690 o
-1 -3 -12 4.435 4.051 0.459 447.333 o
-1 -3 -11 17.930 17.086 0.774 85.401 o
-1 -3 -10 0.549 0.871 0.320 1499.220 o
-1 -3 -9 660.153 665.967 2.288 0.134 o
-1 -3 -8 17.426 16.258 0.486 106.957 o
-1 -3 -7 42.379 51.847 0.588 22.149 o
-1 -3 -6 118.119 129.599 0.657 3.654 o
-1 -3 -5 294.826 331.228 0.996 0.611 o
-1 -3 -4 324.110 342.844 1.095 0.529 o
-1 -3 -3 44.352 46.334 0.363 23.178 o
-1 -3 -2 326.029 360.658 1.264 0.507 o
-1 -3 -1 117.555 108.939 0.534 4.117 o
-1 -2 -19 5.780 6.329 1.539 71.116 o
-1 -2 -18 1.212 0.353 1.182 134.040 o
-1 -2 -17 14.789 13.811 1.366 62.589 o
-1 -2 -16 8.580 8.359 1.349 81.221 o
-1 -2 -15 2.275 1.453 1.030 167.445 o
-1 -2 -14 28.084 27.471 1.154 39.585 o
-1 -2 -13 62.282 69.347 1.462 10.725 o
-1 -2 -12 4.407 3.624 0.522 399.731 o
-1 -2 -11 122.652 114.013 1.347 3.680 o
-1 -2 -10 16.645 16.878 0.533 106.774 o
-1 -2 -9 122.644 124.980 1.168 3.510 o
-1 -2 -8 84.331 94.376 1.100 6.606 o
-1 -2 -7 853.785 883.466 2.963 0.079 o
-1 -2 -6 13.018 13.633 0.367 162.215 o
-1 -2 -5 124.693 125.912 0.588 3.486 o
-1 -2 -4 100.575 103.252 0.562 5.185 o
-1 -2 -3 809.064 886.555 1.902 0.085 o
-1 -2 -2 111.242 117.470 0.477 4.217 o
-1 -2 -1 265.929 298.207 1.063 0.749 o
-1 -1 -20 21.125 26.867 2.022 28.948 o
-1 -1 -19 15.449 13.196 1.736 45.221 o
-1 -1 -18 39.231 42.883 2.357 15.635 o
-1 -1 -17 0.260 0.629 1.046 173.264 o
-1 -1 -16 0.941 1.675 0.975 192.638 o
-1 -1 -15 36.542 41.478 1.724 21.220 o
-1 -1 -14 5.100 5.431 0.819 202.280 o
-1 -1 -13 4.725 4.809 0.641 291.621 o
-1 -1 -12 39.371 45.306 1.138 23.144 o
-1 -1 -11 21.151 19.188 0.539 80.214 o
-1 -1 -10 13.448 13.639 0.456 148.554 o
-1 -1 -9 466.666 467.104 1.770 0.267 o
-1 -1 -8 70.893 74.147 0.883 9.586 o
-1 -1 -7 106.352 110.001 1.159 4.532 o
-1 -1 -6 492.085 544.488 2.736 0.224 o
-1 -1 -5 285.129 318.786 1.274 0.654 o
-1 -1 -4 199.503 207.534 0.957 1.379 o
-1 -1 -3 225.762 244.596 0.986 1.055 o
-1 -1 -2 3229.820 3401.850 4.111 0.006 o
-1 -1 -1 207.829 214.938 0.916 1.279 o
0 0 2 1281.580 1408.370 7.891 0.034 o
0 0 4 1422.930 1568.860 6.467 0.027 o
0 0 6 435.146 464.574 3.205 0.291 o
0 0 8 6.793 8.782 0.398 313.639 o
0 0 10 297.457 314.915 2.994 0.610 o
0 0 12 29.858 30.875 2.340 20.206 o
0 0 14 14.120 18.989 2.309 28.654 o
0 0 16 21.506 23.779 1.999 29.987 o
0 0 18 18.990 19.988 2.316 26.428 o
0 0 20 3.380 3.539 2.265 36.308 o
0 1 1 18.727 18.087 0.231 104.583 o
0 1 2 3672.860 3586.610 6.937 0.004 o
0 1 3 478.602 485.819 1.600 0.252 o
0 1 4 1612.520 1672.100 4.930 0.022 o
0 1 5 1167.820 1270.410 4.778 0.041 o
0 1 6 78.819 98.642 0.715 7.102 o
0 1 7 44.964 43.675 0.700 22.623 o
0 1 8 0.196 0.045 0.254 2742.620 o
0 1 9 22.535 20.254 0.596 71.691 o
0 1 10 52.291 49.226 0.691 17.795 o
0 1 11 50.534 43.625 0.942 18.975 o
0 1 12 28.777 31.163 1.179 36.351 o
0 1 13 3.272 2.875 0.915 195.228 o
0 1 14 5.671 5.487 0.948 159.308 o
0 1 15 0.267 0.787 0.894 235.762 o
0 1 16 16.292 16.858 1.291 61.084 o
0 1 17 2.612 1.903 1.177 128.887 o
0 1 18 22.379 21.220 1.508 41.429 o
0 1 19 2.821 3.324 1.468 83.792 o
0 1 20 9.544 8.127 1.758 52.091 o
0 2 0 4689.820 4710.000 14.213 0.003 o
0 2 1 1.707 4.521 0.193 1220.020 o
0 2 2 287.643 289.425 0.644 0.693 o
0 2 3 350.872 377.976 0.990 0.448 o
0 2 4 1054.670 1116.890 2.883 0.051 o
0 2 5 965.037 1028.760 2.663 0.061 o
0 2 6 370.127 417.236 1.326 0.390 o
0 2 7 1291.440 1335.340 4.450 0.035 o
0 2 8 1.860 2.026 0.280 1192.030 o
0 2 9 95.352 80.958 0.900 6.314 o
0 2 10 40.648 41.983 0.694 25.918 o
0 2 11 5.312 4.107 0.508 371.680 o
0 2 12 11.731 9.833 0.734 142.976 o
0 2 13 11.304 11.242 1.160 88.511 o
0 2 14 36.956 39.198 2.068 18.797 o
0 2 15 17.846 18.285 1.363 53.956 o
0 2 16 0.001 -0.241 0.916 229.293 o
0 2 17 44.541 49.012 2.494 13.064 o
0 2 18 0.026 0.094 1.286 116.207 o
0 2 19 13.689 13.810 1.777 45.034 o
0 2 20 0.784 2.382 1.708 64.704 o
0 3 1 356.151 354.275 1.069 0.458 o
0 3 2 298.984 302.427 0.880 0.639 o
0 3 3 772.615 849.061 1.795 0.093 o
0 3 4 291.363 307.116 1.034 0.654 o
0 3 5 194.566 194.037 0.864 1.489 o
0 3 6 182.194 199.638 0.975 1.586 o
0 3 7 25.979 22.641 0.490 61.154 o
0 3 8 84.046 92.467 0.951 6.792 o
0 3 9 12.062 9.627 0.468 184.645 o
0 3 10 79.987 81.814 0.942 7.785 o
0 3 11 41.109 33.453 0.910 27.379 o
0 3 12 104.656 104.432 1.608 4.630 o
0 3 13 21.623 23.246 1.285 47.497 o
0 3 14 20.475 20.418 1.226 53.357 o
0 3 15 16.770 16.444 1.466 52.577 o
0 3 16 5.592 6.771 1.353 88.766 o
0 3 17 1.590 1.872 1.068 158.732 o
0 3 18 0.644 1.584 1.567 77.113 o
0 3 19 1.669 1.006 1.432 91.077 o
0 4 0 2221.310 2481.780 11.982 0.011 o
0 4 1 2.554 2.592 0.276 998.223 o
0 4 2 164.616 179.783 0.904 1.934 o
0 4 3 910.556 997.057 2.621 0.067 o
0 4 4 10.975 14.199 0.368 183.514 o
0 4 5 9.059 10.838 0.330 251.250 o
0 4 6 20.611 17.120 0.394 92.061 o
0 4 7 21.805 25.923 0.519 67.454 o
0 4 8 0.720 0.315 0.339 1398.280 o
0 4 9 131.344 122.376 1.174 3.261 o
0 4 10 5.010 6.470 0.594 294.031 o
0 4 11 1.896 1.178 0.523 559.123 o
0 4 12 63.605 65.216 1.513 10.768 o
0 4 13 141.700 151.180 2.224 2.478 o
0 4 14 15.865 13.807 1.194 70.516 o
0 4 15 92.155 98.406 2.736 4.874 o
0 4 16 1.195 1.941 1.032 170.923 o
0 4 17 6.397 4.842 1.342 90.275 o
0 4 18 18.952 18.022 1.950 34.301 o
0 4 19 4.708 4.618 1.720 60.025 o
0 5 1 28.785 28.742 0.414 49.406 o
0 5 2 138.387 155.410 0.800 2.651 o
0 5 3 52.902 54.358 0.546 16.846 o
0 5 4 22.316 21.188 0.500 73.785 o
0 5 5 742.354 777.391 2.297 0.104 o
0 5 6 46.039 46.642 0.601 21.532 o
0 5 7 13.595 13.562 0.440 149.254 o
0 5 8 584.847 639.051 2.330 0.161 o
0 5 9 10.236 9.654 0.440 216.192 o
0 5 10 61.884 59.212 1.282 12.146 o
0 5 11 0.103 -0.206 0.566 594.841 o
0 5 12 62.438 63.993 1.369 11.368 o
0 5 13 12.709 12.026 0.974 100.682 o
0 5 14 0.713 0.279 0.781 303.879 o
0 5 15 40.148 45.011 1.863 18.120 o
0 5 16 30.029 28.426 2.040 23.904 o
0 5 17 11.785 12.240 1.532 59.210 o
0 5 18 0.358 -0.925 1.253 121.745 o
0 5 19 3.297 3.207 1.633 68.109 o
0 6 0 369.526 406.137 4.447 0.384 o
0 6 1 163.714 173.756 1.601 1.957 o
0 6 2 5.665 5.019 0.436 394.262 o
0 6 3 9.238 11.523 0.346 237.064 o
0 6 4 30.253 28.371 0.460 46.636 o
0 6 5 240.864 235.944 1.275 0.991 o
0 6 6 435.470 416.625 1.757 0.315 o
0 6 7 226.850 211.241 1.310 1.148 o
0 6 8 15.026 15.286 0.481 126.197 o
0 6 9 145.236 149.708 1.309 2.524 o
0 6 10 19.680 23.790 0.808 67.369 o
0 6 11 10.063 7.545 0.814 150.533 o
0 6 12 5.001 4.217 0.795 218.400 o
0 6 13 32.157 30.430 1.754 25.828 o
0 6 14 2.443 1.255 0.792 268.405 o
0 6 15 20.978 21.489 1.640 39.187 o
0 6 16 10.755 7.068 1.544 63.476 o
0 6 17 3.247 2.841 1.299 104.883 o
0 6 18 8.684 5.076 1.945 45.370 o
0 7 1 541.591 526.909 1.924 0.203 o
0 7 2 6.738 6.148 0.364 375.215 o
0 7 3 330.678 328.928 1.664 0.528 o
0 7 4 4.006 2.815 0.361 629.250 o
0 7 5 547.332 543.453 2.256 0.196 o
0 7 6 12.281 12.732 0.466 163.824 o
0 7 7 16.121 18.497 0.565 103.225 o
0 7 8 131.237 123.452 1.226 3.241 o
0 7 9 45.300 47.561 1.309 18.816 o
0 7 10 0.667 1.112 0.645 428.362 o
0 7 11 10.405 8.727 0.934 124.276 o
0 7 12 2.336 2.096 0.730 303.982 o
0 7 13 2.254 1.041 0.734 310.700 o
0 7 14 7.146 5.797 1.054 127.906 o
0 7 15 0.157 0.955 1.009 185.828 o
0 7 16 0.757 -0.261 1.179 136.478 o
0 7 17 8.661 6.071 1.693 57.392 o
0 7 18 1.279 2.217 1.548 78.097 o
0 8 0 59.295 61.987 0.887 13.140 o
0 8 1 309.992 304.785 1.449 0.604 o
0 8 2 396.173 387.849 1.884 0.374 o
0 8 3 36.772 33.321 0.668 32.952 o
0 8 4 0.864 0.557 0.423 920.619 o
0 8 5 41.410 35.608 0.989 25.856 o
0 8 6 92.352 80.611 1.272 6.416 o
0 8 7 42.015 40.033 1.061 23.618 o
0 8 8 9.947 10.011 0.639 175.431 o
0 8 9 16.349 17.780 1.088 70.822 o
0 8 10 15.168 12.965 0.840 100.721 o
0 8 11 8.627 9.439 0.909 136.325 o
0 8 12 5.600 4.699 0.805 205.913 o
0 8 13 14.465 14.237 0.996 87.828 o
0 8 14 0.105 0.687 1.046 173.992 o
0 8 15 18.830 13.865 1.532 48.916 o
0 8 16 7.129 5.264 1.523 71.303 o
0 8 17 1.528 2.715 1.622 70.842 o
0 9 1 167.365 151.739 3.012 1.935 o
0 9 2 8.113 8.657 1.019 122.823 o
0 9 3 17.454 17.308 0.984 74.393 o
0 9 4 25.049 21.954 0.937 53.158 o
0 9 5 45.572 40.070 1.029 21.817 o
0 9 6 8.094 7.559 0.516 252.664 o
0 9 7 1.925 1.249 0.495 605.897 o
0 9 8 116.265 128.368 1.764 3.563 o
0 9 9 14.593 15.339 0.957 88.507 o
0 9 10 9.662 9.312 0.958 123.028 o
0 9 11 0.862 -0.638 0.739 338.056 o
0 9 12 0.125 -0.465 0.769 323.772 o
0 9 13 8.387 10.306 1.057 112.275 o
0 9 14 4.044 3.337 1.183 121.169 o
0 9 15 0.444 0.180 1.151 143.679 o
0 9 16 11.027 11.366 1.903 43.395 o
0 10 0 39.019 39.270 1.936 19.041 o
0 10 1 31.463 33.987 1.255 31.433 o
0 10 2 101.333 96.309 1.625 5.037 o
0 10 3 26.299 23.398 1.240 42.407 o
0 10 4 2.921 1.638 0.713 309.654 o
0 10 5 34.956 39.011 1.120 28.165 o
0 10 6 14.391 13.410 0.842 103.097 o
0 10 7 1.258 1.517 0.760 303.708 o
0 10 8 2.253 2.112 0.845 237.010 o
0 10 9 53.756 56.572 1.578 13.630 o
0 10 10 81.271 89.625 1.661 6.740 o
0 10 11 0.951 0.464 0.824 270.475 o
0 10 12 8.657 7.233 0.958 133.927 o
0 10 13 0.031 -0.356 0.966 205.833 o
0 10 14 13.245 13.834 1.519 56.819 o
0 10 15 24.008 29.674 2.635 19.125 o
0 11 1 52.236 58.222 1.688 13.457 o
0 11 2 6.971 7.158 0.846 169.415 o
0 11 3 28.727 26.196 1.191 38.884 o
0 11 4 3.315 4.116 0.795 238.797 o
0 11 5 0.579 1.290 0.776 303.110 o
0 11 6 0.408 -0.672 0.703 381.491 o
0 11 7 1.829 2.431 0.870 227.556 o
0 11 8 74.983 79.530 1.905 7.622 o
0 11 9 0.522 -0.193 0.872 248.387 o
0 11 10 55.022 60.280 1.853 12.114 o
0 11 11 26.640 25.439 1.609 33.335 o
0 11 12 9.467 7.556 1.406 75.300 o
0 11 13 0.014 -0.940 1.226 127.871 o
0 11 14 68.521 75.850 3.392 6.349 o
0 12 0 0.000 0.675 0.941 215.226 o
0 12 1 8.137 7.787 1.005 127.076 o
0 12 2 49.335 52.956 1.542 15.456 o
0 12 3 50.004 53.009 1.757 14.438 o
0 12 4 16.941 16.639 1.086 70.853 o
0 12 5 58.517 67.370 1.836 10.825 o
0 12 6 2.330 1.735 0.843 239.298 o
0 12 7 8.398 8.520 1.100 109.782 o
0 12 8 25.872 27.245 1.354 38.216 o
0 12 9 11.228 11.507 1.306 75.813 o
0 12 10 6.909 8.687 1.272 92.648 o
0 12 11 7.058 5.891 1.280 94.785 o
0 12 12 1.829 3.549 1.506 80.980 o
0 13 1 58.882 62.731 2.168 10.373 o
0 13 2 0.465 0.026 0.784 306.938 o
0 13 3 0.010 -0.856 0.823 283.431 o
0 13 4 57.248 57.619 1.952 11.661 o
0 13 5 28.128 25.373 1.578 32.751 o
0 13 6 2.930 1.980 0.979 178.603 o
0 13 7 55.375 59.130 2.413 10.564 o
0 13 8 12.101 12.818 1.327 71.045 o
0 13 9 2.305 1.815 1.112 144.607 o
0 13 10 40.251 42.329 2.251 16.081 o
0 13 11 5.227 4.145 1.567 70.945 o
0 14 0 32.059 36.532 2.695 15.871 o
0 14 1 0.097 -0.398 1.125 151.662 o
0 14 2 40.923 41.525 1.813 18.787 o
0 14 3 1.276 2.498 1.206 126.091 o
0 14 4 0.027 -1.819 1.048 175.108 o
0 14 5 7.698 8.794 1.316 85.846 o
0 14 6 18.845 18.371 1.615 43.508 o
0 14 7 7.720 4.856 1.600 65.004 o
0 14 8 13.668 14.325 1.885 41.024 o
0 15 1 3.394 3.275 1.331 99.537 o
0 15 2 25.628 28.637 1.905 27.903 o
0 15 3 30.302 30.806 1.928 24.580 o
0 15 4 0.570 2.758 1.306 109.323 o
0 15 5 7.564 6.688 1.405 79.648 o
1 0 1 810.282 826.424 3.727 0.088 o
1 0 2 1237.510 1150.060 3.412 0.041 o
1 0 3 327.254 330.265 1.506 0.534 o
1 0 4 22.243 29.592 0.602 59.479 o
1 0 5 4.299 3.624 0.276 685.464 o
1 0 6 100.301 98.654 0.770 5.313 o
1 0 7 19.488 16.947 0.419 97.087 o
1 0 8 0.713 -0.087 0.217 2943.930 o
1 0 9 215.109 215.665 1.177 1.217 o
1 0 10 14.480 13.164 0.547 132.458 o
1 0 11 5.933 5.920 0.724 224.633 o
1 0 12 8.481 8.456 0.675 192.265 o
1 0 13 19.163 19.475 0.853 73.056 o
1 0 14 44.873 51.383 1.655 16.610 o
1 0 15 6.615 7.030 1.282 94.220 o
1 0 16 8.848 8.942 1.206 94.402 o
1 0 17 9.948 11.385 1.661 55.041 o
1 0 18 27.078 25.383 1.801 29.670 o
1 0 19 6.024 6.049 1.709 58.936 o
1 0 20 11.788 14.870 1.827 44.295 o
1 1 0 974.780 840.684 3.307 0.068 o
1 1 1 207.645 218.488 0.915 1.267 o
1 1 2 3230.680 3395.910 5.469 0.006 o
1 1 3 225.777 250.056 1.104 1.038 o
1 1 4 199.517 211.701 1.160 1.356 o
1 1 5 284.673 318.750 1.750 0.652 o
1 1 6 492.217 538.361 2.220 0.226 o
1 1 7 105.865 109.849 1.080 4.580 o
1 1 8 70.826 72.273 0.656 9.924 o
1 1 9 466.261 467.755 1.686 0.268 o
1 1 10 13.439 13.244 0.472 148.836 o
1 1 11 21.166 18.183 1.046 61.111 o
1 1 12 39.422 43.253 0.935 24.991 o
1 1 13 4.738 4.125 0.683 274.669 o
1 1 14 5.122 4.461 0.970 160.246 o
1 1 15 36.519 38.987 1.620 22.676 o
1 1 16 0.933 0.301 1.173 136.836 o
1 1 17 0.266 1.308 1.256 119.983 o
1 1 18 39.203 37.755 2.248 17.022 o
1 1 19 15.431 15.175 1.794 42.331 o
1 1 20 21.103 24.431 1.938 31.215 o
1 2 0 736.856 761.636 3.001 0.106 o
1 2 1 265.723 299.704 0.882 0.748 o
1 2 2 111.128 118.786 0.668 4.172 o
1 2 3 808.127 895.811 3.166 0.084 o
1 2 4 100.621 103.456 0.871 5.114 o
1 2 5 124.579 125.566 0.873 3.470 o
1 2 6 13.035 14.821 0.475 144.973 o
1 2 7 853.631 875.086 4.158 0.079 o
1 2 8 84.455 92.513 0.805 6.813 o
1 2 9 122.780 124.978 1.028 3.525 o
1 2 10 16.652 17.542 0.608 100.230 o
1 2 11 122.663 112.109 2.235 3.501 o
1 2 12 4.435 3.950 0.485 425.118 o
1 2 13 62.163 66.489 1.524 10.894 o
1 2 14 28.014 27.968 1.392 35.034 o
1 2 15 2.264 1.421 0.963 189.561 o
1 2 16 8.561 12.013 1.739 52.163 o
1 2 17 14.863 15.075 1.445 57.297 o
1 2 18 1.204 -0.002 1.305 110.898 o
1 2 19 5.763 4.203 1.570 69.988 o
1 3 0 14.759 22.328 0.401 109.318 o
1 3 1 117.418 110.261 0.654 4.081 o
1 3 2 325.737 364.412 1.265 0.504 o
1 3 3 44.346 47.403 0.530 22.461 o
1 3 4 323.668 344.155 1.633 0.527 o
1 3 5 294.360 332.712 1.828 0.606 o
1 3 6 118.250 135.408 1.236 3.471 o
1 3 7 42.244 52.303 0.663 21.863 o
1 3 8 17.447 15.621 0.439 111.412 o
1 3 9 659.905 658.542 2.541 0.135 o
1 3 10 0.540 0.494 0.213 2931.510 o
1 3 11 17.824 16.351 0.982 74.846 o
1 3 12 4.412 3.961 0.634 310.891 o
1 3 13 9.920 8.449 0.999 117.782 o
1 3 14 8.019 6.799 1.359 83.110 o
1 3 15 187.634 207.895 4.124 1.323 o
1 3 16 83.328 89.263 2.535 5.841 o
1 3 17 0.403 0.782 1.267 118.350 o
1 3 18 10.024 6.954 1.428 73.077 o
1 3 19 25.355 27.556 2.346 22.227 o
1 4 0 439.481 469.811 1.834 0.288 o
1 4 1 72.804 77.975 0.612 9.180 o
1 4 2 81.920 86.000 0.735 7.435 o
1 4 3 37.212 42.104 0.605 28.943 o
1 4 4 166.101 178.711 1.093 1.913 o
1 4 5 313.780 337.738 1.530 0.555 o
1 4 6 110.203 107.745 1.113 4.405 o
1 4 7 45.087 46.973 0.819 21.210 o
1 4 8 20.937 21.037 0.737 70.426 o
1 4 9 4.929 3.488 0.464 433.224 o
1 4 10 220.111 222.019 2.582 1.124 o
1 4 11 17.765 13.040 0.716 98.449 o
1 4 12 93.752 95.493 1.460 5.629 o
1 4 13 48.984 45.887 1.659 16.156 o
1 4 14 192.472 198.068 3.563 1.364 o
1 4 15 38.331 38.365 2.447 15.860 o
1 4 16 2.357 1.022 1.276 112.458 o
1 4 17 21.154 20.215 1.686 38.386 o
1 4 18 6.657 8.485 1.461 74.710 o
1 4 19 4.116 5.192 1.615 67.731 o
1 5 0 9.260 7.546 0.335 284.393 o
1 5 1 32.163 29.013 0.450 43.120 o
1 5 2 431.943 441.567 2.152 0.306 o
1 5 3 266.534 272.280 1.682 0.789 o
1 5 4 145.708 157.957 1.331 2.426 o
1 5 5 24.949 27.586 0.580 56.018 o
1 5 6 95.417 92.829 0.983 5.803 o
1 5 7 4.503 5.507 0.445 424.783 o
1 5 8 112.152 108.514 1.399 4.223 o
1 5 9 17.567 19.700 0.824 79.205 o
1 5 10 42.632 47.956 1.125 20.822 o
1 5 11 35.142 32.720 0.995 31.820 o
1 5 12 1.747 0.903 0.674 373.206 o
1 5 13 59.892 62.888 1.756 11.161 o
1 5 14 70.842 79.586 2.203 7.682 o
1 5 15 64.011 67.421 1.911 9.773 o
1 5 16 39.391 38.841 2.071 18.023 o
1 5 17 2.781 2.333 1.217 120.056 o
1 5 18 0.476 -0.002 1.304 112.204 o
1 5 19 6.823 4.544 1.493 74.776 o
1 6 0 120.830 123.786 1.179 3.595 o
1 6 1 56.144 53.416 1.873 12.538 o
1 6 2 14.781 18.237 0.744 98.202 o
1 6 3 109.281 99.999 1.024 4.674 o
1 6 4 122.265 116.187 0.956 3.718 o
1 6 5 9.041 10.116 0.418 238.533 o
1 6 6 57.255 51.471 0.745 15.483 o
1 6 7 169.829 159.807 1.556 1.973 o
1 6 8 48.077 49.606 1.045 18.381 o
1 6 9 11.862 11.950 0.870 116.452 o
1 6 10 140.872 148.988 2.876 2.413 o
1 6 11 8.021 7.091 0.842 162.184 o
1 6 12 67.372 73.826 1.997 8.716 o
1 6 13 2.927 0.666 0.846 236.964 o
1 6 14 10.572 11.356 1.003 107.840 o
1 6 15 54.103 61.189 1.881 12.129 o
1 6 16 13.412 13.011 1.755 46.466 o
1 6 17 8.827 9.643 1.675 56.419 o
1 6 18 0.275 -0.372 1.288 115.480 o
1 7 0 420.950 385.586 1.883 0.346 o
1 7 1 114.068 106.004 0.969 4.288 o
1 7 2 36.608 32.996 0.687 33.137 o
1 7 3 17.128 17.392 0.583 99.745 o
1 7 4 225.110 212.763 1.490 1.151 o
1 7 5 6.189 5.670 0.462 348.038 o
1 7 6 136.109 131.146 1.439 2.958 o
1 7 7 43.336 48.309 1.306 19.492 o
1 7 8 68.668 74.957 2.131 8.281 o
1 7 9 31.433 27.790 1.441 31.395 o
1 7 10 5.339 5.033 0.703 247.851 o
1 7 11 7.152 7.459 0.853 165.072 o
1 7 12 0.958 0.356 0.749 325.498 o
1 7 13 3.767 2.409 0.853 217.106 o
1 7 14 21.818 20.864 1.205 51.547 o
1 7 15 22.872 24.253 1.377 42.673 o
1 7 16 2.881 1.767 1.080 150.322 o
1 7 17 2.329 2.503 1.702 63.987 o
1 8 0 32.816 31.917 0.724 37.563 o
1 8 1 189.407 175.730 2.141 1.589 o
1 8 2 45.995 45.379 1.086 20.034 o
1 8 3 7.726 6.384 0.549 259.528 o
1 8 4 98.595 96.891 1.627 5.184 o
1 8 5 21.132 24.879 1.130 51.801 o
1 8 6 32.099 32.589 1.589 27.248 o
1 8 7 96.413 91.323 1.469 5.585 o
1 8 8 9.791 10.688 0.782 146.650 o
1 8 9 2.854 3.334 0.694 309.104 o
1 8 10 51.509 54.371 1.305 15.418 o
1 8 11 34.926 41.433 1.389 24.924 o
1 8 12 18.092 18.483 1.121 64.157 o
1 8 13 3.040 1.728 0.834 236.262 o
1 8 14 30.174 26.335 1.416 33.426 o
1 8 15 11.897 10.013 1.291 77.208 o
1 8 16 0.347 -0.295 1.085 162.160 o
1 8 17 38.673 39.117 2.487 15.438 o
1 9 0 525.219 494.559 3.209 0.219 o
1 9 1 56.918 54.721 2.359 10.823 o
1 9 2 114.201 118.446 2.819 3.490 o
1 9 3 58.616 60.991 1.434 12.347 o
1 9 4 111.106 109.141 1.590 4.204 o
1 9 5 22.500 19.945 0.867 62.903 o
1 9 6 7.539 9.250 0.699 192.349 o
1 9 7 51.886 49.774 1.298 16.049 o
1 9 8 44.620 48.181 1.349 18.770 o
1 9 9 0.319 -0.797 0.609 507.697 o
1 9 10 137.480 151.019 2.126 2.584 o
1 9 11 22.682 23.675 1.111 50.789 o
1 9 12 0.661 1.538 0.852 251.751 o
1 9 13 10.207 10.240 1.080 102.248 o
1 9 14 3.689 3.190 0.998 164.892 o
1 9 15 17.596 16.062 1.566 47.798 o
1 9 16 3.008 3.823 1.309 102.893 o
1 10 0 0.226 -0.387 0.521 694.982 o
1 10 1 17.672 15.334 0.941 79.222 o
1 10 2 21.718 23.854 0.984 56.351 o
1 10 3 30.379 28.739 0.910 40.160 o
1 10 4 11.833 13.466 0.829 117.503 o
1 10 5 69.917 69.104 1.281 9.724 o
1 10 6 13.570 11.738 0.789 117.190 o
1 10 7 0.952 0.684 0.762 312.871 o
1 10 8 129.471 139.986 2.057 2.920 o
1 10 9 7.605 8.308 0.868 155.025 o
1 10 10 70.361 74.351 1.718 8.706 o
1 10 11 2.715 3.006 0.913 199.602 o
1 10 12 34.683 35.046 1.657 24.280 o
1 10 13 1.872 2.494 0.923 204.074 o
1 10 14 37.045 33.533 1.707 22.976 o
1 10 15 2.284 3.011 1.265 112.191 o
1 11 0 0.218 0.309 0.711 373.539 o
1 11 1 41.666 43.299 1.402 20.804 o
1 11 2 14.885 11.100 0.942 96.798 o
1 11 3 0.351 0.987 0.749 329.460 o
1 11 4 11.396 10.053 1.002 107.139 o
1 11 5 29.208 28.109 1.209 37.003 o
1 11 6 11.123 13.083 1.048 97.174 o
1 11 7 117.793 124.519 2.095 3.494 o
1 11 8 27.416 24.872 1.234 40.297 o
1 11 9 1.994 1.318 0.877 227.569 o
1 11 10 75.658 79.502 1.976 7.472 o
1 11 11 18.529 16.083 1.266 58.909 o
1 11 12 11.381 11.007 1.225 82.734 o
1 11 13 3.060 2.682 1.077 148.429 o
1 11 14 0.319 0.012 1.151 144.207 o
1 12 0 0.752 0.823 0.842 259.680 o
1 12 1 41.236 39.848 1.553 20.778 o
1 12 2 31.687 33.515 1.339 30.360 o
1 12 3 5.297 6.432 0.908 169.002 o
1 12 4 14.590 15.980 1.103 76.883 o
1 12 5 10.464 12.636 1.050 100.250 o
1 12 6 9.257 8.979 1.026 115.788 o
1 12 7 29.779 30.381 1.429 31.862 o
1 12 8 37.542 36.889 1.878 20.504 o
1 12 9 4.727 4.133 1.098 133.674 o
1 12 10 6.082 3.127 1.325 94.840 o
1 12 11 0.215 -1.198 1.165 141.104 o
1 12 12 19.210 18.342 1.619 43.023 o
1 13 0 66.352 67.837 2.032 9.186 o
1 13 1 36.532 35.256 1.453 25.203 o
1 13 2 2.312 2.803 0.891 212.519 o
1 13 3 1.568 0.754 0.931 208.933 o
1 13 4 0.019 0.041 0.870 253.790 o
1 13 5 17.981 17.427 1.248 59.476 o
1 13 6 5.848 5.544 1.102 125.419 o
1 13 7 7.223 7.407 1.121 113.391 o
1 13 8 1.899 1.569 1.252 116.951 o
1 13 9 3.700 2.333 1.329 100.071 o
1 13 10 11.385 13.680 1.684 51.135 o
1 14 0 6.048 5.876 1.215 106.092 o
1 14 1 33.577 32.187 1.804 24.046 o
1 14 2 3.382 3.414 0.975 172.828 o
1 14 3 6.073 6.009 1.084 126.844 o
1 14 4 10.008 10.291 1.160 93.941 o
1 14 5 123.283 137.305 2.655 2.991 o
1 14 6 6.816 6.874 1.236 99.592 o
1 14 7 13.362 15.592 1.567 53.157 o
1 14 8 0.801 1.436 1.328 106.614 o
1 15 0 20.822 20.050 1.758 36.912 o
1 15 1 15.883 16.911 1.653 46.030 o
1 15 2 4.793 5.591 1.292 99.151 o
1 15 3 8.970 9.726 1.446 71.072 o
1 15 4 5.795 5.448 1.323 93.200 o
2 0 0 8211.530 8686.060 19.142 0.001 o
2 0 1 38.395 40.059 0.481 29.406 o
2 0 2 691.007 722.249 2.229 0.120 o
2 0 3 235.984 231.647 1.019 1.033 o
2 0 4 107.788 116.764 0.888 4.346 o
2 0 5 73.812 67.744 0.824 9.680 o
2 0 6 71.283 69.119 1.062 9.757 o
2 0 7 0.215 0.357 0.231 3036.790 o
2 0 8 1.000 1.259 0.331 1252.790 o
2 0 9 11.455 10.487 0.480 184.885 o
2 0 10 22.470 20.960 0.774 64.945 o
2 0 11 137.976 134.463 2.012 2.782 o
2 0 12 25.460 27.879 1.125 43.197 o
2 0 13 14.300 15.303 0.968 88.810 o
2 0 14 0.010 0.258 0.807 293.728 o
2 0 15 9.170 11.419 1.280 82.846 o
2 0 16 3.981 3.949 1.159 124.867 o
2 0 17 0.153 0.879 1.169 139.201 o
2 0 18 21.663 19.690 1.620 39.922 o
2 0 19 0.355 0.298 1.363 102.834 o
2 1 0 880.443 911.786 4.516 0.074 o
2 1 1 404.601 395.298 2.763 0.357 o
2 1 2 644.299 674.384 2.587 0.137 o
2 1 3 257.541 274.551 1.251 0.824 o
2 1 4 86.149 84.974 0.783 7.025 o
2 1 5 445.039 447.072 2.235 0.292 o
2 1 6 40.600 45.943 0.838 23.940 o
2 1 7 44.466 40.164 0.749 23.761 o
2 1 8 128.730 141.438 1.425 3.021 o
2 1 9 132.227 131.001 1.368 3.078 o
2 1 10 72.349 76.336 1.261 8.851 o
2 1 11 33.632 33.062 1.061 32.312 o
2 1 12 74.752 75.344 1.400 8.453 o
2 1 13 4.910 4.823 0.707 253.994 o
2 1 14 1.239 0.144 0.903 226.231 o
2 1 15 91.129 99.900 2.461 5.073 o
2 1 16 25.425 20.319 1.652 35.521 o
2 1 17 1.428 -0.458 1.030 174.934 o
2 1 18 10.752 11.161 1.616 56.649 o
2 1 19 58.513 63.674 2.680 9.136 o
2 2 0 237.506 281.848 1.445 0.892 o
2 2 1 0.209 0.805 0.311 1712.860 o
2 2 2 573.394 625.219 2.503 0.168 o
2 2 3 235.129 250.748 1.214 0.983 o
2 2 4 175.511 174.910 1.118 1.809 o
2 2 5 504.037 535.754 2.097 0.220 o
2 2 6 68.609 76.685 1.084 9.558 o
2 2 7 580.696 604.159 2.418 0.169 o
2 2 8 1.083 0.823 0.286 1579.570 o
2 2 9 23.605 22.394 0.620 64.739 o
2 2 10 22.869 21.953 0.806 61.666 o
2 2 11 60.936 61.733 0.943 12.678 o
2 2 12 18.988 17.804 0.955 70.969 o
2 2 13 28.405 29.030 1.232 36.950 o
2 2 14 1.880 1.005 0.921 210.270 o
2 2 15 37.604 42.107 2.177 17.339 o
2 2 16 3.421 3.535 1.284 105.991 o
2 2 17 20.700 22.541 2.261 26.134 o
2 2 18 8.979 7.392 1.595 62.282 o
2 2 19 3.840 4.073 1.554 73.673 o
2 3 0 1332.670 1455.980 3.732 0.031 o
2 3 1 207.931 208.017 1.055 1.304 o
2 3 2 158.659 157.285 1.052 2.205 o
2 3 3 307.252 327.273 1.420 0.583 o
2 3 4 20.119 18.278 0.506 87.436 o
2 3 5 369.983 388.522 2.313 0.407 o
2 3 6 356.676 365.326 2.101 0.445 o
2 3 7 93.331 93.927 1.235 5.820 o
2 3 8 1.880 1.430 0.329 1058.190 o
2 3 9 7.760 7.280 0.510 264.688 o
2 3 10 63.048 61.583 1.177 11.832 o
2 3 11 26.777 23.467 0.749 53.024 o
2 3 12 30.500 30.421 0.985 37.871 o
2 3 13 22.035 24.426 1.133 50.576 o
2 3 14 5.159 4.256 0.959 163.667 o
2 3 15 59.655 61.696 2.441 9.678 o
2 3 16 7.032 5.730 1.283 94.688 o
2 3 17 22.330 20.230 1.812 34.436 o
2 3 18 20.945 20.021 2.079 29.803 o
2 3 19 13.220 12.865 1.954 39.607 o
2 4 0 1999.860 2119.840 5.976 0.014 o
2 4 1 40.834 40.169 0.590 26.927 o
2 4 2 310.396 346.518 1.439 0.554 o
2 4 3 205.746 200.132 1.407 1.347 o
2 4 4 203.266 194.427 1.536 1.389 o
2 4 5 80.017 86.501 1.154 7.387 o
2 4 6 8.359 7.995 0.539 236.472 o
2 4 7 109.132 111.829 1.430 4.279 o
2 4 8 18.665 17.542 0.757 82.758 o
2 4 9 97.674 91.748 1.640 5.401 o
2 4 10 17.264 15.211 0.838 87.466 o
2 4 11 30.566 34.866 1.161 33.060 o
2 4 12 12.681 11.621 0.899 109.718 o
2 4 13 58.354 61.794 1.913 11.169 o
2 4 14 39.911 40.199 1.905 18.770 o
2 4 15 51.892 53.904 2.306 11.925 o
2 4 16 8.318 9.754 1.569 63.333 o
2 4 17 0.997 -1.684 1.408 95.667 o
2 4 18 3.755 1.952 1.507 79.429 o
2 4 19 4.301 2.347 1.703 62.477 o
2 5 0 58.622 58.069 0.782 14.008 o
2 5 1 45.447 45.950 0.572 22.131 o
2 5 2 147.796 161.889 1.142 2.359 o
2 5 3 62.475 56.384 0.731 13.271 o
2 5 4 120.512 120.037 1.186 3.676 o
2 5 5 211.876 199.064 1.570 1.296 o
2 5 6 169.964 166.550 1.492 1.925 o
2 5 7 87.890 82.161 1.195 6.790 o
2 5 8 187.063 178.683 2.657 1.566 o
2 5 9 2.081 1.187 0.638 397.458 o
2 5 10 16.469 15.457 0.981 80.330 o
2 5 11 0.614 0.425 0.837 266.489 o
2 5 12 18.144 14.603 1.082 70.654 o
2 5 13 33.579 33.852 1.520 26.727 o
2 5 14 1.713 1.669 0.957 194.774 o
2 5 15 10.481 11.212 1.685 53.334 o
2 5 16 48.746 46.751 2.238 13.537 o
2 5 17 26.755 25.015 1.848 29.210 o
2 5 18 4.084 3.592 1.441 84.618 o
2 6 0 281.477 289.979 2.025 0.702 o
2 6 1 38.553 32.066 0.659 31.896 o
2 6 2 61.718 68.318 0.791 11.948 o
2 6 3 13.403 14.232 0.476 144.147 o
2 6 4 38.988 40.027 0.707 27.793 o
2 6 5 173.460 170.604 1.582 1.843 o
2 6 6 126.620 120.087 1.547 3.394 o
2 6 7 197.145 178.898 2.802 1.457 o
2 6 8 7.598 7.559 0.890 152.893 o
2 6 9 61.803 57.133 1.436 12.068 o
2 6 10 31.419 34.647 1.601 26.877 o
2 6 11 29.530 31.927 1.495 30.484 o
2 6 12 0.509 1.065 0.836 264.821 o
2 6 13 3.508 2.880 0.918 192.480 o
2 6 14 62.468 64.157 2.019 10.041 o
2 6 15 8.686 9.183 1.681 56.450 o
2 6 16 1.106 0.765 1.218 126.153 o
2 6 17 15.045 16.631 1.729 44.277 o
2 6 18 2.219 0.785 1.446 88.864 o
2 7 0 6.126 7.601 0.410 347.472 o
2 7 1 186.011 169.717 1.304 1.703 o
2 7 2 20.808 17.424 0.520 85.801 o
2 7 3 319.388 300.996 2.146 0.581 o
2 7 4 11.736 10.839 0.497 176.370 o
2 7 5 140.106 123.770 2.007 2.863 o
2 7 6 2.638 2.970 0.840 231.082 o
2 7 7 3.303 2.664 0.833 228.957 o
2 7 8 36.457 33.565 1.862 21.801 o
2 7 9 29.868 33.312 1.400 31.039 o
2 7 10 49.372 59.335 1.731 13.883 o
2 7 11 1.803 1.371 0.932 204.640 o
2 7 12 8.831 7.953 1.052 115.986 o
2 7 13 58.759 58.462 1.790 11.718 o
2 7 14 2.422 1.900 1.044 161.616 o
2 7 15 12.406 11.678 1.147 85.818 o
2 7 16 8.807 8.827 1.475 69.876 o
2 7 17 10.399 10.428 1.529 62.643 o
2 8 0 46.499 46.599 0.814 20.610 o
2 8 1 107.127 92.833 2.619 4.346 o
2 8 2 109.867 101.427 2.989 3.873 o
2 8 3 90.753 92.197 3.148 4.810 o
2 8 4 14.020 11.140 0.766 118.840 o
2 8 5 180.829 177.927 2.408 1.655 o
2 8 6 18.756 15.175 0.851 81.356 o
2 8 7 39.660 38.919 1.181 24.541 o
2 8 8 45.255 51.540 1.631 16.571 o
2 8 9 16.921 17.821 1.101 68.641 o
2 8 10 42.741 48.736 1.749 17.271 o
2 8 11 4.994 2.965 0.939 174.492 o
2 8 12 13.666 13.079 1.153 79.752 o
2 8 13 21.969 22.694 1.347 45.563 o
2 8 14 17.741 16.424 1.180 64.224 o
2 8 15 14.062 11.333 1.170 79.767 o
2 8 16 1.647 1.002 1.260 116.662 o
2 9 0 4.094 5.622 0.678 275.448 o
2 9 1 248.788 240.324 2.801 0.912 o
2 9 2 3.271 3.352 0.645 335.704 o
2 9 3 21.026 18.297 0.968 64.543 o
2 9 4 24.031 21.022 1.000 54.104 o
2 9 5 6.348 6.034 0.643 249.891 o
2 9 6 6.224 6.898 0.791 192.687 o
2 9 7 15.525 14.773 1.020 81.650 o
2 9 8 116.657 125.610 1.944 3.554 o
2 9 9 66.056 70.966 1.782 9.436 o
2 9 10 22.185 22.226 1.225 49.259 o
2 9 11 3.904 3.078 0.873 204.838 o
2 9 12 4.697 5.447 0.969 160.194 o
2 9 13 9.772 11.388 1.054 104.906 o
2 9 14 11.001 10.324 1.216 85.441 o
2 9 15 0.296 -0.243 0.984 197.086 o
2 10 0 48.963 53.532 1.915 14.026 o
2 10 1 144.234 144.718 2.020 2.521 o
2 10 2 20.241 16.796 0.972 68.156 o
2 10 3 23.579 23.663 1.173 47.632 o
2 10 4 6.769 5.882 0.740 208.738 o
2 10 5 88.577 91.649 1.729 5.999 o
2 10 6 36.337 37.474 1.394 25.215 o
2 10 7 3.339 2.819 0.800 243.530 o
2 10 8 3.542 3.176 0.854 215.216 o
2 10 9 64.548 76.665 1.947 8.978 o
2 10 10 37.581 36.195 1.563 23.349 o
2 10 11 17.740 18.532 1.167 62.682 o
2 10 12 8.403 10.902 1.213 92.076 o
2 10 13 1.719 1.959 1.001 178.072 o
2 10 14 15.687 12.466 1.260 68.342 o
2 11 0 30.600 28.883 1.261 34.367 o
2 11 1 98.811 107.224 2.253 4.584 o
2 11 2 13.076 11.203 1.069 91.517 o
2 11 3 49.663 53.228 1.483 15.539 o
2 11 4 11.834 11.161 0.987 104.728 o
2 11 5 9.165 9.361 0.976 122.617 o
2 11 6 18.393 18.649 1.086 65.005 o
2 11 7 20.326 21.118 1.200 53.985 o
2 11 8 72.349 84.653 1.992 7.529 o
2 11 9 12.484 11.970 1.324 71.336 o
2 11 10 17.650 17.135 1.181 63.615 o
2 11 11 3.912 2.708 1.004 163.414 o
2 11 12 2.537 2.203 1.060 156.099 o
2 11 13 4.259 3.472 1.153 125.749 o
2 12 0 0.150 -0.259 0.796 301.397 o
2 12 1 30.393 29.323 1.329 33.315 o
2 12 2 55.166 60.301 1.531 12.971 o
2 12 3 15.108 13.781 1.099 78.766 o
2 12 4 14.349 14.765 1.112 78.567 o
2 12 5 87.212 87.963 2.075 5.995 o
2 12 6 2.812 4.684 1.024 158.391 o
2 12 7 7.319 6.999 1.191 103.740 o
2 12 8 59.320 58.989 2.580 9.571 o
2 12 9 8.600 7.793 1.332 83.418 o
2 12 10 1.200 1.228 1.135 143.629 o
2 12 11 2.467 1.260 1.144 137.536 o
2 12 12 4.960 4.247 1.316 97.225 o
2 13 0 11.646 11.463 1.261 78.524 o
2 13 1 27.433 26.922 1.390 36.105 o
2 13 2 2.673 2.060 0.949 190.097 o
2 13 3 20.812 19.794 1.256 52.264 o
2 13 4 55.777 57.793 1.756 12.492 o
2 13 5 18.275 17.879 1.345 54.381 o
2 13 6 2.695 2.693 1.104 143.288 o
2 13 7 15.147 11.643 1.336 65.632 o
2 13 8 3.752 4.527 1.287 103.557 o
2 13 9 1.131 3.626 1.402 93.702 o
2 13 10 30.297 32.854 2.254 20.578 o
2 14 0 32.929 34.635 1.955 22.196 o
2 14 1 5.619 5.000 1.081 131.486 o
2 14 2 33.849 33.900 1.595 25.722 o
2 14 3 3.584 5.386 1.128 129.622 o
2 14 4 40.383 41.200 1.691 19.894 o
2 14 5 9.032 7.933 1.192 97.007 o
2 14 6 22.094 18.523 1.555 41.868 o
2 14 7 5.789 4.896 1.436 81.424 o
2 15 0 16.556 19.907 1.585 46.110 o
2 15 1 2.094 1.452 1.105 147.757 o
2 15 2 35.289 35.507 1.655 23.858 o
2 15 3 10.592 11.351 1.229 84.002 o
3 0 1 628.837 658.852 2.945 0.143 o
3 0 2 74.312 83.645 0.727 8.502 o
3 0 3 243.892 246.453 1.058 0.951 o
3 0 4 1.025 0.976 0.235 2001.780 o
3 0 5 0.040 -0.079 0.259 2825.110 o
3 0 6 14.705 14.154 0.567 125.184 o
3 0 7 1.727 1.806 0.484 621.428 o
3 0 8 7.072 7.197 0.442 309.365 o
3 0 9 626.836 621.559 4.419 0.148 o
3 0 10 211.594 204.836 2.316 1.252 o
3 0 11 14.170 13.750 0.885 99.431 o
3 0 12 65.067 66.084 1.268 10.834 o
3 0 13 13.517 13.075 0.814 111.078 o
3 0 14 133.929 148.425 2.556 2.619 o
3 0 15 58.206 62.825 1.833 11.298 o
3 0 16 5.120 2.409 1.228 111.738 o
3 0 17 8.701 8.322 1.336 82.237 o
3 0 18 0.928 2.862 1.436 90.331 o
3 0 19 29.828 29.367 1.821 26.563 o
3 1 0 0.003 0.550 0.332 1640.150 o
3 1 1 148.051 158.278 1.752 2.338 o
3 1 2 131.616 143.637 1.183 2.940 o
3 1 3 113.499 105.202 1.180 4.291 o
3 1 4 107.585 110.863 1.058 4.470 o
3 1 5 231.030 234.355 1.850 1.040 o
3 1 6 30.921 32.573 0.760 39.084 o
3 1 7 178.533 168.387 1.468 1.797 o
3 1 8 19.236 17.823 0.653 85.427 o
3 1 9 112.658 118.682 1.787 3.877 o
3 1 10 8.935 9.037 0.628 195.278 o
3 1 11 102.903 102.305 1.995 4.622 o
3 1 12 1.034 0.911 0.629 441.019 o
3 1 13 23.334 22.585 1.269 46.055 o
3 1 14 34.481 38.822 1.618 23.777 o
3 1 15 17.214 17.231 1.364 55.738 o
3 1 16 43.048 39.523 2.022 17.072 o
3 1 17 1.071 1.244 1.122 147.299 o
3 1 18 11.912 12.432 1.555 57.654 o
3 1 19 1.003 4.239 1.574 74.856 o
3 2 0 407.743 446.168 2.197 0.327 o
3 2 1 106.907 119.094 1.301 4.246 o
3 2 2 154.963 150.228 1.438 2.312 o
3 2 3 335.496 315.264 1.529 0.533 o
3 2 4 8.529 7.499 0.437 271.255 o
3 2 5 27.739 26.984 0.605 50.500 o
3 2 6 23.032 22.149 0.712 63.931 o
3 2 7 316.674 311.837 2.147 0.575 o
3 2 8 72.985 75.826 1.115 8.941 o
3 2 9 108.413 107.667 1.542 4.380 o
3 2 10 65.165 62.809 1.479 10.765 o
3 2 11 4.140 3.954 0.717 267.528 o
3 2 12 21.018 21.420 1.064 57.372 o
3 2 13 54.364 59.272 1.783 12.559 o
3 2 14 32.010 31.856 1.757 25.478 o
3 2 15 28.325 27.971 1.592 31.370 o
3 2 16 31.428 28.811 1.598 28.784 o
3 2 17 11.490 10.854 1.446 65.954 o
3 2 18 5.234 5.289 1.608 67.056 o
3 3 0 114.842 116.849 1.365 3.930 o
3 3 1 48.441 53.915 0.996 17.552 o
3 3 2 354.856 340.916 1.975 0.469 o
3 3 3 4.877 3.708 0.321 576.167 o
3 3 4 111.059 113.832 1.042 4.231 o
3 3 5 163.968 168.776 1.294 2.009 o
3 3 6 30.960 28.197 0.667 43.199 o
3 3 7 11.844 12.445 0.595 151.956 o
3 3 8 6.658 6.738 0.536 283.250 o
3 3 9 122.751 123.436 2.022 3.365 o
3 3 10 2.660 2.843 0.593 403.294 o
3 3 11 38.988 37.252 1.408 23.635 o
3 3 12 11.810 12.818 1.096 90.471 o
3 3 13 1.626 1.503 1.195 128.646 o
3 3 14 1.717 1.905 0.972 188.269 o
3 3 15 35.700 35.437 2.076 19.830 o
3 3 16 6.562 5.687 1.516 72.410 o
3 3 17 0.784 0.350 1.264 118.529 o
3 3 18 16.040 17.323 2.391 26.721 o
3 4 0 323.670 324.640 1.586 0.548 o
3 4 1 42.075 46.066 0.772 23.320 o
3 4 2 9.823 10.833 0.556 189.213 o
3 4 3 26.051 26.183 0.592 54.918 o
3 4 4 135.320 134.768 1.348 2.941 o
3 4 5 2.868 2.181 0.376 735.376 o
3 4 6 217.693 211.353 1.642 1.204 o
3 4 7 76.842 75.699 1.236 8.322 o
3 4 8 13.586 14.033 0.849 104.795 o
3 4 9 60.937 55.962 1.647 11.886 o
3 4 10 22.316 20.877 1.009 57.290 o
3 4 11 4.864 6.606 0.735 229.624 o
3 4 12 10.664 11.246 1.030 104.428 o
3 4 13 25.371 27.399 1.391 37.882 o
3 4 14 39.485 41.537 2.001 18.030 o
3 4 15 13.223 11.769 1.479 60.462 o
3 4 16 4.299 3.267 1.676 63.991 o
3 4 17 5.929 6.876 1.714 58.364 o
3 4 18 4.459 6.531 1.845 52.266 o
3 5 0 125.468 122.089 0.976 3.488 o
3 5 1 26.556 26.005 0.687 52.251 o
3 5 2 334.587 319.755 1.791 0.529 o
3 5 3 56.324 51.661 0.806 15.637 o
3 5 4 377.554 369.066 1.921 0.411 o
3 5 5 31.048 29.861 0.791 40.279 o
3 5 6 131.333 123.272 1.775 3.153 o
3 5 7 17.718 17.103 1.136 65.761 o
3 5 8 16.522 15.156 0.990 80.018 o
3 5 9 38.188 39.527 1.162 25.407 o
3 5 10 25.624 26.003 0.981 47.556 o
3 5 11 38.465 37.996 1.814 20.419 o
3 5 12 6.994 7.874 1.026 128.821 o
3 5 13 28.790 27.067 1.532 32.348 o
3 5 14 62.240 70.604 1.915 9.792 o
3 5 15 3.041 2.521 1.112 140.402 o
3 5 16 0.527 -0.319 1.333 107.408 o
3 5 17 13.065 14.700 2.212 32.087 o
3 5 18 7.986 7.431 1.627 61.379 o
3 6 0 136.805 120.238 1.002 3.146 o
3 6 1 64.880 62.079 0.858 11.857 o
3 6 2 40.490 40.955 0.745 26.133 o
3 6 3 63.630 69.252 0.975 11.221 o
3 6 4 69.736 68.582 1.157 9.948 o
3 6 5 48.807 50.329 1.449 16.401 o
3 6 6 94.531 86.885 1.925 5.615 o
3 6 7 26.563 25.590 1.099 43.829 o
3 6 8 117.681 111.600 2.100 3.728 o
3 6 9 32.828 32.847 1.761 24.736 o
3 6 10 83.472 87.891 1.654 6.626 o
3 6 11 18.766 20.478 1.150 59.364 o
3 6 12 5.576 5.541 0.978 152.409 o
3 6 13 17.509 19.446 1.181 61.551 o
3 6 14 7.315 7.667 1.239 96.737 o
3 6 15 76.451 80.385 2.417 6.840 o
3 6 16 42.548 48.887 2.941 11.514 o
3 6 17 5.748 7.299 1.734 57.163 o
3 7 0 1.433 0.574 0.267 1632.340 o
3 7 1 79.903 73.726 1.043 8.217 o
3 7 2 34.713 29.894 0.787 35.874 o
3 7 3 27.026 23.865 0.904 48.769 o
3 7 4 96.415 94.695 1.632 5.391 o
3 7 5 41.431 39.827 1.719 19.556 o
3 7 6 73.398 72.131 1.559 8.658 o
3 7 7 38.505 36.067 1.322 24.973 o
3 7 8 132.300 142.695 2.521 2.728 o
3 7 9 72.345 79.231 1.954 7.866 o
3 7 10 52.285 54.412 1.723 13.797 o
3 7 11 0.886 0.918 0.850 253.734 o
3 7 12 21.572 20.320 1.271 50.165 o
3 7 13 5.828 6.040 1.028 138.714 o
3 7 14 40.832 42.504 2.073 16.982 o
3 7 15 59.213 65.474 2.384 9.612 o
3 7 16 7.961 11.608 1.970 42.821 o
3 8 0 46.757 38.613 0.906 22.173 o
3 8 1 45.772 42.639 0.889 21.696 o
3 8 2 25.102 24.210 0.752 55.608 o
3 8 3 1.798 1.587 0.477 638.321 o
3 8 4 2.111 1.758 0.515 547.156 o
3 8 5 22.049 20.672 0.962 59.715 o
3 8 6 24.504 27.015 1.120 45.205 o
3 8 7 28.959 29.763 1.126 37.773 o
3 8 8 76.016 80.613 1.628 7.752 o
3 8 9 5.203 4.938 0.928 169.346 o
3 8 10 118.408 126.511 2.067 3.447 o
3 8 11 12.837 11.780 1.061 92.120 o
3 8 12 41.699 40.991 1.776 18.849 o
3 8 13 18.157 16.541 1.268 59.049 o
3 8 14 11.278 10.300 1.273 79.757 o
3 8 15 16.951 14.487 1.484 52.898 o
3 8 16 7.298 6.516 1.544 68.569 o
3 9 0 9.340 8.371 0.608 199.462 o
3 9 1 85.297 89.029 1.708 6.380 o
3 9 2 32.236 33.270 1.307 30.427 o
3 9 3 12.566 11.204 0.785 125.288 o
3 9 4 2.605 2.198 0.627 381.008 o
3 9 5 1.651 2.544 0.925 204.671 o
3 9 6 19.855 18.629 1.270 54.207 o
3 9 7 19.569 17.267 1.072 64.519 o
3 9 8 80.203 84.010 2.012 6.782 o
3 9 9 9.773 8.299 1.062 109.987 o
3 9 10 9.378 10.350 1.126 99.624 o
3 9 11 17.587 18.729 1.399 52.560 o
3 9 12 3.299 3.299 1.035 156.514 o
3 9 13 1.649 1.899 1.037 167.223 o
3 9 14 20.689 17.179 1.285 53.461 o
3 9 15 25.275 22.115 1.639 35.180 o
3 10 0 20.480 22.608 1.143 54.461 o
3 10 1 28.781 32.621 1.351 32.940 o
3 10 2 24.480 25.071 1.184 45.034 o
3 10 3 38.415 35.347 1.574 23.036 o
3 10 4 15.254 15.887 1.084 76.485 o
3 10 5 62.244 62.088 1.821 10.668 o
3 10 6 20.941 21.759 1.299 49.106 o
3 10 7 3.847 4.264 1.020 155.255 o
3 10 8 0.872 -1.681 1.012 183.843 o
3 10 9 14.521 15.846 1.277 66.243 o
3 10 10 33.126 34.773 1.576 26.099 o
3 10 11 3.729 1.271 1.079 147.979 o
3 10 12 40.929 42.031 2.062 17.092 o
3 10 13 6.005 5.087 1.192 110.698 o
3 10 14 7.532 6.232 1.189 104.605 o
3 11 0 71.229 73.755 1.767 8.566 o
3 11 1 70.255 74.549 1.920 8.426 o
3 11 2 16.593 17.221 1.257 61.891 o
3 11 3 2.275 1.466 0.955 192.287 o
3 11 4 6.717 6.450 0.971 144.593 o
3 11 5 37.450 34.816 1.521 24.164 o
3 11 6 11.404 11.022 1.199 84.990 o
3 11 7 35.898 36.371 1.857 21.475 o
3 11 8 19.308 20.510 1.463 46.714 o
3 11 9 10.584 12.044 1.470 64.884 o
3 11 10 18.779 18.347 1.518 46.789 o
3 11 11 19.609 19.745 1.447 47.357 o
3 11 12 14.766 13.485 1.297 66.951 o
3 12 0 9.940 8.007 1.034 113.781 o
3 12 1 21.590 19.820 1.279 50.214 o
3 12 2 30.064 27.993 1.436 32.499 o
3 12 3 11.265 12.493 1.172 85.683 o
3 12 4 6.294 4.878 1.081 128.718 o
3 12 5 48.322 62.293 2.446 11.348 o
3 12 6 2.473 3.451 1.230 117.084 o
3 12 7 75.225 88.168 3.341 5.590 o
3 12 8 3.551 4.381 1.367 93.476 o
3 12 9 13.330 12.855 1.615 52.643 o
3 12 10 27.614 26.729 1.785 29.177 o
3 12 11 2.630 2.845 1.279 109.298 o
3 13 0 92.797 101.647 2.413 4.960 o
3 13 1 2.044 1.668 1.060 159.368 o
3 13 2 24.861 25.182 1.544 36.215 o
3 13 3 14.244 14.494 1.285 67.726 o
3 13 4 13.964 14.462 1.287 68.197 o
3 13 5 72.523 78.734 2.356 7.352 o
3 13 6 0.524 -0.305 1.226 126.711 o
3 13 7 8.502 7.998 1.472 71.228 o
3 13 8 8.255 7.523 1.499 69.941 o
3 13 9 14.848 16.461 1.643 47.748 o
3 14 0 21.492 21.242 1.605 39.725 o
3 14 1 5.059 3.759 1.196 115.055 o
3 14 2 1.041 -0.848 1.063 166.227 o
3 14 3 8.292 8.013 1.325 84.550 o
3 14 4 8.408 7.125 1.313 86.456 o
3 14 5 1.365 0.320 1.214 126.894 o
4 0 0 69.333 75.494 1.690 8.804 o
4 0 1 1.265 0.572 0.278 1616.170 o
4 0 2 52.949 48.906 0.752 17.457 o
4 0 3 36.279 39.154 0.542 31.420 o
4 0 4 3.130 3.709 0.265 840.353 o
4 0 5 33.976 33.087 0.626 36.435 o
4 0 6 0.448 0.856 0.281 1890.120 o
4 0 7 120.131 112.157 1.572 3.765 o
4 0 8 8.888 6.816 0.763 174.542 o
4 0 9 70.478 70.347 1.317 9.495 o
4 0 10 76.670 77.825 1.751 7.705 o
4 0 11 17.090 15.760 1.004 76.513 o
4 0 12 13.343 12.074 0.856 110.053 o
4 0 13 0.776 0.746 0.680 390.758 o
4 0 14 7.901 6.444 0.884 156.009 o
4 0 15 0.240 1.064 0.968 200.850 o
4 0 16 0.018 1.597 1.110 153.407 o
4 0 17 0.005 -0.779 0.985 198.019 o
4 0 18 2.693 3.244 1.256 112.428 o
4 1 0 369.821 384.799 2.157 0.410 o
4 1 1 112.844 113.187 1.468 4.069 o
4 1 2 0.099 0.566 0.334 1587.290 o
4 1 3 32.657 29.131 0.586 41.015 o
4 1 4 70.967 65.139 0.840 10.372 o
4 1 5 92.254 86.394 1.023 6.297 o
4 1 6 116.702 111.604 1.452 3.942 o
4 1 7 83.115 81.354 1.370 7.182 o
4 1 8 251.293 250.296 2.826 0.877 o
4 1 9 112.743 112.604 2.041 3.919 o
4 1 10 38.118 34.741 1.358 25.290 o
4 1 11 0.363 0.912 0.716 360.418 o
4 1 12 45.753 48.673 1.342 18.258 o
4 1 13 12.587 11.815 0.966 102.431 o
4 1 14 6.204 7.411 0.904 159.894 o
4 1 15 23.219 22.086 1.422 42.339 o
4 1 16 17.775 16.642 1.341 56.329 o
4 1 17 5.842 4.125 1.224 107.845 o
4 1 18 13.021 14.136 1.601 52.901 o
4 2 0 69.358 64.775 1.026 10.497 o
4 2 1 2.560 2.342 0.448 614.123 o
4 2 2 430.148 451.435 2.610 0.302 o
4 2 3 50.860 57.188 0.888 16.368 o
4 2 4 167.735 158.300 1.596 2.013 o
4 2 5 173.675 169.759 1.299 1.861 o
4 2 6 29.154 26.988 0.780 45.203 o
4 2 7 95.812 92.353 1.459 5.595 o
4 2 8 0.481 0.777 0.582 533.037 o
4 2 9 25.985 24.277 1.091 45.748 o
4 2 10 36.839 39.911 1.248 25.443 o
4 2 11 1.469 0.711 0.819 267.048 o
4 2 12 31.770 30.282 1.610 27.919 o
4 2 13 9.142 7.227 1.119 106.846 o
4 2 14 14.144 15.155 1.252 69.249 o
4 2 15 9.392 8.896 1.161 98.017 o
4 2 16 10.403 10.384 1.256 83.268 o
4 2 17 2.419 3.951 1.190 123.895 o
4 2 18 5.399 4.718 1.371 89.111 o
4 3 0 739.581 771.390 2.836 0.104 o
4 3 1 209.092 207.044 1.692 1.283 o
4 3 2 26.375 24.431 0.739 53.089 o
4 3 3 147.317 135.631 1.481 2.618 o
4 3 4 72.890 69.071 1.113 9.455 o
4 3 5 271.515 254.620 2.436 0.793 o
4 3 6 219.140 217.923 1.934 1.164 o
4 3 7 64.031 63.729 1.705 10.461 o
4 3 8 16.792 19.566 1.528 48.098 o
4 3 9 31.382 27.680 1.466 31.112 o
4 3 10 18.841 18.706 0.998 68.040 o
4 3 11 1.281 1.360 1.001 182.161 o
4 3 12 6.095 5.235 0.987 148.117 o
4 3 13 29.722 28.052 1.513 31.531 o
4 3 14 5.850 6.012 1.047 134.773 o
4 3 15 10.207 11.507 1.547 61.027 o
4 3 16 0.245 -0.485 1.132 149.371 o
4 3 17 5.399 4.809 1.352 91.252 o
4 4 0 667.461 632.885 2.847 0.136 o
4 4 1 61.760 58.861 1.119 12.522 o
4 4 2 284.100 288.772 2.149 0.695 o
4 4 3 66.628 63.383 0.944 11.248 o
4 4 4 224.709 220.767 1.813 1.121 o
4 4 5 215.117 205.997 2.497 1.215 o
4 4 6 25.771 25.083 1.198 42.990 o
4 4 7 32.269 32.538 1.478 28.527 o
4 4 8 32.571 31.866 1.089 33.523 o
4 4 9 26.507 26.285 1.115 43.090 o
4 4 10 1.939 1.370 0.759 295.314 o
4 4 11 0.304 0.317 0.731 352.284 o
4 4 12 1.389 0.680 0.818 268.383 o
4 4 13 10.639 8.405 1.052 107.548 o
4 4 14 16.829 14.515 1.507 52.056 o
4 4 15 11.948 12.226 1.847 44.466 o
4 4 16 10.771 10.376 1.613 57.239 o
4 4 17 0.178 -1.622 1.183 136.935 o
4 5 0 6.916 5.722 0.417 348.519 o
4 5 1 252.391 235.663 2.215 0.918 o
4 5 2 52.309 49.682 1.031 16.791 o
4 5 3 2.508 3.253 0.449 585.224 o
4 5 4 94.452 91.123 1.253 5.833 o
4 5 5 61.424 54.228 1.403 12.545 o
4 5 6 80.606 81.579 2.669 6.179 o
4 5 7 70.682 72.933 1.959 8.418 o
4 5 8 12.510 10.814 0.956 105.971 o
4 5 9 13.559 11.861 0.873 107.736 o
4 5 10 0.894 0.190 0.708 364.417 o
4 5 11 13.874 14.475 1.098 81.394 o
4 5 12 6.746 8.346 1.000 133.624 o
4 5 13 5.460 6.059 1.298 96.311 o
4 5 14 6.517 7.548 1.236 99.493 o
4 5 15 20.536 24.716 1.581 39.601 o
4 5 16 17.515 16.463 1.661 44.299 o
4 5 17 4.631 3.417 1.481 79.906 o
4 6 0 144.472 130.475 1.892 2.692 o
4 6 1 167.336 160.971 3.281 1.842 o
4 6 2 121.242 116.864 2.754 3.314 o
4 6 3 102.991 104.412 1.702 4.684 o
4 6 4 8.473 6.482 0.690 200.061 o
4 6 5 33.331 31.977 1.239 30.914 o
4 6 6 0.445 1.115 0.780 302.805 o
4 6 7 37.770 34.310 1.553 23.838 o
4 6 8 4.513 4.730 0.786 224.873 o
4 6 9 5.738 5.052 0.778 212.009 o
4 6 10 1.179 0.716 0.842 256.100 o
4 6 11 5.757 8.307 1.249 98.894 o
4 6 12 5.086 4.530 1.041 143.354 o
4 6 13 14.957 13.979 1.389 60.897 o
4 6 14 31.899 31.462 1.607 27.503 o
4 6 15 10.139 9.933 1.384 73.547 o
4 6 16 15.102 13.072 1.713 46.480 o
4 7 0 11.061 13.909 0.735 132.838 o
4 7 1 4.515 4.545 0.614 314.744 o
4 7 2 6.364 5.857 0.571 283.103 o
4 7 3 73.723 76.542 1.518 8.381 o
4 7 4 6.948 5.133 0.765 202.715 o
4 7 5 3.515 3.446 0.709 286.242 o
4 7 6 63.631 61.516 1.620 10.893 o
4 7 7 3.842 3.268 0.956 176.089 o
4 7 8 0.015 1.502 0.777 308.512 o
4 7 9 18.305 18.113 1.219 59.574 o
4 7 10 67.452 69.789 1.942 9.059 o
4 7 11 10.440 9.300 1.195 90.443 o
4 7 12 7.555 7.108 1.109 114.449 o
4 7 13 26.582 25.223 1.725 31.360 o
4 7 14 26.567 27.277 1.705 30.995 o
4 7 15 43.406 44.938 3.034 11.300 o
4 8 0 52.133 57.051 1.356 14.675 o
4 8 1 21.923 20.097 0.944 61.288 o
4 8 2 2.188 3.232 0.636 370.662 o
4 8 3 69.876 70.778 1.477 9.346 o
4 8 4 24.045 22.250 1.800 32.753 o
4 8 5 55.689 56.972 1.687 12.801 o
4 8 6 8.666 10.541 1.200 93.256 o
4 8 7 9.046 8.885 1.755 52.379 o
4 8 8 114.646 124.874 2.547 3.462 o
4 8 9 23.234 22.955 1.300 45.076 o
4 8 10 16.431 16.215 1.275 62.206 o
4 8 11 22.465 19.142 1.563 40.940 o
4 8 12 11.866 9.368 1.224 83.713 o
4 8 13 24.603 26.325 1.642 33.956 o
4 8 14 9.992 10.326 1.490 65.833 o
4 8 15 7.336 7.317 1.404 79.587 o
4 9 0 0.449 0.123 0.743 340.338 o
4 9 1 126.880 127.816 2.121 3.148 o
4 9 2 17.235 17.557 1.102 68.130 o
4 9 3 4.037 3.723 1.139 128.816 o
4 9 4 4.656 2.625 1.096 137.444 o
4 9 5 21.122 21.342 1.445 44.569 o
4 9 6 39.448 43.059 2.055 17.436 o
4 9 7 40.842 42.016 2.216 16.172 o
4 9 8 46.619 47.552 2.116 14.481 o
4 9 9 46.055 49.170 2.180 14.129 o
4 9 10 82.646 92.852 2.370 5.909 o
4 9 11 1.488 0.109 1.200 129.781 o
4 9 12 14.472 14.986 1.393 60.653 o
4 9 13 2.449 3.378 1.150 132.790 o
4 9 14 30.212 32.176 1.722 26.839 o
4 10 0 90.884 97.633 2.042 5.427 o
4 10 1 112.476 116.384 2.243 3.789 o
4 10 2 0.727 -0.722 1.054 170.148 o
4 10 3 23.057 20.350 1.777 34.626 o
4 10 4 34.427 34.759 1.928 21.800 o
4 10 5 16.297 17.154 1.372 56.896 o
4 10 6 56.034 65.064 2.344 10.195 o
4 10 7 11.086 12.624 1.368 70.345 o
4 10 8 5.453 5.393 1.185 113.109 o
4 10 9 14.220 16.200 1.493 55.090 o
4 10 10 6.666 6.173 1.456 77.059 o
4 10 11 38.082 37.573 1.989 19.288 o
4 10 12 3.066 3.198 1.306 103.893 o
4 11 0 0.048 -0.764 0.650 453.478 o
4 11 1 32.023 31.466 1.746 25.718 o
4 11 2 38.831 41.865 1.680 20.481 o
4 11 3 43.791 40.505 2.271 15.281 o
4 11 4 2.834 1.288 1.138 137.506 o
4 11 5 21.194 25.033 1.681 36.425 o
4 11 6 23.488 23.287 1.572 37.708 o
4 11 7 41.497 47.229 2.125 15.805 o
4 11 8 26.024 26.670 1.694 31.790 o
4 11 9 5.274 7.646 1.484 75.543 o
4 11 10 13.457 17.087 1.649 48.657 o
4 11 11 12.469 14.748 1.512 57.592 o
4 12 0 0.483 0.425 1.016 183.048 o
4 12 1 14.069 12.583 1.391 63.479 o
4 12 2 26.613 21.940 1.558 35.813 o
4 12 3 1.883 1.354 1.117 145.590 o
4 12 4 25.171 26.762 1.752 31.322 o
4 12 5 23.683 19.116 1.963 30.771 o
4 12 6 34.549 39.450 2.147 18.950 o
4 12 7 20.191 23.943 1.816 34.547 o
4 12 8 21.108 21.133 1.742 36.638 o
4 12 9 2.118 1.767 1.414 92.120 o
4 13 0 8.171 10.682 1.505 67.224 o
4 13 1 7.203 8.088 1.450 75.068 o
4 13 2 0.028 -0.781 1.139 148.230 o
4 13 3 17.728 16.266 1.427 52.983 o
4 13 4 5.303 2.277 1.417 86.354 o
4 13 5 0.771 0.257 1.328 107.614 o
4 13 6 2.131 2.969 1.419 90.621 o
4 14 0 15.756 16.567 1.639 46.851 o
4 14 1 12.312 10.294 1.856 44.609 o
5 0 1 10.699 14.272 0.513 166.107 o
5 0 2 0.093 -0.039 0.324 1794.520 o
5 0 3 1.359 1.786 0.308 1219.630 o
5 0 4 0.079 -0.222 0.313 1923.260 o
5 0 5 1.106 1.191 0.528 591.660 o
5 0 6 7.679 7.984 0.529 252.077 o
5 0 7 0.000 0.179 0.435 1002.370 o
5 0 8 2.119 1.743 0.602 428.495 o
5 0 9 245.994 245.490 2.799 0.913 o
5 0 10 119.298 127.104 2.903 3.174 o
5 0 11 4.289 3.934 0.858 203.049 o
5 0 12 45.900 47.676 1.375 18.235 o
5 0 13 12.537 11.318 0.998 100.250 o
5 0 14 71.524 76.928 1.812 8.274 o
5 0 15 69.800 70.378 1.935 8.723 o
5 0 16 0.000 0.656 0.987 195.873 o
5 0 17 3.231 4.257 1.300 103.221 o
5 1 0 135.564 117.022 1.604 3.150 o
5 1 1 60.995 64.695 1.496 11.338 o
5 1 2 11.784 10.910 0.667 148.522 o
5 1 3 19.194 17.758 1.406 50.706 o
5 1 4 100.753 92.484 1.520 5.235 o
5 1 5 18.398 14.989 0.700 92.248 o
5 1 6 33.483 31.767 0.782 36.254 o
5 1 7 44.398 43.324 0.883 22.280 o
5 1 8 6.087 5.073 0.775 208.962 o
5 1 9 21.089 20.535 1.070 57.905 o
5 1 10 43.363 44.433 1.207 20.887 o
5 1 11 97.570 99.648 2.067 4.947 o
5 1 12 2.331 2.865 0.759 279.262 o
5 1 13 66.048 71.539 1.742 9.461 o
5 1 14 28.376 28.251 1.557 31.795 o
5 1 15 2.094 2.032 1.030 166.997 o
5 1 16 21.482 22.793 1.471 42.583 o
5 2 0 75.886 84.364 1.283 7.872 o
5 2 1 69.208 67.497 1.453 9.731 o
5 2 2 63.858 57.400 1.035 12.352 o
5 2 3 6.864 4.654 0.821 188.236 o
5 2 4 19.676 15.992 1.151 62.035 o
5 2 5 5.667 5.775 0.763 214.015 o
5 2 6 1.886 2.191 0.564 476.087 o
5 2 7 40.899 40.674 1.090 23.903 o
5 2 8 59.538 62.036 1.445 12.011 o
5 2 9 12.068 10.796 0.790 129.060 o
5 2 10 39.220 43.577 1.626 20.336 o
5 2 11 34.116 35.251 1.366 27.633 o
5 2 12 13.818 13.642 0.974 93.111 o
5 2 13 0.982 0.839 0.811 276.633 o
5 2 14 51.473 53.965 1.885 13.480 o
5 2 15 36.157 32.125 2.005 20.912 o
5 2 16 40.519 40.788 2.063 17.401 o
5 3 0 6.492 8.577 0.875 160.629 o
5 3 1 106.157 102.217 1.706 4.574 o
5 3 2 47.413 48.889 1.101 18.586 o
5 3 3 48.528 42.864 1.366 18.192 o
5 3 4 29.437 28.029 1.278 35.634 o
5 3 5 0.955 1.061 0.684 378.378 o
5 3 6 108.079 102.370 1.660 4.489 o
5 3 7 45.273 44.100 1.432 18.901 o
5 3 8 67.787 68.424 1.540 9.753 o
5 3 9 22.371 21.319 1.240 49.207 o
5 3 10 17.497 17.875 1.189 62.807 o
5 3 11 10.920 8.671 1.094 100.920 o
5 3 12 1.124 0.660 0.856 249.162 o
5 3 13 6.043 6.512 1.017 138.608 o
5 3 14 24.164 23.557 1.484 38.998 o
5 3 15 7.214 7.957 1.223 98.621 o
5 3 16 30.279 26.808 1.798 27.353 o
5 4 0 17.065 15.853 0.917 81.852 o
5 4 1 114.884 114.891 1.729 3.879 o
5 4 2 5.774 4.152 0.681 258.001 o
5 4 3 36.276 35.991 0.885 30.421 o
5 4 4 15.133 14.535 1.136 75.116 o
5 4 5 72.271 71.272 1.701 8.681 o
5 4 6 61.114 59.680 1.523 11.756 o
5 4 7 26.650 25.115 0.963 47.062 o
5 4 8 6.513 6.136 0.872 170.405 o
5 4 9 100.622 100.860 1.860 4.843 o
5 4 10 11.572 11.907 1.014 101.211 o
5 4 11 27.848 28.154 1.384 35.241 o
5 4 12 2.856 2.011 0.948 189.200 o
5 4 13 2.389 0.469 0.951 196.382 o
5 4 14 5.073 4.355 1.083 134.730 o
5 4 15 18.577 19.536 1.596 43.774 o
5 4 16 0.035 -0.473 1.242 124.596 o
5 5 0 31.861 35.069 1.223 31.055 o
5 5 1 26.188 25.343 0.976 47.302 o
5 5 2 49.052 48.434 1.596 16.014 o
5 5 3 25.050 27.193 1.524 35.567 o
5 5 4 96.165 97.987 2.395 4.887 o
5 5 5 47.021 49.924 1.460 17.026 o
5 5 6 37.560 37.797 1.579 22.807 o
5 5 7 123.563 122.940 1.991 3.354 o
5 5 8 30.218 30.393 1.403 31.893 o
5 5 9 39.076 40.607 1.546 21.653 o
5 5 10 0.583 -0.160 0.783 306.222 o
5 5 11 4.412 3.851 0.910 184.409 o
5 5 12 3.143 2.523 1.010 166.345 o
5 5 13 29.429 26.525 1.468 33.110 o
5 5 14 7.946 8.153 1.207 98.158 o
5 5 15 18.316 17.440 1.422 51.524 o
5 6 0 0.164 0.099 0.600 526.705 o
5 6 1 21.794 19.400 1.000 60.267 o
5 6 2 15.441 15.587 0.983 83.246 o
5 6 3 112.625 116.592 2.042 3.844 o
5 6 4 5.233 3.658 0.975 160.661 o
5 6 5 99.772 100.504 1.820 4.919 o
5 6 6 22.338 21.545 1.270 48.160 o
5 6 7 4.041 5.151 0.930 176.341 o
5 6 8 41.847 39.620 1.398 21.618 o
5 6 9 36.422 40.087 1.775 21.154 o
5 6 10 10.385 10.293 1.052 104.798 o
5 6 11 9.377 9.009 1.049 111.985 o
5 6 12 1.135 0.897 1.011 180.644 o
5 6 13 27.666 28.494 1.707 29.800 o
5 6 14 20.660 20.812 1.441 45.569 o
5 6 15 21.574 22.819 1.634 38.197 o
5 7 0 5.934 7.675 0.876 167.985 o
5 7 1 51.253 51.963 1.290 15.926 o
5 7 2 3.433 2.541 0.712 293.655 o
5 7 3 6.172 6.031 0.900 166.180 o
5 7 4 25.069 25.026 1.281 41.974 o
5 7 5 24.090 27.339 1.292 41.506 o
5 7 6 26.697 30.936 1.478 33.382 o
5 7 7 35.578 38.190 1.451 24.919 o
5 7 8 38.650 38.267 1.605 21.946 o
5 7 9 67.180 73.302 1.923 8.892 o
5 7 10 42.876 44.076 1.639 18.676 o
5 7 11 25.082 24.390 1.403 39.494 o
5 7 12 40.316 45.260 2.316 15.303 o
5 7 13 0.214 -0.164 1.124 151.482 o
5 7 14 19.531 18.740 1.805 37.256 o
5 8 0 10.317 10.235 0.973 115.305 o
5 8 1 7.791 5.697 0.962 142.516 o
5 8 2 6.297 5.923 1.029 136.408 o
5 8 3 2.761 2.541 0.956 185.394 o
5 8 4 38.427 37.921 1.913 19.677 o
5 8 5 13.504 14.007 1.165 78.080 o
5 8 6 39.732 38.323 1.845 19.616 o
5 8 7 26.541 25.699 1.908 28.177 o
5 8 8 62.258 62.645 2.604 8.914 o
5 8 9 5.734 6.020 1.278 98.248 o
5 8 10 34.808 34.426 2.299 18.441 o
5 8 11 12.165 11.101 1.449 64.425 o
5 8 12 11.125 9.885 1.581 58.893 o
5 8 13 12.140 12.102 1.638 53.329 o
5 9 0 30.666 30.634 1.408 31.363 o
5 9 1 12.211 12.777 1.251 76.384 o
5 9 2 19.467 21.588 1.467 45.726 o
5 9 3 1.477 0.953 0.980 189.464 o
5 9 4 8.921 12.050 1.310 79.999 o
5 9 5 5.616 4.429 1.130 123.502 o
5 9 6 28.878 28.013 1.645 30.116 o
5 9 7 1.081 1.330 1.252 119.019 o
5 9 8 20.787 21.072 1.633 39.744 o
5 9 9 20.442 20.502 1.679 39.073 o
5 9 10 41.339 44.912 2.245 15.489 o
5 9 11 12.847 13.079 1.554 56.075 o
5 9 12 5.487 5.110 1.432 82.098 o
5 10 0 69.822 78.061 2.190 7.890 o
5 10 1 26.064 27.175 1.451 36.103 o
5 10 2 24.002 26.001 1.721 32.998 o
5 10 3 12.872 11.240 1.366 68.451 o
5 10 4 30.764 27.714 1.625 29.228 o
5 10 5 3.147 2.978 1.313 102.832 o
5 10 6 16.572 19.281 1.532 48.396 o
5 10 7 3.437 3.448 1.260 109.733 o
5 10 8 23.400 25.967 1.646 34.992 o
5 10 9 15.836 20.106 1.788 40.126 o
5 10 10 4.637 2.691 1.289 103.355 o
5 10 11 2.906 3.008 1.320 102.399 o
5 11 0 69.245 71.144 2.040 8.582 o
5 11 1 32.165 34.744 2.084 21.214 o
5 11 2 28.655 28.826 1.912 26.109 o
5 11 3 12.984 12.116 1.362 67.653 o
5 11 4 15.831 18.013 1.525 50.361 o
5 11 5 16.452 15.201 1.436 55.221 o
5 11 6 27.285 26.726 1.893 27.698 o
5 11 7 1.762 1.814 1.278 112.427 o
5 11 8 22.377 23.587 1.603 37.880 o
5 11 9 12.300 10.728 1.775 47.684 o
5 12 0 8.004 7.161 1.435 75.824 o
5 12 1 42.188 41.343 2.351 15.129 o
5 12 2 9.940 11.371 1.603 58.231 o
5 12 3 9.795 12.457 1.531 61.891 o
5 12 4 20.913 19.317 1.741 37.560 o
5 12 5 16.907 17.999 1.577 47.097 o
5 12 6 11.175 11.084 1.394 69.825 o
5 13 0 32.086 29.843 2.404 19.057 o
5 13 1 3.350 1.005 1.444 87.301 o
5 13 2 28.702 30.684 2.093 23.353 o
6 0 0 23.648 29.382 1.508 36.165 o
6 0 1 78.414 78.590 1.919 7.301 o
6 0 2 53.043 45.444 1.738 14.711 o
6 0 3 2.466 1.510 0.593 431.106 o
6 0 4 7.365 6.893 0.686 212.732 o
6 0 5 87.362 79.219 1.399 6.851 o
6 0 6 45.777 43.845 1.236 19.761 o
6 0 7 177.531 172.572 2.680 1.703 o
6 0 8 24.177 28.972 1.778 30.788 o
6 0 9 51.891 52.705 2.126 12.668 o
6 0 10 75.158 85.665 1.935 7.256 o
6 0 11 27.606 25.685 1.546 33.614 o
6 0 12 0.384 1.193 0.994 189.835 o
6 0 13 3.312 4.197 1.079 143.461 o
6 0 14 2.123 1.836 1.034 166.045 o
6 0 15 16.686 14.954 1.786 41.639 o
6 1 0 101.491 99.931 1.893 4.806 o
6 1 1 38.151 35.028 1.109 27.390 o
6 1 2 22.981 20.861 1.135 51.910 o
6 1 3 4.453 5.064 0.740 243.518 o
6 1 4 42.199 43.735 1.282 21.185 o
6 1 5 60.329 56.945 1.381 12.536 o
6 1 6 27.435 29.891 1.111 39.730 o
6 1 7 75.626 77.048 1.960 7.621 o
6 1 8 30.542 30.211 1.484 30.518 o
6 1 9 12.091 12.281 1.064 93.473 o
6 1 10 4.944 4.135 0.914 178.246 o
6 1 11 3.336 3.858 1.030 156.224 o
6 1 12 5.838 4.467 1.022 143.826 o
6 1 13 3.779 2.547 1.207 118.881 o
6 1 14 6.417 8.654 1.375 82.873 o
6 1 15 2.690 0.743 1.409 92.636 o
6 2 0 16.600 17.059 0.938 80.094 o
6 2 1 39.363 34.579 1.147 26.381 o
6 2 2 172.181 166.951 2.057 1.855 o
6 2 3 41.822 36.710 1.724 19.990 o
6 2 4 41.252 41.170 1.482 20.964 o
6 2 5 27.869 30.428 1.381 34.239 o
6 2 6 45.959 45.779 1.435 18.288 o
6 2 7 54.267 52.235 1.336 14.815 o
6 2 8 12.944 14.655 1.009 91.358 o
6 2 9 48.072 48.762 1.644 16.058 o
6 2 10 14.546 13.693 1.045 84.578 o
6 2 11 27.949 24.656 1.318 38.127 o
6 2 12 7.649 6.857 1.079 119.176 o
6 2 13 0.935 0.541 0.973 196.570 o
6 2 14 24.324 23.604 1.497 38.504 o
6 2 15 2.053 0.815 1.360 100.195 o
6 3 0 142.822 139.332 1.641 2.660 o
6 3 1 68.630 74.049 1.415 9.371 o
6 3 2 9.015 9.686 0.803 152.458 o
6 3 3 58.519 56.755 1.492 12.707 o
6 3 4 24.169 23.625 1.010 51.225 o
6 3 5 36.431 35.653 1.245 27.140 o
6 3 6 46.969 49.154 1.549 16.778 o
6 3 7 19.616 18.536 1.118 61.014 o
6 3 8 8.152 8.500 0.922 139.819 o
6 3 9 16.124 16.244 1.164 68.858 o
6 3 10 10.399 10.715 1.073 101.551 o
6 3 11 4.684 4.049 1.133 127.069 o
6 3 12 3.317 2.505 1.009 165.541 o
6 3 13 8.576 7.630 1.189 99.198 o
6 3 14 26.463 25.465 1.653 32.653 o
6 4 0 16.060 14.280 0.936 86.772 o
6 4 1 22.408 22.710 1.085 52.893 o
6 4 2 45.250 47.674 1.344 18.640 o
6 4 3 71.082 71.865 1.578 8.963 o
6 4 4 37.272 37.900 1.154 26.616 o
6 4 5 98.959 104.068 1.692 4.920 o
6 4 6 9.154 9.378 0.857 142.398 o
6 4 7 9.440 7.283 0.930 134.225 o
6 4 8 41.491 38.754 1.990 17.898 o
6 4 9 16.721 15.529 1.202 66.222 o
6 4 10 19.753 20.304 1.312 51.477 o
6 4 11 4.423 2.388 0.998 162.921 o
6 4 12 0.636 0.103 0.941 212.806 o
6 4 13 10.500 9.517 1.303 79.901 o
6 4 14 12.381 12.424 1.187 81.441 o
6 5 0 12.973 12.473 1.001 95.982 o
6 5 1 213.385 224.029 2.558 1.162 o
6 5 2 3.011 3.426 0.773 257.667 o
6 5 3 9.860 9.810 0.856 136.528 o
6 5 4 6.142 7.124 0.859 173.045 o
6 5 5 65.341 64.827 1.509 10.502 o
6 5 6 10.323 8.983 0.889 130.926 o
6 5 7 30.073 31.012 1.489 30.510 o
6 5 8 10.687 10.310 1.182 89.607 o
6 5 9 2.159 2.032 1.112 144.728 o
6 5 10 28.957 29.974 1.531 31.109 o
6 5 11 10.268 9.991 1.200 89.451 o
6 5 12 8.645 8.203 1.168 100.625 o
6 5 13 11.388 13.061 1.430 65.288 o
6 6 0 1.794 0.078 0.774 296.195 o
6 6 1 149.382 152.076 2.717 2.253 o
6 6 2 41.665 37.583 1.532 21.248 o
6 6 3 68.389 72.423 1.603 9.269 o
6 6 4 38.530 41.594 1.316 23.415 o
6 6 5 31.828 33.783 1.596 26.962 o
6 6 6 15.491 15.800 1.203 68.537 o
6 6 7 4.573 5.330 1.126 126.433 o
6 6 8 0.338 1.104 1.062 167.138 o
6 6 9 16.782 14.560 1.418 56.048 o
6 6 10 12.974 12.753 1.219 77.016 o
6 6 11 0.065 -0.024 1.017 185.495 o
6 6 12 3.838 4.713 1.153 125.008 o
6 6 13 16.056 16.163 1.609 47.868 o
6 7 0 73.370 74.336 1.837 8.176 o
6 7 1 41.083 44.002 1.686 19.094 o
6 7 2 1.785 1.555 0.899 218.073 o
6 7 3 0.762 0.837 0.955 203.946 o
6 7 4 10.937 10.838 0.983 109.805 o
6 7 5 4.459 2.724 0.928 182.614 o
6 7 6 113.073 112.950 2.540 3.726 o
6 7 7 1.669 2.276 1.074 155.742 o
6 7 8 1.753 2.052 1.056 160.801 o
6 7 9 2.021 1.989 1.039 164.684 o
6 7 10 0.405 -0.086 1.041 175.613 o
6 7 11 33.394 33.063 1.978 22.103 o
6 7 12 4.479 4.305 1.265 105.246 o
6 8 0 61.316 65.221 1.784 10.637 o
6 8 1 30.411 29.428 1.234 34.713 o
6 8 2 23.746 22.830 1.291 44.739 o
6 8 3 12.169 10.758 1.099 92.413 o
6 8 4 53.841 56.441 1.696 13.260 o
6 8 5 7.126 7.649 1.105 115.614 o
6 8 6 0.345 0.820 1.273 117.226 o
6 8 7 0.724 1.106 1.338 105.478 o
6 8 8 62.377 75.101 3.385 6.830 o
6 8 9 47.697 45.676 2.604 12.316 o
6 8 10 2.504 1.342 1.509 81.102 o
6 8 11 11.253 11.068 1.738 50.133 o
6 9 0 5.947 4.377 1.050 137.557 o
6 9 1 23.704 20.591 1.406 43.083 o
6 9 2 16.147 13.132 1.311 63.770 o
6 9 3 10.832 9.750 1.238 84.617 o
6 9 4 1.401 0.586 1.003 182.831 o
6 9 5 11.391 11.819 1.347 72.027 o
6 9 6 33.998 32.381 1.901 22.778 o
6 9 7 13.665 11.493 1.662 50.886 o
6 9 8 8.292 7.215 1.412 77.198 o
6 9 9 0.056 0.282 1.206 131.791 o
6 9 10 21.155 24.627 1.730 35.494 o
6 10 0 77.540 83.498 1.987 7.077 o
6 10 1 19.342 17.581 1.393 51.081 o
6 10 2 5.554 6.288 1.248 102.276 o
6 10 3 14.799 15.827 1.464 55.880 o
6 10 4 26.669 24.208 1.887 28.872 o
6 10 5 9.402 8.247 1.540 64.845 o
6 10 6 13.365 11.519 1.682 50.282 o
6 10 7 26.655 26.751 1.988 26.614 o
6 10 8 16.288 13.979 1.710 45.020 o
6 11 0 18.234 19.169 1.378 52.136 o
6 11 1 3.738 4.896 1.133 128.887 o
6 11 2 23.722 22.787 1.704 34.792 o
6 11 3 20.134 18.825 1.693 39.713 o
6 11 4 13.123 12.496 1.923 40.816 o
6 11 5 9.514 8.811 1.520 65.651 o
7 0 1 5.479 3.839 0.952 164.884 o
7 0 2 23.067 23.337 1.439 41.367 o
7 0 3 0.000 -0.294 0.741 350.507 o
7 0 4 0.011 -0.289 0.835 275.571 o
7 0 5 7.348 6.726 1.099 117.523 o
7 0 6 2.215 3.043 1.071 152.570 o
7 0 7 0.774 1.668 1.100 153.417 o
7 0 8 8.455 8.935 1.214 94.618 o
7 0 9 20.561 21.104 1.611 40.522 o
7 0 10 0.015 -0.943 1.024 183.253 o
7 0 11 3.187 2.950 1.231 115.687 o
7 0 12 3.993 4.905 1.195 116.854 o
7 0 13 12.051 11.354 1.291 75.329 o
7 1 0 161.902 164.423 2.441 1.984 o
7 1 1 84.536 90.366 2.090 6.094 o
7 1 2 30.726 29.323 1.609 28.938 o
7 1 3 3.228 3.120 0.853 218.658 o
7 1 4 54.030 53.875 1.727 13.423 o
7 1 5 59.117 59.729 1.465 12.305 o
7 1 6 22.991 18.534 1.546 41.164 o
7 1 7 20.842 22.375 1.596 40.055 o
7 1 8 15.627 15.220 1.453 55.637 o
7 1 9 26.634 26.203 1.542 34.274 o
7 1 10 12.831 12.017 1.401 65.559 o
7 1 11 7.690 7.689 1.205 99.743 o
7 1 12 2.209 2.008 1.194 126.472 o
7 1 13 18.544 19.003 1.539 45.986 o
7 2 0 0.855 0.578 0.815 276.931 o
7 2 1 34.242 33.268 1.417 27.660 o
7 2 2 13.547 13.929 0.984 92.647 o
7 2 3 8.948 10.259 0.922 129.945 o
7 2 4 38.024 35.638 1.387 24.816 o
7 2 5 2.970 3.656 0.771 257.918 o
7 2 6 26.088 29.788 1.318 37.392 o
7 2 7 4.684 3.918 1.021 151.423 o
7 2 8 39.394 38.631 1.634 21.288 o
7 2 9 2.924 2.444 1.118 139.748 o
7 2 10 35.379 35.179 1.926 21.327 o
7 2 11 30.059 31.000 1.745 26.971 o
7 2 12 1.603 1.104 1.223 123.643 o
7 2 13 12.052 8.828 1.468 65.233 o
7 3 0 2.830 3.091 0.803 246.630 o
7 3 1 62.488 63.124 1.514 11.166 o
7 3 2 16.488 14.681 0.968 82.329 o
7 3 3 37.356 40.592 1.348 24.104 o
7 3 4 49.129 52.998 1.352 16.232 o
7 3 5 28.142 26.167 1.157 40.241 o
7 3 6 46.685 49.794 1.348 17.660 o
7 3 7 12.872 16.591 1.165 76.371 o
7 3 8 78.960 77.561 1.866 7.355 o
7 3 9 21.625 19.969 1.284 49.905 o
7 3 10 22.777 24.450 1.515 39.188 o
7 3 11 12.349 8.392 1.268 79.904 o
7 3 12 19.554 19.553 1.590 42.927 o
7 4 0 6.119 7.413 0.893 163.142 o
7 4 1 36.047 37.783 1.292 26.238 o
7 4 2 3.282 4.165 0.861 210.307 o
7 4 3 39.147 41.240 1.424 22.375 o
7 4 4 69.731 76.672 1.614 8.773 o
7 4 5 21.995 22.474 1.253 48.497 o
7 4 6 48.212 48.824 1.521 16.544 o
7 4 7 2.296 1.134 0.872 228.274 o
7 4 8 26.191 26.131 1.502 35.473 o
7 4 9 64.953 75.033 2.503 8.092 o
7 4 10 45.898 50.644 1.927 15.140 o
7 4 11 10.934 11.907 1.284 77.773 o
7 4 12 7.150 5.110 1.165 111.136 o
7 5 0 0.043 -0.297 0.691 401.966 o
7 5 1 13.319 12.414 1.029 92.278 o
7 5 2 4.640 5.220 0.847 198.016 o
7 5 3 18.287 19.724 1.037 66.292 o
7 5 4 3.037 2.488 0.731 288.720 o
7 5 5 7.963 6.483 0.821 170.180 o
7 5 6 0.162 -0.216 0.759 331.751 o
7 5 7 61.038 68.607 2.002 9.954 o
7 5 8 28.820 27.566 1.724 29.090 o
7 5 9 3.235 3.091 1.155 129.475 o
7 5 10 13.066 13.250 1.316 69.403 o
7 5 11 9.732 9.728 1.232 88.149 o
7 6 0 33.783 36.578 1.501 25.975 o
7 6 1 0.468 0.223 0.693 388.513 o
7 6 2 10.035 8.998 0.946 123.721 o
7 6 3 27.194 24.859 1.277 39.662 o
7 6 4 7.663 7.093 0.967 138.170 o
7 6 5 34.348 37.077 1.510 25.393 o
7 6 6 7.329 7.168 1.021 129.764 o
7 6 7 7.045 6.734 1.085 121.022 o
7 6 8 48.447 54.416 2.175 13.029 o
7 6 9 22.404 20.564 1.648 38.110 o
7 6 10 2.850 2.224 1.131 137.501 o
7 7 0 5.324 5.930 0.950 159.613 o
7 7 1 31.401 29.373 1.382 31.643 o
7 7 2 10.382 10.125 1.059 104.302 o
7 7 3 5.260 3.684 0.907 179.718 o
7 7 4 0.686 0.881 0.915 221.718 o
7 7 5 8.093 7.823 1.170 102.821 o
7 7 6 37.649 38.965 1.764 20.957 o
7 7 7 18.897 23.114 1.778 36.732 o
7 7 8 9.063 6.931 1.424 75.088 o
7 7 9 5.769 6.603 1.434 80.228 o
7 8 0 50.572 50.055 1.796 14.525 o
7 8 1 28.565 25.392 1.483 34.057 o
7 8 2 1.906 0.805 0.993 183.140 o
7 8 3 10.080 6.964 1.164 98.538 o
7 8 4 6.669 4.788 1.145 116.368 o
7 8 5 7.785 6.090 1.304 90.065 o
7 8 6 22.800 20.599 1.739 35.581 o
7 8 7 18.655 21.201 2.012 32.092 o
7 8 8 5.744 5.098 1.579 68.750 o
7 9 0 0.094 -0.203 0.900 236.784 o
7 9 1 26.383 25.465 1.636 33.019 o
7 9 2 25.491 24.783 1.690 32.937 o
7 9 3 1.021 -0.388 1.180 135.571 o
7 9 4 26.131 20.119 1.522 37.867 o
7 9 5 25.316 23.973 1.884 29.787 o
7 9 6 11.505 10.535 1.543 60.166 o
7 10 0 27.459 22.726 1.459 36.723 o
7 10 1 0.909 2.099 1.173 134.580 o
7 10 2 10.876 8.475 1.552 61.857 o
8 0 0 2.079 2.669 1.279 110.776 o
8 0 1 70.915 79.512 1.890 8.093 o
8 0 2 26.133 27.640 1.560 33.768 o
8 0 3 31.689 28.372 1.679 27.666 o
8 0 4 60.353 69.244 2.315 9.353 o
8 0 5 83.299 88.943 2.351 6.019 o
8 0 6 25.990 23.735 1.556 35.612 o
8 0 7 9.473 8.918 1.360 77.874 o
8 0 8 16.850 17.733 1.736 41.883 o
8 0 9 0.816 1.277 1.074 161.341 o
8 0 10 4.941 4.449 1.254 105.558 o
8 1 0 6.621 6.272 1.014 136.781 o
8 1 1 102.803 99.338 2.363 4.527 o
8 1 2 17.983 18.775 1.274 57.095 o
8 1 3 11.424 9.011 1.113 96.457 o
8 1 4 6.335 6.675 1.286 94.947 o
8 1 5 22.027 21.230 1.489 42.338 o
8 1 6 7.118 8.070 1.247 95.723 o
8 1 7 29.477 29.220 1.626 29.565 o
8 1 8 7.486 7.023 1.246 96.248 o
8 1 9 13.338 13.046 1.555 55.415 o
8 1 10 4.194 4.697 1.210 114.058 o
8 2 0 9.936 8.478 1.067 108.310 o
8 2 1 57.286 60.297 1.840 11.698 o
8 2 2 34.600 35.733 1.601 24.711 o
8 2 3 36.158 36.898 1.740 22.292 o
8 2 4 15.101 14.830 1.278 66.023 o
8 2 5 33.481 30.317 1.813 24.466 o
8 2 6 11.455 12.808 1.260 77.444 o
8 2 7 6.401 6.642 1.251 99.132 o
8 2 8 17.009 14.863 1.485 52.531 o
8 2 9 10.985 14.775 1.468 62.235 o
8 3 0 4.841 5.468 0.981 156.155 o
8 3 1 10.676 11.081 1.156 91.022 o
8 3 2 20.813 19.506 1.196 54.685 o
8 3 3 1.721 2.065 0.972 187.930 o
8 3 4 23.753 24.287 1.232 45.339 o
8 3 5 8.565 8.879 1.271 88.344 o
8 3 6 18.053 16.130 1.464 51.140 o
8 3 7 13.420 10.951 1.351 68.626 o
8 3 8 28.375 29.733 1.678 29.367 o
8 3 9 6.521 5.641 1.401 82.925 o
8 4 0 37.366 41.666 1.600 21.787 o
8 4 1 18.859 16.872 1.450 50.105 o
8 4 2 2.628 2.849 0.949 187.763 o
8 4 3 4.974 3.469 0.870 194.906 o
8 4 4 4.806 4.560 0.861 194.777 o
8 4 5 0.398 1.576 0.970 197.781 o
8 4 6 6.797 8.367 1.222 99.349 o
8 4 7 17.905 19.400 1.416 50.979 o
8 4 8 25.964 25.381 1.822 30.028 o
8 5 0 27.144 25.884 1.472 35.299 o
8 5 1 36.772 37.843 1.583 23.166 o
8 5 2 22.630 22.340 1.235 48.227 o
8 5 3 2.530 4.848 0.952 180.764 o
8 5 4 32.735 32.985 1.690 25.550 o
8 5 5 13.223 13.543 1.049 88.810 o
8 5 6 35.795 36.225 1.868 21.457 o
8 5 7 11.259 12.500 1.292 75.759 o
8 6 0 9.028 11.674 1.441 69.692 o
8 6 1 34.279 39.410 1.919 20.972 o
8 6 2 34.705 38.914 1.672 23.126 o
8 6 3 9.821 9.772 1.129 98.750 o
8 6 4 60.566 65.705 1.765 10.768 o
8 6 5 5.033 5.556 0.959 160.202 o
8 6 6 26.163 24.189 1.573 34.932 o
8 7 0 94.834 99.543 2.418 4.903 o
8 7 1 5.313 5.467 1.138 121.149 o
8 7 2 4.781 3.818 1.008 154.312 o
8 7 3 4.825 5.747 0.928 169.280 o
8 7 4 4.708 5.409 1.025 146.542 o
9 0 1 0.208 0.068 1.029 180.590 o
9 0 2 2.552 1.792 1.354 99.283 o
9 0 3 17.557 20.337 1.364 52.815 o
9 0 4 22.532 21.751 1.548 39.950 o
9 1 0 8.139 7.826 1.107 111.095 o
9 1 1 20.104 21.793 1.356 48.378 o
9 1 2 1.961 2.539 1.140 137.881 o
9 1 3 2.399 0.751 1.292 109.977 o
9 1 4 2.258 0.866 1.232 120.498 o
9 2 0 0.004 0.919 1.000 189.960 o
9 2 1 2.087 0.010 0.995 183.647 o
9 2 2 0.135 -1.473 1.005 189.645 o
9 2 3 5.450 7.187 1.336 90.499 o
9 2 4 0.412 -0.732 1.152 143.709 o
9 3 0 4.378 3.620 1.151 125.481 o
9 3 1 4.791 5.182 1.153 120.960 o
9 3 2 3.110 3.026 0.992 170.411 o
;
_iucr_refine_instructions_details
;
TITL 
CELL 0.71073 5.2782 8.869 11.5246 90 90 90
ZERR 4 0.0011 0.0018 0.0023 0 0 0
LATT -1
SYMM 0.5-X,-Y,0.5+Z
SYMM 0.5+X,0.5-Y,-Z
SYMM -X,0.5+Y,0.5-Z
SFAC C H N O
UNIT 20 36 4 8

L.S. 4
PLAN  20
CONF
FMAP 2
MORE -1
BOND $H
ACTA
WGHT 0.056622 0.03706
FVAR 1.067907
REM <olex2.extras>
REM <HklSrc "%.\\fk_03426_intdb_v128.hkl">
REM </olex2.extras>

O1    4     1.20560  0.38632  0.31260  11.00000  0.00915  0.01132  0.02412 =
 0.00212 -0.00006  0.00102
N     3     0.71046  0.40507  0.35037  11.00000  0.00798  0.01028  0.01465 =
 -0.00112  0.00058 -0.00042
Ha    2     0.55718  0.40909  0.32721  11.00000 -1.20000
Hb    2     0.79691  0.31862  0.32760  11.00000 -1.20000
O3    4     1.24239  0.61408  0.23093  11.00000  0.01289  0.01710  0.03640 =
 0.01144  0.00672  0.00065
C5    1     0.83929  0.54435  0.30576  11.00000  0.00821  0.00999  0.01140 =
 0.00017  0.00001  0.00043
H5    2     0.75073  0.57647  0.23679  11.00000 -1.20000
C2    1     1.11951  0.51202  0.27982  11.00000  0.00848  0.01162  0.01377 =
 -0.00002  0.00040  0.00002
C3    1     0.81232  0.65508  0.40655  11.00000  0.01724  0.00996  0.01294 =
 -0.00108  0.00111  0.00001
H3a   2     0.91931  0.73818  0.40142  11.00000 -1.20000
H3b   2     0.64285  0.69472  0.40485  11.00000 -1.20000
C1    1     0.70380  0.41280  0.48165  11.00000  0.01805  0.01386  0.01393 =
 0.00220  0.00178 -0.00176
H1a   2     0.52780  0.42433  0.50502  11.00000 -1.20000
H1b   2     0.77126  0.32449  0.51225  11.00000 -1.20000
C4    1     0.85161  0.55469  0.51292  11.00000  0.01777  0.01486  0.01166 =
 -0.00019 -0.00106 -0.00077
H4a   2     1.02538  0.52607  0.52371  11.00000 -1.20000
H4b   2     0.79494  0.59584  0.58209  11.00000 -1.20000
HKLF 4

END
Q1 1 0.833333 0.6 0.35 11 0.05 0.36
Q2 1 0.833333 0.6 0.475 11 0.05 0.36
Q3 1 1.166667 0.566667 0.25 11 0.05 0.35
Q4 1 1 0.533333 0.3 11 0.05 0.3
Q5 1 1.166667 0.433333 0.275 11 0.05 0.29
Q6 1 0.777778 0.466667 0.325 11 0.05 0.23
Q7 1 1.222222 0.7 0.225 11 0.05 0.19
Q8 1 1.166667 0.566667 0.575 11 0.05 0.18

  REM The information below was added by Olex2.
  REM
  REM R1 = 0.0360 for 2719 Fo > 4sig(Fo) and 0.0439 for all 3065 data
  REM 100 parameters refined using 0 restraints
  REM Highest difference peak 0.3601, deepest hole -0.2254
  REM Mean Shift 0.0001, Max Shift -0.0006.

  REM +++ Tabular Listing of Refinement Information +++
  REM R1_all = 0.0439
  REM R1_gt = 0.0360
  REM wR_ref = 0.0945
  REM GOOF = 1.0525
  REM Shift_max = -0.0006
  REM Shift_mean = 0.0001
  REM Reflections_all = 3065
  REM Reflections_gt = 2719
  REM Parameters = 100
  REM Hole = -0.2254
  REM Peak = 0.3601
  REM Flack = -0.0(2)

  
;
_olex2_exptl_crystal_mounting_method  'Cryo loop'
_olex2_submission_special_instructions  'No special instructions were received'
