data_fk_03443_intdb_v128
_audit_creation_date               2024-03-13
_audit_creation_method
;
Olex2 1.5-alpha
(compiled 2023.11.24 svn.r209d9fb2 for OlexSys, GUI svn.r6869)
;
_audit_contact_author_address      ?
_audit_contact_author_email        ?
_audit_contact_author_name         ''
_audit_contact_author_phone        ?
_publ_contact_author_id_orcid      ?
_publ_section_references
;
Bourhis, L.J., Dolomanov, O.V., Gildea, R.J., Howard, J.A.K., Puschmann, H.
 (2015). Acta Cryst. A71, 59-75.

D. Kratzert, I. Krossing, (2018), J. Appl. Cryst. 51, 928-934.

Dolomanov, O.V., Bourhis, L.J., Gildea, R.J, Howard, J.A.K. & Puschmann, H.
 (2009), J. Appl. Cryst. 42, 339-341.

Kratzert, D., Holstein, J.J. & Krossing, I. (2015). J. Appl. Cryst. 48, 933-938.
;
_chemical_name_systematic          '5-Oxopyrrolidine-2-carboxylic acid'
_chemical_formula_moiety           'C5 H7 N O3'
_chemical_formula_sum              'C5 H7 N O3'
_chemical_formula_weight           129.116
loop_
  _atom_type_symbol
  _atom_type_scat_dispersion_real
  _atom_type_scat_dispersion_imag
  _atom_type_scat_Cromer_Mann_a1
  _atom_type_scat_Cromer_Mann_a2
  _atom_type_scat_Cromer_Mann_a3
  _atom_type_scat_Cromer_Mann_a4
  _atom_type_scat_Cromer_Mann_b1
  _atom_type_scat_Cromer_Mann_b2
  _atom_type_scat_Cromer_Mann_b3
  _atom_type_scat_Cromer_Mann_b4
  _atom_type_scat_Cromer_Mann_c
  _atom_type_scat_source
  _atom_type_scat_dispersion_source
 C 0.00313 0.00162 2.31000 1.02000 1.58860 0.86500 20.84390 10.20750 0.56870
 51.65120 0.21560 'International Tables Volume C Table 6.1.1.4 (pp. 500-502)'
 'Brennan, Cowan, Rev. Sci. Instrum., 1992, 63, 850'
 H 0.00000 0.00000 0.49300 0.32291 0.14019 0.04081 10.51090 26.12570 3.14236
 57.79970 0.00304 'International Tables Volume C Table 6.1.1.4 (pp. 500-502)'
 'Brennan, Cowan, Rev. Sci. Instrum., 1992, 63, 850'
 N 0.00612 0.00332 12.21260 3.13220 2.01250 1.16630 0.00570 9.89330 28.99750
 0.58260 -11.52900 'International Tables Volume C Table 6.1.1.4 (pp. 500-502)'
 'Brennan, Cowan, Rev. Sci. Instrum., 1992, 63, 850'
 O 0.01085 0.00610 3.04850 2.28680 1.54630 0.86700 13.27710 5.70110 0.32390
 32.90890 0.25080 'International Tables Volume C Table 6.1.1.4 (pp. 500-502)'
 'Brennan, Cowan, Rev. Sci. Instrum., 1992, 63, 850'

_space_group_crystal_system        'monoclinic'
_space_group_IT_number             14
_space_group_name_H-M_alt          'P 1 21/c 1'
_space_group_name_Hall             '-P 2ybc'
loop_
  _space_group_symop_id
  _space_group_symop_operation_xyz
 1 x,y,z
 2 -x,y+1/2,-z+1/2
 3 -x,-y,-z
 4 x,-y-1/2,z-1/2

_symmetry_Int_Tables_number        14
_cell_length_a                     7.858(4)
_cell_length_b                     8.735(5)
_cell_length_c                     9.001(5)
_cell_angle_alpha                  90
_cell_angle_beta                   115.57(4)
_cell_angle_gamma                  90
_cell_volume                       557.2(6)
_cell_formula_units_Z              4
_cell_measurement_reflns_used      0
_cell_measurement_temperature      100
_cell_measurement_theta_max        0.00
_cell_measurement_theta_min        0.00
_exptl_absorpt_coefficient_mu      0.128
_exptl_absorpt_correction_T_max    0.9656
_exptl_absorpt_correction_T_min    0.9652
_exptl_absorpt_correction_type     spherical
_exptl_crystal_colour              'clear colourless'
_exptl_crystal_colour_lustre       clear
_exptl_crystal_colour_modifier     .
_exptl_crystal_colour_primary      colourless
_exptl_crystal_density_diffrn      1.539
_exptl_crystal_density_meas        ?
_exptl_crystal_density_method      'not measured'
_exptl_crystal_description         block
_exptl_crystal_F_000               272.234
_exptl_crystal_size_max            0.21
_exptl_crystal_size_mid            0.16
_exptl_crystal_size_min            0.11
_diffrn_reflns_av_R_equivalents    0.0226
_diffrn_reflns_av_unetI/netI       0.0175
_diffrn_reflns_Laue_measured_fraction_full  1.0000
_diffrn_reflns_Laue_measured_fraction_max  0.9656
_diffrn_reflns_limit_h_max         14
_diffrn_reflns_limit_h_min         -13
_diffrn_reflns_limit_k_max         15
_diffrn_reflns_limit_k_min         -15
_diffrn_reflns_limit_l_max         16
_diffrn_reflns_limit_l_min         -15
_diffrn_reflns_number              22873
_diffrn_reflns_point_group_measured_fraction_full  1.0000
_diffrn_reflns_point_group_measured_fraction_max  0.9656
_diffrn_reflns_theta_full          25.2417
_diffrn_reflns_theta_max           40.27
_diffrn_reflns_theta_min           2.87
_diffrn_ambient_temperature        100
_diffrn_detector                   Pilatus200K
_diffrn_detector_area_resol_mean   5.81
_diffrn_detector_type              'DECTRIS PILATUS 200K'
_diffrn_measured_fraction_theta_full  1.0000
_diffrn_measured_fraction_theta_max  0.9656
_diffrn_measurement_details
;
 2182 frames, detector distance = 40 mm
;
_diffrn_measurement_device         'Eulerian 4-circle diffractometer'
_diffrn_measurement_device_type    'STOE STADIVARI'
_diffrn_measurement_method         'rotation method, \w scans'
_diffrn_radiation_collimation      '0.6 mm diameter'
_diffrn_radiation_monochromator    'Graded multilayer mirror'
_diffrn_radiation_polarisn_norm    270
_diffrn_radiation_probe            x-ray
_diffrn_radiation_type             'Mo K\a'
_diffrn_radiation_wavelength       0.71073
_diffrn_source                     'Genix Mo'
_diffrn_source_current             1.000
_diffrn_source_power               0.050
_diffrn_source_voltage             50
_reflns_Friedel_coverage           0.0
_reflns_limit_h_max                12
_reflns_limit_h_min                -14
_reflns_limit_k_max                15
_reflns_limit_k_min                0
_reflns_limit_l_max                16
_reflns_limit_l_min                0
_reflns_number_gt                  2840
_reflns_number_total               3394
_reflns_threshold_expression       I>=2u(I)
_computing_cell_refinement
;
X-Area Recipe 1.37.0.0 (STOE, 2021)
;
_computing_data_collection
;
X-Area Pilatus3_SV 1.31.186.0 (STOE, 2022)
;
_computing_data_reduction
;
X-Area Integrate 2.5.3.0 (STOE, 2021)
X-Area X-Red 2.3.0.0 (STOE, 2021) 
;
_computing_molecular_graphics      'Olex2 1.5-alpha (Dolomanov et al., 2009)'
_computing_publication_material    'Olex2 1.5-alpha (Dolomanov et al., 2009)'
_computing_structure_refinement   
 'olex2.refine 1.5-alpha (Bourhis et al., 2015)'
_computing_structure_solution     
 'olex2.solve 1.5-alpha (Bourhis et al., 2015)'
_refine_diff_density_max           0.6005
_refine_diff_density_min           -0.3524
_refine_diff_density_rms           0.0817
_refine_ls_d_res_high              0.5497
_refine_ls_d_res_low               7.0880
_refine_ls_goodness_of_fit_ref     1.0349
_refine_ls_hydrogen_treatment      constr
_refine_ls_matrix_type             full
_refine_ls_number_constraints      7
_refine_ls_number_parameters       103
_refine_ls_number_reflns           3394
_refine_ls_number_restraints       0
_refine_ls_R_factor_all            0.0494
_refine_ls_R_factor_gt             0.0399
_refine_ls_restrained_S_all        1.0349
_refine_ls_shift/su_max            -0.0007
_refine_ls_shift/su_mean           0.0000
_refine_ls_structure_factor_coef   Fsqd
_refine_ls_weighting_details      
 'w=1/[\s^2^(Fo^2^)+(0.0645P)^2^+0.1115P] where P=(Fo^2^+2Fc^2^)/3'
_refine_ls_weighting_scheme        calc
_refine_ls_wR_factor_gt            0.1056
_refine_ls_wR_factor_ref           0.1127
_olex2_refinement_description
;
1. Fixed Uiso
 At 1.2 times of:
  All C(H) groups, All C(H,H) groups, All N(H) groups
 At 1.5 times of:
  All O(H) groups
;
_atom_sites_solution_primary       iterative
loop_
  _atom_site_label
  _atom_site_type_symbol
  _atom_site_fract_x
  _atom_site_fract_y
  _atom_site_fract_z
  _atom_site_U_iso_or_equiv
  _atom_site_adp_type
  _atom_site_occupancy
  _atom_site_refinement_flags_posn
 O O 0.53313(6) 0.04778(5) 0.69102(6) 0.01390(9) Uani 1.000000 .
 O1 O -0.11947(6) 0.39307(5) 0.28280(6) 0.01522(9) Uani 1.000000 .
 H1 H -0.2511(18) 0.4119(16) 0.2585(16) 0.02282(14) Uiso 1.000000 R
 N1 N 0.23630(7) 0.11335(6) 0.50447(7) 0.01176(9) Uani 1.000000 .
 H1a H 0.1900(15) 0.0238(13) 0.5112(14) 0.01411(11) Uiso 1.000000 R
 O2 O -0.13606(7) 0.18786(6) 0.42507(8) 0.02100(11) Uani 1.000000 .
 C5 C -0.05229(8) 0.26699(6) 0.36697(7) 0.01150(10) Uani 1.000000 .
 C6 C 0.14122(8) 0.22851(6) 0.37939(7) 0.01083(9) Uani 1.000000 .
 H6 H 0.1221(16) 0.1905(13) 0.2693(14) 0.01299(11) Uiso 1.000000 R
 C3 C 0.47205(8) 0.28690(7) 0.53231(8) 0.01391(10) Uani 1.000000 .
 H3a H 0.5547(16) 0.3442(15) 0.6272(14) 0.01669(12) Uiso 1.000000 R
 H3b H 0.5414(16) 0.2639(13) 0.4634(15) 0.01669(12) Uiso 1.000000 R
 C8 C 0.42154(7) 0.13742(6) 0.58669(7) 0.01067(9) Uani 1.000000 .
 C C 0.28087(8) 0.36338(7) 0.43294(8) 0.01331(10) Uani 1.000000 .
 Ha H 0.2768(16) 0.4198(14) 0.3420(14) 0.01598(12) Uiso 1.000000 R
 Hb H 0.2493(16) 0.4348(14) 0.5028(14) 0.01598(12) Uiso 1.000000 R

loop_
  _atom_site_aniso_label
  _atom_site_aniso_U_11
  _atom_site_aniso_U_22
  _atom_site_aniso_U_33
  _atom_site_aniso_U_12
  _atom_site_aniso_U_13
  _atom_site_aniso_U_23
 O 0.01025(16) 0.01380(18) 0.01441(18) 0.00038(13) 0.00228(13) 0.00229(14)
 O1 0.01087(16) 0.01296(18) 0.0196(2) 0.00189(13) 0.00447(15) 0.00633(14)
 N1 0.00895(17) 0.00967(17) 0.0143(2) -0.00108(13) 0.00284(14) 0.00216(14)
 O2 0.01459(19) 0.0181(2) 0.0318(3) 0.00145(15) 0.01138(19) 0.01131(19)
 C5 0.00985(19) 0.01014(19) 0.0127(2) -0.00049(14) 0.00312(16) 0.00137(15)
 C6 0.01035(19) 0.00973(19) 0.0112(2) -0.00037(14) 0.00348(16) 0.00061(14)
 C3 0.0105(2) 0.0118(2) 0.0181(2) -0.00233(15) 0.00484(18) 0.00155(17)
 C8 0.00914(18) 0.01082(19) 0.0113(2) -0.00086(14) 0.00374(15) -0.00039(15)
 C 0.0119(2) 0.0102(2) 0.0169(2) -0.00162(15) 0.00532(18) 0.00142(16)

loop_
  _geom_bond_atom_site_label_1
  _geom_bond_atom_site_label_2
  _geom_bond_distance
  _geom_bond_site_symmetry_2
  _geom_bond_publ_flag
 O C8 1.2461(9) . ?
 O1 H1 0.974(13) . ?
 O1 C5 1.3115(10) . ?
 N1 H1a 0.876(11) . ?
 N1 C6 1.4530(10) . ?
 N1 C8 1.3344(11) . ?
 O2 C5 1.2172(9) . ?
 C5 C6 1.5135(11) . ?
 C6 H6 0.993(11) . ?
 C6 C 1.5387(10) . ?
 C3 H3a 0.961(12) . ?
 C3 H3b 1.007(12) . ?
 C3 C8 1.5064(11) . ?
 C3 C 1.5307(12) . ?
 C Ha 0.944(12) . ?
 C Hb 0.990(12) . ?

loop_
  _geom_angle_atom_site_label_1
  _geom_angle_atom_site_label_2
  _geom_angle_atom_site_label_3
  _geom_angle
  _geom_angle_site_symmetry_1
  _geom_angle_site_symmetry_3
  _geom_angle_publ_flag
 C5 O1 H1 113.3(8) . . ?
 C6 N1 H1a 125.6(7) . . ?
 C8 N1 H1a 119.2(7) . . ?
 C8 N1 C6 113.18(5) . . ?
 O2 C5 O1 124.58(6) . . ?
 C6 C5 O1 111.73(5) . . ?
 C6 C5 O2 123.68(5) . . ?
 C5 C6 N1 112.03(5) . . ?
 H6 C6 N1 110.3(7) . . ?
 H6 C6 C5 106.6(7) . . ?
 C C6 N1 103.22(4) . . ?
 C C6 C5 114.27(5) . . ?
 C C6 H6 110.4(7) . . ?
 H3b C3 H3a 108.3(10) . . ?
 C8 C3 H3a 109.5(8) . . ?
 C8 C3 H3b 108.4(7) . . ?
 C C3 H3a 114.1(7) . . ?
 C C3 H3b 112.5(7) . . ?
 C C3 C8 103.79(5) . . ?
 N1 C8 O 124.28(5) . . ?
 C3 C8 O 126.23(5) . . ?
 C3 C8 N1 109.49(5) . . ?
 C3 C C6 103.66(4) . . ?
 Ha C C6 112.0(7) . . ?
 Ha C C3 113.1(7) . . ?
 Hb C C6 109.9(7) . . ?
 Hb C C3 110.8(7) . . ?
 Hb C Ha 107.3(10) . . ?

loop_
  _geom_torsion_atom_site_label_1
  _geom_torsion_atom_site_label_2
  _geom_torsion_atom_site_label_3
  _geom_torsion_atom_site_label_4
  _geom_torsion
  _geom_torsion_site_symmetry_1
  _geom_torsion_site_symmetry_2
  _geom_torsion_site_symmetry_3
  _geom_torsion_site_symmetry_4
  _geom_torsion_publ_flag
 O C8 N1 C6 -174.70(6) . . . . ?
 O C8 C3 C -168.44(7) . . . . ?
 O1 C5 C6 N1 165.61(5) . . . . ?
 O1 C5 C6 C 48.67(6) . . . . ?
 N1 C6 C5 O2 -16.03(6) . . . . ?
 N1 C6 C C3 25.25(5) . . . . ?
 N1 C8 C3 C 12.07(5) . . . . ?
 O2 C5 C6 C -132.97(7) . . . . ?
 C5 C6 C C3 147.16(5) . . . . ?
 C6 C C3 C8 -22.74(5) . . . . ?

loop_
  _diffrn_refln_index_h
  _diffrn_refln_index_k
  _diffrn_refln_index_l
  _diffrn_refln_intensity_net
  _diffrn_refln_intensity_u
 -9 3 7 12.31 1.19
 -9 4 6 7.47 0.99
 -8 0 3 0.16 0.75
 -8 0 4 5.2 1
 -8 1 4 6.86 1.09
 -8 1 5 6.32 1.01
 -8 2 3 38.22 1.81
 -8 2 4 4.61 0.88
 -8 2 5 3.16 0.87
 -8 2 6 95.26 2.45
 -8 3 4 24.59 1.44
 -8 3 5 89.67 2.32
 -8 3 6 0.61 0.55
 -8 3 7 10.52 1.01
 -8 4 5 2.05 0.75
 -8 4 6 1.87 0.56
 -8 4 7 21.05 1.19
 -7 -2 1 124.94 2.99
 -7 -2 2 168.63 3.44
 -7 -1 1 16.29 1.34
 -7 -1 2 63.3 2.18
 -7 -1 3 52.04 1.95
 -7 0 1 0.41 0.67
 -7 0 2 5.99 0.91
 -7 0 3 0.09 0.56
 -7 1 2 60.41 2.02
 -7 1 4 218.64 3.52
 -7 2 2 167.2 3.16
 -7 2 3 -0.16 0.53
 -7 2 4 118.38 2.53
 -7 2 5 566.58 5.34
 -7 3 3 238.61 3.54
 -7 3 5 246.47 3.45
 -7 3 6 5.93 0.79
 -7 4 5 18.93 1.05
 -7 4 6 147.37 2.52
 -7 4 7 71.88 1.75
 -7 5 6 37.73 1.23
 -7 5 7 17.72 0.87
 -6 -6 1 4.32 0.83
 -6 -5 0 7.07 1.15
 -6 -5 1 0.87 0.8
 -6 -4 -1 1.37 0.94
 -6 -4 0 322.25 4.63
 -6 -4 1 181.01 3.47
 -6 -3 -1 2.19 0.79
 -6 -3 0 531.22 5.81
 -6 -3 1 101.65 2.55
 -6 -2 0 14.28 1.11
 -6 -2 1 555.46 5.69
 -6 -1 0 4.36 0.82
 -6 -1 1 74.5 2.09
 -6 -1 2 4.22 0.71
 -6 0 1 -0.52 0.47
 -6 0 2 2.26 0.61
 -6 1 1 78.57 2.13
 -6 1 2 4.29 0.69
 -6 1 3 764.07 5.91
 -6 2 2 29.44 1.37
 -6 2 3 531.38 4.85
 -6 2 4 4.87 0.65
 -6 3 3 292.96 3.52
 -6 3 4 72.47 1.74
 -6 3 5 48.73 1.44
 -6 4 5 27.16 1.05
 -6 4 6 63.99 1.49
 -6 5 6 2.14 0.4
 -6 5 7 56.57 1.21
 -5 -8 0 6.09 0.86
 -5 -7 -2 2.25 0.75
 -5 -7 -1 0.36 0.57
 -5 -7 0 13.68 1.14
 -5 -6 -2 15.3 1.27
 -5 -6 -1 16.67 1.16
 -5 -6 0 17.08 1.15
 -5 -5 -2 61.68 2.14
 -5 -5 -1 4.03 0.89
 -5 -5 0 758.45 6.57
 -5 -4 -1 229.23 3.63
 -5 -4 0 3.56 0.71
 -5 -3 0 227.51 3.48
 -5 -2 -1 0.69 0.61
 -4 -9 -1 13.48 1.13
 -4 -9 0 2.89 0.76
 -4 -8 -1 3.14 0.66
 -4 -8 0 4.62 0.75
 -4 -7 -2 1.03 0.56
 -4 -6 -2 3.85 0.7
 -4 -6 -1 1044.52 7.23
 -4 -5 -1 401.01 4.45
 -4 -4 -2 1028.85 7.17
 -4 -4 -1 34.58 1.33
 -4 -4 0 2.55 0.54
 -4 -3 -1 56.16 1.68
 -4 -3 0 245 3.25
 -4 -2 -1 74.18 1.87
 -4 -2 0 304.93 3.51
 -4 0 0 0.8 0.36
 -4 0 1 0.21 0.55
 -4 1 1 39.13 1.17
 -4 1 2 890.35 5.1
 -4 2 1 121.21 1.98
 -4 2 2 2.81 0.44
 -4 3 2 0.36 0.33
 -4 3 3 14.31 0.65
 -4 4 4 58.5 1.02
 -4 5 6 0.92 0.16
 -3 -9 -2 36.33 1.43
 -3 -9 -1 53.21 1.67
 -3 -8 -2 17.61 1.1
 -3 -8 -1 0.36 0.55
 -3 -7 -2 1.09 0.61
 -3 -7 -1 68.44 1.82
 -3 -6 -1 6.88 0.79
 -3 -5 -2 8.85 0.84
 -3 -4 -1 635.88 4.82
 -3 -3 -1 103.92 1.96
 -3 -2 -1 35.3 1.16
 -3 -2 0 78.37 1.59
 -3 -1 -1 13.74 0.8
 -3 -1 0 1147.19 5.73
 -3 0 0 4566.07 11.1
 -3 1 0 1125.44 5.54
 -3 1 1 1800.45 6.35
 -3 3 2 198.43 1.82
 -3 3 3 6.14 0.37
 -3 4 4 6.66 0.27
 -2 -9 -2 7.86 0.72
 -2 -9 -1 1.04 0.51
 -2 -8 -2 6.17 0.66
 -2 -7 -2 45.75 1.32
 -2 -6 -2 -0.03 0.41
 -2 -5 -2 16.67 0.84
 -2 -4 -2 351.59 3.28
 -2 -4 -1 483.92 3.61
 -2 -3 -1 32.32 1.05
 -2 -1 -1 245.21 2.42
 -2 -1 0 1888.44 6.04
 -2 1 1 213.74 1.68
 -2 5 6 397.95 2.24
 -2 5 7 62.99 1.2
 -2 5 8 50.3 1.26
 -1 -9 -2 4.37 0.5
 -1 -7 -2 240.93 2.4
 -1 -6 -2 0.29 0.25
 -1 -3 -1 172.05 1.7
 -1 -2 -1 15.97 0.53
 -1 -1 -1 16.24 0.55
 -1 0 0 0.1 0.14
 -1 4 4 290.68 1.8
 -1 4 5 54.07 1.08
 -1 4 8 149.65 2.61
 -1 4 9 4.13 0.69
 -1 5 6 0.76 0.31
 0 -8 -2 24.03 0.6
 0 -7 -2 123.68 1.29
 0 -5 -2 6.39 0.34
 0 3 4 0.32 0.33
 0 3 9 19.99 1.29
 0 4 5 50.07 1.22
 0 4 6 113.32 2.02
 0 4 7 65.76 1.74
 0 4 8 37.15 1.49
 0 4 9 12.48 1.08
 0 5 7 296.45 3.37
 0 5 8 -0.05 0.41
 1 0 0 0.2 0.15
 1 1 1 16.85 0.56
 1 1 2 937.21 4.35
 1 2 2 637.94 3.5
 1 2 4 654.07 4.66
 1 2 8 0.33 0.86
 1 3 3 544.18 3.67
 1 3 4 566.37 4.18
 1 3 5 11.37 0.77
 1 3 6 100.39 2.21
 1 3 7 5.96 0.83
 1 3 8 95.74 2.53
 1 4 4 1005.93 5.43
 1 4 5 51.33 1.43
 1 4 6 43.02 1.43
 1 4 7 239.23 3.51
 1 4 8 0.54 0.6
 1 5 7 64.58 1.83
 1 5 8 -0.23 0.59
 2 -9 -1 745.91 3.18
 2 -8 -1 102.06 1.33
 2 -5 -1 59.76 0.96
 2 -4 -1 6.7 0.38
 2 -3 -1 988.61 3.45
 2 -1 0 1913.46 5.78
 2 -1 1 245.68 2.45
 2 0 1 -0.33 0.23
 2 1 1 244.14 2.4
 2 1 3 681.99 4.93
 2 1 4 90.03 2.02
 2 1 5 6.26 0.81
 2 1 6 450.14 5.21
 2 1 7 271.05 4.4
 2 2 3 324.12 3.37
 2 2 6 12.69 1.12
 2 2 7 8.89 1.09
 2 3 3 27.43 1.02
 2 3 4 85.54 1.93
 2 3 5 267.89 3.6
 2 3 6 28.09 1.45
 2 3 7 108.42 2.63
 2 4 5 31.83 1.36
 2 4 6 176.74 3.07
 2 4 7 3.14 0.75
 3 -9 -1 21.48 0.7
 3 -9 0 -0.13 0.37
 3 -8 -1 81.46 1.37
 3 -8 0 68.65 1.57
 3 -7 -1 48.21 1.07
 3 -7 0 51.51 1.36
 3 -6 -1 158.56 1.89
 3 -6 0 10.67 0.72
 3 -5 -1 0.54 0.27
 3 -5 0 3.71 0.5
 3 -4 -1 627.91 3.66
 3 -4 0 28.02 0.98
 3 -3 -1 94.81 1.44
 3 -3 0 865.82 4.85
 3 -3 1 109.75 2.04
 3 -2 0 79.26 1.56
 3 -2 1 34.22 1.21
 3 -2 2 1167.36 6.92
 3 -1 0 1147.45 5.51
 3 -1 1 13.83 0.79
 3 -1 2 17.37 1.02
 3 -1 3 45.36 1.52
 3 -1 4 14.12 1.16
 3 0 1 0.15 0.4
 3 0 3 0.14 0.45
 3 0 4 598.54 5.66
 3 0 5 1.08 0.7
 3 1 2 17.3 0.98
 3 1 3 45.78 1.54
 3 1 4 12.43 0.95
 3 1 5 1.26 0.67
 3 2 3 53.8 1.64
 3 2 4 1.86 0.62
 3 2 5 62.65 2.07
 3 2 6 8.65 1.15
 3 3 4 299.68 3.89
 3 3 5 222.79 3.58
 3 3 6 15.12 1.29
 4 -9 1 11.94 1
 4 -9 2 43.62 1.81
 4 -8 -1 121.16 1.89
 4 -8 0 6.43 0.7
 4 -8 1 4.4 0.71
 4 -7 -1 12.42 0.72
 4 -7 0 184.63 2.72
 4 -7 1 65.01 1.86
 4 -7 2 1.51 0.64
 4 -6 -1 1.44 0.42
 4 -6 0 14.63 0.91
 4 -5 -1 492.06 3.81
 4 -5 0 0.51 0.45
 4 -5 3 1.71 0.9
 4 -4 -1 10.83 0.72
 4 -4 0 2.3 0.54
 4 -4 1 38.14 1.41
 4 -4 2 1022.75 7.33
 4 -4 3 204.77 3.56
 4 -4 4 0.48 0.72
 4 -3 0 231.66 2.95
 4 -3 1 52 1.55
 4 -3 2 61.85 1.85
 4 -3 3 15.95 1.22
 4 -2 1 73.36 1.86
 4 -2 2 2.33 0.58
 4 -2 3 51.81 1.91
 4 -2 4 52.93 1.96
 4 -1 4 26.7 1.44
 4 0 1 -0.22 0.36
 4 0 2 173.33 2.96
 4 0 3 -0.04 0.5
 4 0 4 1082.46 8.18
 4 1 2 92.31 2.2
 4 1 3 2.33 0.73
 4 1 4 28.29 1.47
 4 2 3 49.53 1.73
 4 2 4 48.5 1.8
 4 2 5 38.37 1.84
 5 -8 0 8.98 0.9
 5 -8 1 1.68 0.64
 5 -7 0 13.19 1.02
 5 -7 1 -0.33 0.52
 5 -6 0 19.11 1.13
 5 -6 1 20.1 1.17
 5 -6 2 17.76 1.37
 5 -5 0 756.6 5.92
 5 -5 2 63.49 2.11
 5 -4 0 3.94 0.69
 5 -4 1 228.49 3.51
 5 -4 2 321.15 4.49
 5 -3 0 223.33 3.26
 5 -3 1 5.4 0.81
 5 -3 2 38.37 1.71
 5 -3 3 15.83 1.26
 5 -2 1 0.88 0.55
 5 -2 2 610.76 6.02
 5 -2 3 341.24 4.81
 5 -1 1 113.72 2.5
 5 -1 3 2.24 0.8
 5 0 2 48.32 1.78
 5 0 3 -0.06 0.65
 5 1 3 3.95 0.85
 6 -6 1 39.12 1.79
 6 -4 1 0.86 0.65
 6 -3 1 1.7 0.71
 -8 -4 1 78.88 1.9
 -8 -3 -1 13.76 1.04
 -8 -3 0 112.45 2.47
 -8 -2 -1 4.96 0.8
 -8 -2 0 0.96 0.53
 -8 -1 0 0.89 0.58
 -7 -5 1 31.61 1.05
 -7 -4 -1 3.22 0.55
 -7 -4 0 88.58 1.86
 -7 -3 -1 5.15 0.75
 -7 -3 0 34.58 1.33
 -7 -2 -2 28.26 1.34
 -7 -2 -1 11.12 0.91
 -7 -2 0 43.28 1.54
 -7 -1 -2 42.27 1.76
 -7 -1 -1 4.13 0.79
 -7 0 -1 -0.33 0.64
 -7 1 -1 5.1 0.93
 -6 -5 0 6.16 0.49
 -6 -5 1 0.59 0.28
 -6 -4 -1 1.26 0.38
 -6 -4 0 332.64 3.19
 -6 -3 -1 1.25 0.48
 -6 -2 -2 17.64 1.07
 -6 -2 -1 38.54 1.36
 -6 -1 -3 23.98 1.38
 -6 -1 -2 99.76 2.39
 -6 0 -3 0.28 0.55
 -6 0 -2 154.59 2.99
 -6 0 -1 0.59 0.52
 -6 1 -2 95.93 2.5
 -6 1 -1 178.77 3.24
 -6 2 -2 17.73 1.25
 -6 2 -1 38.47 1.62
 -6 3 -1 2.67 0.81
 -5 -8 5 9.35 0.75
 -5 -8 6 4.01 0.66
 -5 -7 3 26.71 0.71
 -5 -5 0 752.97 3.22
 -5 -4 -1 226.43 2.42
 -5 -4 0 2.9 0.37
 -5 -3 -1 5.68 0.53
 -5 -2 -2 600.91 4.96
 -5 -2 -1 0.3 0.45
 -5 -1 -3 3.72 0.71
 -5 0 -3 -0.07 0.5
 -5 0 -2 46.19 1.54
 -5 0 -1 -0.17 0.37
 -5 1 -3 4.01 0.77
 -5 1 -2 682.04 5.95
 -5 1 -1 114.16 2.39
 -5 2 -2 606.03 5.84
 -5 2 -1 0.87 0.55
 -5 3 -3 16.55 1.4
 -5 3 -2 39.4 1.65
 -5 3 -1 6.29 0.8
 -5 4 -1 227.61 3.74
 -5 5 -1 4.55 0.86
 -4 -8 4 0.12 0.33
 -4 -8 5 2.53 0.51
 -4 -8 6 35.16 1.41
 -4 -8 7 35.32 1.58
 -4 -7 3 13.25 0.58
 -4 -7 4 120.16 1.98
 -4 -7 5 0.83 0.51
 -4 -7 6 3.7 0.67
 -4 -7 7 43.68 1.77
 -4 -6 2 441.32 2.36
 -4 -4 0 2.94 0.3
 -4 -3 -1 51.64 1.11
 -4 -2 -2 2.19 0.4
 -4 -1 -1 31.8 1.04
 -4 0 -3 -0.42 0.56
 -4 0 -2 172.79 2.63
 -4 0 -1 -0.11 0.3
 -4 1 -3 3.23 0.72
 -4 1 -2 94.07 2.11
 -4 2 -3 50.23 1.76
 -4 2 -2 1.79 0.55
 -4 3 -3 16.75 1.16
 -4 4 -3 206.08 3.7
 -4 4 -2 1004.76 7.46
 -4 5 -3 2.19 0.76
 -4 5 -2 8.68 0.91
 -4 5 -1 390.69 4.71
 -4 6 -2 3.02 0.77
 -4 6 -1 1048.28 8.02
 -4 7 -1 64.75 2.17
 -4 8 0 5.13 0.92
 -4 9 1 31.24 1.62
 -3 -9 6 3.82 0.77
 -3 -8 4 32.53 1.11
 -3 -8 5 30.31 1.28
 -3 -8 6 0.33 0.63
 -3 -7 3 74.51 1.39
 -3 -7 4 5.1 0.62
 -3 -7 7 1.52 0.67
 -3 -6 2 1.32 0.23
 -3 -6 3 4.42 0.47
 -3 -6 5 11.89 0.89
 -3 -6 6 5.86 0.82
 -3 -6 7 758.53 6.96
 -3 -3 -1 105.86 1.27
 -3 -1 -1 13.21 0.64
 -3 0 -3 0.37 0.39
 -3 0 -2 537.18 4.17
 -3 0 -1 0.5 0.31
 -3 1 -2 16.95 0.85
 -3 1 -1 14.54 0.76
 -3 2 -3 53 1.63
 -3 2 -1 33.39 1.14
 -3 4 -3 3.32 0.86
 -3 4 -2 1.32 0.52
 -3 5 -3 264.28 4
 -3 6 -3 140.13 3.09
 -3 6 -2 32.61 1.46
 -3 6 -1 6.91 0.82
 -3 7 -3 196.7 3.85
 -3 7 -2 2.11 0.78
 -3 7 -1 71.9 2.04
 -3 8 -2 16.71 1.21
 -3 8 -1 0.02 0.49
 -3 8 1 78.83 2.04
 -3 9 -1 51.55 1.93
 -3 9 0 -0.09 0.48
 -3 9 1 23.74 1.3
 -3 10 0 44.77 1.81
 -3 10 1 11.6 1.02
 -3 10 2 36.85 1.56
 -2 -8 5 -0.03 0.43
 -2 -8 6 7.59 1.01
 -2 -6 4 280.23 3.25
 -2 -6 5 1.74 0.59
 -2 -6 6 11.89 1.02
 -2 -6 7 37.65 1.79
 -2 -5 2 31.73 0.8
 -2 -5 3 35.6 1.04
 -2 -5 5 737.82 5.72
 -2 -5 6 406.74 4.77
 -2 -5 7 62.3 2.05
 -2 -4 1 6.27 0.29
 -2 -2 -1 18.98 0.53
 -2 0 -2 2102.67 7.39
 -2 0 -1 -0.12 0.22
 -2 1 -1 242.04 2.33
 -2 2 -2 621.88 4.49
 -2 2 -1 19.93 0.8
 -2 3 -2 954 5.84
 -2 3 -1 31.72 1.05
 -2 5 -2 17.85 0.99
 -2 6 -2 0.22 0.46
 -2 6 -1 203.47 2.94
 -2 6 0 29.45 1.15
 -2 7 -1 162.39 2.8
 -2 7 0 24.02 1.09
 -2 8 -2 9.13 1.07
 -2 8 -1 49.03 1.71
 -2 9 -1 1.27 0.64
 -2 9 0 9.9 0.93
 -2 9 1 787.03 5.83
 -2 9 2 13.8 0.86
 -2 10 0 34.99 1.43
 -2 10 1 35.78 1.4
 -2 10 2 47.43 1.46
 -1 -7 5 46.04 1.64
 -1 -7 6 22.38 1.43
 -1 -6 3 479.26 3.92
 -1 -6 4 141 2.51
 -1 -6 5 218.7 3.36
 -1 -5 2 21.27 0.78
 -1 -5 3 27.65 0.97
 -1 -5 4 341.45 3.65
 -1 -5 5 91.06 2.21
 -1 -5 6 1.64 0.63
 -1 -5 7 97.5 2.59
 -1 -4 3 0.92 0.36
 -1 -4 4 296.84 3.33
 -1 -3 1 684.77 2.71
 -1 -3 7 0.09 0.55
 -1 0 -1 0.09 0.16
 -1 1 -2 946.43 4.65
 -1 2 -1 18.2 0.69
 -1 3 -2 1775.09 7.19
 -1 3 -1 174.78 2.05
 -1 4 -2 285.22 3.07
 -1 4 -1 65.57 1.36
 -1 5 0 74.7 1.38
 -1 6 -2 0.76 0.43
 -1 7 -1 296.86 3.37
 -1 7 0 137.41 2.12
 -1 8 -1 441.68 4.38
 -1 8 0 44.93 1.36
 -1 8 1 15.47 0.79
 -1 9 0 161.21 2.53
 -1 9 1 12.97 0.77
 -1 9 2 136.33 2.02
 0 -6 4 10.95 0.86
 0 -6 5 481.04 5.15
 0 -6 6 143.72 3.08
 0 -5 4 39.72 1.41
 0 -5 5 35.66 1.48
 0 -5 6 462.27 5.36
 0 -4 3 0.38 0.33
 0 -4 6 116.17 2.6
 0 -3 2 1009.44 4.76
 0 -3 3 191.27 2.49
 0 -3 6 303.23 4.21
 0 -3 7 3.35 0.79
 0 -2 1 2242.88 5.31
 0 -2 3 195.21 2.42
 0 -2 4 558.65 4.57
 0 -2 5 62.79 1.81
 0 -1 8 54.49 2.16
 0 0 8 1.69 0.72
 0 2 -1 2236.23 5.48
 0 3 0 0.2 0.14
 0 4 -1 1372.57 5.18
 0 4 0 420.3 2.45
 0 5 -1 2.39 0.35
 0 5 0 0.17 0.22
 0 7 1 13.54 0.54
 1 -5 5 10.4 0.92
 1 -5 6 0.74 0.63
 1 -4 3 352.28 3.77
 1 -4 4 1037.31 6.9
 1 -4 5 52.46 1.78
 1 -3 4 587.57 5.13
 1 -3 5 9.52 0.85
 1 -3 6 106.83 2.58
 1 -2 3 344.12 3.38
 1 -2 5 256.58 3.51
 1 -2 6 5.9 0.83
 1 -2 7 85.56 2.48
 1 -1 3 0.82 0.37
 1 -1 4 31.34 1.22
 1 -1 5 343.79 4.05
 1 -1 6 8.22 0.89
 1 -1 7 75.59 2.24
 1 0 1 0.23 0.17
 1 0 4 201.53 2.68
 1 0 6 219.91 3.48
 1 0 7 -0.23 0.55
 1 1 2 973.81 4.02
 1 1 4 32.07 1.08
 1 1 6 8.29 0.93
 1 1 7 76.66 2.22
 1 2 5 258.82 3.21
 1 2 7 87.44 2.26
 1 2 8 0.02 0.74
 1 3 6 95.39 2.1
 1 3 7 5.48 0.83
 1 4 7 240.4 3.49
 1 4 8 0.72 0.66
 1 5 6 -0.11 0.34
 1 5 7 62.23 1.75
 1 5 8 0.24 0.47
 1 6 3 59.71 0.78
 1 6 4 2.16 0.3
 1 6 5 72.87 1.41
 1 6 7 0.03 0.38
 1 7 4 -0.02 0.14
 1 7 5 14.63 0.58
 2 -3 5 251.96 3.79
 2 -3 6 27.35 1.59
 2 -2 6 13.3 1.09
 2 -1 3 713.17 4.97
 2 -1 4 92.82 2.07
 2 -1 5 7.34 0.89
 2 -1 6 464.62 5.32
 2 0 3 0.14 0.37
 2 0 4 0.81 0.49
 2 0 5 0.39 0.47
 2 0 7 0.27 0.59
 2 1 3 698.51 4.54
 2 1 4 93.69 1.89
 2 1 5 6.63 0.7
 2 1 6 476.67 5.04
 2 1 7 281.52 4.2
 2 2 3 319.7 2.9
 2 2 4 58.96 1.44
 2 2 5 111.53 2.2
 2 2 6 13.26 1.05
 2 3 3 24.73 0.78
 2 3 4 85.57 1.65
 2 3 6 26.84 1.27
 2 3 7 104.02 2.47
 2 4 3 49.81 0.96
 2 4 5 34.54 1.17
 2 4 6 179.67 2.8
 2 4 7 2.4 0.6
 2 4 8 0.74 0.59
 2 5 6 1.05 0.43
 2 5 7 1.71 0.5
 -5 4 8 11.96 0.88
 -4 -1 0 246.08 3.39
 -4 -1 2 884.3 6.27
 -4 -1 3 295.68 3.63
 -4 -1 4 15.32 1.15
 -4 0 2 668.88 5.36
 -4 0 3 0.22 0.74
 -4 0 4 343.92 3.78
 -4 0 5 0.29 0.52
 -4 1 1 38.53 1.62
 -4 1 2 895.01 6.27
 -4 1 3 290.48 3.52
 -4 1 4 16.12 1.06
 -4 1 5 818.48 5.59
 -4 2 2 3.36 0.8
 -4 2 3 1045.37 6.72
 -4 2 4 84.08 1.95
 -4 2 5 167.24 2.56
 -4 2 6 245.92 3
 -4 3 4 300.57 3.67
 -4 3 5 459.36 4.32
 -4 3 6 17.01 0.92
 -4 3 7 213.97 2.57
 -4 4 5 77.85 1.9
 -4 4 7 274.01 2.92
 -4 5 6 1.49 0.57
 -4 5 7 16.31 0.9
 -3 -3 -3 69.75 1.68
 -3 -2 -6 9 0.78
 -3 -2 -5 61.18 1.61
 -3 -2 -4 1.9 0.52
 -3 -2 -3 55.73 1.51
 -3 -2 -2 1157.91 6.49
 -3 -2 0 79.88 1.8
 -3 -2 1 61.89 1.69
 -3 -1 -6 52.33 1.6
 -3 -1 -5 1.6 0.65
 -3 -1 -4 13.15 0.94
 -3 -1 -3 46.05 1.46
 -3 -1 -2 18.01 1.03
 -3 -1 0 1156.22 6.27
 -3 -1 1 1831.28 7.76
 -3 -1 2 101.68 1.99
 -3 -1 3 545.36 4.3
 -3 0 -4 583.66 5.18
 -3 0 -3 0.02 0.51
 -3 0 -2 545.6 4.7
 -3 0 -1 0.88 0.76
 -3 0 0 4614.11 12.57
 -3 0 1 -0.11 0.55
 -3 0 2 1313.15 6.4
 -3 0 4 229.55 2.69
 -3 1 -2 18.73 1.26
 -3 1 -1 15.64 1.15
 -3 1 0 1141.68 6.51
 -3 1 1 1827.14 7.98
 -3 1 2 98.41 1.86
 -3 1 3 560.48 4.14
 -3 1 4 101.21 1.79
 -3 1 5 8.2 0.64
 -3 2 2 58.72 1.63
 -3 2 3 3052.3 9.83
 -3 2 4 81.68 1.64
 -3 3 3 6.92 0.8
 -3 3 4 506.09 4.05
 -3 3 6 190.04 2.05
 -3 4 6 53.12 1.19
 -3 5 6 21.28 0.91
 -3 5 7 78.9 1.12
 -3 6 6 6.4 0.73
 -3 6 7 718.02 3.89
 -2 -2 -6 13.41 0.71
 -2 -2 -4 59.38 1.32
 -2 -2 -3 330.53 2.95
 -2 -2 -1 20.53 0.84
 -2 -1 -7 283.2 2.94
 -2 -1 -6 476.36 3.89
 -2 -1 -5 6.35 0.67
 -2 -1 -3 717.21 4.46
 -2 -1 -2 32.85 1.08
 -2 -1 -1 249.2 2.49
 -2 -1 0 1843.38 6.49
 -2 -1 1 221.5 2.31
 -2 0 -7 0.27 0.55
 -2 0 -6 127.09 2.34
 -2 0 -5 0.7 0.53
 -2 0 -4 1.11 0.51
 -2 0 -3 0.9 0.43
 -2 0 -2 2100.7 7.7
 -2 0 2 128.68 1.65
 -2 1 1 217.5 2.29
 -2 1 2 929.5 4.37
 -2 1 3 561.53 3.23
 -2 2 3 10.92 0.64
 -2 3 5 203.12 1.64
 -2 4 5 2.52 0.38
 -2 5 6 404.2 2.38
 -2 6 6 11.04 0.65
 -1 -2 -4 688.92 3.06
 -1 -1 -7 78.5 1.25
 -1 -1 -6 7.5 0.55
 -1 -1 -5 339.9 2.58
 -1 -1 -4 31.21 0.83
 -1 -1 -3 0.55 0.3
 -1 -1 -2 962.04 3.7
 -1 -1 -1 15.42 0.54
 -1 -1 0 351.63 2.19
 -1 0 -7 -0.21 0.43
 -1 0 0 0.24 0.27
 -1 2 3 763.48 2.62
 0 0 -8 2.46 0.46
 0 4 4 439.36 2.55
 0 5 5 35.84 0.76
 0 8 5 20.94 1.11
 0 9 5 30.26 1.41
 1 0 -9 -0.1 0.27
 1 0 -8 127.28 1.71
 1 0 -2 136.15 1.24
 1 0 -1 0.45 0.18
 1 0 0 0.37 0.26
 1 1 0 359.43 2.24
 1 1 1 16.99 0.56
 1 2 1 17.04 0.62
 1 2 2 642.82 3.24
 1 2 3 361.98 2.42
 1 3 2 1701.85 6.05
 1 3 3 544.9 3.21
 1 4 3 360.32 3.05
 1 4 4 1026.82 4.57
 1 5 5 11.85 0.57
 1 8 5 28.9 1.25
 1 9 4 1.78 0.8
 1 10 4 0.74 0.84
 1 11 3 34.54 2.03
 2 -1 -7 64.81 0.94
 2 -1 -6 5.98 0.41
 2 -1 -5 48.64 0.96
 2 -1 -4 361.01 2.57
 2 0 -9 0.08 0.32
 2 0 -8 143.84 1.94
 2 0 -7 0.18 0.3
 2 0 -6 562.6 3.74
 2 0 -5 0.44 0.32
 2 0 -4 962.96 4.59
 2 0 -3 1.1 0.31
 2 0 -2 127.31 1.69
 2 0 -1 0.12 0.31
 2 0 0 237.12 2.42
 2 1 -2 930.81 4.84
 2 1 0 1826.27 6.65
 2 1 1 242.58 2.51
 2 2 -10 107.18 2.47
 2 2 0 101.22 1.77
 2 2 2 623.63 4.18
 2 3 0 157.01 2.41
 2 3 1 30.44 1.09
 2 3 2 936.82 5.36
 2 3 3 25.42 0.96
 2 6 2 0.58 0.56
 2 6 3 40.82 1.54
 2 6 5 84.63 1.76
 2 7 2 47.87 1.91
 2 7 3 74.31 2.16
 2 7 4 -0.05 0.47
 2 8 2 7.26 1.12
 2 8 3 16.67 1.36
 2 8 4 3.04 0.8
 2 8 5 39.74 1.48
 2 9 2 7.66 1.12
 2 9 3 -0.18 0.72
 2 9 4 18.05 1.34
 2 10 2 0.48 1.06
 2 10 3 26.87 1.79
 2 11 2 16.61 1.86
 2 11 3 147.29 3.84
 2 12 2 1.11 1.1
 3 -1 -8 129.95 1.73
 3 -1 -7 62.6 1.35
 3 -1 -6 0.65 0.34
 3 -1 -5 8.36 0.69
 3 -1 -4 98.22 1.84
 3 -1 -3 540.2 4.16
 3 0 -10 103.59 1.69
 3 0 -9 0.89 0.48
 3 0 -7 0.19 0.37
 3 0 -6 56.66 1.46
 3 0 -5 0.97 0.41
 3 0 -4 227.16 2.77
 3 0 -2 1263.03 6.5
 3 0 -1 -0.17 0.56
 3 0 0 4543.65 13.48
 3 1 -10 0.3 0.49
 3 1 -9 11.21 0.94
 3 1 -2 102.51 2
 3 2 -10 1.48 0.7
 3 2 -9 9.52 1.04
 3 2 -8 -0.23 0.58
 3 2 -7 204.29 3.33
 3 2 -6 285.41 3.8
 3 3 -11 6.18 1.08
 3 3 -10 175.08 3.59
 3 4 -11 -0.38 0.85
 3 4 -10 66.45 2.49
 3 5 -11 0.14 1.11
 3 5 1 81.96 2.18
 3 5 3 261.15 3.66
 3 6 0 11.44 1.33
 3 6 1 6.89 0.95
 3 6 2 30.11 1.49
 3 6 4 18.63 1.18
 3 7 1 71.63 2.46
 3 7 2 2.15 0.96
 3 7 3 188.62 3.48
 3 7 4 354.94 4.51
 3 7 5 3.14 0.67
 3 8 0 67.64 2.63
 3 8 1 0.25 0.77
 3 8 2 18.02 1.52
 3 8 3 62.04 2.27
 3 8 4 0.42 0.62
 3 9 0 0.57 1.05
 3 9 1 54.7 2.48
 3 9 2 38.27 2.09
 3 9 3 13.31 1.36
 3 9 4 11.82 1.26
 3 10 0 41.69 2.44
 3 10 1 48.17 2.54
 3 10 2 26.43 1.88
 3 10 3 3.53 1.02
 3 11 0 26.38 2.31
 3 11 1 2.84 1.14
 3 11 2 -0.43 1.03
 3 12 -1 41.47 2.84
 3 12 0 43.97 2.68
 4 1 -10 82.37 2.15
 4 1 -9 45.96 1.7
 4 1 -7 116.07 2.48
 4 1 -6 181.87 3.07
 4 1 -5 783.57 6.17
 4 2 -11 -0.29 0.63
 4 2 -10 2.79 0.78
 4 2 -8 9.58 1.19
 4 2 -7 1.25 0.83
 4 2 -6 245.79 3.8
 4 2 -5 172.59 3.14
 4 2 -3 1056.21 7.36
 4 2 -2 2.67 0.5
 4 3 -11 3.12 0.93
 4 3 -10 27.01 1.73
 4 3 -9 201.67 3.97
 4 3 -8 23.62 1.6
 4 3 -7 223.79 4.04
 4 3 -6 17.8 1.47
 4 3 -5 467.76 5.49
 4 3 -4 298.51 4.28
 4 4 -11 2.49 1.02
 4 4 -10 8.4 1.34
 4 4 -9 7.33 1.38
 4 4 -6 129.79 3.23
 4 4 -5 84.91 2.58
 4 4 -4 62.25 2.15
 4 4 0 2.7 0.72
 4 4 1 39.17 1.73
 4 4 2 1027.15 7.72
 4 4 3 205.94 3.56
 4 5 -11 27.3 2.15
 4 5 -10 104.28 3.45
 4 5 -7 15.32 1.61
 4 5 -6 1.04 0.86
 4 5 -4 36.34 1.94
 4 5 -2 256.73 4.34
 4 5 -1 501.67 5.95
 4 5 0 0.3 0.66
 4 5 1 398.57 5.09
 4 5 3 3.25 0.79
 4 5 4 27.46 1.48
 4 6 -10 1.48 1.35
 4 6 -9 23.91 2.12
 4 6 -3 4.07 0.98
 4 6 -2 485.36 6.32
 4 6 -1 1.9 0.86
 4 6 0 16.32 1.53
 4 6 1 1058.06 8.65
 4 6 2 4.44 1.07
 4 6 3 15.06 1.3
 4 6 4 0.63 0.76
 4 7 -11 81.54 3.59
 4 7 -10 172.83 4.78
 4 7 -3 14.33 1.63
 4 7 -2 51.88 2.39
 4 7 -1 14.15 1.44
 4 7 0 179.06 3.95
 4 7 1 63.17 2.43
 4 7 2 0.87 0.78
 4 7 3 15.74 1.4
 4 7 4 2.23 0.74
 4 8 -3 8.29 1.54
 4 8 -2 139.96 3.93
 4 8 -1 121.74 3.6
 4 8 0 4.82 1.13
 4 8 1 2.54 1.03
 4 8 2 202.94 4.29
 4 8 3 61.47 2.4
 4 8 4 6.02 1.07
 4 9 -3 61.65 3.02
 4 9 0 4.09 1.34
 4 9 2 47.69 2.31
 4 9 3 3.36 1.16
 4 10 -3 22.29 2.05
 4 10 -1 9.69 1.72
 4 10 0 35.45 2.43
 4 10 1 8.25 1.43
 4 10 2 91.73 3.2
 4 11 -4 32.19 2.58
 4 11 -3 2.34 1.42
 4 11 -2 35.09 2.53
 4 11 -1 13.05 1.86
 4 11 0 6.01 1.61
 4 11 1 47.31 2.75
 4 11 2 0.69 1.02
 4 12 1 14.45 1.85
 5 -1 -9 41.07 1.55
 5 -1 -8 1.14 0.67
 5 -1 -4 188.24 3.34
 5 0 -10 353.07 4.38
 5 0 -9 -0.3 0.55
 5 0 -5 0.25 0.54
 5 0 -4 41.13 1.75
 5 0 -3 -0.23 0.48
 5 1 -11 4.72 0.91
 5 1 -8 1.01 0.7
 5 1 -7 144.3 3.08
 5 1 -6 126.74 2.92
 5 1 -5 32 1.64
 5 1 -4 184.06 3.38
 5 1 0 177.95 3.47
 5 2 -11 58.85 2.25
 5 2 -9 1.87 0.89
 5 2 -7 140.57 3.17
 5 2 -6 -0.2 0.63
 5 2 -5 98.79 2.69
 5 2 -4 166.52 3.34
 5 2 0 17.3 1.45
 5 2 1 0.87 0.75
 5 3 -11 13.67 1.48
 5 3 -10 -0.25 0.72
 5 3 -9 24.56 1.73
 5 3 -7 50.95 2.11
 5 3 -6 57.5 2.26
 5 3 -5 3.55 0.88
 5 3 -4 106.11 2.85
 5 3 0 229.69 4.09
 5 3 1 4.45 1.02
 5 3 2 39.33 1.8
 5 4 -11 -0.88 0.85
 5 4 -10 39.96 2.27
 5 4 -9 -0.12 0.98
 5 4 -8 13.73 1.62
 5 4 -7 206.45 4.38
 5 4 -6 92.26 2.89
 5 4 -5 14.85 1.59
 5 4 -2 2.79 0.86
 5 4 -1 29.69 1.77
 5 4 0 3.44 1.11
 5 4 1 221.59 4.12
 5 4 2 329.65 4.9
 5 5 -11 0.02 1
 5 5 -10 105.08 3.47
 5 5 -9 9.18 1.58
 5 5 -7 8.33 1.32
 5 5 -5 156.66 3.79
 5 5 -4 209.07 4.33
 5 5 -3 11.7 1.34
 5 5 -2 142.26 3.53
 5 5 1 4 0.98
 5 5 3 75.78 2.54
 5 6 -12 2.09 1.44
 5 6 -11 41.17 2.68
 5 6 -10 1.58 1.46
 5 6 -9 90.02 3.37
 5 6 -8 0.65 1.04
 5 6 -7 80.36 3.1
 5 6 -6 85.93 3.22
 5 6 -2 231.48 4.68
 5 6 -1 122.53 3.44
 5 6 0 21.16 1.61
 5 6 2 16.51 1.59
 5 6 3 0.42 0.82
 5 6 4 24.92 1.71
 5 7 -11 1.05 1.3
 5 7 -10 21.37 2.08
 5 7 -9 5.43 1.73
 5 7 -8 0.59 1.17
 5 7 -7 1.29 1.42
 5 7 -6 6.76 1.38
 5 7 -5 2.57 1.12
 5 7 -4 460.62 7.14
 5 7 -3 29.88 2.01
 5 7 -1 187.97 4.31
 5 7 0 13.29 1.46
 5 7 1 0.18 0.82
 5 7 2 2.5 0.93
 5 8 -8 5.7 1.51
 5 8 -7 3.82 1.45
 5 8 -6 4.28 1.31
 5 8 -5 9.03 1.56
 5 8 -3 22.98 2.08
 5 8 -2 221.5 5.03
 5 8 -1 -0.76 1.21
 5 8 0 6.6 1.27
 5 8 1 1.53 1.03
 5 8 2 42.16 2.32
 5 8 3 7.96 1.33
 5 9 -8 -2.02 1.27
 5 9 -7 29.11 2.7
 5 9 -6 9.39 1.76
 5 9 -5 65.75 3.4
 5 9 -4 31.9 2.34
 5 9 -3 1.88 1.23
 5 9 -2 9.6 1.61
 5 9 -1 194.51 4.91
 5 9 0 38.49 2.31
 5 9 2 25.08 2.03
 5 9 3 4.52 1.22
 5 10 -5 15.98 2.1
 5 10 -4 12.68 1.96
 5 10 -3 -0.35 1.19
 5 10 -2 1.43 1.22
 5 10 -1 -0.2 1.15
 5 10 0 3.65 1.48
 5 10 1 4.69 1.54
 5 10 2 7.92 1.63
 5 11 -3 211.62 5.85
 5 11 -2 11.04 1.9
 5 11 -1 28.54 2.6
 5 11 1 42.66 2.74
 6 -1 -7 4.13 0.89
 6 -1 -6 62.43 2.29
 6 -1 -5 0.14 0.71
 6 0 -10 28.37 1.63
 6 0 -9 0.23 0.73
 6 0 -8 1.72 0.89
 6 0 -7 -0.31 0.85
 6 0 -5 0.23 0.73
 6 1 -11 18.8 1.49
 6 1 -9 24.34 1.57
 6 1 -7 4.21 1.02
 6 1 -5 0.5 0.75
 6 1 -4 388.28 5.48
 6 1 -1 78.87 2.67
 6 2 -11 16.61 1.58
 6 2 -10 74.45 2.69
 6 2 -8 -0.55 0.73
 6 2 -5 29.72 1.76
 6 2 -4 5.66 1.04
 6 2 -1 548.99 6.66
 6 2 0 14.83 1.53
 6 3 -11 1.58 1.09
 6 3 -10 43.73 2.29
 6 3 -9 64.38 2.56
 6 3 -8 133.15 3.62
 6 3 -7 6.41 1.31
 6 3 -6 89.57 3
 6 3 -5 45.95 2.26
 6 3 -3 302.7 5.13
 6 3 -2 141.99 3.52
 6 3 0 536.8 6.79
 6 3 1 1.33 1.03
 6 4 -12 21.03 1.97
 6 4 -11 17.86 1.92
 6 4 -10 208.71 4.75
 6 4 -8 41.93 2.23
 6 4 -7 26.35 1.88
 6 4 -6 65.74 2.6
 6 4 -5 28.13 1.98
 6 4 -4 118.01 3.31
 6 4 -3 304.53 5.27
 6 4 -2 379.3 5.84
 6 4 -1 178.09 4.06
 6 4 0 338.66 5.5
 6 4 1 0.52 1.01
 6 4 2 1.66 1.03
 6 5 -12 1.43 1.41
 6 5 -11 33.4 2.31
 6 5 -10 19.88 1.95
 6 5 -9 90.08 3.29
 6 5 -8 176.1 4.53
 6 5 -7 56.18 2.76
 6 5 -6 4.31 1.39
 6 5 -5 26.56 1.91
 6 5 -3 37.37 2.26
 6 5 -1 1.93 1.24
 6 5 0 4.75 1.13
 6 5 1 150.83 3.75
 6 5 2 3.94 1.06
 6 6 -12 0.82 1.51
 6 6 -11 -0.39 1.15
 6 6 -10 -0.42 1.41
 6 6 -9 45.45 2.82
 6 6 -8 0.35 1.06
 6 6 -7 53.85 2.75
 6 6 -6 143.15 4.1
 6 6 -5 29.97 2.21
 6 6 -3 56.09 2.68
 6 6 -2 51.98 2.52
 6 6 -1 4.07 1.16
 6 6 0 0.72 0.97
 6 6 1 42.5 2.3
 6 6 2 42.99 2.21
 6 6 3 38.83 2.13
 6 7 -10 1.88 1.39
 6 7 -9 0.34 1.24
 6 7 -8 26.71 2.45
 6 7 -7 14.54 2.07
 6 7 -6 1.39 1.12
 6 7 -5 0.83 1.41
 6 7 -4 142.3 4.27
 6 7 -3 0.41 1.05
 6 7 -1 94.03 3.43
 6 7 0 52.78 2.73
 6 7 1 -0.02 0.96
 6 7 2 2.14 1.03
 6 7 3 63.39 2.69
 6 8 -9 5.19 1.84
 6 8 -8 26.95 2.53
 6 8 -7 117.99 4.32
 6 8 -6 3.4 1.41
 6 8 -5 7.38 1.59
 6 8 -4 140.98 4.34
 6 8 -2 1.03 1.18
 6 8 -1 13.93 1.83
 6 8 0 138.89 4.18
 6 8 1 3.8 1.21
 6 8 2 123.06 3.75
 6 8 3 70.86 2.87
 6 9 -7 13.67 2.09
 6 9 -6 41.83 3.01
 6 9 -5 -0.87 1.46
 6 9 -4 54.67 3.17
 6 9 -2 3.29 1.42
 6 9 -1 5.48 1.69
 6 9 0 58.78 2.88
 6 9 1 28.31 2.34
 6 9 2 15.23 1.83
 6 10 -5 25.53 2.79
 6 10 -4 9.97 1.86
 6 10 -3 100.91 4.17
 6 10 -2 64.88 3.4
 6 10 0 -0.02 1.2
 6 10 1 0.12 1.41
 7 0 -11 -0.47 0.75
 7 0 -10 55.76 2.31
 7 0 -9 0.82 1.07
 7 0 -8 5.3 1.15
 7 0 -7 0.1 0.87
 7 0 -6 1251.3 10.41
 7 0 -5 -0.16 0.92
 7 0 -4 5.62 1.16
 7 0 -3 0.72 0.91
 7 1 -11 1.22 0.96
 7 1 -10 4.75 1.15
 7 1 -9 6.5 1.17
 7 1 -8 52.93 2.46
 7 1 -6 3.86 1.04
 7 1 -4 219.6 4.62
 7 1 -3 51.45 2.46
 7 1 -2 61.84 2.56
 7 2 -11 0.41 1.04
 7 2 -10 56.58 2.65
 7 2 -9 3.68 1.36
 7 2 -8 4.34 1.13
 7 2 -6 0.91 0.94
 7 2 -5 573.47 7.44
 7 2 -3 0.38 1.06
 7 2 -1 132.47 3.74
 7 3 -11 11.49 1.71
 7 3 -10 12.09 1.59
 7 3 -8 42.06 2.3
 7 3 -7 4.5 1.39
 7 3 -6 6.01 1.43
 7 3 -5 244.75 5.09
 7 3 -4 192.44 4.4
 7 3 -3 245.83 4.98
 7 3 -2 161.56 4.06
 7 3 -1 103.09 3.46
 7 4 -12 11.49 1.77
 7 4 -11 12.94 1.7
 7 4 -10 104.69 3.73
 7 4 -9 3.73 1.24
 7 4 -8 62.94 2.95
 7 4 -7 74.59 3.01
 7 4 -6 142.96 4.08
 7 4 -5 18.45 1.73
 7 4 -2 46.43 2.57
 7 4 0 85.13 3.09
 7 4 1 3.08 1.26
 7 5 -12 78.87 3.5
 7 5 -11 30.93 2.52
 7 5 -10 -0.74 1.08
 7 5 -9 0.52 1.23
 7 5 -8 0.26 1.08
 7 5 -7 16.64 1.97
 7 5 -6 37.82 2.42
 7 5 -5 20.96 2.1
 7 5 -4 3.96 1.2
 7 5 -3 0 1
 7 5 -2 113.35 3.75
 7 5 -1 29.35 2.06
 7 5 1 360.16 6.3
 7 5 2 67.47 2.91
 7 6 -11 11.06 1.91
 7 6 -10 1.23 1.51
 7 6 -9 1.06 1.3
 7 6 -6 4.51 1.36
 7 6 -5 0.67 1.06
 7 6 -4 48.61 2.61
 7 6 -3 190.59 4.79
 7 6 -2 20.4 2.16
 7 6 -1 153.83 4.35
 7 6 0 44.2 2.6
 7 6 1 92.46 3.46
 7 6 2 56.51 2.75
 7 7 -9 24.1 2.48
 7 7 -8 46.42 3.01
 7 7 -7 7.78 1.62
 7 7 -6 0.46 1.12
 7 7 -5 2.91 1.43
 7 7 -4 3.94 1.4
 7 7 -3 0.11 1.31
 7 7 -2 219.82 5.26
 7 7 -1 14.41 1.81
 7 7 0 -1 0.97
 7 7 1 109.66 3.8
 7 7 2 81.61 3.21
 7 8 -8 2.13 1.73
 7 8 -7 22.14 2.45
 7 8 -6 53.92 3.23
 7 8 -5 56.28 3.17
 7 8 -4 19.61 2.35
 7 8 -3 1.39 1.29
 7 8 -2 1.76 1.33
 7 8 -1 0.74 1.23
 7 8 0 6.28 1.49
 7 8 1 36.88 2.56
 7 8 2 28.52 2.31
 7 9 -5 33.95 2.85
 7 9 -4 1.82 1.48
 7 9 -3 146.91 4.73
 7 9 -2 25.34 2.29
 7 9 -1 36.31 2.6
 7 9 0 85.69 3.73
 7 9 1 9.69 1.7
 8 0 -11 -0.69 0.96
 8 0 -10 23.71 1.92
 8 0 -9 0.47 0.96
 8 0 -8 35.14 2.23
 8 0 -7 -1.09 0.87
 8 0 -6 17.15 1.81
 8 0 -5 -0.78 0.93
 8 1 -11 0.32 0.96
 8 1 -10 1.32 1.18
 8 1 -9 105.79 3.58
 8 1 -8 211.64 4.87
 8 1 -7 149.48 4.07
 8 1 -6 7.24 1.39
 8 1 -5 6.7 1.35
 8 1 -4 8.42 1.47
 8 1 -3 66.13 2.95
 8 2 -11 8.31 1.49
 8 2 -10 4.39 1.45
 8 2 -9 10.9 1.63
 8 2 -8 40.62 2.49
 8 2 -7 3.42 1.35
 8 2 -6 101.24 3.59
 8 2 -5 4.28 1.47
 8 2 -4 2.96 1.17
 8 2 -3 38.57 2.33
 8 2 -2 0.74 1.22
 8 3 -12 15 1.98
 8 3 -11 25.56 2.29
 8 3 -10 1.23 1.31
 8 3 -9 11.31 1.65
 8 3 -8 207.17 5
 8 3 -7 10.9 1.83
 8 3 -5 91.14 3.42
 8 3 -4 24.63 2.15
 8 3 -3 160.17 4.47
 8 3 -2 2.04 1.18
 8 3 -1 30.18 2.22
 8 4 -12 8.58 1.61
 8 4 -11 21.42 2.25
 8 4 -10 13.99 1.83
 8 4 -9 7.17 1.64
 8 4 -8 17.33 2.04
 8 4 -7 18.92 2.21
 8 4 -6 1.16 1.18
 8 4 -5 1.74 1.21
 8 4 -4 132.31 4.12
 8 4 -3 143.96 4.29
 8 4 -2 13.16 1.74
 8 4 -1 83.76 3.36
 8 4 0 34.98 2.32
 8 5 -11 16.89 2.13
 8 5 -9 11.16 1.94
 8 5 -8 16.25 2.24
 8 5 -7 4.86 1.42
 8 5 -6 68.04 3.34
 8 5 -5 1.68 1.3
 8 5 -4 0.59 1.15
 8 5 -3 69.85 3.26
 8 5 -2 152.08 4.54
 8 5 -1 2.37 1.5
 8 5 0 -1.37 1.19
 8 5 1 44.04 2.75
 8 6 -10 7.23 1.72
 8 6 -9 23.93 2.47
 8 6 -8 13.3 1.98
 8 6 -7 5.02 1.82
 8 6 -6 5.52 1.51
 8 6 -5 113.53 4.2
 8 6 -4 3.89 1.38
 8 6 -3 0.88 1.23
 8 6 -1 343.57 6.82
 8 6 0 8.72 1.83
 8 6 1 11.22 1.76
 8 7 -8 31.94 2.71
 8 7 -7 76.03 3.8
 8 7 -6 42.19 2.99
 8 7 -5 30.24 2.7
 8 7 -4 73.04 3.61
 8 7 -3 122.14 4.41
 8 7 -2 -0.21 1.17
 8 7 -1 7.51 1.59
 8 7 0 0.88 1.26
 8 7 1 46.08 2.92
 8 7 2 5.42 1.87
 8 8 -6 -0.55 1.37
 8 8 -5 94.3 4.03
 8 8 -4 60.87 3.33
 8 8 -3 44.76 2.92
 8 8 -2 38.33 2.92
 8 8 -1 7.45 1.76
 8 8 0 0.06 1.25
 8 8 1 12.35 2.05
 9 0 -9 -0.62 1.25
 9 0 -8 31.1 2.56
 9 1 -11 0.88 1.25
 9 1 -10 1.74 1.36
 9 1 -8 60.93 2.93
 9 1 -7 -0.32 1.3
 9 1 -6 251.9 5.59
 9 1 -5 2.77 1.38
 9 1 -4 1.61 1.3
 9 2 -11 92.34 3.63
 9 2 -10 17.09 1.9
 9 2 -9 38.37 2.73
 9 2 -8 0.82 1.21
 9 2 -7 82.91 3.6
 9 2 -6 78.46 3.36
 9 2 -5 45.65 2.67
 9 2 -4 24.98 2.35
 9 2 -3 98.47 3.8
 9 3 -12 11.07 1.84
 9 3 -11 0.1 1.33
 9 3 -10 19.84 2.36
 9 3 -9 37.84 2.61
 9 3 -8 -0.26 1.36
 9 3 -7 9.57 1.72
 9 3 -6 3.04 1.46
 9 3 -5 33.2 2.6
 9 3 -4 6.51 1.55
 9 3 -3 1.46 1.24
 9 3 -2 49.07 3.06
 9 4 -11 1.65 1.53
 9 4 -9 2.22 1.47
 9 4 -8 64.61 3.43
 9 4 -6 7.82 1.62
 9 4 -5 16.66 2.05
 9 4 -4 28.04 2.54
 9 4 -3 81.2 3.67
 9 4 -2 2.1 1.35
 9 4 -1 0.56 1.27
 9 5 -9 49.79 3.07
 9 5 -8 2.55 1.67
 9 5 -7 47.37 3.16
 9 5 -6 41.37 2.94
 9 5 -4 0.68 1.27
 9 5 -3 61.73 3.2
 9 5 -2 22.12 2.55
 9 5 -1 0.68 1.41
 9 6 -8 4.56 1.65
 9 6 -7 -0.66 1.39
 9 6 -6 0.18 1.32
 9 6 -5 207.91 5.67
 9 6 -3 43.26 3.11
 9 6 -2 10.44 1.87
 9 6 -1 8.74 1.82
 9 6 0 1.37 1.7
 9 7 -4 28.14 2.81
 9 7 -3 4 1.66
 9 7 -2 2.17 1.71
 9 7 -1 18.62 2.42
 10 1 -11 1.8 1.47
 10 1 -10 7.9 1.84
 10 1 -9 23.41 2.19
 10 1 -8 71.2 3.54
 10 2 -11 21.4 2.44
 10 2 -10 11.29 2.15
 10 2 -9 52.73 3.26
 10 2 -8 88.04 3.94
 10 2 -7 12.05 2.18
 10 2 -6 2.33 1.37
 10 2 -5 4.59 1.55
 10 3 -8 7.72 2.1
 10 3 -7 3.28 1.89
 10 3 -6 3.04 1.51
 10 3 -5 31.13 2.57
 10 3 -4 1.37 1.57
 10 3 -3 21.78 2.51
 10 4 -8 12.79 2.07
 10 4 -7 12.77 2.12
 10 4 -6 0.49 1.83
 10 4 -5 43.8 3.23
 10 4 -4 0.15 1.4
 10 4 -3 1.95 1.48
 10 5 -5 162.95 5.46
 10 5 -4 13.73 2.19
 -6 -3 -2 38.36 1.57
 -6 -2 -2 17.13 1.12
 -6 -1 -2 96.02 2.26
 -6 0 -2 158.15 2.93
 -6 7 -4 125.91 4.03
 -6 8 -4 106.37 4.1
 -6 9 -3 49.22 3.11
 -5 -3 -2 37.77 1.45
 -5 -2 -3 348.31 3.17
 -5 -2 -2 607.35 5.09
 -5 -2 0 16.93 1.27
 -5 -1 -3 4.25 0.56
 -5 -1 -2 684.37 5.35
 -5 -1 0 173.02 3.14
 -5 0 -3 0.4 0.4
 -5 0 -2 45.7 1.45
 -5 4 -5 9.32 1.12
 -5 5 -5 34.54 1.94
 -5 6 -5 0.25 0.91
 -5 7 -5 112.99 3.81
 -5 9 -4 74.47 3.68
 -5 9 -3 6.25 1.92
 -5 10 -3 11.76 2.29
 -4 -4 -1 37.36 1.57
 -4 -3 -2 59.77 1.6
 -4 -3 -1 54 1.68
 -4 -3 0 238.98 3.63
 -4 -3 1 947.37 7.43
 -4 -2 -3 50.5 1.12
 -4 -2 -2 1.61 0.44
 -4 -2 -1 75.42 1.82
 -4 -2 0 292.8 3.76
 -4 -2 1 122.77 2.76
 -4 -2 2 3 0.86
 -4 -1 -3 2.94 0.41
 -4 -1 -2 92.2 1.79
 -4 -1 -1 31.76 1.24
 -4 -1 0 253.07 3.38
 -4 -1 1 37.78 1.56
 -4 -1 2 896.97 6.76
 -4 -1 3 286.19 4.08
 -4 0 -3 0.12 0.32
 -4 2 -5 38.93 1.13
 -4 4 -5 0.69 0.73
 -4 5 -6 6.36 1.12
 -4 6 -6 20.56 1.76
 -4 6 -5 9.08 1.49
 -4 7 -5 3.7 1.37
 -4 7 -4 3.36 1.26
 -4 8 -5 93.14 3.74
 -4 8 -4 7.48 1.76
 -4 9 -5 2.46 1.4
 -4 9 -3 3.67 1.59
 -4 10 -3 -0.46 1.73
 -4 10 -2 92.09 4.31
 -4 11 -1 51.82 3.53
 -3 -4 0 27.99 1.47
 -3 -3 -1 109.47 2.17
 -3 -3 0 882.59 6.35
 -3 -3 1 102.31 2.46
 -3 -3 2 197.49 3.38
 -3 -2 -2 1169.24 5.5
 -3 -2 0 80.23 1.87
 -3 -2 1 64.45 1.82
 -3 -2 3 3000.12 12.57
 -3 -2 4 79.24 2.38
 -3 -1 -2 16.93 0.71
 -3 -1 -1 14.71 0.86
 -3 -1 0 1127.87 6.13
 -3 -1 1 1806.43 8.24
 -3 -1 2 100.92 2.18
 -3 -1 3 562.5 5.25
 -3 -1 4 101.05 2.44
 -3 0 -3 0.13 0.21
 -3 1 -4 13.33 0.61
 -3 2 -4 1.46 0.46
 -3 4 -6 31.85 1.57
 -3 4 -5 18.58 1.37
 -3 5 -5 5.6 1.06
 -3 5 -4 202.37 4.08
 -3 6 -6 1.73 0.91
 -3 6 -5 25.3 1.95
 -3 6 -4 17.02 1.68
 -3 7 -6 1 1.1
 -3 7 -5 4.55 1.31
 -3 7 -4 361.5 6.52
 -3 8 -6 5.57 1.47
 -3 8 -5 3.95 1.64
 -3 8 -4 1.94 1.39
 -3 8 -3 63.81 3.02
 -3 9 -6 46.72 3.04
 -3 9 -5 89.23 3.86
 -3 9 -4 9.5 2.1
 -3 10 -5 152.04 5.27
 -3 10 -2 27.66 2.76
 -3 10 -1 49.44 3.25
 -3 11 -2 0.13 1.84
 -3 11 -1 0.73 1.6
 -3 11 0 21.31 2.69
 -2 -4 1 7.02 1
 -2 -4 2 155.18 3.17
 -2 -3 0 158.12 2.58
 -2 -3 1 1032.54 6.72
 -2 -3 3 171.53 3.07
 -2 -3 4 153.8 3.1
 -2 -2 -1 20.35 0.87
 -2 -2 0 100.46 1.82
 -2 -2 1 152.07 2.36
 -2 -2 2 545.39 4.69
 -2 -2 4 323.58 4.1
 -2 -1 -1 245.73 2.19
 -2 -1 0 1920.29 6.92
 -2 -1 1 228.29 2.62
 -2 -1 2 924.88 5.68
 -2 -1 3 567.36 4.8
 -2 -1 4 368.33 4.16
 -2 -1 5 47.6 1.65
 -2 -1 6 7.44 0.98
 -2 -1 7 64.73 1.99
 -2 0 5 0.27 0.68
 -2 0 6 586.29 5.43
 -2 0 7 0.42 0.52
 -2 0 8 135.71 2.83
 -2 1 -4 85.43 1.26
 -2 1 7 64.88 1.89
 -2 1 8 146.97 2.92
 -2 2 -6 12.55 0.71
 -2 2 -5 116.02 1.97
 -2 4 -7 2.83 0.75
 -2 4 -6 174.57 3.44
 -2 4 -5 36.54 1.7
 -2 4 -4 10.5 1.02
 -2 5 -7 2.54 0.94
 -2 5 -6 0.35 0.87
 -2 5 -5 30.42 1.89
 -2 6 -6 30.43 2.03
 -2 6 -4 17.34 1.62
 -2 7 -7 0.9 0.99
 -2 7 -6 18.46 2
 -2 7 -5 6.11 1.33
 -2 7 -4 -0.53 1.21
 -2 7 -3 70.92 2.89
 -2 8 -7 29 2.46
 -2 8 -6 41.14 2.68
 -2 8 -5 44.96 2.8
 -2 8 -4 3.52 1.31
 -2 8 -3 14.91 1.84
 -2 8 -2 7.3 1.57
 -2 9 -7 107.53 4.28
 -2 9 -6 16 2.29
 -2 9 -5 130.92 4.57
 -2 9 -3 0.91 1.59
 -2 9 -1 2.47 1.34
 -2 10 -6 47.47 3.41
 -2 10 -5 89.12 4.3
 -2 10 -3 28.27 2.56
 -2 10 -2 0.27 1.41
 -2 10 -1 105.16 4.24
 -2 10 0 40.42 3.04
 -2 11 -4 1.41 1.72
 -2 11 -3 154.57 5.68
 -2 11 -2 15.13 2.35
 -2 11 1 2.05 1.49
 -2 11 6 6.09 1.77
 -2 11 7 0.44 1.33
 -2 12 1 3.2 2.16
 -2 12 2 15.89 2.51
 -2 12 3 1.06 1.88
 -1 -3 1 690.57 5.23
 -1 -3 2 1218.62 7.09
 -1 -3 3 907.24 6.51
 -1 -3 4 377.58 4.4
 -1 -3 5 323 4.16
 -1 -2 0 1230.15 5.48
 -1 -2 1 124.97 1.98
 -1 -2 2 383.38 3.57
 -1 -2 3 765.96 5.36
 -1 -2 4 392.62 4.12
 -1 -2 5 405.98 4.36
 -1 -2 6 38.66 1.51
 -1 -2 7 53.81 1.78
 -1 -1 -1 15.89 0.51
 -1 -1 0 358.57 2.37
 -1 -1 1 238.47 2.26
 -1 -1 2 9936.61 15.58
 -1 -1 3 4675.31 11.58
 -1 -1 4 106.89 2.03
 -1 -1 5 130.72 2.31
 -1 0 4 71.23 1.62
 -1 0 8 130.09 2.29
 -1 1 -5 342.17 2.49
 -1 1 -4 29.9 0.85
 -1 1 -3 0.57 0.3
 -1 1 7 114.3 2.11
 -1 1 8 6.39 0.69
 -1 2 -6 7.44 0.73
 -1 2 -4 675.07 4.86
 -1 2 -3 349.61 3.4
 -1 2 7 52.49 1.46
 -1 2 8 6.83 0.71
 -1 4 -8 0.41 0.72
 -1 4 -6 45.26 1.93
 -1 4 -5 53.98 2.05
 -1 4 -4 1035.13 8.07
 -1 5 -8 1.56 0.84
 -1 5 -7 61.95 2.46
 -1 5 -6 -0.29 0.7
 -1 5 -4 100.34 2.97
 -1 5 -3 89.75 2.72
 -1 6 -7 1.05 1.13
 -1 6 -6 36.12 2.09
 -1 6 -5 74.58 2.82
 -1 6 -3 61.13 2.49
 -1 6 -2 0.63 1
 -1 7 -8 7.36 1.54
 -1 7 -7 13.61 1.69
 -1 7 -6 65.68 3.06
 -1 7 -5 14.2 1.62
 -1 7 -4 -0.44 1.15
 -1 7 -3 378.99 6.46
 -1 7 -2 216.1 4.75
 -1 8 -8 15.18 1.94
 -1 8 -7 34.86 2.6
 -1 8 -5 33.72 2.57
 -1 8 -3 10.38 1.68
 -1 8 -2 38.78 2.41
 -1 8 -1 432.61 7.11
 -1 8 8 18.31 1.66
 -1 9 -5 8.23 1.83
 -1 9 -3 16.23 1.99
 -1 9 -2 5.94 1.79
 -1 9 -1 115.28 4.17
 -1 9 0 153.3 4.58
 -1 9 7 43.79 2.57
 -1 10 -7 32.93 2.97
 -1 10 -6 90.13 4.35
 -1 10 -5 1.44 1.39
 -1 10 -4 2.55 1.5
 -1 10 -3 5.54 1.71
 -1 10 -2 125.32 4.65
 -1 10 -1 88.14 3.9
 -1 10 0 82.77 3.71
 -1 10 1 36.03 2.54
 -1 10 2 -0.58 1.09
 -1 10 3 1.63 1.26
 -1 10 4 10.14 1.74
 -1 10 5 8.78 1.77
 -1 10 6 7.82 1.51
 -1 11 -5 6.18 2.28
 -1 11 -4 0.67 1.57
 -1 11 -3 38.25 3.28
 -1 11 -2 38 3.29
 -1 11 -1 7 1.84
 -1 11 0 2.4 1.52
 -1 11 1 29.7 2.89
 -1 11 2 57.06 3.44
 -1 11 3 24.39 2.63
 -1 11 5 76.56 3.83
 -1 11 6 160.14 5.12
 -1 12 -1 15.81 2.49
 -1 12 0 84.63 4.34
 -1 12 1 11.25 2.51
 -1 12 3 63.1 3.84
 -1 12 4 2.51 1.74
 -1 12 5 68.67 3.81
 0 -1 2 2222.72 6.3
 0 0 3 0.64 0.25
 0 0 4 17.7 0.67
 0 0 5 -0.03 0.27
 0 0 6 30.12 0.84
 0 1 -4 10 0.7
 0 1 -3 2.53 0.42
 0 1 -2 2151.92 6.33
 0 1 -1 692.67 3.17
 0 1 5 21.59 0.69
 0 1 6 98.87 1.3
 0 2 -5 63.33 1.71
 0 2 -3 193.12 2.66
 0 2 -2 1610.79 6.95
 0 2 -1 2201.34 7.7
 0 2 6 155.61 1.79
 0 2 7 2.17 0.28
 0 3 -2 1007.18 6.63
 0 3 7 3.61 0.44
 0 4 -8 37.03 1.86
 0 4 -7 67.09 2.45
 0 4 -6 117.37 2.96
 0 4 -5 52.93 2.08
 0 4 -4 461.61 5.52
 0 5 -9 1.64 0.83
 0 5 -8 0.68 0.98
 0 5 -6 462.08 6.43
 0 5 -5 35.1 1.96
 0 5 -4 39.59 1.99
 0 5 -3 411.5 5.64
 0 5 -2 7.08 1.11
 0 5 8 0.05 0.36
 0 6 -9 -1.27 0.86
 0 6 -8 115.48 3.78
 0 6 -7 16.43 1.8
 0 6 -5 482.06 7.04
 0 6 -4 9.82 1.36
 0 6 -3 426.14 6.25
 0 6 -2 124.22 3.41
 0 6 7 14.62 1.12
 0 7 -9 9.14 1.67
 0 7 -8 2.82 1.23
 0 7 -7 35.76 2.5
 0 7 -6 6.01 1.54
 0 7 -5 4.56 1.25
 0 7 -4 323.39 6.11
 0 7 -2 121.86 3.71
 0 7 0 0.57 0.95
 0 7 6 7.27 1.06
 0 7 7 37.4 1.84
 0 8 -9 5.79 1.6
 0 8 -8 85.05 3.83
 0 8 -7 19.25 2.26
 0 8 -6 3.64 1.4
 0 8 -5 22.12 2.28
 0 8 -4 1.63 1.19
 0 8 -3 142.19 4.33
 0 8 -1 3.62 1.28
 0 8 0 129.24 3.9
 0 8 1 2.91 1.09
 0 8 2 26.39 1.93
 0 8 4 0.94 0.96
 0 8 5 20.32 1.65
 0 8 6 4.05 1.07
 0 8 7 20.35 1.65
 0 9 -8 37.71 2.85
 0 9 -7 110.2 4.46
 0 9 -6 14.4 2.31
 0 9 -5 28.01 2.44
 0 9 -2 6.95 1.54
 0 9 -1 9.33 1.93
 0 9 0 -0.06 1.26
 0 9 1 6.34 1.43
 0 9 2 3.98 1.28
 0 9 3 102.43 3.75
 0 9 4 1.79 1.07
 0 9 5 29.51 2.16
 0 9 6 15.37 1.89
 0 9 7 97.77 3.37
 0 10 -7 4.31 1.72
 0 10 -6 5.98 1.78
 0 10 -5 19.08 2.45
 0 10 -4 154.23 5.33
 0 10 -3 25.61 2.48
 0 10 -2 17.22 2.18
 0 10 -1 51.92 3.1
 0 10 0 -1.51 1.05
 0 10 1 48.44 3.14
 0 10 2 14.66 2.05
 0 10 3 28.36 2.54
 0 10 4 155.04 4.74
 0 10 5 19.92 2.18
 0 10 6 4.11 1.5
 0 11 -5 14.62 2.62
 0 11 -3 78.98 4.06
 0 11 -2 -1.27 1.45
 0 11 0 -0.31 1.65
 0 11 1 7.81 1.96
 0 11 2 1.07 1.42
 0 11 3 76.71 3.89
 0 11 4 12.99 2.01
 0 11 6 12.04 2.08
 0 12 -2 31.08 3.33
 0 12 -1 1.27 1.64
 0 12 0 215.02 6.62
 0 12 1 1.93 1.59
 0 12 2 29.97 3.03
 0 12 3 82.45 4.27
 0 12 4 34.1 3.06
 0 12 5 2.01 1.82
 1 1 -4 104.68 1.84
 1 1 -3 4587.78 11.67
 1 1 -2 9783.91 15.88
 1 1 -1 233.53 2.25
 1 2 -4 378.92 4.23
 1 2 -1 121.61 1.95
 1 2 0 1210.48 5.58
 1 2 2 648.86 3.47
 1 2 3 356.57 2.29
 1 3 -6 426.83 5.39
 1 3 -1 696.56 5.42
 1 3 0 118.6 2.25
 1 3 1 174.33 2.49
 1 3 2 1696.81 7.26
 1 3 3 533.72 3.85
 1 3 4 574.02 3.72
 1 3 5 11.64 0.53
 1 4 -8 147.86 3.51
 1 4 -7 19.29 1.59
 1 4 -5 53.5 2.14
 1 4 -3 0.89 0.63
 1 4 3 347.49 3.79
 1 4 4 1023.63 6.18
 1 4 6 47.37 1.08
 1 5 -9 5.18 1.14
 1 5 -8 156.42 4.09
 1 5 -7 97.59 3.24
 1 5 -6 2.47 0.94
 1 5 -5 85.65 2.83
 1 5 -4 345.96 5.42
 1 5 -3 26.18 1.59
 1 5 6 -0.07 0.37
 1 6 -9 125.96 3.95
 1 6 -8 48.24 2.64
 1 6 -7 11.5 1.62
 1 6 -6 24.2 1.91
 1 6 -5 215.29 4.74
 1 6 -4 137.3 3.76
 1 6 -3 483.54 6.76
 1 6 2 1.3 0.72
 1 6 4 3.83 0.92
 1 6 5 74.48 2.26
 1 7 -9 1.77 1.53
 1 7 -8 0.53 1.32
 1 7 -7 -0.48 1
 1 7 -6 23.06 2.18
 1 7 -4 9.42 1.67
 1 7 -3 -0.19 0.96
 1 7 -1 1.69 0.95
 1 7 0 138.08 3.82
 1 7 2 239.66 4.81
 1 7 3 378.06 5.84
 1 7 4 -0.46 0.69
 1 7 5 15.52 1.46
 1 7 6 65.7 2.26
 1 8 -9 57.59 3.4
 1 8 -7 11.45 2
 1 8 -6 89.67 3.71
 1 8 -5 0.88 1.42
 1 8 -4 48.6 2.91
 1 8 -3 21.01 2.09
 1 8 -2 199.8 5.06
 1 8 2 40.05 2.44
 1 8 3 8.98 1.49
 1 8 4 119.82 3.57
 1 8 5 31.24 1.94
 1 8 6 51.86 2.27
 1 9 -9 13.57 2.48
 1 9 -8 55.07 3.41
 1 9 -7 42.2 3.11
 1 9 -6 222.48 6.05
 1 9 -5 44.24 2.91
 1 9 -4 35.98 2.78
 1 9 -2 139.45 4.63
 1 9 -1 10.92 1.99
 1 9 0 151.3 4.57
 1 9 1 117.06 4.02
 1 9 2 2.69 1.36
 1 9 3 17.97 1.94
 1 9 4 2.6 1.15
 1 9 5 9.64 1.43
 1 9 6 1.59 1.03
 1 10 -7 4.62 1.82
 1 10 -6 7.5 1.93
 1 10 -5 6.64 2.09
 1 10 -4 8.75 1.96
 1 10 -3 -0.01 1.55
 1 10 -2 1.32 1.34
 1 10 -1 36.51 2.74
 1 10 0 87.49 3.85
 1 10 1 86.84 3.73
 1 10 2 131.85 4.59
 1 10 3 5.16 1.46
 1 10 4 1.1 1.13
 1 10 5 1.65 1.16
 1 11 -5 69.59 4.2
 1 11 -4 20.52 2.87
 1 11 -2 55.54 3.52
 1 11 -1 29.93 2.69
 1 11 0 3.04 1.57
 1 11 1 6.02 1.65
 1 11 2 36.86 2.76
 1 11 3 42.79 3.12
 1 11 4 -1.49 1.41
 1 11 5 9.45 1.97
 1 12 -2 6.62 2.05
 1 12 -1 11.87 2.35
 1 12 0 88.17 4.45
 1 12 1 17.78 2.75
 1 12 2 -0.75 1.66
 1 12 3 3.43 1.64
 1 12 4 0.63 1.38
 2 2 -3 11.52 0.93
 2 2 -2 549.71 4.92
 2 2 -1 156.34 2.51
 2 2 0 100.06 1.88
 2 2 1 20.59 0.89
 2 2 2 614.25 3.57
 2 3 -6 152.27 3.4
 2 3 -5 207.01 3.92
 2 3 0 155.28 2.6
 2 4 -8 31.75 1.94
 2 4 -7 671.64 7.77
 2 4 -6 19 1.64
 2 4 -5 2.83 0.95
 2 4 -4 309.52 4.86
 2 4 -3 0.24 0.48
 2 4 -2 150.25 3.14
 2 4 4 11.02 0.71
 2 4 5 35.35 0.9
 2 5 -8 56.26 2.75
 2 5 -7 60.25 2.69
 2 5 -6 395.5 6.44
 2 5 -5 731.2 8.29
 2 5 -4 129.7 3.42
 2 6 -8 14.16 1.77
 2 6 -7 41.41 2.68
 2 6 -6 10.16 1.54
 2 6 -5 1.96 1.23
 2 6 -4 270.01 5.34
 2 6 -1 102.57 3.12
 2 6 2 -0.46 0.81
 2 6 3 44.31 1.87
 2 6 4 18.41 1.3
 2 6 6 28.14 1.19
 2 7 -10 -0.18 1.29
 2 7 -8 8.73 1.8
 2 7 -7 48.99 3.03
 2 7 -6 -0.84 1
 2 7 -5 460.45 7.48
 2 7 -4 191.78 4.92
 2 7 -2 577.34 7.95
 2 7 -1 111.76 3.49
 2 7 0 23.51 1.98
 2 7 1 174.46 4.11
 2 7 3 71.61 2.66
 2 7 4 -0.59 0.61
 2 7 5 7.35 1.11
 2 7 6 16.16 1.17
 2 8 -8 43.81 3.14
 2 8 -6 9.21 1.73
 2 8 -5 1.39 1.3
 2 8 -4 298.47 6.35
 2 8 -1 103.93 3.65
 2 8 0 88.19 3.33
 2 8 1 48.18 2.66
 2 8 2 8.01 1.35
 2 8 3 16.51 1.61
 2 8 4 3.7 1.05
 2 8 5 40.82 2.07
 2 9 -9 6.99 2.14
 2 9 -8 10.91 2.13
 2 9 -7 -0.43 1.66
 2 9 -6 -1.32 1.33
 2 9 -5 49.52 3.15
 2 9 -3 2.49 1.42
 2 9 -2 11.75 2.03
 2 9 -1 798.04 10.46
 2 9 0 8.14 1.54
 2 9 2 7.22 1.46
 2 9 3 0.34 0.98
 2 9 4 17.99 1.72
 2 9 5 126.98 3.73
 2 10 -7 53.27 3.8
 2 10 -6 5.39 1.81
 2 10 -4 6.9 1.76
 2 10 -3 4.24 1.92
 2 10 -2 51.86 3.37
 2 10 0 39.59 2.88
 2 10 1 107.75 4.12
 2 10 2 0.19 1.17
 2 10 3 27.1 2.46
 2 10 4 2.1 1.25
 2 10 5 92.41 3.53
 2 11 -5 -1.13 1.65
 2 11 -4 41.58 3.26
 2 11 -3 254.5 7.05
 2 11 -2 0.52 1.45
 2 11 -1 1.94 1.71
 2 11 0 27.13 2.58
 2 11 1 54.52 3.49
 2 11 2 15.32 2.13
 2 11 3 144.8 4.83
 2 12 -2 15.47 2.83
 2 12 -1 5.94 2.08
 2 12 0 2.48 1.85
 2 12 1 65.21 3.99
 2 12 2 2.54 1.61
 2 12 3 2.02 1.51
 2 12 4 2.61 1.53
 3 3 -6 185.82 3.73
 3 3 -5 341.49 5.07
 3 3 -4 515.94 6.05
 3 3 1 105.98 2.21
 3 3 2 58.91 1.47
 3 4 -7 1.48 0.92
 3 5 -8 7.74 1.4
 3 5 -7 77.5 3.18
 3 5 -5 217.03 4.9
 3 5 2 7.35 1.06
 3 6 -9 2.28 1.2
 3 6 -8 5.27 1.46
 3 6 -7 753.56 9.88
 3 6 -6 7.65 1.54
 3 6 -5 11.48 1.82
 3 6 -4 246.33 5.31
 3 6 -3 4.12 1.07
 3 6 -2 1.82 0.92
 3 6 -1 160.17 3.86
 3 6 0 13.59 1.5
 3 6 1 8.25 1.14
 3 6 2 32.92 1.76
 3 6 3 138.46 3.15
 3 6 4 19.55 1.28
 3 7 -8 30.28 2.68
 3 7 -7 0.98 1.57
 3 7 -3 75.24 3.27
 3 7 -2 6.05 1.38
 3 7 0 49.36 2.41
 3 7 1 72.09 2.85
 3 7 2 1.01 0.86
 3 7 3 186.53 4.02
 3 7 4 341.61 5.12
 3 7 5 3.41 0.83
 3 8 -9 4.76 1.71
 3 8 -8 183.44 5.63
 3 8 -7 2.56 1.47
 3 8 -5 29.49 2.62
 3 8 -3 442.47 7.76
 3 8 -1 82.04 3.32
 3 8 0 70.18 3.17
 3 8 1 -1.12 0.82
 3 8 2 17.55 1.63
 3 8 3 58.28 2.6
 3 8 4 0.51 0.81
 3 9 -9 60.96 3.66
 3 9 -8 13.97 2.32
 3 9 -7 36.21 3.1
 3 9 -6 5.74 1.77
 3 9 -5 60.28 3.41
 3 9 -2 43.62 2.78
 3 9 -1 24.19 2.18
 3 9 0 1.94 1.35
 3 9 1 52.17 2.79
 3 9 2 38.76 2.4
 3 9 3 17.4 1.74
 3 9 4 8.93 1.37
 3 10 -7 34.33 3.13
 3 10 -6 110.21 4.92
 3 10 -5 81.84 4.07
 3 10 -4 90.96 4.31
 3 10 -3 177.59 5.57
 3 10 -1 11.14 2.08
 3 10 0 41.27 2.94
 3 10 1 47.42 3.1
 3 10 3 1.91 1.39
 3 10 4 9.64 1.64
 3 11 -5 -0.12 1.94
 3 11 -4 10.35 2.46
 3 11 -3 13.76 2.4
 3 11 -2 7.34 2.03
 3 11 -1 66.96 3.86
 3 11 0 25.57 2.77
 3 11 1 1 1.54
 3 11 2 2.46 1.68
 3 11 3 158.61 5.03
 3 12 -1 42.35 3.3
 3 12 0 44.51 3.53
 3 12 1 222.52 6.44
 3 12 2 1.17 1.49
 3 12 3 11.98 2.16
 4 4 -6 130.98 3.59
 4 5 -7 18.11 1.8
 4 5 -6 0.99 1.21
 4 5 -5 27.87 2.01
 4 5 -3 20.58 1.7
 4 5 -1 494.01 6.65
 4 5 0 0.51 0.75
 4 5 2 11.25 1.23
 4 6 -8 11.63 1.73
 4 6 -7 3.36 1.56
 4 6 -6 0.76 1.11
 4 6 -5 15.29 1.99
 4 6 -4 9.66 1.72
 4 6 -3 6.31 1.33
 4 6 -2 487.64 7.24
 4 6 -1 0.73 1.02
 4 6 2 4.65 0.99
 4 6 3 15.8 1.29
 4 7 -9 29.77 2.62
 4 7 -8 0.96 1.44
 4 7 -7 44.58 2.89
 4 7 -6 3.69 1.42
 4 7 -5 1.5 1.31
 4 7 -2 52.46 2.86
 4 7 -1 9.34 1.55
 4 7 1 59.37 2.67
 4 7 2 0.96 1.01
 4 7 4 2.2 0.69
 4 8 -8 10.88 2.25
 4 8 -7 35.29 2.96
 4 8 -6 42.71 3.18
 4 8 -5 3.91 1.42
 4 8 -4 0.02 1.24
 4 8 -2 137.47 4.52
 4 8 -1 124.26 4.1
 4 8 0 5.4 1.48
 4 8 1 1.81 1.33
 4 8 3 59.5 2.63
 4 8 4 4.29 1
 4 9 -8 55.18 3.85
 4 9 -7 8.3 1.96
 4 9 -6 61.3 3.86
 4 9 -5 108.54 4.58
 4 9 -4 237.36 6.4
 4 9 -3 63.11 3.57
 4 9 -2 35.65 2.65
 4 9 -1 35.62 2.81
 4 9 0 2.78 1.36
 4 9 1 11.31 1.72
 4 9 2 43.6 2.72
 4 9 3 3.01 1.24
 4 10 -7 30.8 3.36
 4 10 -6 8.41 2.08
 4 10 -5 83.46 4.26
 4 10 -4 35.58 2.98
 4 10 -3 23.41 2.92
 4 10 -2 41.96 3.09
 4 10 -1 7.92 2.01
 4 10 0 30.67 2.68
 4 10 1 5.72 1.64
 4 10 2 90.16 3.89
 4 10 3 -1.27 1.08
 4 11 -4 29.11 3.32
 4 11 -3 5.21 1.89
 4 11 -2 31.85 3.12
 4 11 -1 12.97 2.19
 4 11 0 7.16 1.91
 4 11 1 46.45 3.22
 4 11 2 -0.19 1.27
 5 5 -6 115.89 3.67
 5 5 -5 156 4.24
 5 5 -4 201.52 4.67
 5 5 -3 9.93 1.41
 5 5 -1 314.02 5.32
 5 5 0 746.58 7.64
 5 6 -6 89.75 3.67
 5 6 -5 349.72 6.86
 5 6 -4 47.85 2.82
 5 6 -3 23.43 2.2
 5 6 -2 227.11 5.15
 5 6 0 18.84 1.73
 5 6 1 17.71 1.57
 5 7 -8 -1.11 1.33
 5 7 -7 0.42 1.55
 5 7 -6 8.67 1.7
 5 7 -5 2.29 1.38
 5 7 -3 30.05 2.39
 5 7 -2 76.93 3.42
 5 7 -1 196.81 4.96
 5 7 1 -0.22 0.83
 5 7 2 3.06 1.11
 5 8 -8 5.11 1.94
 5 8 -7 3.38 1.56
 5 8 -6 5.06 1.9
 5 8 -4 0.31 1.25
 5 8 -3 24.51 2.43
 5 8 -1 0.89 1.23
 5 8 0 7.7 1.68
 5 8 1 0.3 1.22
 5 8 2 39.46 2.37
 5 8 3 8.56 1.24
 5 9 -8 -1.1 1.44
 5 9 -7 27.1 3.04
 5 9 -6 10.35 2.21
 5 9 -4 30.81 2.77
 5 9 -3 1.52 1.43
 5 9 -1 190.68 5.53
 5 9 0 35.14 2.65
 5 9 1 1.51 1.18
 5 9 2 23.17 2.12
 5 10 -6 56.92 4.05
 5 10 -5 15.14 2.45
 5 10 -4 12.47 2.45
 5 10 -3 0.32 1.51
 5 10 -2 3.86 1.98
 5 10 -1 -1.2 1.37
 5 10 0 4.29 1.91
 5 10 1 5.92 1.71
 5 10 2 7.49 1.63
 5 11 -3 220.21 6.84
 5 11 -2 11 2.6
 5 11 0 137.3 5.26
 5 11 1 41.55 3.13
 6 6 -4 0.84 1.03
 6 7 -6 2.99 1.62
 6 7 -5 -0.76 1.17
 6 7 -4 139.42 4.65
 6 7 -3 -0.05 1.09
 6 7 -2 9.07 1.72
 6 7 -1 85.75 3.29
 6 8 -7 117.9 4.77
 6 8 -6 4.51 1.78
 6 8 -4 145.23 5.05
 6 8 -3 61.76 3.36
 6 8 -2 1.03 1.51
 6 8 0 133.33 4.23
 6 9 -7 14.56 2.32
 6 9 -6 43.64 3.45
 6 9 -5 0.53 1.46
 6 9 -4 56.99 3.5
 6 9 -3 32.23 2.77
 6 9 -2 2.66 1.4
 6 9 -1 6.28 1.62
 6 9 0 52.03 3.05
 6 9 1 27.77 2.32
 6 10 -5 27.7 3.18
 6 10 -4 15.13 2.69
 6 10 -3 107.43 4.67
 6 10 -2 66.07 3.86
 6 10 0 0.66 1.44
 6 10 1 -1.06 1.09
 -2 2 8 133.95 1.71
 -2 2 9 155.06 2.12
 -1 0 1 0.42 0.18
 -1 2 4 385.9 1.89
 -1 2 5 395.39 2.49
 -1 3 5 311.72 2
 -1 3 6 402.77 2.66
 -1 3 7 0.38 0.32
 -1 3 8 139.53 2.01
 -1 4 8 137.76 1.66
 0 2 6 159.24 2.41
 0 2 7 1.5 0.61
 0 2 8 98.86 2.27
 0 2 9 80.09 2.19
 0 4 6 117.88 2.02
 0 4 7 65.26 1.62
 0 4 8 38.48 1.33
 0 5 6 462.91 3.99
 0 5 7 306.41 3.3
 1 0 0 0.21 0.22
 1 1 0 368.31 2.35
 1 1 1 17 0.64
 1 1 2 959.81 4.56
 1 1 10 12.25 1.42
 1 1 11 -0.06 0.37
 1 2 0 1239.49 5.19
 1 2 1 17.48 0.78
 1 2 2 664.64 4.05
 1 2 3 358.71 3.26
 1 2 4 675.21 4.81
 1 2 6 6.69 0.85
 1 2 7 88.96 2.34
 1 2 8 -0.63 0.56
 1 3 1 169.36 2.28
 1 3 2 1760.69 7.26
 1 3 3 537.61 4.16
 1 3 4 590.32 4.65
 1 3 7 6.42 0.95
 1 4 2 288.09 3.29
 1 4 3 349.91 3.69
 1 4 4 1034.15 6.47
 1 4 5 54.98 1.68
 1 4 6 46.3 1.63
 1 4 7 238.41 3.58
 1 4 8 0.14 0.56
 1 5 5 11.76 1
 1 5 6 0.46 0.55
 2 -3 13 6.97 1.76
 2 -2 12 3.94 1.47
 2 -1 -2 949.69 3.26
 2 -1 11 2.38 1.19
 2 -1 12 1.3 0.97
 2 0 -2 129.28 1.51
 2 0 -1 0.34 0.35
 2 0 0 246.86 2.36
 2 0 10 1.61 1.09
 2 1 -1 221.28 2.32
 2 1 0 1893.02 6.85
 2 1 1 245.42 2.72
 2 1 2 33.73 1.26
 2 1 3 719.54 5.37
 2 1 5 5.46 0.82
 2 1 6 459.22 5.41
 2 1 8 29.64 1.78
 2 1 10 6.12 1.36
 2 2 -1 151.16 2.29
 2 2 0 99.68 1.88
 2 2 4 58.99 1.83
 2 2 5 112.84 2.61
 2 2 6 13.86 1.16
 2 2 9 0.81 0.9
 2 2 10 -1.19 0.48
 2 3 0 164.04 2.61
 2 3 2 942.58 6.27
 2 3 3 26 1.24
 2 3 4 85.38 2.16
 2 4 2 356.02 4.23
 2 4 3 52.99 1.74
 2 4 4 9.79 1.07
 2 4 5 35.83 1.66
 2 4 6 174.84 3.42
 2 4 7 2.43 0.95
 2 5 2 17.08 1.25
 2 5 3 7.56 0.98
 2 5 4 305.17 4.37
 2 5 6 0.86 0.72
 2 6 4 19.86 1.39
 2 6 5 84.98 2.52
 2 6 6 26.91 1.65
 3 -3 12 3.23 1.8
 3 -2 11 35.15 2.78
 3 -2 12 1.39 1.5
 3 -1 -3 548.65 3.29
 3 -1 -2 97.12 1.58
 3 -1 -1 1784.69 7.01
 3 -1 10 1.57 1.32
 3 -1 11 1.59 1.49
 3 -1 12 1.05 1.44
 3 0 -3 0.88 0.45
 3 0 -2 1302.55 5.89
 3 0 -1 0.06 0.47
 3 0 0 4502.27 12.36
 3 0 1 0.35 0.57
 3 0 9 0.21 1.27
 3 0 10 23.28 2.3
 3 0 11 -0.02 1.2
 3 1 -2 97.59 1.93
 3 1 -1 1789.13 7.76
 3 1 0 1138.34 6.57
 3 1 1 15.25 1.19
 3 1 2 17.64 1.1
 3 1 3 46.14 1.7
 3 1 4 13.41 1.21
 3 1 5 2.58 1.05
 3 1 7 51.1 2.47
 3 1 8 62.29 2.72
 3 1 9 5.56 1.48
 3 1 10 1.66 1.18
 3 2 -2 58.21 1.66
 3 2 1 33.26 1.39
 3 2 2 1110.36 7.52
 3 2 4 1.98 0.78
 3 2 5 61.12 2.22
 3 2 7 170.34 3.97
 3 2 9 1.71 1.16
 3 2 10 9.11 1.4
 3 3 -1 100.66 2.34
 3 3 5 218.04 4.1
 3 3 7 4.94 1.09
 3 3 8 9.07 1.38
 3 3 9 45.92 2.4
 3 3 10 0.47 0.6
 3 4 0 30.02 1.55
 3 4 1 636.81 6.19
 3 4 2 1.27 0.87
 3 4 3 5.44 0.99
 3 4 4 20.11 1.54
 3 4 7 46.32 2.3
 3 4 9 0.36 0.55
 3 5 1 83.9 2.48
 3 5 2 8.83 1.15
 3 5 3 263.72 4.45
 3 5 4 202.25 4.04
 3 5 7 4.8 1.24
 3 6 6 2.63 1.08
 3 6 7 163.44 3.94
 3 7 6 0.24 0.99
 4 -7 -5 0.73 0.25
 4 -6 -5 15.29 0.42
 4 -4 -4 60.38 1.15
 4 -3 -4 302.94 2.47
 4 -3 -3 13.17 0.76
 4 -3 11 2.59 1.77
 4 -2 -4 84.23 1.46
 4 -2 -2 2.47 0.57
 4 -1 -4 16.31 0.86
 4 -1 -3 286.24 3.03
 4 -1 -2 904.53 5.71
 4 -1 -1 40.75 1.42
 4 -1 0 243.09 3.38
 4 -1 9 48.61 2.95
 4 -1 10 32.07 2.6
 4 -1 11 1.05 1.54
 4 -1 12 14.21 2.39
 4 0 -4 339.4 3.52
 4 0 -3 0.31 0.55
 4 0 -2 686.45 5.2
 4 0 -1 0.58 0.68
 4 0 0 0.5 0.61
 4 0 1 0.05 0.62
 4 0 2 173.6 3.43
 4 0 3 0.07 0.72
 4 0 7 -0.21 1.18
 4 0 8 9.49 1.84
 4 0 9 -1.36 1.08
 4 0 11 0.59 1.35
 4 1 -3 289.39 3.67
 4 1 -1 39.58 1.6
 4 1 0 248.09 3.66
 4 1 3 1.84 0.82
 4 1 5 307.68 5.27
 4 1 6 8.04 1.38
 4 1 7 17.76 1.94
 4 1 8 72.55 3.22
 4 1 10 29.85 2.55
 4 1 11 0.78 1.18
 4 2 -3 1024.85 7.21
 4 2 -2 4.13 0.83
 4 2 -1 119.18 2.59
 4 2 0 304.69 4.15
 4 2 3 50.1 2.06
 4 2 6 188.01 4.4
 4 2 7 17.9 1.73
 4 2 8 0.1 1.25
 4 2 9 2.48 1.51
 4 3 -2 0.24 0.64
 4 3 -1 939.93 7.63
 4 3 0 232.31 3.89
 4 3 1 53.74 2.08
 4 3 2 63.82 2.33
 4 3 5 34.16 2.1
 4 3 6 96.34 3.3
 4 3 7 14.44 1.63
 4 3 8 5.24 1.39
 4 3 9 1.18 1.12
 4 4 -1 11.49 1.3
 4 4 0 1.99 0.82
 4 4 1 38.29 1.86
 4 4 2 996.11 8.74
 4 4 6 4.21 1.18
 4 4 7 3.9 1.38
 4 4 8 2.41 1.31
 4 4 9 -0.66 0.64
 4 5 0 0.63 0.81
 4 5 1 385.57 5.71
 4 5 6 7.32 1.38
 4 5 7 2.62 1.13
 4 5 8 37.62 2.26
 4 6 3 16.53 1.58
 4 6 4 -0.35 0.93
 4 6 5 9.24 1.62
 4 6 6 19.65 1.86
 4 6 7 73.83 3.05
 4 7 4 0.37 1.19
 4 7 6 4.3 1.26
 5 -7 -5 1.9 0.41
 5 -6 -5 350.75 2.84
 5 -5 -5 150.99 1.86
 5 -5 -4 207.21 2.71
 5 -4 -5 12.55 0.66
 5 -4 -4 16.51 0.9
 5 -4 -3 199.87 2.96
 5 -4 10 82.17 4.34
 5 -3 -5 3.11 0.5
 5 -3 -4 103.8 1.95
 5 -3 -3 62.26 1.69
 5 -3 -2 0.93 0.66
 5 -3 9 17.53 2.6
 5 -3 10 2.56 1.99
 5 -2 -5 97.78 1.83
 5 -2 -4 162.75 2.48
 5 -2 -3 0.28 0.49
 5 -2 -2 20.66 1.14
 5 -2 -1 375.56 4.59
 5 -2 7 9.21 1.63
 5 -2 8 24.52 2.68
 5 -2 9 12.68 2.18
 5 -2 10 13.34 2.22
 5 -1 -5 31.71 1.22
 5 -1 -4 181.71 2.77
 5 -1 -3 74.18 1.93
 5 -1 -2 38.22 1.56
 5 -1 0 181.63 3.43
 5 -1 1 117.84 3.02
 5 -1 3 3.65 1.02
 5 -1 4 335.74 5.71
 5 -1 5 14.55 1.78
 5 -1 7 2.14 1.53
 5 -1 8 186.68 5.46
 5 -1 9 2.46 1.52
 5 -1 10 0.52 1.64
 5 -1 11 2.25 1.72
 5 0 -4 41.69 1.59
 5 0 -2 113.12 2.55
 5 0 -1 -0.13 0.62
 5 0 0 667.48 6.55
 5 0 1 -0.21 0.66
 5 0 5 -0.32 0.91
 5 0 6 227.42 5.29
 5 0 7 0.05 1.19
 5 0 8 -0.1 1.24
 5 0 9 0.71 1.51
 5 0 10 45.17 3.13
 5 0 11 0.86 1.56
 5 1 -4 188.05 3.27
 5 1 -3 75.02 2.21
 5 1 -2 37.5 1.63
 5 1 -1 50.62 1.91
 5 1 0 180.84 3.6
 5 1 1 114.05 3.05
 5 1 4 311.18 5.63
 5 1 5 15.45 1.86
 5 1 6 25.34 2.25
 5 1 7 2.75 1.55
 5 1 8 187.62 5.26
 5 1 9 2.35 1.63
 5 1 10 -0.98 1.3
 5 2 -3 0.48 0.76
 5 2 -2 18.23 1.44
 5 2 -1 363.73 5.02
 5 2 1 0.9 0.76
 5 2 5 36.91 2.28
 5 2 7 9.05 1.74
 5 2 8 24.05 2.45
 5 2 9 13.41 2.15
 5 2 10 13.86 2.16
 5 3 -3 61.79 2.21
 5 3 -2 0.66 0.77
 5 3 -1 345.17 5.21
 5 3 0 228.88 4.3
 5 3 3 14.82 1.69
 5 3 4 2.76 1.14
 5 3 5 8.62 1.64
 5 3 6 26.17 2.22
 5 3 7 15.09 2.06
 5 3 8 79.44 3.61
 5 3 9 20 2.44
 5 4 -2 2.95 0.97
 5 4 3 70.55 2.89
 5 4 4 5.33 1.26
 5 4 5 7.82 1.62
 5 4 6 0.96 1.29
 5 4 7 14.11 1.85
 5 4 8 11.88 1.88
 5 4 9 10.82 1.69
 5 5 2 60.54 2.75
 5 5 4 16.25 1.9
 5 5 5 35.9 2.5
 5 5 7 59.8 3.13
 5 6 0 17.46 1.72
 5 6 1 18.15 1.86
 5 6 2 18.09 1.95
 5 6 3 0.99 1.1
 5 6 5 -1.09 1.3
 5 6 6 42.99 2.79
 5 6 7 11.87 1.74
 5 7 2 3.03 1.21
 5 7 3 53.78 2.76
 5 7 4 54.99 2.99
 6 -7 -5 0.08 0.45
 6 -7 -4 133.48 2.64
 6 -6 -4 0.9 0.58
 6 -5 -6 3.25 0.42
 6 -5 -5 25.73 1.1
 6 -5 -4 9.8 0.96
 6 -5 9 2.02 2.02
 6 -4 -6 63.07 1.36
 6 -4 -5 27.57 1.16
 6 -4 -3 312.55 4.2
 6 -4 -2 364.72 4.77
 6 -4 8 25.69 3.11
 6 -4 9 -0.3 1.64
 6 -3 -6 86.31 1.76
 6 -3 -5 43.54 1.44
 6 -3 -4 72.98 1.99
 6 -3 -1 96.42 2.78
 6 -3 6 44.04 2.79
 6 -3 7 -0.13 1.43
 6 -3 8 12.97 2.39
 6 -3 9 44.67 3.53
 6 -2 -6 409.78 4.06
 6 -2 -5 30.42 1.35
 6 -2 -4 5.17 0.82
 6 -2 -3 531.63 5.53
 6 -2 -2 29.77 1.6
 6 -2 3 7.07 1.38
 6 -2 4 10.48 1.67
 6 -2 5 28.04 2.49
 6 -2 6 125.23 4.54
 6 -2 7 9.52 2.21
 6 -2 8 8 2.26
 6 -2 9 4.91 2.02
 6 -1 -5 0.07 0.58
 6 -1 -4 393.35 4.68
 6 -1 -2 5.44 0.95
 6 -1 2 95.07 3.19
 6 -1 4 28.51 2.1
 6 -1 5 3.91 1.47
 6 -1 9 0.56 1.91
 6 0 -5 0.66 0.77
 6 0 -4 275.24 4.22
 6 0 -3 0.16 0.67
 6 0 -2 2.9 0.84
 6 0 3 -0.26 0.86
 6 0 4 9.39 1.49
 6 0 5 0.86 1.3
 6 0 6 95.36 3.94
 6 0 7 -0.6 1.58
 6 0 9 2.17 1.89
 6 0 10 -0.21 1.62
 6 1 -5 1.09 0.9
 6 1 -4 390.88 5.28
 6 1 -3 769.71 7.41
 6 1 -2 4.84 0.97
 6 1 -1 71.49 2.54
 6 1 2 97.66 3.24
 6 1 3 21.75 1.87
 6 1 4 26.98 2.23
 6 1 5 2.81 1.49
 6 1 7 46.56 3.22
 6 1 8 0.95 1.51
 6 1 9 -0.88 1.5
 6 1 10 31.6 3.02
 6 2 -4 6.57 1.22
 6 2 -3 525.17 6.44
 6 2 2 15.22 1.67
 6 2 3 8.92 1.47
 6 2 4 11.9 1.68
 6 2 5 33.29 2.39
 6 2 7 8.2 2.06
 6 2 8 8.62 1.87
 6 2 9 2.98 1.65
 6 2 10 26.99 3.04
 6 3 1 0.93 0.91
 6 3 2 41.96 2.47
 6 3 3 16.65 1.71
 6 3 4 3.12 1.21
 6 3 5 7.36 1.56
 6 3 6 42.52 2.84
 6 3 7 -0.87 1.25
 6 3 8 10.85 2.2
 6 3 9 49.39 3.36
 6 4 0 328.43 5.9
 6 4 1 0.56 1.15
 6 4 2 1.12 1.13
 6 4 3 0.27 1.17
 6 4 4 172.48 4.84
 6 4 5 19.87 2.06
 6 4 6 13.87 1.99
 6 4 8 23 2.6
 6 4 9 -0.87 1.19
 6 5 -2 96 3.4
 6 5 -1 1.05 1.05
 6 5 0 4.67 1.26
 6 5 3 10.98 1.72
 6 5 5 2.09 1.44
 6 5 6 2.18 1.61
 6 5 7 1.98 1.47
 6 5 8 127.68 4.72
 6 6 0 0.75 1.17
 6 6 1 39.21 2.65
 6 6 2 39.97 2.59
 6 6 3 36.93 2.71
 6 6 4 19.39 2.39
 6 6 5 75.91 3.69
 6 6 6 13.22 2.09
 6 6 7 16.83 2.45
 6 7 1 0.34 1.44
 6 7 2 3.22 1.4
 6 7 4 120.55 4.46
 6 7 5 48.05 3.06
 6 7 6 1.24 1.45
 6 7 7 4.43 1.32
 6 8 5 1.21 1.71
 7 -7 -5 2.65 0.74
 7 -7 -4 3.28 0.83
 7 -6 -5 1.92 0.68
 7 -6 -4 45.88 1.86
 7 -6 7 42.99 3.47
 7 -5 -6 40.91 1.36
 7 -5 -5 18.76 1.21
 7 -5 -4 5.24 0.89
 7 -5 6 -0.08 1.68
 7 -4 -6 143.2 2.54
 7 -4 -5 18.72 1.23
 7 -4 -4 16.21 1.33
 7 -4 -1 54.51 2.45
 7 -4 0 87.23 3.1
 7 -4 1 3.46 1.09
 7 -4 4 2.08 1.38
 7 -4 5 37.69 3.1
 7 -4 6 40.51 3.27
 7 -4 7 -0.14 1.98
 7 -3 -6 5.87 0.87
 7 -3 -4 182.85 3.51
 7 -3 0 36.31 2.19
 7 -3 1 6.44 1.39
 7 -3 3 24.31 2.14
 7 -3 4 0.87 1.44
 7 -3 6 57.49 3.67
 7 -3 8 1.35 1.91
 7 -2 -6 0.83 0.71
 7 -2 -5 580.6 5.94
 7 -2 -4 115.11 2.84
 7 -2 1 13.49 1.6
 7 -2 2 32.27 2.19
 7 -2 3 3.48 1.46
 7 -2 4 2.35 1.36
 7 -2 5 19.28 2.5
 7 -2 6 47.77 3.29
 7 -2 7 -0.66 1.75
 7 -2 8 4.76 2.15
 7 -1 -6 4.53 0.95
 7 -1 -5 74.25 2.4
 7 -1 -4 214.86 3.99
 7 -1 0 2.65 1.22
 7 -1 1 4.15 1.32
 7 -1 2 41.7 2.56
 7 -1 3 2.7 1.3
 7 -1 4 2.18 1.3
 7 -1 5 51.62 3.29
 7 -1 6 38.68 3.17
 7 -1 7 13.8 2.34
 7 0 -6 1238.67 9.25
 7 0 -5 0.53 0.84
 7 0 -4 4.16 1.02
 7 0 0 255.98 5.15
 7 0 1 -0.13 1.19
 7 0 2 18.48 1.83
 7 0 3 -0.75 1.03
 7 0 4 257.94 6.09
 7 0 5 -1.21 1.42
 7 0 6 37.48 3.18
 7 0 7 0.44 1.55
 7 0 8 124.53 5.14
 7 0 9 0.97 1.8
 7 1 -1 14.68 1.64
 7 1 0 2.35 1.03
 7 1 1 4.06 1.18
 7 1 2 38.48 2.39
 7 1 3 2.76 1.33
 7 1 4 1.42 1.29
 7 1 5 55.13 3.32
 7 1 6 39.21 2.95
 7 1 8 5.98 2
 7 1 9 7.11 2.16
 7 2 -1 127.92 3.76
 7 2 0 42.29 2.31
 7 2 1 11.93 1.79
 7 2 2 25.82 2.26
 7 2 3 3.02 1.56
 7 2 4 -0.3 1.22
 7 2 5 17.67 2.3
 7 2 6 44.85 3.26
 7 2 7 -1.04 1.44
 7 2 8 5.11 2.15
 7 2 9 60.71 3.9
 7 3 -3 230.84 5.02
 7 3 -2 163.51 4.33
 7 3 -1 105.85 3.57
 7 3 0 35.22 2.36
 7 3 1 4.23 1.29
 7 3 2 51.39 2.94
 7 3 3 21.99 2.1
 7 3 4 0.86 1.51
 7 3 5 11.82 2.25
 7 3 6 59.45 3.43
 7 3 7 2.94 1.64
 7 3 8 2.14 1.98
 7 4 -3 28.07 2.05
 7 4 -2 43.56 2.47
 7 4 -1 57.71 2.82
 7 4 0 85.53 3.53
 7 4 1 3.87 1.34
 7 4 2 22.35 2.12
 7 4 3 106.4 4.21
 7 4 4 2.04 1.44
 7 4 5 35.95 2.8
 7 4 6 35.9 3.11
 7 4 7 0.11 1.63
 7 4 8 28.99 2.91
 7 5 -3 0.28 1.08
 7 5 -2 109.81 3.87
 7 5 0 22.44 2.29
 7 5 1 341.3 6.96
 7 5 2 68.23 3.42
 7 5 3 -0.03 1.55
 7 5 4 11.24 2.01
 7 5 5 8.17 2.15
 7 5 6 -1.09 1.38
 7 5 7 4.49 1.79
 7 5 8 7.96 2.12
 7 6 0 40.93 2.67
 7 6 1 87.51 3.97
 7 6 2 54.02 3.33
 7 6 3 49.65 3.37
 7 6 4 5.18 2.02
 7 6 5 16.91 2.54
 7 6 7 40.85 3.25
 7 7 0 1.09 1.65
 7 7 1 104.15 4.36
 7 7 2 82.38 4.01
 7 7 3 1.49 1.54
 7 7 4 10.8 2.28
 7 7 5 0.3 1.63
 7 7 6 2.97 1.61
 7 7 7 25.31 2.72
 7 8 4 0.26 1.89
 8 -10 -2 4.25 1.31
 8 -9 -3 1.33 1.07
 8 -8 -4 60.34 2.36
 8 -8 -3 48.56 2.43
 8 -8 -2 38.45 2.35
 8 -8 5 1.87 1.75
 8 -7 -3 131.12 3.56
 8 -7 -2 -0.33 1.11
 8 -7 -1 8.48 1.51
 8 -7 4 0.35 1.45
 8 -7 5 41.73 3.41
 8 -6 -3 -0.03 0.9
 8 -6 -2 7.11 1.41
 8 -6 -1 329.5 6.2
 8 -6 0 6.65 1.65
 8 -6 1 9.62 1.9
 8 -6 2 0.41 1.36
 8 -6 3 -2.16 1.32
 8 -6 4 22.64 2.87
 8 -6 5 34.97 3.52
 8 -6 6 -1.35 1.82
 8 -5 -6 69.59 2.06
 8 -5 -5 1.53 0.81
 8 -5 -2 147.73 3.97
 8 -5 0 -0.43 1.04
 8 -5 2 4.04 1.84
 8 -5 3 60.86 3.53
 8 -5 4 8.3 2.26
 8 -5 5 46.84 3.67
 8 -5 6 24.78 3.08
 8 -4 -7 18.68 1.14
 8 -4 -6 2.76 0.76
 8 -4 -5 2.09 0.88
 8 -4 -2 13.76 1.64
 8 -4 -1 78.6 3.14
 8 -4 0 36.98 2.41
 8 -4 1 19.08 2.2
 8 -4 2 4.34 1.51
 8 -4 3 0.97 1.45
 8 -4 4 6.91 1.96
 8 -4 5 7.83 2.05
 8 -4 6 54.53 3.76
 8 -4 7 31 3.26
 8 -3 -7 9.42 1.02
 8 -3 -6 0.74 0.78
 8 -3 -5 88.69 2.68
 8 -3 -3 149.25 3.8
 8 -3 -2 2.45 1.2
 8 -3 -1 28.8 2.18
 8 -3 0 112.45 3.78
 8 -3 2 26.31 2.41
 8 -3 3 47.2 3.03
 8 -3 4 16.23 2.55
 8 -3 5 55.93 3.73
 8 -3 6 7.28 2.16
 8 -3 7 18.26 3.05
 8 -2 -3 37.69 2.13
 8 -2 -2 1.3 1.09
 8 -2 -1 16.62 1.84
 8 -2 0 1.61 1.14
 8 -2 1 5.09 1.59
 8 -2 2 37.88 2.75
 8 -2 3 218.2 5.93
 8 -2 4 1.13 1.48
 8 -2 5 -0.21 1.89
 8 -2 7 3.78 2.04
 8 -1 -6 5.46 1.15
 8 -1 -3 62.53 2.62
 8 -1 -2 0.77 0.99
 8 -1 -1 132.1 3.94
 8 -1 0 0.37 1.1
 8 -1 3 5.53 1.69
 8 -1 4 62.03 3.67
 8 -1 5 8.8 2.07
 8 -1 6 50.31 3.51
 8 -1 7 6.77 2.47
 8 0 -3 0.8 1.05
 8 0 -2 11.26 1.49
 8 0 -1 -0.83 1.1
 8 0 0 107.17 3.73
 8 0 1 0.46 1.08
 8 0 2 0.92 1.29
 8 0 3 -2.4 1.09
 8 0 4 215.32 6.14
 8 0 6 5.94 2.04
 8 0 7 1.19 1.7
 8 1 -4 6.59 1.27
 8 1 -3 61.37 2.83
 8 1 -2 -0.58 0.95
 8 1 -1 143.5 4.24
 8 1 0 -0.42 1.04
 8 1 1 55.29 3.07
 8 1 2 103.47 4.12
 8 1 3 5.92 1.69
 8 1 4 64.24 3.77
 8 1 5 6.95 1.89
 8 1 6 54.54 3.65
 8 2 -5 1.41 1.01
 8 2 -4 5.92 1.29
 8 2 -2 1.27 1.05
 8 2 -1 19.37 2.13
 8 2 0 1.45 1.14
 8 2 2 39.29 2.84
 8 2 3 214 5.95
 8 2 4 2.84 1.64
 8 2 5 0.8 1.84
 8 2 6 1.03 1.64
 8 2 7 2.24 1.93
 8 3 -5 90.24 3.52
 8 3 -4 22.66 2.16
 8 3 -3 147.76 4.42
 8 3 -2 2.11 1.25
 8 3 -1 28.49 2.42
 8 3 0 111.34 4.04
 8 3 1 10.23 1.75
 8 3 2 27.47 2.56
 8 3 3 43.54 3.19
 8 3 4 13.37 2.18
 8 3 5 58.45 3.68
 8 3 6 11.3 2.23
 8 3 7 17.13 2.59
 8 4 -4 125.11 4.1
 8 4 -2 14.25 2
 8 4 0 39.75 2.69
 8 4 1 12.63 1.88
 8 4 2 2.89 1.75
 8 4 3 -0.2 1.71
 8 4 4 5 1.83
 8 4 5 6.94 1.96
 8 4 6 53.29 3.7
 8 4 7 28.21 2.94
 8 5 -3 70.47 3.45
 8 5 -2 144.43 4.77
 8 5 -1 3.79 1.52
 8 5 0 -0.68 1.27
 8 5 2 2.17 1.64
 8 5 3 61.39 3.75
 8 5 4 8.29 2.17
 8 5 7 70.43 4.2
 8 6 -2 7.94 1.88
 8 6 0 6.52 1.87
 8 6 1 9.96 2.23
 8 6 2 2.97 1.65
 8 6 3 0.44 1.63
 8 6 4 25.86 3.03
 8 6 5 36.72 3.31
 8 6 6 -1.6 1.68
 8 7 0 0.61 1.51
 8 7 1 38.14 3.02
 8 7 2 4.29 1.99
 8 7 3 9.22 2.36
 8 7 4 -0.23 1.57
 8 7 5 41.22 3.47
 8 7 6 57.26 3.74
 9 -11 0 7.91 2
 9 -10 -1 7.09 1.88
 9 -10 0 37.33 2.98
 9 -9 -2 37.48 2.58
 9 -9 -1 3.26 1.56
 9 -9 0 10.05 2.16
 9 -8 -3 23.01 1.99
 9 -8 -2 20.84 2.2
 9 -8 -1 5.86 1.86
 9 -8 0 0 1.44
 9 -8 1 15.44 2.52
 9 -8 2 8.26 2.37
 9 -8 3 53.37 3.8
 9 -7 -4 30.09 2.03
 9 -7 -3 5.35 1.4
 9 -7 -2 3.71 1.37
 9 -7 -1 21.75 2.25
 9 -7 0 62.45 3.55
 9 -7 1 0.82 1.58
 9 -7 2 17.19 2.71
 9 -7 3 15.89 2.54
 9 -7 4 8.77 2.51
 9 -6 -4 19.2 1.74
 9 -6 -3 48.46 2.64
 9 -6 -2 13.03 1.76
 9 -6 -1 10.86 1.86
 9 -6 0 3.18 1.53
 9 -6 1 55.49 3.51
 9 -6 2 2.43 1.71
 9 -6 3 2.69 1.95
 9 -6 4 25.56 3.15
 9 -5 -5 16.4 1.53
 9 -5 -4 0.5 1
 9 -5 -3 54.62 2.65
 9 -5 -2 18.26 2.17
 9 -5 0 23.49 2.48
 9 -5 1 9.09 2.12
 9 -5 2 42.27 3.1
 9 -5 3 20.97 2.73
 9 -5 4 88.6 4.47
 9 -5 5 1.59 1.94
 9 -4 -5 14.46 1.49
 9 -4 -4 29.52 2.04
 9 -4 -3 81.34 3.14
 9 -4 -2 2.06 1.21
 9 -4 -1 -1.25 1.18
 9 -4 0 57.68 3.07
 9 -4 1 82.4 3.77
 9 -4 2 6.79 2.02
 9 -4 3 51.2 3.69
 9 -4 4 35.33 3.05
 9 -4 5 1.76 1.85
 9 -3 -7 11.93 1.39
 9 -3 -5 31.11 1.99
 9 -3 -4 8.47 1.36
 9 -3 -3 1.03 1.07
 9 -3 -2 50.36 2.82
 9 -3 -1 37.02 2.64
 9 -3 0 96.59 3.89
 9 -3 1 35.78 2.9
 9 -3 2 -0.1 1.43
 9 -3 4 40.68 3.59
 9 -3 5 0.26 2
 9 -2 -5 42.2 2.17
 9 -2 -4 22.7 1.93
 9 -2 -3 99.44 3.42
 9 -2 -2 26.41 2.1
 9 -2 -1 56.87 3.11
 9 -2 0 51.6 3.12
 9 -2 1 -0.78 1.24
 9 -2 2 -0.83 1.33
 9 -2 3 10.89 2.13
 9 -2 4 6.14 2.32
 9 -2 5 14.87 2.69
 9 -2 6 67.71 4.47
 9 -1 -6 250.24 5
 9 -1 -5 2.34 1.1
 9 -1 -4 -0.55 0.96
 9 -1 -2 7.4 1.48
 9 -1 -1 4.46 1.39
 9 -1 0 -1.03 1.13
 9 -1 1 158.71 5.18
 9 -1 2 111.27 4.52
 9 -1 3 4.71 2.17
 9 -1 4 27.66 3.01
 9 -1 5 -0.74 1.97
 9 -1 6 6.43 2.56
 9 0 -6 126.99 3.76
 9 0 -5 -0.76 1.06
 9 0 -4 441.48 7.2
 9 0 -3 -0.43 0.99
 9 0 -2 48.46 2.81
 9 0 -1 0.1 1.18
 9 0 0 8.55 1.7
 9 0 1 -0.52 1.62
 9 0 3 0.8 1.57
 9 0 4 13.6 2.56
 9 0 5 -1.62 1.63
 9 1 -5 2.81 1.34
 9 1 -4 -0.43 0.99
 9 1 -2 6.85 1.61
 9 1 -1 2.41 1.5
 9 1 0 -1.03 1.16
 9 1 1 155.98 5.15
 9 1 2 111.39 4.62
 9 1 3 3.31 1.73
 9 1 4 31.63 3.22
 9 2 -6 76.55 3.4
 9 2 -5 43.73 2.73
 9 2 -4 23.55 2.24
 9 2 -3 94.07 3.74
 9 2 -2 30.21 2.37
 9 2 -1 60.45 3.22
 9 2 0 49.06 3.09
 9 2 1 0.15 1.29
 9 2 2 -0.29 1.4
 9 2 3 13.29 2.49
 9 2 5 18.04 2.65
 9 2 6 63.84 4.15
 9 3 -5 30.59 2.54
 9 3 -4 9.61 1.76
 9 3 -3 1.69 1.43
 9 3 -2 50.65 3.18
 9 3 1 33.42 2.94
 9 3 2 2.09 1.88
 9 3 3 40.48 3.21
 9 3 4 42.96 3.48
 9 3 5 0.29 1.8
 9 3 6 10.8 2.43
 9 4 -3 89.5 3.86
 9 4 -2 1.33 1.47
 9 4 -1 -0.65 1.66
 9 4 0 61.95 3.61
 9 4 1 88.32 4.44
 9 4 2 7.28 2.07
 9 4 4 33.63 3.44
 9 4 5 1.46 1.88
 9 5 -2 20.53 2.33
 9 5 -1 0.9 1.5
 9 5 0 22.16 2.6
 9 5 1 6.73 2.1
 9 5 2 37.27 3.3
 9 5 5 -0.35 2.12
 9 6 -1 9.56 2.02
 9 6 0 1.56 1.56
 9 6 1 52.58 3.75
 9 6 2 4.21 1.93
 9 6 3 2.73 2.13
 9 6 4 20.55 2.99
 9 7 1 -1.02 1.65
 9 7 4 7.35 2.3
 10 -9 -2 -1.2 1.37
 10 -9 -1 43.64 3.12
 10 -9 0 38.3 3.19
 10 -9 1 14.22 2.64
 10 -8 -3 20.15 2.19
 10 -8 -2 1.25 1.46
 10 -8 -1 0.02 1.39
 10 -8 0 -0.51 1.37
 10 -8 1 8.04 2.2
 10 -7 -4 -1.25 0.99
 10 -7 -3 5.27 1.66
 10 -7 -1 4.42 1.86
 10 -7 0 -1.98 1.33
 10 -7 1 1.96 1.84
 10 -7 2 110.91 4.95
 10 -6 -5 9.13 1.43
 10 -6 -4 14.9 1.95
 10 -6 -3 31.79 2.48
 10 -6 -1 7.75 1.8
 10 -6 0 19.14 2.65
 10 -6 1 45.95 3.46
 10 -6 2 2.98 2.24
 10 -5 -5 168.98 4.2
 10 -5 -4 13.97 1.95
 10 -5 -3 5.22 1.53
 10 -5 -2 82.34 3.68
 10 -5 0 12.28 2.45
 10 -5 3 3.81 2.36
 10 -4 -6 -1 1
 10 -4 -5 39.78 2.35
 10 -4 -4 0.24 1.03
 10 -4 -3 2.04 1.27
 10 -4 -2 37.71 2.84
 10 -4 -1 8.54 2
 10 -4 2 98.34 4.79
 10 -4 3 42.69 3.71
 10 -3 -6 5.34 1.21
 10 -3 -5 24.82 2.06
 10 -3 -4 1.97 1.19
 10 -3 -3 24.29 2.33
 10 -3 -2 280.16 6.37
 10 -3 -1 28.48 2.54
 10 -3 0 11.87 2.31
 10 -3 1 0.63 1.81
 10 -3 2 4.2 1.91
 10 -3 3 58.29 3.82
 10 -3 4 20.83 3.39
 10 -2 -7 7.34 1.33
 10 -2 -6 2.03 1.16
 10 -2 -5 2.19 1.21
 10 -2 -4 151.81 4.4
 10 -2 -3 9.77 1.72
 10 -2 -1 85.23 3.88
 10 -2 0 44.44 3.37
 10 -2 1 156.58 5.54
 10 -2 3 9.34 2.36
 10 -1 -7 18.75 1.79
 10 -1 -6 169.19 4.52
 10 -1 -5 30.23 2.42
 10 -1 -4 53.64 3.03
 10 -1 -3 14.53 2.08
 10 -1 -2 93.51 3.83
 10 -1 -1 7.54 2
 10 -1 0 5 1.75
 10 -1 1 28.66 3.07
 10 -1 2 25.34 2.78
 10 -1 3 2.8 1.9
 10 0 -7 -1.05 1
 10 0 -6 25.45 2.17
 10 0 -5 -0.16 1.12
 10 0 -4 30.28 2.37
 10 0 -3 -1.59 1.11
 10 0 -1 -0.26 1.32
 10 0 1 -0.06 1.49
 10 0 2 108.98 4.97
 10 0 3 -0.96 1.66
 10 0 4 15.22 2.87
 10 1 -5 31.34 2.59
 10 1 -4 51.86 3.08
 10 1 -3 13.56 1.97
 10 1 -2 88.93 4.07
 10 1 -1 8.64 1.91
 10 1 2 30.03 2.87
 10 1 3 2.7 1.89
 10 1 4 8.74 2.28
 10 2 -6 0.88 1.52
 10 2 -5 3.06 1.51
 10 2 -4 148.04 4.96
 10 2 -3 8.14 1.76
 10 2 -2 30.16 2.81
 10 2 -1 88.99 4.19
 10 2 0 42.31 3.23
 10 2 2 2.06 1.72
 10 2 3 8.94 2.42
 10 2 4 3.53 2.02
 10 3 -5 24.69 2.36
 10 3 -4 2.58 1.56
 10 3 -2 264.31 6.79
 10 3 -1 23.97 2.95
 10 3 0 10.68 2.4
 10 3 1 0.25 1.63
 10 3 2 3.09 1.93
 10 4 -4 0.24 1.48
 10 4 -3 1.81 1.55
 10 4 -2 35.35 2.94
 10 4 -1 4.3 1.88
 10 4 2 103.68 5.17
 10 4 3 42.12 3.61
 10 4 4 116.24 5.45
 10 5 -3 3.92 1.85
 10 5 0 11.11 2.33
 10 5 1 4.13 1.99
 10 5 2 4.25 2.02
 10 6 -2 27.41 3
 10 6 -1 5.99 2.33
 10 6 0 15.6 2.55
 10 6 1 39.97 3.72
 10 6 2 3.34 2.44
 10 6 3 2.58 2.14
 10 7 0 -0.82 1.97
 10 7 1 0.79 1.91
 11 -8 -2 -0.94 1.38
 11 -8 -1 -0.38 1.51
 11 -7 -3 0.67 1.49
 11 -7 -2 -1.28 1.52
 11 -7 -1 8.41 2.14
 11 -6 -4 6.14 1.7
 11 -6 -2 4.53 1.71
 11 -6 -1 20.44 2.57
 11 -6 0 7.73 2.09
 11 -5 -5 1.2 1.19
 11 -5 -4 -0.71 1.24
 11 -5 -3 0.1 1.6
 11 -5 -2 33.05 2.95
 11 -5 -1 16.18 2.39
 11 -5 0 1.89 2
 11 -5 1 6.19 2.12
 11 -5 2 109.89 5.29
 11 -4 -6 5.41 1.39
 11 -4 -5 -1.68 1
 11 -4 -4 329.59 6.89
 11 -4 -3 37.38 2.93
 11 -4 -2 8 1.89
 11 -4 -1 8.8 2.01
 11 -4 0 -1.16 1.82
 11 -4 1 8.22 2.29
 11 -4 2 -2.55 1.76
 11 -3 -6 75.99 3.27
 11 -3 -5 -0.05 1.38
 11 -3 -4 6.82 1.7
 11 -3 -3 10.6 1.95
 11 -3 -2 65.1 3.7
 11 -3 -1 95.01 4.43
 11 -3 0 106.39 4.73
 11 -3 1 74.58 4.16
 11 -3 2 27.98 3.36
 11 -2 -7 4.9 1.46
 11 -2 -6 39.62 2.71
 11 -2 -5 1.83 1.37
 11 -2 -4 77.5 3.74
 11 -2 -3 46.8 3.02
 11 -2 0 77.94 4.35
 11 -2 2 -0.32 1.86
 11 -2 3 1.01 2.09
 11 -1 -7 3.24 1.39
 11 -1 -6 28.54 2.49
 11 -1 -5 7.2 1.67
 11 -1 -4 0.18 1.62
 11 -1 -3 11.69 2.02
 11 -1 -2 8.3 1.94
 11 -1 0 -0.05 2.02
 11 -1 1 2.45 2.24
 11 -1 2 80.48 4.5
 11 0 -7 -0.68 1.14
 11 0 -6 38.54 2.75
 11 0 -5 0.09 1.31
 11 0 -4 20.88 2.45
 11 0 -2 60.4 3.83
 11 0 -1 -0.27 1.65
 11 0 0 105.43 4.87
 11 0 1 0.76 1.79
 11 0 2 -0.71 1.7
 11 1 -6 25.07 2.52
 11 1 -5 5.87 1.83
 11 1 -4 1.11 1.5
 11 1 -3 11.09 2.07
 11 1 -2 9.09 2.08
 11 1 0 0.82 1.77
 11 1 1 -0.09 1.69
 11 1 2 66.94 4.47
 11 1 3 46.36 4.11
 11 2 -6 32.41 2.91
 11 2 -5 3.14 1.61
 11 2 -4 76.61 4.08
 11 2 -3 47.89 3.57
 11 2 -2 9.33 2.31
 11 2 0 69.94 4.15
 11 2 1 35.36 3.47
 11 2 2 1.61 2.06
 11 2 3 1.89 2.15
 11 3 -5 -0.53 1.47
 11 3 -4 3.56 1.92
 11 3 -3 12.9 2.35
 11 3 -2 62.07 4.05
 11 3 -1 96.57 4.93
 11 3 0 94.89 4.87
 11 3 1 68.56 4.57
 11 3 2 30.68 3.25
 11 4 -3 38.81 3.2
 11 4 -2 6.07 2.28
 11 4 -1 5.63 2.15
 11 4 0 -1.67 1.64
 11 4 1 7.99 2.66
 11 4 2 -0.96 1.93
 11 5 -3 -0.42 1.67
 11 5 -2 29.46 3.56
 11 5 -1 14.19 2.95
 11 5 0 1.11 1.97
 11 5 1 7.63 2.39
 11 6 0 6.17 2.24
 11 6 1 5.79 2.2
 12 -7 -2 27 2.85
 12 -6 -3 41.69 3.15
 12 -6 -2 30.76 2.95
 12 -6 -1 19.34 2.56
 12 -5 -4 22.45 2.47
 12 -5 -3 1.65 1.5
 12 -5 -2 1.32 1.69
 12 -5 -1 1.7 2.06
 12 -4 -5 10.49 1.87
 12 -4 -3 30.64 2.94
 12 -4 -2 11.4 2.26
 12 -4 -1 4.87 2.23
 12 -4 0 19.21 2.81
 12 -3 -6 50.05 3.02
 12 -3 -5 5.04 1.62
 12 -3 -4 28.62 2.61
 12 -3 -3 5.47 1.8
 12 -3 -2 2.53 1.86
 12 -3 -1 28.01 3.27
 12 -3 0 0.91 1.9
 12 -2 -6 12.83 2.11
 12 -2 -5 0.61 1.51
 12 -2 -4 0.67 1.64
 12 -2 -3 102.25 4.62
 12 -2 -2 60.8 3.9
 12 -2 -1 -0.39 1.64
 12 -2 0 8.53 2.32
 12 -2 1 18 2.92
 12 -1 -7 0.15 1.27
 12 -1 -6 12.66 2.24
 12 -1 -5 2.21 1.5
 12 -1 -4 75.93 3.93
 12 -1 -3 20.55 2.6
 12 -1 -2 91.12 4.67
 12 -1 -1 26.02 3.22
 12 -1 0 -0.39 1.94
 12 -1 1 1.88 2.5
 12 0 -7 0.26 1.64
 12 0 -5 -1.42 1.5
 12 0 -4 52.45 3.47
 12 0 -3 1.38 1.65
 12 0 -2 10.57 2.44
 12 0 -1 -1.1 2.01
 12 0 0 79.99 4.67
 12 0 1 0.36 2.33
 12 1 -5 3.57 2.02
 12 1 -4 73.77 4.02
 12 1 -3 20.6 2.75
 12 1 -2 89.91 4.82
 12 1 0 1.59 2.23
 12 1 1 -0.14 2.23
 12 2 -5 2.33 1.74
 12 2 -4 2.17 1.86
 12 2 -3 101.34 5.03
 12 2 -2 56.55 3.84
 12 2 -1 1.87 2
 12 2 0 4.07 2.15
 12 3 -5 4.06 1.93
 12 3 -4 18.75 2.86
 12 3 -3 8.68 2.33
 12 3 0 1.38 2.25
 12 4 -3 30.61 3.78
 12 4 -2 10.33 2.49
 12 4 -1 6.8 2.49
 12 4 0 16.35 2.97
 12 5 -3 0.01 1.95
 12 5 -2 -0.64 1.91
 12 5 -1 0.25 2.05
 13 -5 -3 12.83 2.43
 13 -4 -4 8.39 2.21
 13 -4 -3 3.44 1.96
 13 -3 -5 14.22 2.19
 13 -3 -3 8.58 2.45
 13 -3 -2 6.54 2.27
 13 -2 -6 -0.84 1.48
 13 -2 -5 2.34 1.69
 13 -2 -4 1.05 1.98
 13 -2 -3 51.07 3.81
 13 -2 -2 3.27 2.38
 13 -1 -7 2.88 1.7
 13 -1 -6 24.45 2.82
 13 -1 -5 37.6 3.34
 13 -1 -4 12.38 2.32
 13 -1 -3 11.69 2.45
 13 -1 -2 3.68 2.07
 13 0 -7 -1.8 1.72
 13 0 -5 -0.32 1.59
 13 0 -4 66.14 4.25
 13 0 -3 0.33 1.84
 13 1 -5 35.86 3.49
 13 2 -5 -0.4 1.83
 13 2 -4 -1.59 1.79
 13 2 -3 49.1 4.06
 13 2 -2 2.88 2.44
 13 3 -4 30.83 3.57
 13 3 -3 5.19 2.23
 13 4 -4 3.75 2.63
 14 -1 -6 5.71 1.96
 14 0 -6 86.41 4.45
 14 1 -6 3.32 2.04
 -12 1 12 54.76 3.02
 -12 1 13 10.85 1.83
 -12 2 11 -0.21 1.16
 -12 2 12 3.53 1.4
 -12 2 13 35.75 2.71
 -12 3 9 17.95 1.93
 -12 3 10 1.75 1.16
 -12 3 11 3.03 1.36
 -12 3 12 3.95 1.53
 -12 3 13 -0.37 1.4
 -12 4 8 18.29 1.88
 -12 4 11 -0.93 1.22
 -12 4 12 1.33 1.66
 -12 5 8 8.14 1.5
 -12 5 9 10.12 1.77
 -12 5 10 14.32 2.01
 -12 5 12 1.6 1.74
 -12 6 7 8.46 1.57
 -12 6 8 26.2 2.35
 -12 6 9 32.9 2.63
 -12 6 10 3.61 1.5
 -12 6 11 18.77 2.45
 -12 7 7 40.1 2.7
 -12 7 8 -0.11 1.18
 -12 7 9 41.29 2.97
 -12 8 6 0.16 1.21
 -12 8 8 28.83 2.72
 -11 -2 12 47.11 2.8
 -11 -1 10 135.77 3.72
 -11 -1 11 35.31 2.26
 -11 -1 12 1.93 1.38
 -11 -1 13 26.99 2.54
 -11 -1 14 5.52 1.69
 -11 0 9 -0.01 0.81
 -11 0 10 22.64 1.86
 -11 0 11 -0.12 1.01
 -11 0 12 3.87 1.46
 -11 0 13 0.45 1.42
 -11 0 14 14.89 2.3
 -11 1 8 0.52 0.89
 -11 1 9 8.58 1.41
 -11 1 10 138.61 3.93
 -11 1 11 36.24 2.54
 -11 1 12 4.18 1.5
 -11 1 13 26.66 2.52
 -11 1 14 2.98 1.57
 -11 2 7 4.77 1.02
 -11 2 8 1.83 0.9
 -11 2 9 30.96 2.12
 -11 2 10 -0.49 0.99
 -11 2 11 2.4 1.22
 -11 2 13 2.44 1.43
 -11 2 14 2.43 1.57
 -11 3 6 75.32 2.62
 -11 3 8 2.71 1.2
 -11 3 9 1.13 1.04
 -11 3 10 1.82 1.28
 -11 3 11 42.26 2.82
 -11 3 12 0.31 1.21
 -11 3 13 22.49 2.62
 -11 4 5 -0.41 0.75
 -11 4 6 4.61 1.17
 -11 4 7 20.63 1.85
 -11 4 8 0.72 1.09
 -11 4 9 1.01 1.13
 -11 4 10 8.62 1.77
 -11 4 11 42.17 2.74
 -11 4 12 58.07 3.38
 -11 4 13 1.22 1.51
 -11 5 5 2 0.98
 -11 5 6 0.35 1.09
 -11 5 7 -0.76 0.93
 -11 5 9 0.86 1.39
 -11 5 10 3.06 1.46
 -11 5 11 15.53 2.12
 -11 5 12 -0.48 1.41
 -11 5 13 1.48 1.79
 -11 6 6 1.86 1.32
 -11 6 7 3.71 1.42
 -11 6 8 74.87 3.32
 -11 6 9 14.29 1.95
 -11 6 10 2.09 1.66
 -11 6 11 8.99 2.03
 -11 6 12 16.23 2.48
 -11 7 6 48.65 2.79
 -11 7 7 68.89 3.28
 -11 7 8 13.46 1.91
 -11 7 9 -0.73 1.28
 -11 7 10 84.21 3.99
 -11 7 11 4.11 1.88
 -11 8 7 15.88 2.13
 -11 8 8 70.06 3.63
 -11 8 9 2.06 1.53
 -11 8 10 3.2 1.69
 -11 9 7 12.66 2.01
 -10 -2 9 49.88 2.19
 -10 -2 10 9.73 1.51
 -10 -2 11 23.77 2.08
 -10 -2 12 -0.99 1.15
 -10 -2 13 12.34 2
 -10 -1 8 64.53 2.31
 -10 -1 9 20.82 1.65
 -10 -1 10 7.2 1.34
 -10 -1 11 0.12 1.16
 -10 -1 12 13.86 1.86
 -10 -1 13 14.7 2.01
 -10 -1 15 6.49 2.07
 -10 0 7 0.02 0.62
 -10 0 8 390.44 5.61
 -10 0 9 -0.06 0.82
 -10 0 11 -0.98 0.91
 -10 0 12 -0.07 1.37
 -10 0 13 -1.14 1.2
 -10 0 14 1.8 1.47
 -10 0 15 1.65 1.62
 -10 1 7 21.16 1.5
 -10 1 9 21.27 1.82
 -10 1 10 8.27 1.45
 -10 1 11 2.56 1.26
 -10 1 12 14.36 1.94
 -10 1 13 12.54 1.99
 -10 1 14 4.13 1.68
 -10 2 5 3.88 0.91
 -10 2 6 0.3 0.66
 -10 2 7 12.43 1.48
 -10 2 8 83.27 2.91
 -10 2 9 50.96 2.58
 -10 2 11 19.01 2.06
 -10 2 12 1.42 1.58
 -10 2 13 13.9 2.05
 -10 2 14 1.07 1.7
 -10 3 4 3.7 0.84
 -10 3 5 27.92 1.63
 -10 3 6 4.24 0.97
 -10 3 8 8.13 1.36
 -10 3 9 -1.41 1.16
 -10 3 11 1.14 1.24
 -10 3 12 12.07 1.99
 -10 3 13 2.65 1.73
 -10 4 5 40.36 2.05
 -10 4 6 0.42 0.97
 -10 4 7 10.9 1.61
 -10 4 9 9.53 1.78
 -10 4 10 0.83 1.47
 -10 4 11 8.45 1.89
 -10 4 12 51.14 3.26
 -10 4 13 3.45 1.65
 -10 4 14 7.69 2.01
 -10 5 6 22.5 1.85
 -10 5 7 68.35 2.87
 -10 5 8 42.82 2.56
 -10 5 9 4.81 1.5
 -10 5 10 38.1 2.82
 -10 5 11 3.55 1.76
 -10 5 12 -0.29 1.67
 -10 5 13 0.82 1.79
 -10 6 7 53.43 2.86
 -10 6 8 22.42 2.29
 -10 6 9 14.41 2.04
 -10 6 10 5.54 1.62
 -10 6 11 10.14 1.92
 -10 6 12 4.26 1.7
 -10 6 13 131.74 5.14
 -10 7 7 91.39 3.66
 -10 7 8 5.92 1.74
 -10 7 9 0.23 1.35
 -10 7 10 4.91 1.58
 -10 7 11 6.06 1.8
 -10 7 12 9.34 2.21
 -10 8 7 7.95 1.68
 -10 8 8 77.16 3.56
 -10 8 9 37.19 2.9
 -10 8 10 -0.09 1.51
 -10 8 11 35.98 3.18
 -10 9 8 5.2 1.7
 -10 9 9 1.54 1.54
 -10 9 10 1.06 1.63
 -10 10 8 -1.25 1.49
 -9 -3 8 0.98 0.81
 -9 -3 9 40.49 2.11
 -9 -3 10 18.07 1.79
 -9 -3 11 -0.25 1.16
 -9 -2 6 77.33 1.97
 -9 -2 8 -0.39 0.78
 -9 -2 9 35.53 2.01
 -9 -2 10 17.13 1.73
 -9 -2 11 87.32 3.38
 -9 -2 12 13.3 1.91
 -9 -2 13 0 1.35
 -9 -2 14 1.97 1.48
 -9 -1 5 2.59 0.55
 -9 -1 8 57.5 2.25
 -9 -1 9 4.25 1.01
 -9 -1 10 0.61 0.95
 -9 -1 11 2.7 1.31
 -9 -1 12 23.98 2.26
 -9 -1 13 -0.46 1.32
 -9 -1 14 3.62 1.56
 -9 -1 15 8.35 2.03
 -9 0 4 462.81 4.24
 -9 0 5 -0.03 0.47
 -9 0 6 126.56 2.79
 -9 0 8 26.5 1.73
 -9 0 9 -0.21 0.76
 -9 0 10 126.39 3.73
 -9 0 11 0.49 1.05
 -9 0 12 6.44 1.57
 -9 0 13 0.71 1.32
 -9 0 14 11.43 1.93
 -9 0 15 -0.64 1.41
 -9 1 3 35.04 1.29
 -9 1 4 0.64 0.59
 -9 1 5 2.93 0.72
 -9 1 7 0.05 0.65
 -9 1 8 58.46 2.44
 -9 1 9 3.89 1.04
 -9 1 11 2.06 1.25
 -9 1 13 1.31 1.54
 -9 1 14 5.03 1.72
 -9 1 15 8.06 2.1
 -9 2 6 72.65 2.45
 -9 2 7 81.71 2.71
 -9 2 8 0.52 0.84
 -9 2 9 40.78 2.37
 -9 2 10 17.16 2.1
 -9 2 11 94.03 3.64
 -9 2 12 16.02 2.03
 -9 2 13 -0.85 1.57
 -9 2 14 1.01 1.46
 -9 2 15 0.54 1.52
 -9 3 5 31.75 1.7
 -9 3 6 1.74 0.83
 -9 3 7 10.61 1.4
 -9 3 8 0.12 0.89
 -9 3 9 38.44 2.25
 -9 3 10 22.85 2.09
 -9 3 11 0.65 1.2
 -9 3 12 9.87 1.82
 -9 3 13 2.65 1.49
 -9 3 14 5.98 1.85
 -9 4 6 8.63 1.38
 -9 4 7 21.81 1.74
 -9 4 9 -0.06 0.97
 -9 4 10 58.15 3.13
 -9 4 11 2.26 1.45
 -9 4 12 1.53 1.35
 -9 4 13 48.32 3.11
 -9 4 14 1.44 1.57
 -9 5 7 46.38 2.51
 -9 5 8 2.69 1.26
 -9 5 9 47.08 2.61
 -9 5 10 29.57 2.54
 -9 5 11 113.77 4.35
 -9 5 12 0.26 1.3
 -9 5 13 5.81 1.8
 -9 5 14 2.86 2.02
 -9 6 7 0.52 0.97
 -9 6 8 2.44 1.25
 -9 6 9 41.8 2.74
 -9 6 10 15.17 2.1
 -9 6 11 5.7 1.73
 -9 6 12 0.69 1.55
 -9 6 13 -1.84 1.29
 -9 7 8 17.97 2.1
 -9 7 9 29.09 2.61
 -9 7 11 111.3 4.55
 -9 7 12 8.95 2.04
 -9 7 13 1.36 1.68
 -9 8 8 42.36 2.91
 -9 8 9 83.47 3.73
 -9 8 10 46.98 3.3
 -9 8 11 16.06 2.27
 -9 9 8 8.78 2.07
 -9 9 9 13.38 2.07
 -9 9 10 0.87 1.56
 -9 9 11 1.75 1.68
 -9 10 8 1.95 1.5
 -9 10 9 26.58 2.89
 -9 10 10 0.81 1.57
 -9 11 8 1.14 1.51
 -8 -3 6 -0.17 0.46
 -8 -3 7 10.14 1.09
 -8 -3 10 0.46 0.98
 -8 -3 11 21.49 2.06
 -8 -2 4 5.5 0.53
 -8 -2 5 2.25 0.55
 -8 -2 6 98.84 2.29
 -8 -2 8 37.94 1.9
 -8 -2 9 9.79 1.28
 -8 -2 10 3.18 1.14
 -8 -2 12 28.81 2.38
 -8 -2 13 14.96 2.23
 -8 -2 14 -0.85 1.23
 -8 -1 3 64.12 1.21
 -8 -1 4 9.63 0.74
 -8 -1 5 7.11 0.81
 -8 -1 6 6.51 0.88
 -8 -1 8 209.55 4.15
 -8 -1 9 100.33 3.1
 -8 -1 10 0.99 1.04
 -8 -1 11 1.32 1.02
 -8 -1 12 -0.11 1.31
 -8 -1 13 -0.35 1.34
 -8 -1 15 5.08 1.94
 -8 0 2 11.12 0.64
 -8 0 3 -0.14 0.35
 -8 0 4 6.03 0.74
 -8 0 5 -0.75 0.59
 -8 0 6 15.6 1.19
 -8 0 8 33.79 1.79
 -8 0 9 -0.14 0.8
 -8 0 10 23.87 1.98
 -8 0 11 0 1.26
 -8 0 12 0.66 1.22
 -8 0 13 1.37 1.34
 -8 0 14 6.55 1.78
 -8 0 15 -1.27 1.55
 -8 1 3 65.09 1.68
 -8 1 4 8.89 0.88
 -8 1 5 5.98 0.81
 -8 1 9 103.65 3.29
 -8 1 10 0.75 0.94
 -8 1 11 1.95 1.38
 -8 1 12 1.16 1.22
 -8 1 13 1.07 1.47
 -8 1 14 3.5 1.62
 -8 1 15 5.91 1.88
 -8 2 7 5.27 0.96
 -8 2 8 36.94 2.11
 -8 2 10 4.91 1.21
 -8 2 11 6.75 1.37
 -8 2 12 27.13 2.28
 -8 2 13 14.41 2.16
 -8 2 14 0.39 1.65
 -8 2 15 13.34 2.57
 -8 3 6 0.98 0.79
 -8 3 7 11 1.3
 -8 3 8 198.33 4.41
 -8 3 9 11.1 1.55
 -8 3 10 0.26 1.03
 -8 3 11 23.85 2.11
 -8 3 12 16.69 2.11
 -8 3 13 0.45 1.51
 -8 3 14 2.43 1.87
 -8 3 15 41.4 3.43
 -8 4 6 1.42 0.9
 -8 4 7 19.23 1.78
 -8 4 8 16.2 1.8
 -8 4 9 5.95 1.37
 -8 4 10 15.43 1.89
 -8 4 12 9.02 1.76
 -8 4 13 10.43 2.05
 -8 4 14 44.13 3.38
 -8 5 7 8.76 1.38
 -8 5 8 17.42 1.86
 -8 5 10 46.22 2.7
 -8 5 11 15.38 2.16
 -8 5 12 1.03 1.34
 -8 5 13 9.43 2.11
 -8 5 14 27.51 2.67
 -8 6 8 15.45 1.93
 -8 6 9 25.05 2.28
 -8 6 10 5.98 1.69
 -8 6 11 0.11 1.3
 -8 6 13 77.05 4.09
 -8 6 14 1.87 1.65
 -8 7 8 31.98 2.4
 -8 7 9 21.54 2.33
 -8 7 10 -2.05 1.36
 -8 7 11 6.9 1.81
 -8 7 12 2.02 1.48
 -8 7 13 5.97 2.19
 -8 8 8 41.39 2.8
 -8 8 9 34.35 2.74
 -8 8 10 23.19 2.37
 -8 8 11 30.92 2.82
 -8 8 12 -0.25 1.65
 -8 9 8 73.73 3.63
 -8 9 9 21.41 2.65
 -8 9 10 -1.17 1.31
 -8 9 11 1.11 1.64
 -8 9 12 20.45 2.91
 -8 10 8 4.01 1.59
 -8 10 9 17.84 2.42
 -8 10 10 -1.1 1.58
 -8 11 8 3.62 1.66
 -8 11 9 3.35 1.82
 -7 -3 5 246.18 3.22
 -7 -3 6 5.75 0.83
 -7 -3 9 13.01 1.39
 -7 -3 10 10.57 1.48
 -7 -2 3 0.02 0.23
 -7 -2 4 118.54 1.92
 -7 -2 5 553.35 4.78
 -7 -2 6 1.26 0.59
 -7 -2 7 9.83 1.22
 -7 -2 9 3.73 1.06
 -7 -2 10 64.52 2.82
 -7 -2 11 -0.18 0.97
 -7 -2 12 19.55 2.17
 -7 -2 13 -0.77 1.3
 -7 -1 2 62.21 0.99
 -7 -1 3 50.75 1.17
 -7 -1 4 206.94 2.69
 -7 -1 5 73.22 1.84
 -7 -1 6 4.61 0.79
 -7 -1 9 7.39 1.21
 -7 -1 10 3.12 1.15
 -7 -1 11 -0.08 0.98
 -7 -1 12 18.07 2.06
 -7 -1 13 11.14 1.8
 -7 -1 14 31.39 2.74
 -7 -1 15 -2.14 1.34
 -7 0 2 5.45 0.53
 -7 0 3 0.26 0.37
 -7 0 4 5.11 0.65
 -7 0 5 0.05 0.64
 -7 0 6 1253.61 8.45
 -7 0 8 5.5 1
 -7 0 9 -0.19 0.74
 -7 0 10 56.62 2.7
 -7 0 11 -0.81 0.89
 -7 0 12 -0.43 1.12
 -7 0 13 0.85 1.48
 -7 0 14 2.93 1.58
 -7 0 15 1.51 1.8
 -7 1 4 213.4 3.13
 -7 1 5 73.53 2.03
 -7 1 6 3.53 0.83
 -7 1 8 50.84 2.17
 -7 1 9 6.74 1.21
 -7 1 10 3.44 1.11
 -7 1 13 12.33 2.15
 -7 1 14 32.11 2.84
 -7 1 15 1.98 1.56
 -7 2 5 557.01 5.67
 -7 2 7 7.9 1.17
 -7 2 8 3.69 1.01
 -7 2 9 4.82 1.12
 -7 2 12 19.2 2.2
 -7 2 13 0.03 1.38
 -7 2 14 12.04 2.27
 -7 2 15 12.45 2.45
 -7 3 7 5.87 1.08
 -7 3 8 43.64 2.29
 -7 3 9 12.3 1.63
 -7 3 10 10.81 1.59
 -7 3 12 65.21 3.23
 -7 3 13 5.81 1.65
 -7 3 14 5.84 2.01
 -7 3 15 5.09 2.06
 -7 4 7 70.72 2.61
 -7 4 8 63.98 2.7
 -7 4 9 3.67 1.28
 -7 4 11 11.36 1.71
 -7 4 12 9.16 1.78
 -7 4 14 5.21 1.98
 -7 4 15 9.28 2.05
 -7 5 7 15.98 1.64
 -7 5 8 0.56 0.93
 -7 5 9 1.08 0.99
 -7 5 10 0.79 1.13
 -7 5 11 29.83 2.5
 -7 5 12 79.86 3.7
 -7 6 8 40.68 2.42
 -7 6 9 1.07 1.25
 -7 6 10 -0.84 1.14
 -7 6 11 11.66 1.95
 -7 6 12 33.44 2.9
 -7 6 13 7.03 1.97
 -7 6 14 10.89 2.26
 -7 7 8 47.05 2.75
 -7 7 12 4.01 1.78
 -7 7 13 0.31 1.79
 -7 8 8 4.85 1.38
 -7 8 9 8.37 1.74
 -7 8 10 8.52 1.8
 -7 8 11 0.33 1.4
 -7 8 13 12.55 2.21
 -7 9 8 27.16 2.39
 -7 9 9 79.78 3.77
 -7 9 10 2.86 1.55
 -7 9 11 10.32 2.01
 -7 9 12 1.12 1.54
 -7 10 9 32.45 2.92
 -7 10 10 19.16 2.67
 -7 10 11 8.75 2.25
 -7 11 9 59.33 3.73
 -7 11 10 -1.59 1.58
 -6 -3 5 49.69 1.55
 -6 -3 6 84.66 2.26
 -6 -3 9 63.98 2.69
 -6 -3 11 1.27 1.19
 -6 -2 3 498.83 3.21
 -6 -2 4 6.07 0.64
 -6 -2 5 27.98 1.19
 -6 -2 6 424.56 4.79
 -6 -2 7 12.55 1.24
 -6 -2 9 146.24 3.71
 -6 -2 10 68.31 2.89
 -6 -2 11 18.45 1.89
 -6 -2 12 30.96 2.57
 -6 -2 13 5.86 1.65
 -6 -1 1 76.41 0.81
 -6 -1 2 5.6 0.42
 -6 -1 3 756.9 4.33
 -6 -1 4 398.61 3.69
 -6 -1 5 1.11 0.54
 -6 -1 6 60.79 1.87
 -6 -1 7 2.71 0.81
 -6 -1 10 10.65 1.5
 -6 -1 11 18.74 1.96
 -6 -1 12 65.94 3.25
 -6 -1 13 8.27 1.89
 -6 0 2 2.68 0.39
 -6 0 3 0.12 0.41
 -6 0 4 269.9 3.19
 -6 0 5 0.02 0.47
 -6 0 6 198.89 3.44
 -6 0 9 0.01 0.77
 -6 0 10 29.88 2.1
 -6 0 11 -0.23 0.93
 -6 0 12 30.73 2.52
 -6 0 13 -0.12 1.2
 -6 0 15 -0.86 1.48
 -6 1 4 390.62 4.07
 -6 1 5 1.1 0.61
 -6 1 6 60.05 1.96
 -6 1 8 230.68 4.42
 -6 1 9 25.67 1.75
 -6 1 10 14.23 1.7
 -6 1 11 17.25 1.89
 -6 1 12 68.45 3.24
 -6 1 13 10.88 1.91
 -6 1 14 21.34 2.56
 -6 1 15 -0.54 1.74
 -6 2 5 31.83 1.49
 -6 2 8 0.45 0.72
 -6 2 9 148.43 3.85
 -6 2 10 70.48 2.97
 -6 2 11 15 1.85
 -6 2 12 30.84 2.35
 -6 2 15 59.43 3.79
 -6 3 7 5.84 1.05
 -6 3 8 132.55 3.47
 -6 3 10 44.9 2.43
 -6 3 11 1.44 1.08
 -6 3 13 0.24 1.26
 -6 3 14 11.33 2.05
 -6 3 15 0.73 1.76
 -6 4 7 27.33 1.68
 -6 4 9 20.1 1.82
 -6 4 10 207.66 5.07
 -6 4 11 18.19 2.19
 -6 4 13 12.03 2.02
 -6 4 14 -1.03 1.42
 -6 4 15 1.19 1.6
 -6 5 7 58.31 2.47
 -6 5 8 177.57 4.33
 -6 5 10 18.65 1.98
 -6 5 12 1.69 1.45
 -6 5 13 39.54 2.95
 -6 5 14 11.12 2.15
 -6 6 8 0.52 0.95
 -6 6 9 41.5 2.55
 -6 6 10 1.06 1.17
 -6 6 11 -0.61 1.12
 -6 6 12 -0.01 1.25
 -6 6 14 15.07 2.33
 -6 7 8 24.14 2.1
 -6 7 9 1.66 1.21
 -6 7 10 1.52 1.37
 -6 7 11 38.37 2.73
 -6 7 12 14.44 2.17
 -6 7 13 4.28 1.67
 -6 7 14 1.86 1.61
 -6 8 8 24.69 2.25
 -6 8 9 6.32 1.52
 -6 8 11 3.03 1.63
 -6 9 8 1.02 1.4
 -6 9 9 5.94 1.62
 -6 9 10 4.7 1.58
 -6 9 11 4.6 1.8
 -6 9 12 3.7 1.93
 -6 10 8 1.74 1.35
 -6 10 9 3.96 1.62
 -6 10 10 10.17 2.17
 -6 10 11 1.1 1.73
 -6 11 8 5.89 1.7
 -6 11 9 0.26 1.47
 -6 11 10 -1.83 1.37
 -6 12 8 10.56 2.2
 -6 12 9 2.47 1.84
 -5 -3 5 2.85 0.64
 -5 -3 9 21.67 1.89
 -5 -3 10 0.59 0.95
 -5 -2 2 18.95 0.53
 -5 -2 3 -0.12 0.27
 -5 -2 4 166.42 2.39
 -5 -2 5 100.81 2.17
 -5 -2 6 -0.22 0.52
 -5 -2 7 137.61 3.08
 -5 -2 9 2.14 0.98
 -5 -2 10 194.95 4.58
 -5 -2 11 55.08 2.89
 -5 -2 12 27.56 2.28
 -5 -1 1 50.39 0.69
 -5 -1 2 36.01 0.81
 -5 -1 4 181.65 2.48
 -5 -1 5 33.07 1.27
 -5 -1 9 42.62 2.11
 -5 -1 10 34.4 2.04
 -5 -1 11 6.16 1.35
 -5 -1 12 178.77 4.98
 -5 -1 13 20.4 2.38
 -5 -1 14 1.85 1.67
 -5 0 3 -0.2 0.3
 -5 0 4 39.84 1.25
 -5 0 5 0.34 0.49
 -5 0 6 313.84 4.16
 -5 0 7 -0.26 0.56
 -5 0 9 0.11 0.79
 -5 0 10 336.28 5.97
 -5 0 12 120.63 4.23
 -5 0 13 -0.07 1.22
 -5 0 14 0 1.73
 -5 0 15 -1.32 1.37
 -5 1 4 181.65 2.69
 -5 1 5 32.26 1.33
 -5 1 6 126.68 2.71
 -5 1 9 39.96 2.04
 -5 1 10 36.8 2.15
 -5 1 11 3.86 1.22
 -5 1 12 178.26 4.99
 -5 1 13 19.49 2.16
 -5 1 14 3.85 1.61
 -5 1 15 12.47 2.31
 -5 2 6 0.65 0.6
 -5 2 8 1.62 0.96
 -5 2 10 194.7 4.64
 -5 2 12 25.31 2.13
 -5 2 13 -0.5 1.28
 -5 2 14 24.69 2.8
 -5 2 15 0.58 1.77
 -5 3 8 419.87 6.03
 -5 3 9 21.58 1.69
 -5 3 10 -0.92 0.68
 -5 3 11 12.7 1.71
 -5 3 12 -1.55 1.2
 -5 3 14 4.33 1.8
 -5 3 15 -0.33 1.44
 -5 4 8 10.56 1.31
 -5 4 9 0.46 0.78
 -5 4 10 35.76 2.3
 -5 4 11 -0.14 1.02
 -5 4 12 50.48 2.96
 -5 4 13 0.14 1.22
 -5 4 15 6.48 1.95
 -5 5 7 8.38 1.24
 -5 5 8 25.28 1.86
 -5 5 9 9.63 1.54
 -5 5 10 104.35 3.64
 -5 5 12 1.7 1.44
 -5 5 13 11.62 2.1
 -5 5 14 0.25 1.45
 -5 6 8 1.78 0.94
 -5 6 10 0.85 1.27
 -5 6 11 40.57 2.76
 -5 6 12 1.66 1.37
 -5 6 13 75.45 3.73
 -5 6 14 2.42 1.6
 -5 7 8 0.45 0.93
 -5 7 9 4.98 1.43
 -5 7 10 16.05 2.02
 -5 7 11 1.81 1.37
 -5 7 12 9.51 1.86
 -5 7 14 1.57 1.67
 -5 8 8 7.41 1.5
 -5 8 10 8.22 1.77
 -5 9 9 18.91 2.04
 -5 9 10 3.7 1.74
 -5 9 11 10.44 1.93
 -5 9 12 25.47 2.87
 -5 10 8 16.58 2.05
 -5 10 9 0.21 1.54
 -5 10 10 1.9 1.44
 -5 10 11 2.65 1.66
 -5 11 8 23.95 2.29
 -5 11 9 41.87 3.13
 -5 11 10 1.28 1.52
 -5 12 8 10.37 2.14
 -5 12 9 2.1 1.87
 -5 13 8 -0.94 1.36
 -4 -3 5 481.32 4.85
 -4 -3 6 19.79 1.25
 -4 -3 8 23.89 1.63
 -4 -2 2 3.4 0.35
 -4 -2 4 84.47 1.74
 -4 -2 5 161.3 2.71
 -4 -2 6 253.79 3.77
 -4 -2 7 -0.05 0.62
 -4 -2 9 3.56 0.98
 -4 -2 10 1.56 0.97
 -4 -2 11 0.33 1.13
 -4 -1 1 38.41 0.61
 -4 -1 2 865.05 3.69
 -4 -1 3 279.9 2.62
 -4 -1 4 15.74 0.84
 -4 -1 5 826.57 5.91
 -4 -1 6 178.12 3.12
 -4 -1 7 116.55 2.83
 -4 -1 9 44.56 2.22
 -4 -1 11 10.3 1.75
 -4 -1 12 0.09 1.34
 -4 -1 13 4.43 1.62
 -4 0 3 -0.3 0.44
 -4 0 4 332.47 3.38
 -4 0 5 0.11 0.44
 -4 0 7 0.26 0.64
 -4 0 9 1.04 0.83
 -4 0 10 54.29 2.49
 -4 0 11 -0.56 1.03
 -4 1 5 783.57 5.89
 -4 1 6 183.69 3.24
 -4 1 7 113.91 2.79
 -4 1 9 44.66 2.18
 -4 1 10 79.21 3
 -4 1 11 8.98 1.47
 -4 1 12 1.37 1.14
 -4 1 13 3.84 1.54
 -4 1 14 1.28 1.78
 -4 1 15 2.42 1.88
 -4 2 5 159.07 2.82
 -4 2 6 253.53 3.85
 -4 2 8 8.38 1.16
 -4 2 9 3.43 0.98
 -4 2 10 1.87 0.95
 -4 2 11 0.58 1.24
 -4 2 12 28.72 2.37
 -4 2 14 4.82 1.76
 -4 2 15 3.9 1.9
 -4 3 6 17.19 1.2
 -4 3 9 197.85 4.43
 -4 3 10 26.79 2.05
 -4 3 11 3.79 1.42
 -4 3 12 55.96 3.04
 -4 3 13 -1.06 1.2
 -4 3 14 3.92 1.64
 -4 3 15 6.45 2.04
 -4 4 8 123.98 3.41
 -4 4 9 7.9 1.28
 -4 4 10 6.24 1.31
 -4 4 11 2.93 1.2
 -4 4 12 18.64 2.03
 -4 4 13 21.4 2.53
 -4 4 15 3.16 1.69
 -4 5 7 18.18 1.51
 -4 5 8 37.67 2.12
 -4 5 10 99.46 3.61
 -4 5 11 26.11 2.17
 -4 5 12 4.19 1.48
 -4 5 13 3.56 1.56
 -4 5 14 4.52 1.78
 -4 6 7 2.72 0.97
 -4 6 9 20.7 1.77
 -4 6 10 1.35 1.07
 -4 6 11 4.52 1.59
 -4 6 12 13.68 2.06
 -4 6 13 12.93 2.07
 -4 6 14 -0.55 1.35
 -4 7 8 -0.8 0.92
 -4 7 9 33.22 2.3
 -4 7 11 77.38 3.59
 -4 7 12 0.61 1.32
 -4 7 14 3.93 1.79
 -4 8 8 10.34 1.49
 -4 8 9 22.92 2.06
 -4 8 10 21.63 2.11
 -4 8 11 5.5 1.67
 -4 8 12 11.21 1.94
 -4 8 13 4.18 1.79
 -4 9 8 49.92 2.7
 -4 9 9 49.58 2.82
 -4 9 11 5.88 1.91
 -4 9 12 26.73 2.59
 -4 10 9 9.68 1.92
 -4 10 10 5.83 1.62
 -4 10 11 34.99 2.9
 -4 10 12 0.46 1.56
 -4 11 8 -0.46 1.56
 -4 11 9 30.99 2.71
 -4 11 10 22.64 2.46
 -4 12 8 5.34 1.63
 -4 12 9 0.17 1.59
 -4 12 10 3.36 1.57
 -4 13 8 59.27 3.52
 -3 -3 6 183.53 3.31
 -3 -2 2 58.33 1.06
 -3 -2 4 83.71 1.82
 -3 -2 5 478.04 4.64
 -3 -2 9 7.79 1.26
 -3 -2 10 1.6 1.02
 -3 -1 1 1752.99 3.55
 -3 -1 3 553.89 3.62
 -3 -1 4 100.96 1.87
 -3 -1 5 7.96 0.76
 -3 -1 6 0.91 0.52
 -3 -1 7 64.66 2.19
 -3 -1 9 13.1 1.52
 -3 -1 10 0.49 1.08
 -3 -1 11 86.71 3.52
 -3 -1 12 2.38 1.53
 -3 0 2 1294.09 4.63
 -3 0 3 0.87 0.49
 -3 0 5 1.38 0.52
 -3 0 7 0.19 0.54
 -3 0 9 -0.56 0.92
 -3 0 10 106.55 3.42
 -3 0 11 0.52 0.97
 -3 0 12 20.46 2.11
 -3 1 4 100.79 1.98
 -3 1 6 0.52 0.5
 -3 1 7 63.78 2.18
 -3 1 9 12.03 1.28
 -3 1 10 0.71 0.86
 -3 1 11 84.68 3.29
 -3 1 12 2.24 1.2
 -3 1 13 20.93 2.21
 -3 1 14 34.9 2.84
 -3 2 5 470.33 4.65
 -3 2 6 292.41 4.07
 -3 2 9 9.22 1.37
 -3 2 10 1.93 1
 -3 2 11 -0.39 0.94
 -3 2 13 3.65 1.61
 -3 2 14 3.39 1.85
 -3 2 15 0.18 1.45
 -3 3 5 348.33 4.1
 -3 3 8 7.47 1.09
 -3 3 11 6.64 1.36
 -3 3 12 15.57 2.15
 -3 3 13 -0.25 1.21
 -3 3 14 19.24 2.47
 -3 3 15 2.6 1.73
 -3 4 8 379.66 5.71
 -3 4 9 32.71 2.08
 -3 4 11 0.47 1.14
 -3 4 12 6.25 1.64
 -3 4 13 0.09 1.24
 -3 4 14 2.38 1.51
 -3 4 15 9.87 2.11
 -3 5 8 8.8 1.25
 -3 5 9 77.33 2.94
 -3 5 10 9.02 1.48
 -3 5 11 -0.96 0.99
 -3 5 12 4.52 1.68
 -3 5 13 4.38 1.67
 -3 5 14 1.16 1.56
 -3 6 8 7.82 1.24
 -3 6 9 1.8 0.99
 -3 6 11 21.16 2.24
 -3 6 12 2.92 1.37
 -3 6 13 0.53 1.66
 -3 6 14 0.57 1.66
 -3 7 7 1.07 0.88
 -3 7 8 32.56 2.15
 -3 7 9 15.17 1.76
 -3 7 10 12.73 1.76
 -3 7 11 23.79 2.44
 -3 7 12 4.31 1.52
 -3 7 13 0.96 1.56
 -3 8 7 4.61 1.12
 -3 8 8 181.93 4.6
 -3 8 9 3.88 1.28
 -3 8 10 15.41 1.93
 -3 8 12 4.24 1.81
 -3 8 13 13.71 2.1
 -3 9 8 12.24 1.84
 -3 9 9 58.39 3.01
 -3 9 10 0.48 1.19
 -3 9 11 1.33 1.45
 -3 9 12 0.87 1.55
 -3 10 8 -0.35 1.01
 -3 10 9 28.41 2.35
 -3 10 10 33.52 2.57
 -3 10 11 35.33 2.66
 -3 10 12 1.48 1.51
 -3 11 8 0.94 1.24
 -3 11 9 28.86 2.47
 -3 11 10 7.71 1.79
 -3 11 11 -0.08 1.54
 -3 12 8 -0.13 1.31
 -3 12 9 14.15 2.04
 -3 12 10 0.86 1.41
 -3 13 7 0.12 1.33
 -3 13 8 -0.87 1.26
 -2 -2 3 12.14 0.75
 -2 -2 4 321.79 3.48
 -2 -2 5 1639.28 8.76
 -2 -2 6 -0.44 0.55
 -2 -2 8 134.92 3.5
 -2 -2 9 143.15 3.87
 -2 -1 2 915.41 3.77
 -2 -1 3 568.11 3.72
 -2 -1 4 360.57 3.55
 -2 -1 5 47.14 1.5
 -2 -1 6 6.15 0.85
 -2 -1 7 67.56 2.18
 -2 -1 9 39.21 2.18
 -2 -1 11 4.1 1.31
 -2 0 2 128.15 1.43
 -2 0 3 0.88 0.38
 -2 0 4 949.63 5.57
 -2 0 6 570.11 5.49
 -2 0 9 -0.03 0.79
 -2 0 10 4.83 1.14
 -2 0 11 1.39 1.29
 -2 0 12 192.01 5.27
 -2 1 3 558.79 3.73
 -2 1 6 6.01 0.8
 -2 1 7 68.25 2.15
 -2 1 9 36.09 1.97
 -2 1 10 43.95 2.33
 -2 1 12 26.44 2.25
 -2 1 13 2.33 1.47
 -2 2 4 319.9 3.45
 -2 2 5 1572.8 8.28
 -2 2 6 0.92 0.59
 -2 2 9 150.93 3.74
 -2 2 10 108.35 3.55
 -2 2 11 74.37 3.1
 -2 2 12 47.48 2.8
 -2 2 13 7.55 1.86
 -2 2 14 4.94 1.83
 -2 3 5 202.35 3.14
 -2 3 6 152.15 3.02
 -2 3 8 2.58 1
 -2 3 9 5.55 1.11
 -2 3 10 2.34 1
 -2 3 11 4.87 1.27
 -2 3 12 15.21 1.94
 -2 3 13 19.97 2.4
 -2 4 8 32.45 1.86
 -2 4 9 1.47 0.89
 -2 4 11 1.99 1.24
 -2 4 12 -1.03 1.22
 -2 5 8 52.96 2.28
 -2 5 9 5.54 1.15
 -2 5 10 10.21 1.47
 -2 5 13 7.77 1.74
 -2 5 14 1.01 1.3
 -2 6 7 38.77 2.02
 -2 6 8 15.79 1.6
 -2 6 9 36.61 2.15
 -2 6 10 1.48 1.07
 -2 6 11 7.4 1.49
 -2 6 12 22.15 2.38
 -2 6 13 3.05 1.43
 -2 6 14 1.23 1.41
 -2 7 7 44.08 2.18
 -2 7 8 9.02 1.35
 -2 7 9 16.5 1.8
 -2 7 10 0.39 1.05
 -2 7 11 0.75 1.22
 -2 7 12 19.83 2.46
 -2 7 13 4.27 1.56
 -2 8 7 57.48 2.55
 -2 8 8 46.68 2.5
 -2 8 9 47.14 2.61
 -2 8 10 6.34 1.49
 -2 8 11 -0.37 1.11
 -2 8 13 10.25 2.02
 -2 9 7 1.43 1.05
 -2 9 8 10.52 1.51
 -2 9 9 9.89 1.75
 -2 9 10 46.88 2.93
 -2 9 11 27.65 2.45
 -2 9 12 3.94 1.57
 -2 10 7 50.93 2.7
 -2 10 8 70.42 3.21
 -2 10 10 32.7 2.5
 -2 10 11 14.4 1.97
 -2 10 12 9.32 1.76
 -2 11 7 -0.49 1.09
 -2 11 8 1.07 1.19
 -2 11 9 10.4 1.94
 -2 11 10 -1.52 1.42
 -2 12 7 38.59 2.59
 -2 12 8 7.25 1.72
 -2 12 9 4.4 1.71
 -2 12 10 1.15 1.43
 -2 13 7 2.3 1.34
 -2 13 8 0.28 1.25
 -2 14 7 4.61 1.7
 -1 -2 4 384.49 3.86
 -1 -2 6 37.29 1.65
 -1 -1 1 231.16 1.48
 -1 -1 2 9999 12.85
 -1 -1 3 4572.81 10.74
 -1 -1 4 103.24 2.01
 -1 -1 5 131.86 2.49
 -1 -1 9 24.27 1.79
 -1 0 2 136.23 1.46
 -1 0 3 -0.44 0.44
 -1 0 4 70.67 1.61
 -1 0 5 0.12 0.55
 -1 0 6 1.32 0.56
 -1 0 7 0.07 0.63
 -1 0 9 -0.68 0.83
 -1 0 11 -0.8 0.91
 -1 1 5 128.2 2.42
 -1 1 6 61.41 1.86
 -1 1 10 92.27 3.18
 -1 1 11 57.47 2.93
 -1 1 12 8.25 1.83
 -1 2 4 388.55 3.67
 -1 2 6 38.14 1.53
 -1 2 9 8.91 1.24
 -1 2 10 1.13 1.07
 -1 2 11 1.76 1.08
 -1 3 4 361.87 3.64
 -1 3 5 336.49 3.92
 -1 3 9 149.73 3.76
 -1 3 10 64.41 2.81
 -1 3 11 22.74 1.91
 -1 3 12 91.66 3.72
 -1 3 13 8.74 1.8
 -1 4 5 50.62 1.72
 -1 4 6 39.01 1.64
 -1 4 8 147.89 3.49
 -1 4 9 3.08 0.95
 -1 4 11 28.54 2.31
 -1 4 12 7.67 1.73
 -1 4 14 -0.12 1.31
 -1 5 5 85.67 2.19
 -1 5 9 3.59 1.05
 -1 5 10 22.77 1.83
 -1 5 11 8.61 1.66
 -1 5 13 1.59 1.23
 -1 5 14 95.74 4.09
 -1 6 7 13.92 1.44
 -1 6 8 50.26 2.35
 -1 6 9 126.63 3.65
 -1 6 10 1.92 1.09
 -1 6 11 8.45 1.53
 -1 6 12 22.49 2.31
 -1 7 6 24.41 1.53
 -1 7 7 0.11 0.76
 -1 7 8 -0.52 0.78
 -1 7 9 1.9 1.23
 -1 7 10 146.61 4.2
 -1 7 11 1.14 1.21
 -1 7 12 0.25 1.38
 -1 8 7 12.98 1.49
 -1 8 9 54.68 2.77
 -1 8 10 16.68 1.79
 -1 8 11 7.89 1.54
 -1 8 13 0.58 1.21
 -1 9 7 47.76 2.47
 -1 9 8 54.93 2.68
 -1 9 9 14.21 1.79
 -1 9 10 -0.32 1.26
 -1 9 11 0.99 1.24
 -1 9 12 8 1.6
 -1 10 8 94.32 3.5
 -1 10 9 6.63 1.54
 -1 10 11 0.29 1.08
 -1 11 8 21.3 2.14
 -1 11 9 4.88 1.34
 -1 12 7 -0.27 1.03
 -1 12 8 10.52 1.83
 -1 12 9 32.41 2.43
 -1 13 6 4.1 1.41
 -1 13 7 -0.04 1.09
 -1 13 8 4.09 1.46
 -1 14 6 2.01 1.26
 -1 14 7 13.86 1.99
 0 -1 3 2.99 0.6
 0 -1 5 21.18 1.12
 0 -1 6 99.31 2.53
 0 0 1 -0.08 0.16
 0 0 2 992.19 3.94
 0 0 3 0.59 0.37
 0 0 5 -0.39 0.51
 0 0 6 30.46 1.45
 0 0 7 -0.43 0.59
 0 0 8 1.57 0.77
 0 0 9 -0.95 0.74
 0 1 3 2.74 0.43
 0 1 4 9.46 0.77
 0 1 5 21.69 1.13
 0 1 6 101.87 2.42
 0 1 7 16.51 1.31
 0 1 9 3.42 1.01
 0 2 3 186.97 2.19
 0 2 4 549.2 4.32
 0 2 7 1.78 0.74
 0 2 9 78.93 2.73
 0 2 10 46.26 2.44
 0 2 11 0.55 1.17
 0 3 4 -0.03 0.43
 0 3 5 361.4 4.01
 0 3 8 0.32 0.69
 0 3 9 18.41 1.68
 0 3 10 -0.05 0.84
 0 4 5 54.86 1.69
 0 4 6 119.05 2.67
 0 4 8 35.89 1.91
 0 4 9 13.92 1.52
 0 4 10 41.08 2.35
 0 4 11 30.04 2.25
 0 4 12 111.48 4
 0 4 13 0.67 1.24
 0 5 5 35.4 1.52
 0 5 8 -0.92 0.75
 0 5 10 50.46 2.53
 0 5 11 11.24 1.73
 0 5 12 1.18 1.15
 0 5 13 0.64 1.16
 0 6 7 15.86 1.41
 0 6 9 0.37 0.88
 0 6 11 2.07 1.11
 0 6 12 52.28 2.89
 0 6 13 0.55 1.17
 0 7 6 6.7 1.02
 0 7 7 35.05 1.93
 0 7 8 3.33 0.96
 0 7 9 7.21 1.39
 0 7 10 35.2 2.22
 0 7 12 0.19 0.97
 0 8 6 4.68 1.05
 0 8 7 19.05 1.66
 0 8 8 92.04 3.13
 0 8 9 6.78 1.49
 0 8 10 1.66 1.05
 0 8 11 0.15 0.85
 0 9 6 15.31 1.5
 0 9 7 102.04 3.18
 0 9 8 39.34 2.24
 0 9 9 8.98 1.43
 0 9 10 31.25 2.14
 0 10 6 4.94 1.27
 0 10 7 4.19 1.11
 0 10 9 26.2 1.94
 0 11 6 10.98 1.62
 0 11 7 3.87 1.24
 0 11 8 40.85 2.32
 0 12 6 0.83 1.01
 0 12 7 1.32 0.88
 0 13 6 16.36 1.71
 1 0 3 1.2 0.44
 1 0 4 201.63 2.71
 1 0 5 0.62 0.51
 1 0 6 216.44 3.6
 1 1 2 969.73 3.8
 1 1 3 0.92 0.41
 1 1 5 324.64 3.79
 1 1 6 7.18 0.91
 1 1 8 49.12 2.19
 1 1 9 0.35 0.93
 1 2 2 656.78 3.26
 1 2 3 352.13 2.95
 1 2 4 656.72 4.6
 1 2 8 0.28 0.65
 1 2 9 478.48 6.58
 1 2 10 32.8 2.08
 1 3 4 600.15 4.53
 1 3 5 10.44 0.9
 1 3 6 100.58 2.38
 1 3 9 6.82 1.23
 1 3 10 47.53 2.41
 1 4 6 43.2 1.69
 1 4 9 11.19 1.44
 1 4 10 15.84 1.71
 1 4 11 7.09 1.51
 1 5 5 9.95 0.85
 1 5 6 0.79 0.63
 1 5 8 0.43 0.7
 1 5 10 22.86 1.88
 1 5 11 0.28 1.01
 1 6 4 3.41 0.65
 1 6 5 76.99 2.12
 1 6 7 1.02 0.79
 1 6 8 14.29 1.37
 1 6 9 1.69 0.98
 1 7 7 17.58 1.39
 1 7 8 7 1.16
 1 7 9 0.53 0.68
 1 8 6 53.66 2.14
 1 8 7 33.66 1.88
 1 8 8 14.53 1.38
 1 9 5 9.43 1.22
 1 9 6 0.43 0.69
 1 9 7 18.78 1.52
 1 10 5 1.39 0.81
 1 10 6 87.28 2.8
 1 11 5 7.02 1.14
 1 11 6 -0.63 0.55
 2 1 3 695.46 4.16
 2 1 4 92.14 1.86
 2 1 5 6.76 0.76
 2 1 6 473.09 5.17
 2 2 1 19.73 0.44
 2 2 4 56.96 1.41
 2 2 5 111.36 2.23
 2 2 6 11.65 1.05
 2 2 8 46.62 2.09
 2 3 4 87.97 1.76
 2 3 5 271.42 3.4
 2 3 6 27.27 1.37
 2 3 8 41.34 1.96
 2 3 9 23.43 1.64
 2 4 3 50.97 1.24
 2 4 4 9.56 0.76
 2 4 6 176.3 3.1
 2 4 8 1.11 0.71
 2 4 9 14.75 1.4
 2 5 3 8.19 0.7
 2 5 4 314.16 3.47
 2 5 5 28.16 1.23
 2 5 6 1.55 0.69
 2 5 8 0.93 0.65
 2 6 4 18.81 1.08
 2 6 6 26.61 1.42
 2 6 8 -0.33 0.52
 2 7 4 0.83 0.52
 2 7 5 6.34 0.83
 2 7 7 1.57 0.64
 2 7 8 0.56 0.43
 2 8 4 4.17 0.75
 2 10 4 1.45 0.64
 3 2 -1 63.25 0.7
 3 3 3 70.2 1.25
 3 3 5 230.94 3.07
 3 3 6 13.68 1
 3 4 2 1.39 0.27
 3 4 3 4.36 0.48
 3 4 6 29.65 1.31
 3 5 3 268.14 2.68
 3 5 8 0 0.22
 4 5 1 383.1 1.82
 4 5 2 10.31 0.39
 4 5 3 2.96 0.34
 4 5 4 29.54 0.88
 4 6 1 1037.6 4.11
 4 6 2 3.42 0.37
 4 6 3 15.51 0.61
 4 7 2 1.83 0.33
 -6 7 -1 -0.39 0.88
 -6 8 -2 123.36 3.59
 -6 8 -1 4.64 1.32
 -6 8 0 133.3 3.97
 -6 8 1 13.62 1.7
 -6 9 -2 18.39 1.97
 -6 9 -1 27.66 2.27
 -6 9 0 53.01 2.97
 -6 9 1 5.71 1.47
 -6 10 -2 136.84 4.35
 -6 10 -1 -0.28 1.41
 -6 10 0 0.32 1.36
 -6 11 -2 1.37 1.27
 -6 11 0 23.5 2.78
 -6 11 1 -0.52 1.36
 -6 12 -1 2.37 1.54
 -6 12 0 1.22 1.76
 -6 12 1 7.27 2.32
 -6 13 -1 41.82 3.29
 -6 13 0 32.06 3.26
 -5 5 -2 64.94 2.03
 -5 5 -1 3.52 0.9
 -5 5 0 758.27 7.01
 -5 6 -4 27.29 1.46
 -5 6 -3 -0.28 0.76
 -5 6 -2 15.01 1.34
 -5 6 -1 20.26 1.44
 -5 7 2 78.99 2.95
 -5 8 -4 -0.4 0.89
 -5 8 -3 9.7 1.39
 -5 8 -2 40.72 2.27
 -5 8 -1 1.83 1.12
 -5 8 0 8.06 1.36
 -5 8 1 0.02 1
 -5 8 2 212.06 5.01
 -5 8 3 24.05 2.1
 -5 9 -3 4.66 1.29
 -5 9 -2 22.95 2.04
 -5 9 -1 -0.33 1.03
 -5 9 0 40.42 2.66
 -5 9 1 196.39 5.13
 -5 9 2 8.58 1.63
 -5 9 3 4 1.38
 -5 10 -4 1.2 1.18
 -5 10 -3 11.4 1.94
 -5 10 -2 9.82 1.83
 -5 10 -1 5.12 1.74
 -5 10 0 5.5 1.54
 -5 10 2 3.93 1.46
 -5 10 3 1.35 1.28
 -5 11 -3 8.38 1.96
 -5 11 -2 19.1 2.42
 -5 11 -1 46.26 3.27
 -5 11 0 131.36 4.81
 -5 11 1 25.5 2.79
 -5 11 2 12.96 2.4
 -5 11 3 226.01 6.27
 -5 12 -3 28.63 2.73
 -5 12 -2 0.31 1.47
 -5 12 -1 9.52 2.19
 -5 12 0 7.76 2.05
 -5 12 1 69.34 4.04
 -5 12 2 1.32 1.79
 -5 12 3 6.56 2.07
 -5 13 -3 9.1 2.31
 -5 13 -2 46.16 3.48
 -5 13 -1 0.95 1.69
 -5 13 0 4.18 2
 -5 13 1 1.36 1.78
 -5 13 3 8.49 2.36
 -5 14 -1 1.47 1.78
 -5 14 0 -1.05 1.71
 -5 14 1 4.03 2.21
 -5 14 2 0.53 1.89
 -4 3 -4 531.89 3.35
 -4 3 -3 16.75 0.77
 -4 3 -2 61.02 1.44
 -4 3 -1 53.48 1.46
 -4 3 0 240.73 3.12
 -4 4 -5 0.33 0.41
 -4 4 -4 1.35 0.49
 -4 4 -3 202.41 2.92
 -4 4 -2 1018.34 6.68
 -4 4 -1 36.23 1.48
 -4 4 0 1.62 0.62
 -4 4 1 9.45 0.88
 -4 5 -5 78.14 2.02
 -4 5 -4 26.27 1.34
 -4 5 -3 2.11 0.66
 -4 5 -1 395.76 4.92
 -4 5 0 0.15 0.66
 -4 5 1 510.62 5.84
 -4 5 2 263.47 4.36
 -4 6 -5 9.4 1.08
 -4 6 -4 0.08 0.71
 -4 6 -3 14.92 1.42
 -4 6 -2 3.76 0.9
 -4 6 -1 1063.15 8.83
 -4 6 0 15.16 1.5
 -4 7 3 11.94 1.39
 -4 7 4 123.23 3.76
 -4 8 -5 88.75 3.05
 -4 8 -4 6.64 1.22
 -4 8 -2 193.69 4.53
 -4 8 -1 2.71 1.13
 -4 8 0 6.56 1.32
 -4 8 1 122.93 3.76
 -4 8 2 139.26 4.09
 -4 8 4 -0.02 0.91
 -4 9 -5 2.39 1.27
 -4 9 -4 4.82 1.31
 -4 9 -3 3.34 1.44
 -4 9 -2 45.46 2.71
 -4 9 0 3.66 1.43
 -4 9 1 34.22 2.34
 -4 9 3 64.3 3.25
 -4 9 4 236.02 5.77
 -4 10 -5 3.67 1.34
 -4 10 -4 14.91 2.11
 -4 10 -3 1.25 1.2
 -4 10 -2 94.19 3.8
 -4 10 -1 5.66 1.55
 -4 10 0 33.14 2.61
 -4 10 1 12.3 2.05
 -4 10 2 42.54 2.9
 -4 10 3 23.4 2.54
 -4 10 4 33.96 2.61
 -4 11 -5 -1.29 1.43
 -4 11 -4 6.97 1.73
 -4 11 -3 5.37 1.85
 -4 11 -2 1.24 1.45
 -4 11 -1 53.06 3.42
 -4 11 0 6.03 1.88
 -4 11 1 15.95 2.44
 -4 11 2 36.25 2.93
 -4 11 3 4.13 1.63
 -4 11 4 31.5 3.01
 -4 12 -4 66.05 3.67
 -4 12 -3 17 2.52
 -4 12 -1 15.92 2.45
 -4 12 0 42.6 3.27
 -4 12 1 66.26 3.84
 -4 12 2 2.81 1.79
 -4 12 3 1.73 1.69
 -4 12 4 11.18 2.23
 -4 13 -3 4.23 1.99
 -4 13 -2 25.2 2.74
 -4 13 -1 7.58 2.1
 -4 13 0 2.25 2.15
 -4 13 1 73.82 4.38
 -4 13 2 3.14 2.16
 -4 13 3 6.22 2.15
 -4 14 -3 1.71 1.88
 -4 14 -2 4.05 2.08
 -4 14 0 3.77 2.26
 -4 14 1 5.95 2.21
 -4 14 2 28.72 3.59
 -4 14 3 1.83 2.11
 -3 2 -5 60.56 1.02
 -3 2 -4 1.66 0.31
 -3 2 -3 52.95 1.03
 -3 2 -2 1127.26 4.7
 -3 2 -1 33.55 0.97
 -3 2 0 76.35 1.52
 -3 3 -6 14.58 0.78
 -3 3 -5 223.88 2.63
 -3 3 -4 299.88 3.08
 -3 3 -3 69.2 1.54
 -3 3 -2 57.2 1.42
 -3 3 -1 106.77 1.98
 -3 3 0 852.15 5.61
 -3 3 1 103.97 2.13
 -3 4 -6 31.22 1.29
 -3 4 -5 17.8 1.08
 -3 4 -4 21.85 1.17
 -3 4 -3 3.62 0.73
 -3 4 -2 1.59 0.57
 -3 4 -1 650.89 5.42
 -3 4 0 29.26 1.36
 -3 4 1 631.53 5.7
 -3 4 2 714.81 6.29
 -3 5 -6 43.73 1.74
 -3 5 -5 5.36 0.83
 -3 5 -4 202.62 3.5
 -3 5 -3 255.26 3.89
 -3 5 -1 83.45 2.27
 -3 5 1 0.64 0.64
 -3 5 2 260.77 4.22
 -3 5 3 71.36 2.3
 -3 6 -6 2.24 0.89
 -3 6 -5 26.01 1.59
 -3 6 -4 18.53 1.39
 -3 6 -3 143.11 3.3
 -3 6 -2 31.93 1.81
 -3 6 -1 6.16 1.14
 -3 6 0 12.34 1.45
 -3 6 1 157.59 3.51
 -3 6 2 1.75 0.8
 -3 6 3 4.3 0.95
 -3 7 -6 0.61 0.78
 -3 8 -6 7.04 1.3
 -3 8 -5 2.64 1.22
 -3 8 -4 1.31 0.99
 -3 8 -3 58.77 2.74
 -3 8 -2 17.92 1.76
 -3 8 0 70.48 2.85
 -3 8 1 82.59 3.18
 -3 8 2 130.29 3.91
 -3 8 3 450.45 7.18
 -3 8 4 34.42 2.38
 -3 8 5 30.08 2.28
 -3 9 -6 48.92 2.65
 -3 9 -4 8.49 1.54
 -3 9 -3 18.23 1.93
 -3 9 -2 37.21 2.4
 -3 9 -1 53.87 2.7
 -3 9 0 -0.77 0.97
 -3 9 1 23.09 2
 -3 9 2 46.23 2.79
 -3 9 3 15.73 2.04
 -3 9 4 -0.75 0.92
 -3 9 5 63.24 3.3
 -3 10 -6 9.42 1.84
 -3 10 -4 9.45 1.68
 -3 10 -3 3.27 1.34
 -3 10 -1 50.89 3.06
 -3 10 0 43.07 2.7
 -3 10 1 12.38 1.83
 -3 10 2 34.93 2.71
 -3 10 4 92.55 3.86
 -3 10 5 76.17 3.65
 -3 11 -4 70.95 3.74
 -3 11 -3 166.04 5.25
 -3 11 -2 0.73 1.62
 -3 11 -1 0.45 1.36
 -3 11 0 24.6 2.63
 -3 11 1 68.17 3.69
 -3 11 2 8.09 1.79
 -3 11 3 13.11 2.15
 -3 11 4 6.68 1.9
 -3 11 5 1.77 1.74
 -3 12 -4 76.58 3.87
 -3 12 -3 17.89 2.63
 -3 12 -2 1.45 1.67
 -3 12 -1 234.65 6.59
 -3 12 0 44.79 3.44
 -3 12 1 48.36 3.39
 -3 12 2 2.14 1.82
 -3 12 3 1.09 1.61
 -3 12 4 10.42 2.17
 -3 12 5 33.01 3.04
 -3 13 -5 -1.35 1.74
 -3 13 -4 3.03 2.05
 -3 13 -3 79.49 4.18
 -3 13 -2 10.6 2.12
 -3 13 -1 0.68 2.05
 -3 13 0 15.05 2.6
 -3 13 2 32.35 3.28
 -3 13 3 2.41 1.87
 -3 13 4 -0.31 1.96
 -3 13 5 44.08 3.58
 -3 14 -4 17.39 2.7
 -3 14 -3 5.34 2.39
 -3 14 -2 20.12 3.04
 -3 14 -1 56.72 4.02
 -3 14 0 7.48 2.51
 -3 14 1 -1.11 2.06
 -3 14 2 -0.97 1.66
 -3 14 3 3.93 2.02
 -3 14 4 28.72 3.17
 -3 15 0 69.13 4.42
 -3 15 2 2.23 2.04
 -2 1 -3 685.39 2.95
 -2 1 -2 32.71 0.64
 -2 1 -1 237.31 1.63
 -2 1 0 1868.42 5.22
 -2 2 -4 58.46 1.34
 -2 2 -3 319.93 2.79
 -2 2 -2 625.03 3.73
 -2 2 -1 20.7 0.8
 -2 2 0 99.22 1.6
 -2 2 1 153.63 2.11
 -2 3 -6 27.61 1.27
 -2 3 -5 270.94 3.4
 -2 3 -4 86.64 1.94
 -2 3 -3 26.81 1.06
 -2 3 -2 940.49 5.64
 -2 3 -1 31.85 1.23
 -2 3 0 153.47 2.37
 -2 4 -7 1.59 0.68
 -2 4 -6 178.3 3.24
 -2 4 -5 35.14 1.57
 -2 4 -4 8.38 0.95
 -2 4 -3 51.42 1.71
 -2 4 -2 362.65 4.13
 -2 4 -1 470 4.65
 -2 4 0 1214.31 7.43
 -2 4 1 7.08 0.85
 -2 4 2 154.35 2.95
 -2 4 3 1.68 0.63
 -2 5 -8 0.11 0.74
 -2 5 -7 2.1 0.85
 -2 5 -6 0.96 0.78
 -2 5 -5 30.25 1.63
 -2 5 -4 312.44 4.49
 -2 5 -3 8.53 1.04
 -2 5 -2 18.4 1.3
 -2 5 0 584.42 5.85
 -2 5 1 57.22 2.02
 -2 5 2 33.2 1.55
 -2 5 3 36.41 1.66
 -2 5 4 129.53 3.06
 -2 6 -5 86.1 2.79
 -2 6 -4 19.57 1.56
 -2 6 -3 43.05 2.02
 -2 6 -2 -0.38 0.91
 -2 6 -1 196.61 3.84
 -2 6 1 98.77 2.79
 -2 6 2 31.27 1.8
 -2 7 -7 0.05 0.86
 -2 7 -6 17.14 1.67
 -2 7 5 478.4 6.97
 -2 8 -8 0.55 1.25
 -2 8 -7 27.59 2.19
 -2 8 -4 2.98 1.21
 -2 8 -3 14.83 1.56
 -2 8 -2 8.6 1.48
 -2 8 -1 45.6 2.45
 -2 8 0 79.3 3.01
 -2 8 1 104.03 3.44
 -2 8 2 142.49 3.92
 -2 8 3 87.41 3.2
 -2 8 4 301.49 5.85
 -2 8 5 0.74 1.05
 -2 9 -8 34.32 2.54
 -2 9 -7 108.17 3.92
 -2 9 -6 20.33 2.1
 -2 9 -5 126.64 4.14
 -2 9 -4 18.49 1.92
 -2 9 -3 0.89 1.14
 -2 9 -2 8.24 1.56
 -2 9 -1 0.7 1.25
 -2 9 0 8.7 1.53
 -2 9 1 760.73 9.5
 -2 9 2 10.63 1.7
 -2 9 3 3.23 1.21
 -2 9 4 1.7 1.12
 -2 10 -7 10.09 1.99
 -2 10 -6 46.87 2.9
 -2 10 -5 89.12 3.76
 -2 10 -4 1.62 1.31
 -2 10 -3 25.77 2.42
 -2 10 -2 0.49 1.19
 -2 10 -1 111.16 4.14
 -2 10 0 35.3 2.64
 -2 10 1 32.68 2.39
 -2 10 2 48.52 2.95
 -2 10 4 7.46 1.67
 -2 10 5 27.77 2.42
 -2 11 -7 249.22 6.33
 -2 11 -6 6.68 1.75
 -2 11 -5 1.39 1.46
 -2 11 -4 2.32 1.64
 -2 11 -3 148.7 4.94
 -2 11 -2 16.4 2.36
 -2 11 -1 56.83 3.34
 -2 11 2 0.28 1.25
 -2 11 3 254.79 6.5
 -2 11 4 40.55 2.94
 -2 11 5 0.41 1.59
 -2 12 -7 2.81 1.88
 -2 12 -5 114.96 4.62
 -2 12 -4 4.25 2
 -2 12 -3 0.29 1.86
 -2 12 -2 2.13 1.62
 -2 12 -1 64.72 3.67
 -2 12 0 1.41 1.85
 -2 12 1 3.63 1.73
 -2 12 2 18.51 2.71
 -2 12 3 0.44 1.45
 -2 12 4 4.32 1.77
 -2 12 5 3.33 1.77
 -2 13 -7 1.49 1.87
 -2 13 -6 49.99 3.51
 -2 13 -5 0.11 1.61
 -2 13 -4 9.27 2.3
 -2 13 -3 268.12 7.32
 -2 13 -2 -1.04 1.64
 -2 13 0 -1.26 1.59
 -2 13 1 5.7 2.09
 -2 13 2 156.05 5.9
 -2 13 3 2.43 2.02
 -2 13 4 11.31 2.38
 -2 13 5 20.82 2.98
 -2 14 -5 28.19 3.39
 -2 14 -4 10.11 2.47
 -2 14 -3 2.35 2
 -2 14 -2 126.41 5.6
 -2 14 -1 19.8 2.86
 -2 14 0 9.12 2.34
 -2 14 1 19.02 3.04
 -2 14 2 -0.1 1.88
 -2 14 3 45.44 3.82
 -2 14 4 13.72 2.55
 -2 14 5 26.34 3.33
 -2 15 -1 1.77 2.1
 -2 15 0 0.4 2.15
 -2 15 1 85.29 4.76
 -2 15 2 0.64 2.51
 -2 15 3 0.49 2.37
 -1 -1 -1 16.16 0.48
 -1 1 0 355.82 2.01
 -1 1 1 231.79 1.89
 -1 2 -1 17.2 0.79
 -1 2 0 1248.13 5.19
 -1 2 2 379.68 3.23
 -1 3 -2 1697.27 7.81
 -1 3 -1 175.26 2.56
 -1 3 0 122.38 2.09
 -1 3 2 1218.56 6.67
 -1 3 3 872.59 5.92
 -1 4 -3 359.54 4.38
 -1 4 -2 286.86 3.75
 -1 4 -1 65.17 1.89
 -1 4 0 4.17 0.75
 -1 4 2 42.88 1.62
 -1 5 -5 12.43 1.39
 -1 5 -4 96.72 2.71
 -1 5 -3 89.84 2.48
 -1 5 -2 381.18 4.9
 -1 5 -1 157.31 3.13
 -1 5 0 76.51 2.23
 -1 5 2 21.64 1.3
 -1 5 3 25.93 1.41
 -1 5 4 339.76 4.8
 -1 6 -9 1.14 1.08
 -1 6 -8 14.21 1.6
 -1 6 -5 72.4 2.67
 -1 6 -4 3.64 0.99
 -1 6 -3 61.39 2.31
 -1 6 -2 -0.04 0.69
 -1 6 -1 590.32 6.58
 -1 6 1 13.23 1.21
 -1 6 2 78.05 2.46
 -1 6 3 481.78 6.01
 -1 7 -9 0.65 1.2
 -1 7 -7 15.75 1.96
 -1 7 -6 66.83 2.93
 -1 8 -9 10.24 1.8
 -1 8 -7 35.7 2.48
 -1 8 -6 50.76 2.82
 -1 8 -5 30.67 2.26
 -1 8 -4 115.54 3.74
 -1 8 -3 7.49 1.35
 -1 8 -2 39.26 2.28
 -1 8 2 204.49 4.62
 -1 8 4 42.71 2.32
 -1 8 5 2 1.07
 -1 9 -9 1.44 1.29
 -1 9 -8 7.28 1.79
 -1 9 -7 21.6 2.08
 -1 9 -6 0.91 1.14
 -1 9 -5 8 1.58
 -1 9 -4 2.37 1.19
 -1 9 -3 16.42 1.78
 -1 9 -2 4.67 1.51
 -1 9 -1 118.89 3.92
 -1 9 0 154.88 4.44
 -1 9 2 129.79 4.04
 -1 9 3 1.95 1.15
 -1 9 4 35.64 2.4
 -1 10 -8 25.65 2.62
 -1 10 -7 34.08 2.89
 -1 10 -6 87.5 3.99
 -1 10 -5 2.06 1.43
 -1 10 -4 0.87 1.45
 -1 10 -3 4.03 1.38
 -1 10 -2 118.82 4.31
 -1 10 -1 86.36 3.67
 -1 10 0 87.36 3.72
 -1 10 1 34.92 2.61
 -1 10 3 1.28 1.2
 -1 10 4 11.48 1.79
 -1 10 5 10.24 1.99
 -1 11 -8 13.16 2.19
 -1 11 -7 -1.31 1.33
 -1 11 -6 -1.11 1.37
 -1 11 -5 10.77 2.26
 -1 11 -4 -0.49 1.54
 -1 11 -3 35.61 2.8
 -1 11 -2 30.88 2.73
 -1 11 -1 7.66 1.71
 -1 11 0 1.66 1.31
 -1 11 1 26.14 2.58
 -1 11 2 57.6 3.24
 -1 11 4 16.93 2.23
 -1 11 5 74.08 3.64
 -1 12 -8 4.79 2.01
 -1 12 -7 6.48 2.12
 -1 12 -6 2.82 2.03
 -1 12 -5 121.8 4.9
 -1 12 -4 1.83 1.67
 -1 12 -3 1.12 1.59
 -1 12 -2 -0.05 1.43
 -1 12 -1 14.84 2.44
 -1 12 0 85.92 4.14
 -1 12 1 14.61 2.46
 -1 12 2 9.55 1.98
 -1 12 3 56.91 3.47
 -1 12 4 1.05 1.56
 -1 12 5 68.09 3.84
 -1 13 -7 9.92 2.37
 -1 13 -6 49.17 3.64
 -1 13 -5 7.6 2.24
 -1 13 -2 1.28 1.66
 -1 13 -1 0.83 1.75
 -1 13 0 63.68 4.16
 -1 13 1 2.35 1.98
 -1 13 2 24.14 2.68
 -1 13 3 71.52 4.29
 -1 13 4 -1.4 1.65
 -1 13 5 41.93 3.29
 -1 14 -5 15.8 2.99
 -1 14 -4 0.98 1.89
 -1 14 -3 3.02 2.08
 -1 14 -2 -0.09 1.63
 -1 14 -1 57.85 3.89
 -1 14 0 61.33 4.24
 -1 14 1 3.51 1.96
 -1 14 2 48.89 3.74
 -1 14 3 20.03 3.19
 -1 14 4 7.88 2.43
 -1 15 -2 0.78 1.96
 -1 15 -1 20.02 3.01
 -1 15 0 9.18 2.45
 -1 15 1 38.7 3.91
 -1 15 2 10.6 2.84
 -1 15 3 7.48 2.4
 0 1 1 676.32 2.74
 0 2 0 2076.63 6.61
 0 2 1 2172.62 6.69
 0 2 2 1639.88 6.18
 0 3 0 0.33 0.44
 0 3 1 102.05 1.86
 0 3 2 1046.17 5.88
 0 3 3 198.92 2.8
 0 4 -1 1368.94 8.02
 0 4 0 399.58 4.3
 0 4 2 29.08 1.26
 0 4 3 1.39 0.59
 0 4 4 456.14 4.84
 0 5 -1 1.57 0.74
 0 5 1 2.02 0.69
 0 5 2 6.71 0.91
 0 5 3 405.72 4.9
 0 5 4 37.29 1.66
 0 6 -3 412.71 5.8
 0 6 -2 121.68 3.13
 0 6 -1 120.26 3.06
 0 6 0 197.27 3.84
 0 6 1 122.26 3.02
 0 6 2 123.67 2.99
 0 6 3 411.91 5.43
 0 6 4 11.59 1.31
 0 6 5 488.27 6.23
 0 7 -10 35.33 2.49
 0 7 -9 6.16 1.55
 0 7 -8 4.1 1.4
 0 7 -6 7.43 1.58
 0 7 -1 11.55 1.49
 0 7 0 0.21 0.71
 0 7 1 11.4 1.28
 0 8 -10 0.53 1.35
 0 8 -8 83.56 3.63
 0 8 -7 18.68 2.33
 0 8 -6 2.84 1.26
 0 8 -5 20.51 1.89
 0 8 -4 -0.17 0.98
 0 8 -3 136.33 4.07
 0 8 2 23.55 1.86
 0 8 3 136.33 3.88
 0 8 4 1.82 1.01
 0 8 5 22.44 1.81
 0 9 -10 29.68 2.78
 0 9 -8 36.42 2.79
 0 9 -7 102.34 4.08
 0 9 -6 11.9 1.89
 0 9 -5 30.52 2.53
 0 9 -4 1.42 1.14
 0 9 -3 102.42 3.79
 0 9 -2 6.27 1.39
 0 9 0 0.33 0.9
 0 9 1 8.74 1.51
 0 9 2 6.42 1.51
 0 9 3 99.76 3.56
 0 9 4 2.88 1.18
 0 9 5 30.9 2.42
 0 10 -10 -1.42 1.49
 0 10 -8 14.33 2.19
 0 10 -7 5.46 1.66
 0 10 -6 6.31 1.7
 0 10 -5 20.43 2.48
 0 10 -4 160.3 5.09
 0 10 -3 25.4 2.39
 0 10 -2 15.47 2.06
 0 10 -1 52.63 3.07
 0 10 0 0.35 1.06
 0 10 1 48.9 2.94
 0 10 2 17.59 2.03
 0 10 4 154.96 4.76
 0 10 5 15.95 2.14
 0 10 6 4.64 1.48
 0 11 -9 19.48 2.52
 0 11 -7 3.07 1.66
 0 11 -6 9.41 2.03
 0 11 -5 12.53 2.1
 0 11 -4 10.98 2.07
 0 11 -3 78.88 3.84
 0 11 -2 0.69 1.61
 0 11 -1 6.42 1.75
 0 11 0 0.15 1.23
 0 11 1 9.69 1.94
 0 11 2 1.5 1.3
 0 11 3 78.45 3.77
 0 11 4 11.67 2.01
 0 11 5 14.59 2.17
 0 11 6 11.41 1.96
 0 12 -9 30.07 3.11
 0 12 -8 9.89 2.2
 0 12 -7 -0.12 1.91
 0 12 -5 3.67 2.19
 0 12 -4 33.72 3.12
 0 12 -3 85.82 4.36
 0 12 -2 35.41 3.2
 0 12 -1 3.65 1.75
 0 12 1 1.35 1.49
 0 12 2 29.73 2.71
 0 12 3 89.74 4.33
 0 12 5 2.63 1.61
 0 13 -8 4.73 2.17
 0 13 -7 6.05 2.18
 0 13 -6 12.29 2.66
 0 13 -5 15.14 2.53
 0 13 -4 6.07 2.07
 0 13 -3 8.45 2.14
 0 13 -2 30.61 3.08
 0 13 -1 48.65 3.67
 0 13 1 52.83 3.85
 0 13 2 29.33 2.9
 0 13 4 7.13 2.29
 0 13 5 15.06 2.59
 0 14 -5 -0.05 1.88
 0 14 -4 15.61 2.85
 0 14 -3 -0.55 1.68
 0 14 -2 33.9 3.27
 0 14 -1 8.36 2.32
 0 14 0 -2.24 1.57
 0 14 1 7.41 2.16
 0 14 2 33.99 3.58
 0 14 3 2.26 1.97
 0 14 4 15.59 2.8
 0 14 5 0.47 1.73
 0 15 -3 10.69 2.88
 0 15 -2 -0.46 1.89
 0 15 -1 1.38 2.15
 0 15 0 -0.1 1.87
 0 15 1 -0.35 2.08
 0 15 2 0.82 1.89
 0 15 3 9.64 2.86
 1 2 1 16.67 0.65
 1 2 2 660.34 3.66
 1 3 0 116.2 2.04
 1 3 1 178.53 2.44
 1 3 2 1789.41 7.36
 1 3 3 543.79 4.23
 1 4 0 3.39 0.76
 1 4 1 63.89 1.75
 1 4 2 272.63 3.47
 1 4 3 362.21 4.03
 1 4 4 1017.59 6.76
 1 5 2 388.27 4.71
 1 5 3 91.43 2.37
 1 5 4 96.7 2.43
 1 6 -1 14.1 1.28
 1 6 0 84.73 2.53
 1 6 1 564.07 6.26
 1 6 2 -0.09 0.67
 1 6 3 62.05 2.2
 1 6 4 3.26 0.91
 1 6 5 77.24 2.49
 1 7 1 290.87 5.03
 1 8 -10 15.6 2.24
 1 8 -9 59.7 3.44
 1 8 -8 19.41 2.37
 1 8 -7 14.85 2.05
 1 8 -6 87.28 3.64
 1 8 -5 1.94 1.16
 1 8 -4 42.49 2.55
 1 8 -3 21.34 1.86
 1 8 -2 208.85 4.9
 1 8 3 8.34 1.28
 1 8 4 115.12 3.52
 1 8 5 29.15 1.94
 1 9 -11 0.14 1.39
 1 9 -10 0.72 1.56
 1 9 -9 12.86 2.21
 1 9 -8 57.47 3.51
 1 9 -7 42.72 3.05
 1 9 -6 213.72 5.79
 1 9 -3 1.46 1.19
 1 9 0 165.96 4.53
 1 9 1 117.22 3.78
 1 9 2 4.02 1.39
 1 9 3 17.6 1.96
 1 9 4 1.15 1.1
 1 9 5 9.8 1.67
 1 10 -11 -0.78 1.54
 1 10 -10 35.78 3.25
 1 10 -9 10.69 2.39
 1 10 -8 94.04 4.32
 1 10 -7 6.61 1.85
 1 10 -6 6.27 1.67
 1 10 -5 7.7 1.73
 1 10 -4 12.37 1.95
 1 10 -3 -0.04 1.17
 1 10 -2 0.14 1.1
 1 10 -1 34.69 2.65
 1 10 0 88.55 3.72
 1 10 2 118.46 4.18
 1 10 3 5.44 1.43
 1 10 4 0.39 1.15
 1 10 5 1.24 1.39
 1 11 -10 13.12 2.33
 1 11 -9 5.79 1.94
 1 11 -8 19.66 2.78
 1 11 -7 32.02 3.18
 1 11 -6 156.97 5.49
 1 11 -5 79.06 4
 1 11 -4 22.56 2.79
 1 11 -3 25.56 2.42
 1 11 -2 52.66 3.36
 1 11 -1 26.61 2.59
 1 11 0 2.68 1.64
 1 11 1 5.59 1.67
 1 11 2 35.52 2.87
 1 11 3 40.65 3
 1 11 4 0.69 1.32
 1 11 5 9.31 1.8
 1 12 -9 34.28 3.27
 1 12 -8 14.72 2.78
 1 12 -7 -1.42 1.7
 1 12 -6 2.12 1.71
 1 12 -4 2.75 2.03
 1 12 -2 8.65 1.98
 1 12 -1 11.85 2.08
 1 12 0 83.64 4.14
 1 12 2 1.02 1.83
 1 12 3 0.34 1.48
 1 12 4 0.53 1.81
 1 12 5 117.48 4.59
 1 13 -8 3.53 2.14
 1 13 -7 0.87 2.03
 1 13 -6 7.51 2.24
 1 13 -4 0.69 1.73
 1 13 -2 21.35 2.8
 1 13 -1 2.92 1.83
 1 13 1 -1.53 1.47
 1 13 2 3.09 1.85
 1 13 3 10.36 2.28
 1 13 4 22.44 2.8
 1 13 5 5.79 2.11
 1 14 -5 8.04 2.69
 1 14 -4 9.56 2.41
 1 14 -3 22.28 3.2
 1 14 -2 45.84 3.85
 1 14 -1 1.08 1.85
 1 14 0 58.12 3.95
 1 14 1 57.99 4.15
 1 14 2 2.91 2.03
 1 14 3 4.4 2.28
 1 14 4 0.59 1.79
 1 14 5 14.72 2.43
 1 15 -3 11.82 2.54
 1 15 -2 6.08 2.3
 1 15 -1 43.56 3.96
 1 15 0 4.37 2.22
 1 15 1 17.51 3.02
 1 15 2 4.48 2.13
 2 3 1 31.53 1.17
 2 3 2 937.43 5.2
 2 4 0 1262.58 7.68
 2 4 1 482.3 4.57
 2 4 2 356.36 3.84
 2 4 3 50.34 1.53
 2 4 4 8.95 0.85
 2 5 0 580.51 5.93
 2 5 1 405 4.76
 2 5 2 17.56 1.2
 2 5 3 8.9 0.99
 2 6 -1 98.82 2.91
 2 6 0 30.77 1.79
 2 6 2 -0.11 0.63
 2 6 3 41.03 1.82
 2 6 4 19.93 1.47
 2 6 5 82.39 2.45
 2 8 -12 15.64 2.39
 2 8 -2 140.15 4.1
 2 8 2 6.19 1.36
 2 8 3 16.18 1.54
 2 8 4 4.26 1.14
 2 8 5 39.9 2.16
 2 9 -12 5.43 2.21
 2 9 -11 28.74 3.11
 2 9 -10 52.49 3.7
 2 9 -9 7.33 2.18
 2 9 -8 10.45 2.07
 2 9 -7 -0.83 1.49
 2 9 -6 -0.99 1.44
 2 9 -5 48.66 2.93
 2 9 -4 -0.72 1.01
 2 9 -3 3.38 1.25
 2 9 -1 743.04 9.56
 2 9 0 6.26 1.47
 2 9 1 1.85 1.11
 2 9 2 6.65 1.45
 2 9 3 0.32 0.97
 2 9 5 124.28 3.81
 2 10 -12 9.24 2.19
 2 10 -11 13.36 2.46
 2 10 -10 29.58 3.07
 2 10 -9 18.82 2.62
 2 10 -8 67.38 3.83
 2 10 -6 6.6 1.78
 2 10 -5 29.47 2.81
 2 10 -4 7.84 1.93
 2 10 -3 3.76 1.36
 2 10 -1 34.72 2.58
 2 10 0 37.84 2.76
 2 10 1 105.25 3.96
 2 10 2 1.4 1.23
 2 10 4 2.06 1.25
 2 10 5 88.58 3.54
 2 11 -11 50.77 3.98
 2 11 -10 1.82 1.81
 2 11 -9 8.94 2.57
 2 11 -8 -0.75 1.74
 2 11 -7 -0.94 1.66
 2 11 -6 4.73 2.21
 2 11 -5 1 1.54
 2 11 -4 38.72 3.15
 2 11 -3 253.51 6.63
 2 11 -2 1.16 1.28
 2 11 -1 3.85 1.61
 2 11 0 28.83 2.61
 2 11 1 53.24 3.33
 2 11 3 146.12 4.71
 2 11 4 0.58 1.33
 2 12 -10 0.39 2.25
 2 12 -9 7.96 2.25
 2 12 -7 37.41 3.32
 2 12 -6 8.79 2.33
 2 12 -3 1.74 1.62
 2 12 -1 2.63 1.57
 2 12 0 0.03 1.44
 2 12 1 67 3.64
 2 12 2 0.89 1.49
 2 12 3 0.3 1.37
 2 12 4 4.63 1.89
 2 13 -8 0.26 1.92
 2 13 -7 2.45 1.96
 2 13 -6 5.6 2.18
 2 13 -5 22.51 2.96
 2 13 -4 9.32 2.49
 2 13 -3 0.07 1.76
 2 13 -2 169.48 6.08
 2 13 -1 3.36 1.82
 2 13 0 0.96 1.61
 2 13 1 17.56 2.53
 2 13 2 0.89 1.67
 2 13 4 8.33 2.14
 2 13 5 1.61 1.66
 2 14 -6 0.04 1.96
 2 14 -5 23.72 3.11
 2 14 -4 15.89 2.98
 2 14 -3 38.61 3.72
 2 14 -2 0.76 1.87
 2 14 -1 19.25 3.09
 2 14 0 7.06 2.16
 2 14 1 21.84 3.12
 2 14 3 1.04 1.95
 2 14 4 10.53 2.34
 2 14 5 20.97 2.65
 2 15 -3 1.52 2.1
 2 15 -2 3.71 2.25
 2 15 -1 71.59 4.4
 2 15 0 1.14 1.97
 2 15 1 0.06 2.4
 2 15 2 0.59 2.23
 3 2 2 1118.3 3.94
 3 3 1 105.34 1.89
 3 3 3 71.16 1.35
 3 4 1 641.18 5.32
 3 4 2 2.17 0.61
 3 5 0 3.9 0.84
 3 5 1 79.16 2.19
 3 5 2 7.4 0.91
 3 5 3 257.19 3.58
 3 6 0 12.53 1.38
 3 6 1 6.65 1.01
 3 6 2 29.69 1.55
 3 6 4 18.98 1.28
 3 8 -2 123.63 3.87
 3 8 -1 79.61 3.09
 3 8 0 66.72 2.81
 3 8 1 -0.17 1.02
 3 8 2 16.23 1.56
 3 8 3 56.49 2.52
 3 8 4 0.77 0.97
 3 8 5 3.13 0.87
 3 9 -13 4.19 1.97
 3 9 -5 61.69 3.34
 3 9 -4 1.04 1.39
 3 9 -3 14.03 1.97
 3 9 -2 42.41 2.78
 3 9 -1 21.98 2.02
 3 9 0 0.46 1.02
 3 9 1 52.26 2.69
 3 9 2 37.71 2.27
 3 9 3 13.73 1.75
 3 9 4 9.05 1.56
 3 10 -12 3.3 2.2
 3 10 -11 32.65 3.15
 3 10 -9 26.95 3.24
 3 10 -8 0.93 2.07
 3 10 -7 34.16 2.96
 3 10 -6 108.91 4.66
 3 10 -5 79.62 3.91
 3 10 -4 97.36 4.14
 3 10 -3 187.58 5.47
 3 10 -2 36.77 2.82
 3 10 -1 8.89 1.75
 3 10 0 48.75 3.01
 3 10 1 44.41 2.66
 3 10 2 26.5 2.16
 3 10 3 2.21 1.29
 3 10 4 8.86 1.52
 3 10 5 144.71 4.13
 3 11 -11 1.26 2.32
 3 11 -10 6.88 2.65
 3 11 -9 30.8 3.21
 3 11 -8 4.14 1.99
 3 11 -7 5.86 2.11
 3 11 -6 3.13 1.75
 3 11 -5 -0.2 1.47
 3 11 -4 5.49 2.08
 3 11 -3 16.13 2.24
 3 11 -2 6.19 1.98
 3 11 -1 64.87 3.58
 3 11 0 24.04 2.53
 3 11 1 0.97 1.42
 3 11 2 -0.29 1.26
 3 11 3 161.02 5
 3 11 4 69.49 3.41
 3 11 5 3.56 1.34
 3 12 -10 1.1 1.94
 3 12 -9 12.78 3.03
 3 12 -8 -0.06 2.16
 3 12 -6 1.03 1.77
 3 12 -5 37.95 3.53
 3 12 -4 12.52 2.51
 3 12 -3 1.98 1.67
 3 12 -2 -0.05 1.46
 3 12 -1 44.44 3.34
 3 12 0 47.25 3.2
 3 12 2 0.37 1.59
 3 12 3 15.13 2.3
 3 12 4 84.55 3.95
 3 12 5 74.24 3.47
 3 13 -8 -1.26 1.8
 3 13 -6 22.55 3.29
 3 13 -5 46.14 3.83
 3 13 -4 1.33 1.9
 3 13 -3 4.1 1.99
 3 13 -2 34.08 3.13
 3 13 -1 0.63 1.77
 3 13 0 14.45 2.36
 3 13 1 -1.57 1.55
 3 13 2 8.19 2.07
 3 13 3 79.6 4.15
 3 13 4 1.82 1.65
 3 14 -6 0.73 2.41
 3 14 -5 56.51 4.15
 3 14 -4 23.53 3.3
 3 14 -1 0 1.93
 3 14 0 8.53 2.33
 3 14 1 61.16 4.11
 3 14 2 24.24 2.99
 3 14 3 5.21 1.97
 3 14 4 13.48 2.29
 3 15 -2 3.45 2.17
 4 0 1 0.26 0.16
 4 2 1 76.46 1.33
 4 2 2 1.42 0.2
 4 3 2 62.01 1.28
 4 4 1 33.05 1.34
 4 4 3 196.94 2.46
 4 5 0 0.08 0.79
 4 5 1 387.3 4.71
 4 5 2 11.27 1
 4 5 4 27.28 1.13
 4 6 0 14.02 1.34
 4 6 1 1026.51 8.4
 4 6 2 2.92 0.86
 4 6 3 16.36 1.2
 4 7 4 1.64 0.66
 4 8 -2 136.83 4.19
 4 8 -1 126.05 3.86
 4 8 0 4.92 1.23
 4 8 1 3.82 1.21
 4 8 2 193.74 4.32
 4 8 3 57.49 2.45
 4 8 4 4.87 0.88
 4 9 -4 238.86 6.11
 4 9 -3 60.56 3.11
 4 9 -2 37.82 2.54
 4 9 -1 35.37 2.4
 4 9 0 2.04 1.22
 4 9 1 10.28 1.55
 4 9 3 5.76 1.33
 4 10 -6 7.3 1.91
 4 10 -5 80.62 3.94
 4 10 -2 41.85 2.96
 4 10 -1 10.37 1.76
 4 10 0 30.61 2.35
 4 10 1 5.83 1.45
 4 10 2 87.09 3.54
 4 10 3 0.24 1.02
 4 11 -11 15.84 3.05
 4 11 -10 18.5 3.12
 4 11 -9 29.85 3.58
 4 11 -8 0.31 1.86
 4 11 -7 13.66 2.74
 4 11 -6 53.82 3.79
 4 11 -5 39.12 3.41
 4 11 -4 29.3 2.75
 4 11 -3 2.94 1.55
 4 11 -2 37.11 3.1
 4 11 0 4.89 1.71
 4 11 1 47.52 3.05
 4 11 2 0.01 1.22
 4 11 3 5.12 1.69
 4 12 -10 2.55 2.26
 4 12 -9 0.58 1.94
 4 12 -7 74.76 4.42
 4 12 -6 8.38 2.33
 4 12 -5 73.07 4.26
 4 12 -4 8.17 2.1
 4 12 -3 2.28 1.69
 4 12 -2 2.58 1.83
 4 12 -1 61.16 3.71
 4 12 0 41.62 3.29
 4 12 1 14.55 2.36
 4 12 2 38.92 3.03
 4 12 3 16.45 2.35
 4 13 -8 58.49 4.52
 4 13 -7 18.99 3.26
 4 13 -6 2.19 2.48
 4 13 -5 4.12 2.15
 4 13 -4 3.55 2.13
 4 13 -3 6.73 2.11
 4 13 -2 1.86 1.78
 4 13 -1 71.06 4.24
 4 13 0 -0.02 1.51
 4 13 1 8.45 2.24
 4 13 2 22.55 2.63
 4 13 3 3.01 1.73
 4 14 -5 0.79 2.23
 4 14 -4 1.75 2.18
 4 14 -3 1.08 1.83
 4 14 -2 28.7 3.21
 4 14 -1 3.82 2.03
 4 14 0 5.56 2.08
 4 14 1 5.83 2.27
 4 14 2 4.31 2.15
 4 14 3 -0.38 1.52
 5 2 1 0.54 0.28
 5 3 1 5.98 0.64
 5 4 2 315.16 3.21
 5 4 3 67.59 1.18
 5 5 0 733.86 6.87
 5 5 1 3.6 0.79
 5 5 3 72.79 1.65
 5 6 0 19.19 1.59
 5 6 1 18.89 1.45
 5 6 2 16.35 1.22
 5 8 -2 205.43 5.04
 5 8 -1 0.58 1.14
 5 8 0 7.59 1.51
 5 8 1 1.14 0.93
 5 8 2 40.91 2.14
 5 9 -3 4.53 1.47
 5 9 0 39.33 2.43
 5 9 1 0.41 0.97
 5 9 2 24.36 1.9
 5 10 -5 13.18 2.19
 5 10 -4 9.65 2.16
 5 10 -3 -0.86 1.21
 5 10 -2 1.94 1.33
 5 10 -1 0.16 1.15
 5 10 0 4.61 1.59
 5 10 1 5.42 1.33
 5 10 2 7.36 1.44
 5 11 -11 7.67 2.41
 5 11 -10 2.79 2.27
 5 11 -9 42.49 3.98
 5 11 -8 19.45 2.86
 5 11 -6 -0.31 1.76
 5 11 -5 0.94 1.92
 5 11 -4 80.6 4.14
 5 11 -3 222.64 6.48
 5 11 -2 11.8 2.04
 5 11 0 136.54 4.74
 5 11 1 42.63 2.93
 5 11 2 15.76 2.09
 5 12 -9 1.32 2.09
 5 12 -8 12.16 3.03
 5 12 -7 2.43 2.31
 5 12 -6 2.05 1.87
 5 12 -5 0.53 1.72
 5 12 -4 3.98 2.22
 5 12 -3 6.11 2.25
 5 12 -2 -0.74 1.43
 5 12 -1 63.42 3.89
 5 12 0 5.69 1.76
 5 12 1 8.8 2.03
 5 12 2 2.18 1.39
 5 13 -8 -0.56 2.06
 5 13 -7 7.26 2.39
 5 13 -6 1.81 2.17
 5 13 -5 3.24 2.14
 5 13 -4 29.94 3.68
 5 13 -3 9.59 2.61
 5 13 -2 13.65 2.46
 5 13 -1 1.68 1.73
 5 13 0 2.04 1.87
 5 13 1 2.15 1.8
 5 13 2 47.6 3.31
 5 14 -5 8.83 2.87
 5 14 -4 2.28 2.14
 5 14 -3 6.54 2.61
 5 14 -2 0.4 1.84
 5 14 -1 3.56 2.29
 5 14 0 -0.53 1.59
 5 14 1 -2.47 1.45
 6 2 1 36.58 0.84
 6 3 1 1.48 0.42
 6 4 1 0.85 0.44
 6 5 0 5.62 0.94
 6 6 0 1.08 0.75
 6 6 1 42.17 1.81
 6 7 -1 84.99 3.06
 6 8 -2 -0.7 1.05
 6 8 1 4.63 1.17
 6 9 -2 3.08 1.39
 6 9 -1 4.44 1.46
 6 9 0 55.75 2.87
 6 9 1 29.33 2.03
 6 10 -5 26.85 2.9
 6 10 -4 11.01 2.09
 6 10 -3 97.78 4.25
 6 10 -2 67.18 3.61
 6 10 -1 52.02 3.15
 6 10 0 0.4 1.25
 6 10 1 1.41 1.03
 6 11 -9 1.27 2.01
 6 11 -8 3.53 2.18
 6 11 -7 32.02 3.25
 6 11 -6 2.35 2.07
 6 11 -5 -0.82 1.5
 6 11 -4 -1.28 1.5
 6 11 -3 10.1 2.19
 6 11 -2 4.84 2.06
 6 11 0 21.8 2.34
 6 11 1 7.01 1.59
 6 12 -9 1.92 2.37
 6 12 -8 11.39 2.78
 6 12 -6 6.73 2.33
 6 12 -5 11.47 2.69
 6 12 -4 5.52 2.08
 6 12 -3 1.19 2.1
 6 12 -2 2.34 2.04
 6 12 -1 5.3 1.86
 6 12 0 1.92 1.72
 6 12 1 5.57 1.62
 6 13 -6 6.02 2.37
 6 13 -4 1.89 2.34
 6 13 -3 30.85 3.3
 6 13 -1 1.02 1.64
 6 13 0 34.75 3.01
 6 13 1 41.36 3.16
 6 14 -3 3.94 2.13
 6 14 -2 10.92 2.5
 6 14 -1 6.18 2.28
 7 7 -1 17.33 1.68
 7 7 0 0.91 0.72
 7 8 -2 0.43 1.33
 7 8 -1 -0.39 0.99
 7 8 0 5.22 1.12
 7 9 -2 24.37 2.38
 7 9 -1 35.56 2.54
 7 10 -4 2.57 1.79
 7 10 -3 50.95 3.43
 7 10 -2 15.61 2.36
 7 10 -1 21.16 2.31
 7 11 -8 3.7 2.07
 7 11 -7 3.09 2.36
 7 11 -6 0.12 2.14
 7 11 -5 1.26 1.84
 7 11 -4 2.31 1.78
 7 11 -3 26.19 2.83
 7 11 -2 1.54 1.6
 7 11 -1 17.51 2.23
 7 12 -8 -0.07 1.9
 7 12 -7 -0.58 2.05
 7 12 -6 14.8 2.83
 7 12 -5 24.17 3.16
 7 12 -3 29.2 3.24
 7 12 -2 2.33 1.7
 7 12 -1 11.38 2.05
 7 13 -6 13.47 2.79
 7 13 -5 -0.07 1.81
 7 13 -4 4.22 1.99
 7 13 -3 4.26 2.27
 7 13 -2 15.71 2.45
 7 13 -1 7.67 2.23
 8 7 -2 0.13 0.93
 8 8 -3 45.77 2.87
 8 8 -2 36.28 2.49
 8 9 -4 0.36 1.45
 8 9 -3 -0.65 1.32
 8 9 -1 0.63 0.66
 8 10 -5 79.52 4.37
 8 10 -3 1.02 1.5
 8 10 -2 4.41 1.73
 8 11 -8 6.64 2.5
 8 11 -7 116.42 5.38
 8 11 -6 -0.31 1.71
 8 11 -5 35.19 3.16
 8 11 -4 18.67 2.76
 8 11 -2 8.51 1.96
 8 12 -7 -0.46 2.26
 8 12 -6 -0.87 1.79
 8 12 -5 5.12 2.48
 8 12 -4 4.25 1.91
 8 12 -3 4.57 1.83
 8 12 -2 1.89 1.58
 9 7 -2 -0.04 0.48
 9 9 -4 5.25 1.73
 9 9 -3 3.24 1.46
 9 10 -6 18.52 2.88
 9 10 -4 6.23 1.84
 9 10 -3 1.94 1.35
 9 11 -8 -1.47 1.89
 9 11 -7 0.67 1.81
 9 11 -6 19.86 3.04
 9 11 -5 2.25 2.18
 9 11 -4 0.06 1.68
 9 11 -3 93.95 4.23
 9 12 -4 18.14 2.7
 10 8 -4 26.82 2.37
 10 9 -5 0.2 1.68
 10 9 -4 2.54 1.28
 10 10 -6 -0.96 1.94
 10 10 -5 -0.44 1.55
 10 11 -5 3.49 1.86
 -9 5 9 46.81 1.92
 -9 6 9 35.75 1.85
 -9 6 10 13.21 1.53
 -9 8 10 48.31 2.55
 -9 9 10 0.15 1.31
 -9 9 11 2.95 1.51
 -9 10 10 1.49 1.34
 -8 2 7 4.67 0.57
 -8 2 8 38.36 1.18
 -8 2 9 9.65 0.84
 -8 3 9 10.71 0.95
 -8 4 9 6.16 0.88
 -8 4 10 16.27 1.28
 -8 4 11 19.76 1.49
 -8 5 11 16.95 1.51
 -8 5 12 0.17 1.04
 -8 6 10 7.7 1.25
 -8 6 11 0.78 1.1
 -8 6 12 7.4 1.33
 -8 7 10 -0.4 1.1
 -8 7 11 5.31 1.24
 -8 7 12 1.33 1.07
 -8 7 13 6.28 1.41
 -8 8 10 22.07 2.06
 -8 8 12 2.06 1.22
 -8 8 13 19.13 2.08
 -8 9 10 -0.08 1.14
 -8 9 11 0.66 1.35
 -8 10 10 0.03 1.33
 -8 10 11 1.12 1.34
 -8 11 10 -0.38 1.43
 -7 0 7 0.03 0.21
 -7 0 8 4.54 0.49
 -7 0 9 -0.42 0.39
 -7 0 10 60.43 1.62
 -7 1 6 4.84 0.47
 -7 1 7 53.68 1.15
 -7 1 8 54.73 1.35
 -7 1 9 7.26 0.75
 -7 1 10 3.93 0.71
 -7 1 12 17.57 1.37
 -7 2 7 9.3 0.75
 -7 2 8 3.37 0.59
 -7 2 9 3.09 0.66
 -7 2 11 -0.18 0.62
 -7 2 12 19.82 1.46
 -7 2 13 0.15 0.91
 -7 3 8 41.61 1.56
 -7 3 10 11.2 1.13
 -7 3 11 12.02 1.29
 -7 3 13 4.74 1.11
 -7 4 9 3.08 0.84
 -7 4 10 95.12 2.62
 -7 4 11 12.27 1.35
 -7 4 12 6.5 1.3
 -7 4 13 5.46 1.26
 -7 5 9 1.18 0.78
 -7 5 10 0.16 0.73
 -7 5 12 80.47 2.94
 -7 5 13 9.47 1.51
 -7 5 14 0.08 1.29
 -7 6 9 0.73 0.87
 -7 6 10 0.28 1.06
 -7 6 11 12.92 1.49
 -7 6 12 32.2 2.17
 -7 6 13 7.77 1.5
 -7 6 14 9.5 1.77
 -7 7 9 27.58 1.99
 -7 7 10 58.86 2.73
 -7 7 11 80.61 3.15
 -7 7 12 7.28 1.59
 -7 7 13 0.34 1.24
 -7 7 14 7.9 1.68
 -7 8 10 8.92 1.73
 -7 8 11 -0.71 1.27
 -7 8 12 2.59 1.55
 -7 8 13 11.01 1.82
 -7 9 10 1.64 1.55
 -7 9 11 11.45 1.97
 -7 9 12 1.68 1.36
 -7 10 10 22.29 2.28
 -7 10 11 10.15 1.9
 -7 11 10 0.47 1.39
 -6 -1 8 229.36 2.4
 -6 -1 9 24.66 1.04
 -6 -1 10 14.2 1
 -6 0 5 0.47 0.17
 -6 0 6 204.86 1.75
 -6 0 7 -0.22 0.27
 -6 0 8 0.99 0.42
 -6 0 9 0.34 0.47
 -6 0 10 27.84 1.35
 -6 0 12 28.79 1.62
 -6 0 13 -0.25 0.85
 -6 1 6 62.32 1.28
 -6 1 7 2.77 0.48
 -6 1 9 25.5 1.23
 -6 1 12 73.95 2.48
 -6 1 13 8.97 1.27
 -6 1 14 22.34 1.81
 -6 2 8 0.23 0.47
 -6 2 9 144.08 2.76
 -6 2 11 15.72 1.39
 -6 2 12 33.61 1.89
 -6 2 13 5.26 1.16
 -6 2 14 16.07 1.85
 -6 2 15 56.84 2.76
 -6 3 7 6.13 0.77
 -6 3 10 42.42 1.86
 -6 3 11 1.06 0.98
 -6 3 13 -0.46 0.9
 -6 3 14 11.77 1.74
 -6 3 15 1.27 1.4
 -6 4 9 20.89 1.47
 -6 4 10 198.11 3.87
 -6 4 12 18.53 1.77
 -6 4 14 -0.89 1.34
 -6 4 15 0.82 1.49
 -6 5 9 85.42 2.71
 -6 5 10 17.48 1.54
 -6 5 11 33.58 2.05
 -6 5 12 0.56 1.08
 -6 5 13 44.85 2.54
 -6 5 14 13.05 1.76
 -6 5 15 -0.4 1.21
 -6 6 9 40.87 2.14
 -6 6 10 0.58 0.91
 -6 6 11 -0.93 0.9
 -6 6 12 0.24 1.01
 -6 6 13 32.59 2.46
 -6 6 14 16.83 2.07
 -6 7 9 1.47 1.01
 -6 7 10 3.09 1.34
 -6 7 11 37.98 2.41
 -6 7 13 4.31 1.54
 -6 7 14 2.28 1.68
 -6 8 9 6.58 1.35
 -6 8 11 5.03 1.39
 -6 8 12 53.75 2.95
 -6 8 13 1.87 1.44
 -6 9 9 3.59 1.29
 -6 9 10 4.46 1.42
 -6 9 11 4.45 1.52
 -6 9 12 1.64 1.53
 -6 9 13 1.23 1.47
 -6 10 10 7.28 1.95
 -6 10 11 2.44 1.53
 -6 10 12 3.19 1.84
 -6 11 10 -0.07 1.57
 -6 12 9 0.37 1.83
 -5 -1 6 129.21 1.5
 -5 -1 8 2.15 0.52
 -5 -1 9 43.07 1.5
 -5 -1 11 5.24 1.01
 -5 0 4 40.33 0.64
 -5 0 5 0.56 0.23
 -5 0 6 309.07 2.57
 -5 0 7 -0.06 0.36
 -5 0 8 464.77 4.18
 -5 0 9 -0.43 0.51
 -5 0 11 0 0.76
 -5 0 12 117.97 3.13
 -5 0 13 0.56 1.05
 -5 0 14 1.15 1.1
 -5 1 5 30.15 0.85
 -5 1 6 126.44 1.87
 -5 1 7 140.39 2.19
 -5 1 8 1.44 0.53
 -5 1 11 4.96 1.09
 -5 1 12 182.08 3.97
 -5 1 13 18.4 1.83
 -5 1 14 2.34 1.31
 -5 1 15 8.99 1.64
 -5 2 6 0.64 0.49
 -5 2 7 139.96 2.44
 -5 2 8 1.51 0.58
 -5 2 10 195.82 3.73
 -5 2 11 52.7 2.15
 -5 2 12 26.54 1.84
 -5 2 13 1.58 1.13
 -5 2 14 23.99 2.2
 -5 2 16 0.97 1.29
 -5 3 7 49.42 1.68
 -5 3 10 0.04 0.67
 -5 3 11 13.01 1.53
 -5 3 13 6.55 1.57
 -5 3 14 4.34 1.4
 -5 3 15 2.24 1.41
 -5 4 9 -0.58 0.75
 -5 4 11 0.8 0.85
 -5 4 12 49.13 2.55
 -5 4 13 0.57 1.33
 -5 4 14 1.83 1.44
 -5 4 15 4.59 1.59
 -5 5 8 21.7 1.51
 -5 5 9 9.26 1.31
 -5 5 10 107.54 3.1
 -5 5 11 -0.18 0.83
 -5 5 12 2.07 1.27
 -5 5 13 12.54 1.75
 -5 5 14 -0.44 1.22
 -5 5 15 37.33 2.71
 -5 6 10 0.28 0.93
 -5 6 11 42.92 2.28
 -5 6 12 1.62 1.32
 -5 6 13 77.47 3.39
 -5 6 14 3.17 1.52
 -5 7 9 3.04 1.23
 -5 7 10 18.66 1.98
 -5 7 11 1.95 1.37
 -5 7 12 10.73 1.84
 -5 7 13 11.64 1.99
 -5 7 14 2.31 1.46
 -5 8 9 33.71 2.11
 -5 8 10 7.56 1.51
 -5 8 11 5.33 1.4
 -5 8 12 35.71 2.69
 -5 8 13 4.5 1.62
 -5 9 9 18.7 1.97
 -5 9 10 6.03 1.51
 -5 9 11 9.15 1.88
 -5 9 12 22.97 2.46
 -5 10 9 -0.11 1.22
 -5 10 10 2.21 1.66
 -5 10 11 0.31 1.35
 -5 10 12 29.11 2.82
 -5 11 9 41.84 2.8
 -5 11 10 2.83 1.69
 -5 11 11 3.71 1.91
 -5 12 9 -1.36 1.44
 -4 -1 4 15.59 0.35
 -4 -1 5 795.47 3.46
 -4 -1 6 178.6 2.1
 -4 -1 8 78.54 1.89
 -4 -1 9 44.17 1.62
 -4 -1 11 8.28 1.18
 -4 -1 12 1.49 1.02
 -4 0 4 331.21 2
 -4 0 5 0.25 0.27
 -4 0 6 369.67 3.13
 -4 0 7 0.35 0.4
 -4 0 8 4.15 0.67
 -4 0 9 -0.29 0.52
 -4 0 11 -0.05 0.81
 -4 0 12 21.47 1.72
 -4 0 13 1.28 1.23
 -4 0 14 71 3.18
 -4 1 5 819.13 4.43
 -4 1 6 181.42 2.38
 -4 1 7 117.94 2.19
 -4 1 8 79.67 2.06
 -4 1 10 76.25 2.33
 -4 1 11 9.23 1.24
 -4 1 12 -0.24 0.87
 -4 1 13 5.07 1.33
 -4 1 14 0.91 1.13
 -4 2 6 251.28 3.1
 -4 2 7 0.63 0.54
 -4 2 10 2.4 0.95
 -4 2 11 -0.35 0.87
 -4 2 12 24.31 1.82
 -4 2 13 31.87 2.29
 -4 2 14 3.35 1.57
 -4 2 15 3.75 1.65
 -4 3 7 224.91 3.43
 -4 3 9 183.66 3.54
 -4 3 10 26.9 1.62
 -4 3 11 4.71 1.14
 -4 3 12 55.47 2.63
 -4 3 13 -0.85 0.97
 -4 3 14 4.21 1.61
 -4 3 15 7.76 1.75
 -4 4 9 5.88 1
 -4 4 10 8.75 1.34
 -4 4 11 1.5 1.01
 -4 4 12 18.79 1.87
 -4 4 13 22.77 2.05
 -4 4 14 9.5 1.75
 -4 4 15 4.47 1.79
 -4 5 8 37.28 1.94
 -4 5 9 70.32 2.61
 -4 5 10 100.11 3.12
 -4 5 12 3.75 1.44
 -4 5 13 4.44 1.52
 -4 5 14 3.67 1.63
 -4 5 15 2.06 1.82
 -4 6 8 11.9 1.44
 -4 6 9 21.32 1.86
 -4 6 10 2.41 1.27
 -4 6 11 2.26 1.2
 -4 6 12 13.95 1.86
 -4 6 14 0.27 1.34
 -4 7 8 -0.18 0.85
 -4 7 9 34.94 2.2
 -4 7 10 173.98 4.46
 -4 7 12 -0.67 1.42
 -4 7 13 52.38 3.15
 -4 7 14 4.74 1.67
 -4 8 9 23.91 2.15
 -4 8 10 20.39 2.2
 -4 8 11 4.53 1.44
 -4 8 12 12.91 2.1
 -4 8 13 4 1.58
 -4 9 10 38.3 2.83
 -4 9 11 6.91 1.62
 -4 9 12 26.71 2.69
 -4 10 9 8.63 1.77
 -4 10 10 3.66 1.58
 -4 10 11 38.82 2.95
 -4 10 12 -0.5 1.84
 -4 11 9 30.2 2.7
 -4 11 10 24.3 2.77
 -4 11 11 17.02 2.28
 -4 12 9 0.2 1.75
 -4 13 8 59.56 3.63
 -3 -2 8 0.11 0.57
 -3 -1 6 0.78 0.44
 -3 -1 7 65.15 1.68
 -3 -1 10 0.76 0.86
 -3 -1 11 83.24 2.68
 -3 -1 12 1.8 1.21
 -3 0 3 0.99 0.22
 -3 0 5 0.95 0.33
 -3 0 6 57.11 1.42
 -3 0 7 -0.13 0.5
 -3 0 8 23.98 1.32
 -3 0 10 105.44 2.91
 -3 0 11 0.32 1.02
 -3 0 12 20.96 1.74
 -3 0 13 -0.02 1.05
 -3 1 6 0.71 0.41
 -3 1 7 64.75 1.79
 -3 1 8 135.01 2.78
 -3 1 10 0.99 0.89
 -3 1 11 87.67 2.95
 -3 1 12 2.75 1.35
 -3 1 13 18.63 2.09
 -3 1 14 33.91 2.42
 -3 1 15 3.6 1.65
 -3 2 7 197.85 3.06
 -3 2 9 9.12 1.09
 -3 2 10 2.49 0.93
 -3 2 11 -0.53 0.86
 -3 2 12 2.49 1.29
 -3 2 13 6.21 1.52
 -3 2 14 1.53 1.35
 -3 2 15 0.77 1.38
 -3 3 6 186.51 2.93
 -3 3 7 -0.47 0.56
 -3 3 9 74.49 2.43
 -3 3 10 162.07 3.82
 -3 3 12 17.23 1.92
 -3 3 13 0.08 1.25
 -3 3 14 19.22 2.24
 -3 3 15 3.45 1.76
 -3 4 8 374.91 5.11
 -3 4 9 32.14 1.83
 -3 4 10 66.66 2.58
 -3 4 11 -0.42 1.07
 -3 4 13 1.74 1.3
 -3 4 14 4.08 1.7
 -3 4 15 14.94 2.29
 -3 5 8 7.73 1.22
 -3 5 9 74.48 2.68
 -3 5 10 8.99 1.49
 -3 5 11 -0.96 0.91
 -3 5 12 4.75 1.38
 -3 5 13 3.71 1.41
 -3 5 14 0.68 1.48
 -3 6 8 6.16 1.19
 -3 6 9 1.91 1.04
 -3 6 11 21.03 1.93
 -3 6 12 0.61 1.32
 -3 6 13 -0.56 1.37
 -3 6 14 -0.74 1.37
 -3 7 8 32.09 2.04
 -3 7 9 16.92 1.89
 -3 7 10 10.76 1.59
 -3 7 11 20.49 2.11
 -3 7 12 5.99 1.6
 -3 7 13 1.17 1.45
 -3 8 8 195.82 4.54
 -3 8 11 70.53 3.2
 -3 8 12 6.21 1.82
 -3 8 13 16.79 2.5
 -3 9 8 11.94 1.63
 -3 9 9 58.65 3.06
 -3 9 10 -0.86 1.29
 -3 9 12 -0.84 1.32
 -3 10 10 32.4 2.77
 -3 10 11 32.63 2.57
 -3 11 8 1.34 1.47
 -3 11 9 36.55 2.82
 -3 11 10 8.33 2
 -3 11 11 -0.01 1.81
 -3 12 8 -0.17 1.34
 -3 12 9 15.76 2.53
 -3 13 8 0.77 1.49
 -2 -2 6 0.76 0.5
 -2 -1 4 365.31 2.7
 -2 -1 5 47.49 1.23
 -2 -1 6 6.65 0.68
 -2 -1 9 38.61 1.76
 -2 -1 11 2.57 0.95
 -2 0 3 0.71 0.26
 -2 0 4 962.84 4.39
 -2 0 5 0.33 0.38
 -2 0 6 593.3 4.68
 -2 0 7 0.15 0.48
 -2 0 10 5.71 1.08
 -2 0 11 -0.29 0.81
 -2 0 13 0.3 1.46
 -2 1 4 357.11 2.93
 -2 1 5 47.05 1.24
 -2 1 6 7.66 0.8
 -2 1 7 67.85 1.89
 -2 1 9 36.34 1.72
 -2 1 10 44.23 2.07
 -2 1 12 26.1 2.21
 -2 1 13 1.51 1.23
 -2 1 14 30.51 2.59
 -2 2 5 1541.93 7.41
 -2 2 6 0.12 0.44
 -2 2 7 16.95 1.21
 -2 2 9 144.83 3.32
 -2 2 10 104.18 3.14
 -2 2 11 82.64 3.03
 -2 2 12 51.05 2.74
 -2 2 13 9.38 1.73
 -2 2 14 5.13 1.73
 -2 2 15 6.21 1.91
 -2 3 5 199.01 2.88
 -2 3 8 1.76 0.68
 -2 3 9 5.47 1.14
 -2 3 10 2.55 1.15
 -2 3 11 4.84 1.23
 -2 3 12 16.17 1.98
 -2 3 13 23.44 2.14
 -2 3 14 4.86 1.65
 -2 4 6 17.84 1.24
 -2 4 8 30.4 1.68
 -2 4 9 2.38 0.86
 -2 4 10 67.14 2.8
 -2 4 11 2.02 1.13
 -2 4 12 -0.42 1.08
 -2 4 13 3.42 1.75
 -2 4 14 24.08 2.37
 -2 5 7 62.79 2.21
 -2 5 8 49.23 2.24
 -2 5 9 7.18 1.3
 -2 5 10 9.67 1.45
 -2 5 12 26.37 2.25
 -2 5 13 8.86 2
 -2 5 14 1.87 1.62
 -2 6 7 38.41 1.88
 -2 6 8 17.86 1.65
 -2 6 10 0.06 0.96
 -2 6 11 9.63 1.64
 -2 6 12 20.55 2.33
 -2 6 13 1.41 1.44
 -2 6 14 1.77 1.62
 -2 7 7 52.58 2.27
 -2 7 8 8.29 1.35
 -2 7 9 17.78 1.67
 -2 7 10 0.36 1.22
 -2 7 11 1.43 1.3
 -2 7 12 26.84 2.38
 -2 7 13 2.72 1.54
 -2 8 7 63.83 2.77
 -2 8 8 43.25 2.5
 -2 8 9 50.11 2.84
 -2 8 10 7.97 1.55
 -2 8 11 -1.57 1.12
 -2 8 12 16.51 2.35
 -2 9 8 12.22 1.89
 -2 9 9 7.9 1.64
 -2 9 10 47.24 2.99
 -2 9 11 27.2 2.35
 -2 9 12 5.35 1.76
 -2 10 8 68.7 3.23
 -2 10 9 15.1 2.27
 -2 10 10 30.42 2.43
 -2 10 11 13.95 2.14
 -2 11 8 -0.41 1.27
 -2 11 9 8.62 2.12
 -2 11 10 0.47 1.8
 -2 12 8 7.56 1.99
 -2 12 9 6.76 2.19
 -2 13 7 4.29 1.69
 -2 13 8 -0.23 1.56
 -1 -2 7 52.69 1.9
 -1 -1 2 9993.95 9.87
 -1 -1 3 4555.99 8.81
 -1 -1 4 106.04 1.69
 -1 -1 5 133.92 2.17
 -1 -1 6 61.06 1.69
 -1 -1 7 111.33 2.54
 -1 -1 9 23.91 1.66
 -1 -1 11 57.61 2.77
 -1 0 3 -0.11 0.25
 -1 0 5 -0.08 0.5
 -1 0 6 1.48 0.49
 -1 0 7 0.21 0.55
 -1 0 9 -0.7 0.6
 -1 0 10 3.83 1.05
 -1 0 11 0.17 0.94
 -1 0 12 26.46 2.18
 -1 1 4 104.86 1.76
 -1 1 7 111.7 2.53
 -1 1 10 91.53 3.09
 -1 1 11 61.72 2.74
 -1 1 12 8.2 1.76
 -1 1 13 7.82 1.66
 -1 1 14 2.66 1.92
 -1 2 4 386.72 3.53
 -1 2 5 387.78 3.87
 -1 2 6 35.56 1.47
 -1 2 8 6.16 0.95
 -1 2 9 9.18 1.22
 -1 2 10 1.85 1.09
 -1 2 11 1.94 1.3
 -1 2 12 13.81 1.95
 -1 2 13 24.7 2.41
 -1 2 14 4.9 1.56
 -1 3 5 331.51 3.88
 -1 3 6 402.87 4.55
 -1 3 8 141.68 3.31
 -1 3 11 21.98 1.99
 -1 3 12 95.78 3.75
 -1 3 13 7.36 2.01
 -1 3 14 39.81 3.12
 -1 4 5 51.87 1.72
 -1 4 9 4.25 1.04
 -1 4 10 55.77 2.53
 -1 4 11 28.13 2.3
 -1 4 12 10.4 1.77
 -1 4 14 0.26 1.82
 -1 5 7 102.07 2.82
 -1 5 8 155.26 3.6
 -1 5 9 5.53 1.25
 -1 5 10 26.13 2.19
 -1 5 11 7.77 1.73
 -1 5 12 2.56 1.34
 -1 5 13 2.7 1.88
 -1 6 6 25.32 1.51
 -1 6 7 11.19 1.4
 -1 6 8 48.64 2.27
 -1 6 9 123.64 3.67
 -1 6 10 1.6 1.24
 -1 6 11 8.23 1.74
 -1 6 12 22.97 2.55
 -1 6 13 37.57 2.87
 -1 7 6 22.86 1.55
 -1 7 7 0.66 1
 -1 7 8 0.02 1.08
 -1 7 9 1.17 1.01
 -1 7 10 136.97 4.26
 -1 7 11 -0.16 1.49
 -1 7 13 0.62 1.51
 -1 8 7 14.34 1.55
 -1 8 10 15.48 2.16
 -1 8 11 8.65 1.88
 -1 8 12 16.34 2.37
 -1 9 7 44.09 2.42
 -1 9 8 56.59 3.01
 -1 9 9 13.1 1.81
 -1 9 10 0.11 1.48
 -1 9 11 0.53 1.67
 -1 9 12 6.47 2.12
 -1 10 7 4.33 1.63
 -1 10 9 9 1.94
 -1 10 10 31.44 2.8
 -1 11 7 34.1 2.74
 -1 11 8 22.96 2.3
 -1 11 9 3.25 1.54
 -1 11 10 13.53 2.12
 -1 12 7 -0.83 1.24
 -1 12 8 14.22 2.14
 -1 12 9 32.63 2.88
 -1 13 7 0.42 1.47
 -1 13 8 2.97 1.78
 -1 14 6 2.45 1.63
 0 -1 2 2213.47 5.75
 0 -1 3 2.79 0.47
 0 -1 6 102.44 2.37
 0 -1 8 52.78 2.07
 0 -1 9 3.14 0.92
 0 -1 10 17.41 1.62
 0 0 1 0.04 0.15
 0 0 2 995.22 3.78
 0 0 3 0.64 0.35
 0 0 4 18.29 0.97
 0 0 5 0.34 0.41
 0 0 6 29.81 1.32
 0 0 8 2.59 0.81
 0 0 10 82.12 3.05
 0 0 11 1.38 1.37
 0 0 12 3.74 1.74
 0 1 2 2231.99 6.05
 0 1 3 2.49 0.42
 0 1 4 9.49 0.73
 0 1 8 55.35 2.16
 0 1 9 2.97 0.94
 0 1 10 18.9 1.86
 0 1 11 129.19 3.97
 0 1 12 66.83 3.23
 0 1 13 1.08 1.74
 0 2 4 568.87 4.44
 0 2 6 156.56 2.94
 0 2 8 98.32 2.78
 0 2 9 82.72 2.77
 0 2 10 44.41 2.39
 0 2 11 0.88 1.42
 0 2 12 25.24 2.45
 0 2 13 0.55 1.33
 0 2 14 1.5 1.93
 0 3 4 0.29 0.53
 0 3 7 4 0.8
 0 3 9 19.79 1.69
 0 3 10 -1.32 1.13
 0 3 11 45.46 2.78
 0 3 13 17.98 2.54
 0 3 14 16.22 2.57
 0 4 4 465.41 4.53
 0 4 5 52.13 1.85
 0 4 9 13.04 1.52
 0 4 10 38.52 2.4
 0 4 11 28.45 2.23
 0 4 12 112.12 4.21
 0 5 6 445.44 5.6
 0 5 7 301.95 4.82
 0 5 8 -0.31 0.9
 0 5 9 0.95 1.03
 0 5 12 1.8 1.73
 0 5 13 -0.88 1.43
 0 6 6 142.24 3.38
 0 6 7 16.03 1.38
 0 6 8 110.38 3.37
 0 6 9 0.41 1
 0 6 10 3.03 1.38
 0 6 11 2.27 1.62
 0 6 13 0.37 1.89
 0 7 6 6.18 1.28
 0 7 7 40.77 2.28
 0 7 8 3.7 1.15
 0 7 10 41.28 2.84
 0 7 11 0.71 1.41
 0 7 12 1.08 1.49
 0 8 6 3.67 1.07
 0 8 7 19.8 1.71
 0 8 8 87.13 3.37
 0 8 10 1.84 1.47
 0 8 11 -1.41 1.65
 0 8 12 4.59 1.91
 0 9 6 11.47 1.41
 0 9 8 38.83 2.52
 0 9 9 9.23 1.84
 0 9 10 29.49 2.75
 0 10 6 4.21 1.45
 0 10 7 6.14 1.5
 0 10 8 12.75 2.16
 0 10 9 23.29 2.51
 0 10 10 0.6 1.82
 0 11 6 9.29 1.76
 0 11 7 4.34 1.44
 0 11 8 42.83 2.94
 0 11 9 19.82 2.38
 0 12 6 0.21 1.3
 0 12 7 0.34 1.37
 0 12 8 12.5 2.21
 0 13 7 8.44 1.94
 0 14 5 1.18 1.69
 0 14 6 24.04 2.75
 1 -1 2 916.5 4.45
 1 -1 3 0.67 0.48
 1 -1 4 30.71 1.15
 1 -1 5 342.91 4.03
 1 -1 7 73.01 2.29
 1 -1 8 50.92 2.24
 1 -1 9 1 1.11
 1 0 1 0.36 0.23
 1 0 2 366.66 2.68
 1 0 3 1.01 0.55
 1 0 5 0.17 0.46
 1 0 8 306.61 5.13
 1 0 9 0.07 0.78
 1 0 10 34.71 2.29
 1 1 2 938.93 4.32
 1 1 3 1.02 0.46
 1 1 4 31.15 1.25
 1 1 5 331.4 3.96
 1 1 8 50.5 2.25
 1 1 9 0.17 0.9
 1 1 11 -0.23 1.08
 1 1 12 2.23 1.42
 1 2 4 673.42 5.12
 1 2 5 267.21 3.65
 1 2 7 83.29 2.55
 1 2 8 -0.16 0.66
 1 2 9 462.63 6.72
 1 2 10 32.78 2.32
 1 2 11 27.32 2.22
 1 2 12 3.31 1.66
 1 2 13 0.23 1.36
 1 3 4 576.54 4.93
 1 3 5 10.39 0.91
 1 3 7 7.08 1.05
 1 3 8 92.94 2.99
 1 3 10 47.7 2.65
 1 3 11 21.18 2.34
 1 3 12 24.99 2.34
 1 3 13 26.05 2.65
 1 4 3 365.2 3.82
 1 4 7 232.65 4.39
 1 4 8 0.61 0.84
 1 4 9 12.95 1.69
 1 4 10 15.74 1.77
 1 4 11 6.69 1.55
 1 4 12 21.5 2.25
 1 4 13 3.83 1.68
 1 5 4 98.75 2.41
 1 5 6 0.08 0.58
 1 5 7 63.04 2.48
 1 5 8 1.13 1.11
 1 5 9 36.28 2.36
 1 5 10 25.34 2.25
 1 5 11 0.57 1.28
 1 5 12 30.34 2.77
 1 6 5 73.91 2.43
 1 6 6 36.69 1.83
 1 6 7 -0.04 0.91
 1 6 10 -1.4 1.09
 1 6 11 39.57 2.95
 1 6 12 0.31 1.41
 1 7 5 15.52 1.48
 1 7 6 60.85 2.53
 1 7 7 14.05 1.45
 1 7 8 6.11 1.31
 1 7 9 -0.3 1.11
 1 7 10 14.05 1.92
 1 7 11 2.1 1.68
 1 7 12 58.81 3.37
 1 8 5 29.03 1.86
 1 8 6 56.25 2.65
 1 8 7 36.35 2.22
 1 8 8 11.72 1.73
 1 8 9 12.62 1.96
 1 8 10 10.71 1.85
 1 9 5 9.84 1.46
 1 9 6 0.24 1.16
 1 9 7 19.4 1.89
 1 9 8 5.11 1.43
 1 9 9 3.38 1.48
 1 9 10 1.25 1.5
 1 9 11 21.49 2.77
 1 10 5 2.02 1.17
 1 10 6 90.28 3.5
 1 10 7 35.78 2.47
 1 10 9 139.44 4.61
 1 10 10 26.73 2.58
 1 11 5 8.99 1.73
 1 11 6 2.1 1.53
 1 11 7 -0.67 1.24
 1 11 8 13.62 2.05
 1 11 9 16.13 2.44
 1 12 5 114.09 3.97
 1 12 6 4.4 1.54
 1 12 7 5.63 1.64
 1 12 8 5.63 1.75
 1 13 5 7.08 1.79
 1 13 7 8.91 2.17
 1 14 4 0.17 1.5
 1 14 5 13.62 2.05
 2 -1 3 710.31 5.07
 2 -1 4 90.28 2.08
 2 -1 5 6.7 0.94
 2 -1 7 268.39 4.64
 2 0 1 -0.21 0.33
 2 0 2 2166.97 7.49
 2 0 3 0.92 0.55
 2 0 5 0.71 0.6
 2 0 7 -0.17 0.65
 2 0 8 2 0.88
 2 0 10 0.63 1.14
 2 1 1 243.57 2.09
 2 1 2 33.8 1.04
 2 1 3 674.72 4.81
 2 1 4 88.35 1.99
 2 1 5 6.6 0.95
 2 1 8 27.41 1.88
 2 1 9 38.79 2.41
 2 1 10 4.69 1.49
 2 1 11 5.32 1.7
 2 2 0 100.15 1.16
 2 2 2 609.31 4.05
 2 2 3 328.02 3.44
 2 2 7 8.48 1.28
 2 2 8 46.64 2.27
 2 2 9 0.18 0.95
 2 2 10 -1.5 1.07
 2 3 1 31.66 0.96
 2 3 2 980.33 5.55
 2 3 4 82.96 2.04
 2 3 6 26.54 1.64
 2 3 7 110.54 3.13
 2 3 8 39.99 2.19
 2 3 9 25.83 1.97
 2 3 10 59.77 3.07
 2 3 11 2.66 1.41
 2 3 12 0.1 1.52
 2 4 3 51.83 1.63
 2 4 4 8.97 0.9
 2 4 7 2.2 0.88
 2 4 8 0.17 0.84
 2 4 9 12.45 1.62
 2 4 10 30.98 2.38
 2 4 11 35.62 2.65
 2 4 12 -1.03 1.43
 2 5 5 26.89 1.54
 2 5 6 1.06 0.94
 2 5 7 1.15 0.9
 2 5 8 0.59 0.97
 2 5 9 86.99 3.32
 2 5 10 37.25 2.64
 2 5 12 50.2 3.35
 2 6 5 82.57 2.62
 2 6 6 27.29 1.7
 2 6 7 75.01 2.82
 2 6 8 0.73 1.05
 2 6 9 3.08 1.41
 2 6 10 11.74 2
 2 6 11 3.41 1.57
 2 7 4 0.13 0.69
 2 7 5 5.91 1.06
 2 7 6 16.61 1.69
 2 7 9 60.11 2.98
 2 7 10 4.16 1.88
 2 7 11 51.69 3.2
 2 8 4 3.51 0.93
 2 8 5 47.28 2.25
 2 8 6 47.04 2.44
 2 8 7 28.11 2.18
 2 8 8 1.85 1.54
 2 8 9 75.99 3.55
 2 8 10 54.32 3.26
 2 8 11 17.85 2.46
 2 9 4 18.39 1.64
 2 9 6 21.46 1.95
 2 9 7 105.35 3.71
 2 9 8 34.91 2.56
 2 9 9 21.92 2.31
 2 9 10 17.89 2.46
 2 10 4 2.93 1.16
 2 10 5 98.8 3.51
 2 10 6 45.32 2.71
 2 10 7 9.43 1.89
 2 10 8 16.12 2.16
 2 10 9 6.26 1.72
 2 11 4 2.84 1.23
 2 11 5 -0.37 1.11
 2 11 6 6.33 1.51
 2 11 7 239.04 5.58
 2 11 8 23.08 2.49
 2 12 4 3.31 1.36
 2 12 5 116.88 4.18
 2 12 6 4 1.59
 2 13 4 11.41 1.9
 2 13 5 0.66 1.39
 2 14 3 0.43 1.32
 2 14 4 12.21 2.23
 3 0 2 528.11 4.09
 3 0 3 0.42 0.45
 3 0 4 608.07 5.61
 3 0 6 20.12 1.52
 3 0 7 -0.26 0.69
 3 0 8 55.53 2.51
 3 1 -1 1794.06 3.45
 3 1 0 1117.43 4.04
 3 1 1 12.92 0.69
 3 1 2 18.87 0.9
 3 1 4 12.75 1.05
 3 1 8 66.93 2.71
 3 1 9 4.2 1.43
 3 2 0 75.95 1.15
 3 2 1 35.88 1
 3 2 2 1150.42 6.09
 3 2 3 53.3 1.6
 3 2 4 1.64 0.6
 3 2 6 9.05 1.22
 3 2 7 183.17 4.14
 3 2 8 37.28 2.3
 3 2 9 3.08 1.4
 3 2 10 9.51 1.89
 3 2 11 35.24 2.91
 3 3 1 107.22 1.73
 3 3 2 59.53 1.48
 3 3 3 72.1 1.88
 3 3 4 301.86 4.07
 3 3 6 14.56 1.39
 3 3 7 3.48 1
 3 3 8 8.87 1.41
 3 3 9 47.45 2.8
 3 3 10 0.48 1.25
 3 3 12 1.44 1.8
 3 4 2 1.39 0.49
 3 4 3 4.21 0.68
 3 4 5 18.12 1.4
 3 4 6 33.51 1.85
 3 4 7 45.68 2.32
 3 4 9 -0.29 1.07
 3 5 1 81.2 1.8
 3 5 2 8.52 0.93
 3 5 5 5.91 1.03
 3 5 6 41.85 2.09
 3 5 7 3.89 1.07
 3 5 8 0.54 1
 3 5 9 -0.34 1.07
 3 5 10 1.36 1.37
 3 5 11 6.81 2.04
 3 6 2 30.34 1.42
 3 6 4 17.05 1.37
 3 6 6 0.86 1.09
 3 6 8 5.72 1.44
 3 6 9 146.78 4.53
 3 7 3 194.71 3.76
 3 7 4 349.13 5.17
 3 7 5 3.09 0.92
 3 7 6 0.67 0.93
 3 7 7 18.02 2
 3 7 8 75.04 3.2
 3 7 9 8.7 1.76
 3 7 10 4.1 1.77
 3 8 4 1.64 1.08
 3 8 5 4.05 1.06
 3 8 6 5.34 1.23
 3 8 8 2.64 1.34
 3 8 9 36.43 2.86
 3 9 3 16.65 1.66
 3 9 4 11.56 1.46
 3 9 6 45.12 2.59
 3 9 7 101.54 3.67
 3 9 8 2.54 1.62
 3 9 9 7.12 1.71
 3 10 3 3.6 1.06
 3 10 4 9.71 1.61
 3 10 5 143.6 4.1
 3 10 6 9.67 1.77
 3 10 7 26.76 2.37
 3 10 8 -0.61 1.48
 3 10 9 23.5 2.62
 3 11 3 164.87 4.15
 3 11 4 69.79 3.09
 3 11 6 1.53 1.21
 3 11 7 2.88 1.71
 3 11 8 26.04 2.64
 3 12 3 17.49 2.07
 3 12 4 85.39 3.57
 3 12 5 75.64 3.39
 3 12 6 15.52 1.94
 3 12 7 0.26 1.72
 3 13 2 9.49 1.74
 3 13 3 86.71 3.55
 3 13 4 3.31 1.48
 3 13 5 1.49 1.43
 3 14 2 26.87 2.33
 3 14 3 7.25 1.78
 3 14 4 15.75 2.18
 4 0 3 -0.02 0.49
 4 0 5 -0.3 0.59
 4 0 6 497.88 6.6
 4 1 0 253.94 2.27
 4 1 1 30.8 1
 4 1 2 94.26 1.98
 4 1 3 3.47 0.77
 4 1 5 329.45 4.92
 4 1 6 10.27 1.41
 4 1 7 22.75 1.82
 4 1 8 77.8 3.21
 4 2 -1 116.83 1.19
 4 2 0 303.67 2.49
 4 2 2 2.19 0.51
 4 2 3 50.81 1.69
 4 2 5 42.47 1.9
 4 2 7 18.89 1.83
 4 2 8 0.94 1.04
 4 2 9 2.28 1.26
 4 2 10 68.15 3.59
 4 3 -3 14.76 0.32
 4 3 -2 0.69 0.16
 4 3 0 237.97 2.34
 4 3 1 56.23 1.38
 4 3 3 16.41 1.16
 4 3 5 34.79 1.82
 4 3 6 99.74 3.07
 4 3 7 14.8 1.8
 4 3 8 4.51 1.37
 4 3 9 1 1.39
 4 3 10 2.4 1.63
 4 4 0 2.05 0.39
 4 4 1 35.81 1.17
 4 4 2 1020.28 6.6
 4 4 3 200.27 3.33
 4 4 5 -0.86 0.77
 4 4 6 4.4 1.02
 4 4 7 5.02 1.41
 4 4 8 3.22 1.23
 4 4 9 -0.12 1.19
 4 4 10 1.24 1.64
 4 4 11 23.29 2.71
 4 5 0 0.44 0.39
 4 5 2 11 0.91
 4 5 4 26.89 1.64
 4 5 5 74.29 2.63
 4 5 6 5.58 1.18
 4 5 7 2.39 1.08
 4 5 8 39.5 2.64
 4 5 9 48.26 2.98
 4 5 10 17.98 2.26
 4 6 0 16.42 0.93
 4 6 4 -0.94 0.82
 4 6 5 7.69 1.17
 4 6 6 18.8 1.64
 4 6 8 4.22 1.3
 4 6 9 34.72 2.72
 4 6 10 0.36 1.72
 4 7 3 15.15 1.36
 4 7 4 2.95 1.01
 4 7 5 5.31 1.09
 4 7 7 52.44 2.84
 4 7 8 8.55 1.77
 4 7 9 -0.18 1.61
 4 8 3 60.92 2.24
 4 8 4 5.62 1.05
 4 8 5 91.24 3.1
 4 8 7 53.73 2.92
 4 8 8 12.16 1.85
 4 8 9 2 1.38
 4 9 1 11.75 1.25
 4 9 2 47.44 2.09
 4 9 3 3.95 1.15
 4 9 4 4.76 1.29
 4 9 5 3.05 1.18
 4 9 6 2.18 1.28
 4 9 7 1.32 1.34
 4 9 8 -1.04 1.37
 4 9 9 6.54 1.97
 4 10 1 6.62 1.09
 4 10 2 94.95 3.03
 4 10 3 -0.67 1.1
 4 10 4 16.28 1.85
 4 10 5 3.45 1.25
 4 10 7 9.31 1.76
 4 10 8 101.72 4.1
 4 11 1 47.84 2.23
 4 11 2 0.75 1.04
 4 11 3 2.85 1.19
 4 11 4 8.41 1.44
 4 11 5 -0.76 1.2
 4 11 6 13.16 1.9
 4 11 7 29.56 2.66
 4 12 1 15.26 1.74
 4 12 2 41.58 2.51
 4 12 3 17.77 2.02
 4 12 4 67.5 3.03
 4 12 5 3.42 1.56
 4 13 1 8.51 1.43
 4 13 2 26.34 2.3
 4 13 3 2.12 1.28
 4 13 4 0.68 1.41
 4 14 1 5.58 1.5
 4 14 2 4.23 1.33
 4 14 3 0.83 1.28
 5 1 2 675.75 5.43
 5 1 4 311.94 4.55
 5 1 5 16.09 1.51
 5 2 0 16.35 0.75
 5 2 1 0.82 0.42
 5 2 2 607.76 5.26
 5 2 4 45.69 1.94
 5 2 5 39.61 1.9
 5 2 6 14.56 1.5
 5 2 7 12.55 1.49
 5 3 -2 0.61 0.16
 5 3 -1 346.62 2.44
 5 3 0 223.95 2.46
 5 3 1 4.69 0.65
 5 3 4 2.8 0.8
 5 3 5 8.8 1.2
 5 3 6 23.54 1.9
 5 3 7 16.1 1.65
 5 3 8 79.36 3.35
 5 3 9 19.07 2.3
 5 4 -2 3.11 0.33
 5 4 0 3.9 0.56
 5 4 1 226.86 3.01
 5 4 2 323.83 3.93
 5 4 4 5.01 0.95
 5 4 5 11.96 1.44
 5 4 6 -0.33 0.96
 5 4 9 8.68 1.86
 5 4 10 86.52 3.92
 5 5 -2 140.75 1.75
 5 5 0 728.07 4.91
 5 5 1 5.06 0.71
 5 5 2 57.83 1.85
 5 5 4 15.36 1.38
 5 5 5 34.86 2
 5 5 6 16.01 1.66
 5 5 7 61 2.82
 5 5 8 2.82 1.46
 5 5 9 9.81 2.01
 5 5 10 -0.66 1.38
 5 6 -1 122.27 2.1
 5 6 0 19.62 1.05
 5 6 1 19.99 1.17
 5 6 3 -0.3 0.82
 5 6 4 22.46 1.68
 5 6 5 0.48 0.89
 5 6 6 43.75 2.43
 5 6 7 10.9 1.72
 5 6 8 4.27 1.48
 5 6 9 -1.7 1.31
 5 7 -1 200.67 2.87
 5 7 0 14.57 1.04
 5 7 2 1.77 0.78
 5 7 3 56.59 2.18
 5 7 4 55.92 2.39
 5 7 5 121.71 3.55
 5 7 6 83.18 3.19
 5 7 7 76.34 3.19
 5 7 8 24.77 2.46
 5 7 9 2.25 1.64
 5 8 -1 -0.31 0.44
 5 8 1 1.77 0.72
 5 8 2 38.55 1.77
 5 8 3 8.84 1.3
 5 8 4 0.84 0.9
 5 8 7 35.29 2.41
 5 8 8 -0.2 1.24
 5 9 0 35.76 1.69
 5 9 1 0.82 0.72
 5 9 2 21.45 1.51
 5 9 3 4.95 1.12
 5 9 4 67.57 2.73
 5 9 5 41.01 2.49
 5 9 6 11.11 1.84
 5 9 8 0.03 1.58
 5 10 1 6.48 1.07
 5 10 3 11.89 1.57
 5 10 4 0.8 1.03
 5 10 5 3.31 1.36
 5 10 6 0.37 1.33
 5 10 7 14.27 2.08
 5 11 3 6.05 1.23
 5 11 4 4.1 1.35
 5 11 5 86.94 3.44
 5 11 6 20.19 2.18
 5 12 2 2.77 1.06
 5 12 3 27.7 2.05
 5 12 4 30.71 2.33
 5 12 5 1.12 1.48
 6 2 1 35.91 1.31
 6 2 2 17.22 1.14
 6 2 4 12.31 1.19
 6 2 5 30.02 1.86
 6 3 -1 95.62 1.4
 6 3 1 2.59 0.58
 6 3 2 41.73 1.61
 6 3 4 3.74 0.91
 6 3 5 7.91 1.33
 6 3 6 50.51 2.54
 6 3 7 1.51 1.28
 6 4 -2 370.08 2.11
 6 4 -1 184.77 2.09
 6 4 1 -0.05 0.55
 6 4 3 -0.45 0.64
 6 4 5 23.61 1.87
 6 4 6 13.67 1.7
 6 4 7 3.49 1.41
 6 4 8 24.99 2.17
 6 5 -2 102.89 1.41
 6 5 -1 0.62 0.33
 6 5 0 6.06 0.69
 6 5 1 152.5 2.67
 6 5 4 21.26 1.58
 6 5 5 2.1 1
 6 5 6 -0.24 1.22
 6 5 7 2.29 1.38
 6 5 8 129.81 4.26
 6 5 9 -0.1 1.37
 6 6 -3 58.2 1.05
 6 6 -2 49.49 1.12
 6 6 0 1.02 0.48
 6 6 2 39.4 1.68
 6 6 3 39.11 1.87
 6 6 4 15.4 1.55
 6 6 5 76.46 2.9
 6 6 6 10.72 1.74
 6 6 7 16.15 2.05
 6 6 8 6.2 1.63
 6 7 -3 -0.28 0.22
 6 7 -2 8.85 0.61
 6 7 0 54.44 1.66
 6 7 2 1.26 0.8
 6 7 3 58.75 2.23
 6 7 4 121.24 3.33
 6 7 5 50.18 2.48
 6 7 6 2.08 1.22
 6 7 7 7.08 1.72
 6 7 8 3.37 1.53
 6 8 1 5.82 0.89
 6 8 2 124.45 3.02
 6 8 3 70.96 2.57
 6 8 4 109.06 3.24
 6 8 5 -0.16 1.19
 6 8 6 23.84 2.09
 6 8 7 15.13 2.11
 6 9 2 17.97 1.41
 6 9 3 51.31 2.33
 6 9 4 7.76 1.37
 6 9 5 97.82 3.36
 6 9 6 27.64 2.31
 6 9 7 1.08 1.39
 6 10 0 -0.18 0.3
 6 10 1 0.26 0.38
 6 10 4 23.8 1.87
 6 10 5 3.55 1.2
 6 10 6 3.32 1.51
 7 3 3 26.29 1.59
 7 4 1 3.49 0.64
 7 4 3 98.58 2.69
 7 4 4 3.38 0.96
 7 4 5 33.06 2.1
 7 4 6 35.14 2.36
 7 5 1 331.67 4.05
 7 5 2 63.32 2.05
 7 5 3 -0.15 0.69
 7 5 4 12.83 1.41
 7 5 5 7.4 1.28
 7 5 6 -0.53 1.06
 7 5 7 3.09 1.38
 7 6 3 54.04 2.15
 7 6 4 5.64 1.26
 7 6 5 14.43 1.71
 7 6 6 37.59 2.44
 7 6 7 39.37 2.6
 7 7 3 -0.79 0.47
 7 7 5 0.34 1.15
 7 7 6 5.45 1.5
 7 7 7 24.24 2.3
 7 8 4 -1.03 0.6
 7 8 5 4.04 1.22
 7 8 6 10.79 1.72
 -1 -2 -1 17.16 0.47
 1 -9 -4 34.28 1.32
 1 -8 -4 50.06 1.43
 1 -7 -5 46.99 0.85
 1 -7 -4 11.33 0.74
 1 -6 -4 138.83 1.9
 1 -5 -4 334.31 2.64
 1 -5 -3 27.15 0.94
 1 -4 -4 290.23 2.28
 1 -4 -3 0.41 0.29
 1 -2 -3 736.98 3.63
 1 -2 -2 366.78 2.37
 1 -1 -2 9813.9 12.39
 1 -1 -1 231.6 1.77
 1 0 -1 0.38 0.29
 1 0 0 0.36 0.22
 2 -10 -4 6.8 1
 2 -9 -4 0.23 0.58
 2 -8 -5 0.93 0.47
 2 -8 -4 307.84 4.08
 2 -7 -6 0.56 0.34
 2 -7 -4 198.19 3.09
 2 -6 -6 11.52 0.7
 2 -6 -5 2.49 0.53
 2 -5 -5 725.37 4.96
 2 -5 -3 37.13 1.32
 2 -4 -5 2.11 0.45
 2 -4 -4 312.87 3.26
 2 -4 -3 0.25 0.51
 2 -3 -4 150.83 2.27
 2 -2 -4 328.05 3.4
 2 -2 -3 11.68 0.8
 2 -1 -3 553.71 4.21
 2 -1 -2 943.45 5.05
 2 -1 -1 220.78 2.4
 2 0 -2 132.18 2.03
 2 0 0 247.6 2.41
 2 1 -1 228.08 2.57
 2 1 0 1850.34 6.49
 2 1 1 246.75 2.32
 2 2 0 100.67 1.7
 2 2 3 319.79 2.46
 2 2 4 57.15 1.14
 2 2 7 8.12 0.61
 3 -13 -2 28.59 2.4
 3 -12 -3 1.21 1.01
 3 -11 -4 7.92 1.25
 3 -11 -3 16.61 1.71
 3 -10 -5 77.23 2.49
 3 -9 -4 1.05 0.81
 3 -8 -6 0.33 0.53
 3 -8 -5 28.23 1.47
 3 -8 -4 35.3 1.73
 3 -7 -7 0.92 0.52
 3 -7 -6 123.45 2.61
 3 -7 -5 92.04 2.38
 3 -7 -4 3.92 0.85
 3 -7 -3 72.34 2.36
 3 -6 -6 7.59 0.93
 3 -6 -5 12.82 1.1
 3 -6 -4 246.18 3.76
 3 -6 -3 4.03 0.87
 3 -5 -6 19.71 1.18
 3 -5 -5 219.17 3.38
 3 -5 -3 68.92 2.02
 3 -4 -6 51.1 1.71
 3 -4 -5 29.81 1.35
 3 -4 -4 7.02 0.81
 3 -4 -3 448.76 4.68
 3 -4 -2 699.44 6.06
 3 -3 -5 335.87 4.16
 3 -3 -4 515.82 4.91
 3 -3 -3 5.7 0.8
 3 -3 -2 187.79 2.98
 3 -2 -5 469.35 4.93
 3 -2 -4 83.26 2.11
 3 -2 -3 3062.53 11.41
 3 -1 -4 100.29 2.39
 3 -1 -3 548.75 4.93
 3 -1 -2 102.93 2.11
 3 -1 -1 1859.15 8.44
 3 -1 0 1152.13 6.71
 3 0 -4 239.15 3.63
 3 0 -3 0.99 0.64
 3 0 -2 1317.93 7.35
 3 0 -1 0.34 0.53
 3 0 0 4555.88 12.71
 3 0 1 0.26 0.53
 3 1 -3 545.28 5.27
 3 1 -2 102.64 2.21
 3 1 0 1150.97 6.43
 3 1 1 13.62 0.87
 3 1 2 17.27 0.9
 3 1 4 12.62 0.89
 3 1 5 1.58 0.55
 3 2 -1 64.68 1.8
 3 2 6 9.22 0.72
 3 3 3 70.89 1.46
 3 3 4 303.32 2.74
 3 3 5 216.12 2.16
 4 -15 0 10.06 2.18
 4 -14 -1 4.34 1.67
 4 -13 -3 3.85 1.53
 4 -13 -2 2.49 1.44
 4 -12 -3 2.86 1.36
 4 -12 -2 1.67 1.25
 4 -11 -4 34.39 2.26
 4 -11 -3 4.29 1.27
 4 -10 -5 80.7 2.84
 4 -10 -4 32.19 2.12
 4 -10 -3 22.81 1.99
 4 -9 -6 61.53 2.35
 4 -9 -3 61.38 2.63
 4 -8 -7 39.65 1.82
 4 -8 -6 36.74 1.84
 4 -8 -5 3.65 0.94
 4 -7 -7 45.32 1.92
 4 -7 -6 4.57 0.89
 4 -7 -5 1.63 0.94
 4 -7 -4 116.84 3.09
 4 -6 -7 2.74 0.81
 4 -6 -6 1.96 0.78
 4 -6 -5 18.34 1.42
 4 -6 -3 5.31 1.01
 4 -5 -7 14.82 1.32
 4 -5 -6 1.07 0.8
 4 -5 -5 27.31 1.53
 4 -5 -4 34.04 1.76
 4 -5 -3 22.06 1.55
 4 -5 -2 256.5 4.36
 4 -4 -7 277.41 4.47
 4 -4 -6 134.28 3.14
 4 -4 -5 80.25 2.39
 4 -4 -4 59.85 2.04
 4 -4 -3 0.88 0.73
 4 -4 -2 1.31 0.76
 4 -3 -6 17.77 1.35
 4 -3 -5 476.19 5.61
 4 -3 -4 299.09 4.38
 4 -3 -2 0.36 0.7
 4 -3 -1 949.64 7.66
 4 -2 -6 245.51 4.21
 4 -2 -5 166.61 3.43
 4 -2 -3 1038.02 7.74
 4 -2 -2 2.96 0.75
 4 -2 0 297.65 4.25
 4 -1 -5 813.28 7.47
 4 -1 -4 15.05 1.16
 4 -1 -3 297.91 4.19
 4 -1 -2 907.25 7.03
 4 -1 0 252.12 3.76
 4 -1 1 30.53 1.43
 4 0 -5 -0.13 0.62
 4 0 -4 344.38 4.83
 4 0 -3 0.46 0.64
 4 0 -2 661.25 6.04
 4 0 -1 0.94 0.67
 4 0 0 0.63 0.58
 4 0 1 0.03 0.52
 4 0 2 178.6 3.18
 4 0 3 -0.59 0.55
 4 0 4 1096.89 8.24
 4 0 5 -0.16 0.64
 4 0 6 480.87 5.94
 4 1 -4 15.31 1.3
 4 1 -3 293.98 4.41
 4 1 -2 896.07 7.19
 4 1 -1 37.86 1.58
 4 1 0 251.77 3.6
 4 1 1 30.05 1.42
 4 1 2 90.25 2.18
 4 1 3 2.73 0.72
 4 1 5 310.84 4.25
 4 1 6 9.83 1.02
 4 2 -2 2.05 0.74
 4 2 -1 118.25 2.71
 4 2 0 299.2 4
 4 2 1 77.01 2
 4 2 2 1.94 0.59
 4 2 3 48.93 1.62
 4 3 0 242.87 3.71
 4 3 1 54.99 1.72
 4 3 4 528.38 4.57
 4 3 5 34.95 1.18
 5 -14 -2 0.04 1.55
 5 -14 -1 5.7 1.77
 5 -14 0 -0.64 1.49
 5 -14 1 -0.47 1.59
 5 -13 -3 8.08 1.71
 5 -13 -2 12.14 2.14
 5 -13 -1 1.41 1.55
 5 -12 -4 7.35 1.68
 5 -12 -3 5.95 1.54
 5 -12 -2 -0.32 1.36
 5 -12 -1 63.49 3.69
 5 -11 -5 4.9 1.26
 5 -11 -3 215.44 5.6
 5 -11 -2 13.72 1.95
 5 -10 -6 65.18 2.8
 5 -10 -5 21.45 1.97
 5 -10 -4 10.92 1.72
 5 -10 -3 1.44 1.23
 5 -10 -2 2.61 1.24
 5 -9 -5 65.5 2.87
 5 -9 -4 34.06 2.26
 5 -9 -3 3.15 1.24
 5 -9 -2 9.43 1.74
 5 -8 -5 10.4 1.4
 5 -8 -4 0.18 0.95
 5 -8 -3 24.97 2.07
 5 -8 -2 214.51 5.1
 5 -7 -8 -0.44 0.66
 5 -7 -2 76.26 2.97
 5 -6 -6 83.51 2.86
 5 -5 -7 6.84 1.19
 5 -5 -6 117.63 3.25
 5 -5 -5 143.89 3.58
 5 -5 -4 212.77 4.36
 5 -5 -3 10.76 1.39
 5 -4 -7 210.39 4.42
 5 -4 -6 94.43 2.92
 5 -4 -5 13.63 1.33
 5 -4 -4 15.76 1.51
 5 -4 -1 26.15 1.83
 5 -3 -7 48.52 2.34
 5 -3 -5 3.21 0.9
 5 -3 -3 65.26 2.4
 5 -3 -2 0.52 0.66
 5 -3 -1 345.87 5.27
 5 -2 -7 137.6 3.61
 5 -2 -6 0.22 0.84
 5 -2 -5 99.57 2.95
 5 -2 -4 161.06 3.57
 5 -2 -3 0.3 0.68
 5 -2 -2 19.26 1.39
 5 -2 -1 365.81 5.21
 5 -2 0 15.32 1.4
 5 -2 1 -0.12 0.71
 5 -2 7 10.61 1.58
 5 -1 -6 123.5 3.39
 5 -1 -4 186.2 3.89
 5 -1 -3 74.11 2.4
 5 -1 -2 35.18 1.7
 5 -1 -1 50.89 2.03
 5 -1 0 178.9 3.64
 5 -1 1 118.54 3.06
 5 -1 2 669 7.16
 5 -1 3 2.51 0.9
 5 -1 6 23.94 1.83
 5 -1 7 1.75 0.91
 5 0 -5 -0.08 0.66
 5 0 -3 0.66 0.93
 5 0 -2 115.78 2.93
 5 0 -1 -0.25 0.74
 5 0 0 660.63 6.65
 5 0 1 0.12 0.7
 5 0 2 46.26 1.96
 5 0 3 -0.41 0.71
 5 0 7 -0.1 0.37
 5 1 -3 76.33 2.54
 5 1 0 177.86 3.49
 5 1 1 114.71 2.88
 5 1 2 674.71 6.64
 5 1 3 3.17 0.91
 5 1 4 323.01 4.72
 5 2 -3 0 0.95
 5 2 -2 19.42 1.43
 5 2 -1 376.2 5.24
 5 2 0 15.66 1.36
 5 2 1 0.04 0.64
 5 2 2 598.97 6.16
 5 2 3 342.13 4.66
 5 2 4 47.22 1.82
 5 3 -1 353.49 5.15
 5 3 0 228.75 4.01
 5 3 2 40.74 1.76
 5 3 4 3.22 0.65
 5 4 3 67.98 1.93
 6 -14 -2 11.74 2.39
 6 -14 -1 2.7 1.89
 6 -13 -3 27.95 2.81
 6 -13 -2 9.78 2.33
 6 -13 -1 0.34 1.61
 6 -13 0 37.04 3.27
 6 -13 1 41.59 3.4
 6 -12 -5 9.36 1.84
 6 -12 -4 4.4 1.71
 6 -12 -3 1.49 1.37
 6 -12 -2 0.95 1.43
 6 -12 -1 5.74 1.91
 6 -12 1 2.63 1.99
 6 -11 -6 2.42 1.37
 6 -11 -5 1.19 1.29
 6 -11 -4 0.72 1.33
 6 -11 -3 11.91 2.15
 6 -11 -1 -0.35 1.54
 6 -10 -6 203.85 5.19
 6 -10 -5 29 2.4
 6 -10 -4 12.49 1.83
 6 -10 -2 64.17 3.49
 6 -10 -1 55.11 3.47
 6 -9 -7 16.24 1.95
 6 -9 -6 43.33 2.61
 6 -9 -5 -0.4 1.06
 6 -9 -4 57.37 3.05
 6 -9 -3 30.45 2.57
 6 -9 -2 3.69 1.6
 6 -9 -1 6.17 1.6
 6 -8 -8 27.75 2.1
 6 -8 -6 3.09 1.35
 6 -8 -5 8.46 1.6
 6 -8 -4 137.21 4.19
 6 -8 -2 -0.63 1.1
 6 -7 -9 1.57 1.03
 6 -7 -8 21.45 1.95
 6 -7 -7 13.96 1.72
 6 -7 -6 1.74 1.03
 6 -7 -5 0.18 1.15
 6 -7 -4 137.16 4.09
 6 -7 -3 -0.93 0.91
 6 -7 -1 90.05 3.59
 6 -7 0 53.92 3.02
 6 -6 -9 36.96 2.25
 6 -6 -8 0.77 0.99
 6 -6 -5 35.38 2.26
 6 -6 -4 0.25 0.87
 6 -6 -3 56.41 2.8
 6 -6 -2 52.45 2.73
 6 -6 -1 5.79 1.34
 6 -6 0 0.88 1.07
 6 -6 9 25.72 3.1
 6 -5 -2 94.68 3.36
 6 -5 -1 1.4 0.92
 6 -5 1 154.24 4.52
 6 -5 8 125.12 4.96
 6 -5 9 0.92 1.38
 6 -4 1 0.53 1.02
 6 -4 2 0.44 1.03
 6 -4 6 11.44 1.92
 6 -4 7 3.93 1.71
 6 -3 1 1.99 1.1
 6 -3 2 41.89 2.49
 6 -3 3 17.38 1.88
 6 -3 4 3.67 1.21
 6 -3 5 5.84 1.41
 6 -3 7 -0.05 1.19
 6 -2 -4 7.48 1.2
 6 -2 -3 502.47 6.89
 6 -2 -2 30.23 1.87
 6 -2 2 16.08 1.69
 6 -2 3 7.87 1.34
 6 -2 4 9.96 1.66
 6 -2 7 9.07 1.5
 6 -1 -5 0.64 0.9
 6 -1 -4 396.37 6.17
 6 -1 -2 5.68 1.06
 6 -1 3 21.93 1.7
 6 -1 4 28.18 2.01
 6 -1 5 3.35 1.17
 6 -1 6 9.89 1.5
 6 0 -5 0.6 0.91
 6 0 -4 271.02 5.23
 6 0 -3 0.34 0.89
 6 0 -2 3.45 1.02
 6 0 -1 -0.49 0.93
 6 0 0 54.28 2.39
 6 0 1 0.22 0.79
 6 0 5 -0.04 0.89
 6 1 -4 384.26 6.25
 6 1 -3 773.82 8.59
 6 1 -2 4.3 1.01
 6 1 -1 74.27 2.66
 6 1 0 5.84 1.09
 6 1 1 173.51 3.89
 6 2 -4 4.36 1.3
 6 2 -3 520.62 7.18
 6 2 -2 29.06 1.89
 6 2 -1 548.54 7.01
 6 2 1 36.44 1.96
 6 2 4 10.57 1.29
 6 3 -2 142.28 3.81
 6 3 -1 96.32 3.07
 6 3 0 531.69 6.81
 6 3 1 1.5 0.84
 6 3 2 40.48 1.93
 6 3 3 15.59 1.34
 6 4 1 0.67 0.72
 6 4 2 0.14 0.63
 7 -13 -4 3.03 1.74
 7 -13 -3 6.27 1.94
 7 -13 -2 15.52 2.41
 7 -13 -1 7.89 2.21
 7 -12 -5 25.52 2.5
 7 -12 -4 5.16 1.76
 7 -12 -3 33.96 3.08
 7 -12 -2 3.51 1.95
 7 -12 -1 10.09 2.5
 7 -12 0 4.31 2.08
 7 -12 1 2.02 1.88
 7 -11 -6 -1.22 1.07
 7 -11 -5 2 1.41
 7 -11 -4 -2.24 1.14
 7 -11 -3 29.76 3
 7 -11 -2 2.58 1.74
 7 -11 -1 23.62 3.02
 7 -11 0 11.63 2.43
 7 -11 1 64.16 4.21
 7 -11 2 28.52 3.47
 7 -11 3 9.62 2.32
 7 -10 -7 1.12 1.27
 7 -10 -6 11.16 1.97
 7 -10 -5 218.87 6
 7 -10 -4 -0.59 1.33
 7 -10 -3 54.36 3.37
 7 -10 -1 23.93 2.85
 7 -10 0 2.87 1.97
 7 -10 1 11 2.26
 7 -10 2 27.01 3.06
 7 -10 3 4.42 2.23
 7 -10 4 2.57 1.97
 7 -9 -8 29.37 2.46
 7 -9 -7 14.86 2.08
 7 -9 -6 1.69 1.49
 7 -9 -5 38.87 2.89
 7 -9 -4 1.17 1.36
 7 -9 -2 20.01 2.59
 7 -9 -1 35.49 3.09
 7 -9 0 86.37 4.32
 7 -9 1 8.79 2.13
 7 -9 2 5.39 2.23
 7 -9 3 5.75 2.07
 7 -9 4 5.59 2.03
 7 -9 5 15.52 2.67
 7 -8 -9 8.56 1.73
 7 -8 -8 3.23 1.38
 7 -8 -7 21.01 2.04
 7 -8 -6 49.05 2.85
 7 -8 -5 56.12 3.01
 7 -8 -4 16.47 2.05
 7 -8 -3 2.06 1.44
 7 -8 -2 1.18 1.33
 7 -8 -1 -0.8 1.1
 7 -8 1 38.21 3.1
 7 -8 2 25.03 3.06
 7 -8 3 201.92 6.44
 7 -8 4 1.75 1.7
 7 -8 6 10.01 2.32
 7 -7 -9 28.12 2.35
 7 -7 -7 4.34 1.37
 7 -7 -6 -0.18 1.03
 7 -7 -5 4.24 1.33
 7 -7 -4 2.97 1.26
 7 -7 -3 0.09 1.13
 7 -7 -2 234.27 5.96
 7 -7 -1 17.41 2.27
 7 -7 0 -0.21 1.08
 7 -7 1 103.07 4.33
 7 -7 2 84.04 4.01
 7 -7 3 0.66 1.47
 7 -7 4 12.14 2.34
 7 -7 5 2.29 1.87
 7 -7 6 3.21 1.98
 7 -7 7 26.82 3.28
 7 -6 -9 1.95 1.16
 7 -6 -7 14.97 1.86
 7 -6 -6 4.8 1.39
 7 -6 -5 1.07 1.06
 7 -6 -4 45.78 2.78
 7 -6 -2 18.35 1.95
 7 -6 -1 153.25 4.82
 7 -6 0 37.8 2.58
 7 -6 1 90.25 3.91
 7 -6 2 62.73 3.41
 7 -6 3 53.78 3.48
 7 -6 4 5.1 1.76
 7 -6 5 14.58 2.64
 7 -6 6 38.97 3.35
 7 -6 7 42.17 3.41
 7 -5 -8 -0.53 1.08
 7 -5 -7 18.82 2.07
 7 -5 -6 40.58 2.65
 7 -5 -5 17.93 2
 7 -5 -4 5.11 1.38
 7 -5 -3 0.99 1.1
 7 -5 -2 107.87 3.79
 7 -5 -1 29.42 2.38
 7 -5 0 20.66 1.99
 7 -5 1 334.64 6.97
 7 -5 2 63.88 3.43
 7 -5 3 0.05 1.19
 7 -5 4 14.37 2.32
 7 -5 5 9.14 1.93
 7 -5 6 -0.68 1.34
 7 -5 7 4.96 1.89
 7 -5 8 6.89 1.93
 7 -4 -9 4.28 1.34
 7 -4 -8 64.08 3.25
 7 -4 -6 147.52 4.44
 7 -4 -5 15.89 1.97
 7 -4 -4 12.54 1.8
 7 -4 -3 25.85 2.18
 7 -4 -1 54.59 2.76
 7 -4 0 90.48 3.54
 7 -4 1 3 1.23
 7 -4 2 19.88 2.19
 7 -4 3 105.71 4.06
 7 -4 4 1.94 1.44
 7 -4 7 -0.4 1.51
 7 -4 8 27.1 2.71
 7 -3 -8 41.53 2.74
 7 -3 -7 3.77 1.27
 7 -3 -4 182.4 4.69
 7 -3 -3 241.64 5.32
 7 -3 -2 158.68 4.32
 7 -3 -1 105.12 3.59
 7 -3 0 35.49 2.39
 7 -3 1 3.53 1.2
 7 -3 2 48.97 2.84
 7 -3 3 24.19 2.34
 7 -3 4 2.62 1.5
 7 -3 5 12.8 1.93
 7 -3 6 57.29 3.32
 7 -3 7 2.53 1.51
 7 -2 -2 162.24 4.32
 7 -2 0 44.61 2.48
 7 -2 1 11.37 1.6
 7 -2 2 32.42 2.3
 7 -2 3 2.85 1.24
 7 -2 4 1.13 1.12
 7 -2 5 19.55 2.38
 7 -2 6 43.38 2.86
 7 -2 7 -0.62 0.64
 7 -1 -7 52.96 2.86
 7 -1 0 1.77 1
 7 -1 1 6.11 1.4
 7 -1 2 41.04 2.36
 7 -1 3 2.61 1.12
 7 -1 4 -0.44 1.13
 7 -1 5 50.43 2.72
 7 0 -6 1196.83 12.3
 7 0 1 0.43 1.03
 7 0 2 16.88 1.95
 7 0 3 0.39 1.05
 7 0 4 255.49 5.39
 7 0 5 0.19 0.75
 7 1 -6 4.72 1.33
 7 1 3 2.95 1.18
 7 1 4 0.1 0.87
 8 -13 -4 4.78 1.87
 8 -12 -5 4.1 1.7
 8 -12 -2 0.93 1.68
 8 -12 -1 128.98 5.71
 8 -11 -6 -0.74 1.29
 8 -11 -5 39.5 3.12
 8 -11 -3 10.21 2.14
 8 -11 -2 5.48 1.97
 8 -11 -1 0.44 1.94
 8 -11 0 15.4 2.74
 8 -11 1 6.11 2.36
 8 -10 -7 -0.85 1.51
 8 -10 -5 89.69 4.43
 8 -10 -4 43.08 3.35
 8 -10 -3 1.58 1.9
 8 -10 -2 5.15 2.19
 8 -10 -1 30.05 3.01
 8 -10 0 91.1 4.76
 8 -10 1 2.46 1.93
 8 -10 2 13.33 2.57
 8 -10 3 53.7 4.37
 8 -9 -8 71.45 3.72
 8 -9 -6 65.67 3.75
 8 -9 -5 26.66 2.88
 8 -9 -4 2.02 1.56
 8 -9 -3 -1.66 1.52
 8 -9 -2 13.86 2.47
 8 -9 -1 -0.32 1.51
 8 -9 0 82.95 4.38
 8 -9 1 65.03 4.24
 8 -9 3 3.21 2.12
 8 -9 4 3.47 2.11
 8 -8 -9 31.99 2.64
 8 -8 -8 36.76 2.92
 8 -8 -7 5.89 1.68
 8 -8 -6 1.23 1.4
 8 -8 -5 98.04 4.23
 8 -8 -4 64.18 3.66
 8 -8 -3 47.21 3.15
 8 -8 -2 34.28 2.97
 8 -8 -1 11.79 2.2
 8 -8 0 0.72 1.56
 8 -8 3 2.14 2.03
 8 -8 4 29.48 3.37
 8 -7 -10 -0.68 1.07
 8 -7 -8 35.63 2.85
 8 -7 -6 38.04 2.91
 8 -7 -5 29.01 2.53
 8 -7 -4 71.65 3.75
 8 -7 -3 131.64 4.8
 8 -7 -2 0.4 1.55
 8 -7 -1 7.49 1.7
 8 -7 0 2.38 1.59
 8 -7 2 4.95 2
 8 -7 3 5.26 1.92
 8 -7 4 -0.26 1.55
 8 -7 5 41.97 3.68
 8 -6 -10 9.45 1.75
 8 -6 -9 25.86 2.5
 8 -6 -8 13.3 2.03
 8 -6 -7 5.6 1.53
 8 -6 -6 2.59 1.37
 8 -6 -5 106.56 4.25
 8 -6 -4 5.01 1.52
 8 -6 -3 0.57 1.2
 8 -6 -2 10.15 1.82
 8 -6 -1 330.36 7.36
 8 -6 3 -1.25 1.37
 8 -6 4 28.46 2.94
 8 -6 5 39.4 3.49
 8 -6 6 0.4 1.57
 8 -5 -9 12.18 1.96
 8 -5 -8 15.45 2.24
 8 -5 -7 6.8 1.64
 8 -5 -6 72.24 3.47
 8 -5 -5 0.16 1.14
 8 -5 -4 2.91 1.35
 8 -5 -3 70.81 3.41
 8 -5 -2 147.31 4.83
 8 -5 -1 1.07 1.15
 8 -5 0 -0.99 1.11
 8 -5 1 39.54 2.86
 8 -5 2 3.41 1.54
 8 -5 4 7.77 2.01
 8 -5 5 42.39 3.43
 8 -5 7 78.17 4.18
 8 -4 -9 8.2 1.86
 8 -4 -6 0.41 1.1
 8 -4 -5 1.18 1.36
 8 -4 -4 125.67 4.37
 8 -4 -3 148.93 4.81
 8 -4 -1 77.49 3.6
 8 -4 0 32.05 2.47
 8 -4 1 13.12 2.05
 8 -4 3 0.36 1.31
 8 -4 4 3.76 1.64
 8 -4 6 52.66 3.54
 8 -4 7 31.18 2.94
 8 -3 -9 9.97 1.82
 8 -3 -8 188.24 5.52
 8 -3 -6 1.37 1.21
 8 -3 -4 25.33 2.19
 8 -3 -3 151.01 4.68
 8 -3 0 109.77 4.05
 8 -3 1 11.84 1.94
 8 -3 3 42.96 3.05
 8 -3 4 13.9 2.21
 8 -3 5 57.56 3.46
 8 -3 6 10.9 2.11
 8 -2 -8 39.41 2.8
 8 -2 -7 4.64 1.47
 8 -2 -6 95.55 3.97
 8 -2 -4 5.45 1.42
 8 -2 -3 40.02 2.67
 8 -2 -2 1.77 1.22
 8 -2 -1 17.04 1.99
 8 -2 0 0.59 1.12
 8 -2 1 4.14 1.38
 8 -2 2 39.39 2.77
 8 -2 4 0.73 1.27
 8 -2 5 -1.03 1.08
 8 -2 6 3.17 1.24
 8 -1 -8 211.19 5.82
 8 -1 -7 143.71 4.78
 8 -1 -6 5.03 1.43
 8 -1 -5 7.97 1.62
 8 -1 -4 9.33 1.58
 8 -1 -3 60.19 3.01
 8 -1 -2 0.48 1.11
 8 -1 -1 133.34 4.39
 8 -1 0 1.15 1.16
 8 -1 1 56.09 3.09
 8 -1 2 108.47 3.96
 8 -1 4 60.06 3.24
 8 -1 5 6.55 1.66
 8 0 -7 -0.74 1.24
 8 0 -5 0.44 1.28
 8 0 -3 0.18 1.02
 8 0 -2 9.12 1.56
 8 0 -1 -0.02 1.05
 8 0 0 109.79 3.97
 8 0 1 -0.09 1.22
 8 0 2 0.05 1.21
 8 0 3 0.38 1.06
 8 0 4 207.75 5.3
 8 0 5 -0.18 0.47
 8 1 -5 7.87 1.62
 8 1 -4 9.65 1.69
 8 1 -3 62.46 3.12
 8 1 -2 0.31 1.27
 8 1 -1 134.43 4.28
 8 1 0 -1.05 1.05
 8 1 1 50.4 2.81
 8 1 2 102.08 3.73
 8 1 3 6.73 1.52
 8 2 -5 2.56 1.36
 8 2 -4 4.88 1.61
 8 2 -2 0.76 1.15
 8 2 -1 15.65 1.92
 8 2 0 0.65 1.08
 8 2 1 2.75 1.21
 8 2 2 39.11 2.38
 8 3 -3 162.64 4.88
 8 3 -2 3.34 1.33
 8 3 -1 28.99 2.39
 8 3 1 10.67 1.64
 8 3 2 29.77 2.07
 8 4 0 34.41 2.3
 8 4 1 14.95 1.72
 9 -12 -6 21.43 2.76
 9 -12 -5 35.77 3.5
 9 -12 -4 20.24 3.16
 9 -11 -7 0.26 1.47
 9 -11 -6 17.63 2.5
 9 -11 -5 2.32 2.01
 9 -11 -4 -1.99 1.69
 9 -11 -2 38.69 3.5
 9 -11 -1 1.98 1.96
 9 -10 -8 1.67 1.66
 9 -10 -7 4.51 2.06
 9 -10 -6 29.3 3.16
 9 -10 -5 13.25 2.41
 9 -10 -4 9.65 2.26
 9 -10 -3 1.12 1.67
 9 -10 -2 63.26 4.31
 9 -10 -1 7.26 2.35
 9 -10 0 40.46 3.85
 9 -10 1 -0.45 2.15
 9 -9 -9 15.68 2.34
 9 -9 -8 6.03 1.95
 9 -9 -7 121.22 5.11
 9 -9 -6 4.33 2.1
 9 -9 -5 12.5 2.3
 9 -9 -4 5.78 1.97
 9 -9 -3 1.64 1.67
 9 -9 -2 38.49 3.47
 9 -9 -1 2.38 1.84
 9 -9 0 10.07 2.54
 9 -9 1 33.98 3.64
 9 -9 2 22.19 3.06
 9 -8 -9 81.99 4.12
 9 -8 -8 40.13 3.27
 9 -8 -7 0.18 1.49
 9 -8 -5 36.36 3.3
 9 -8 -4 12.25 2.28
 9 -8 -3 22.62 2.9
 9 -8 -1 6.6 2.29
 9 -8 0 1.96 1.67
 9 -8 1 11.18 2.38
 9 -8 2 8.24 2.28
 9 -8 3 50.71 3.84
 9 -7 -10 20.17 2.58
 9 -7 -9 29.42 2.87
 9 -7 -8 16.66 2.59
 9 -7 -7 0.24 1.47
 9 -7 -6 61.82 3.66
 9 -7 -5 17.13 2.8
 9 -7 -4 33.28 3.2
 9 -7 -3 4.59 1.85
 9 -7 -1 21.06 2.8
 9 -7 0 63.19 3.99
 9 -7 2 18.74 2.72
 9 -7 3 12.68 2.76
 9 -7 4 8.43 2.3
 9 -6 -10 11.72 2.04
 9 -6 -9 36.15 3.04
 9 -6 -8 3.18 1.58
 9 -6 -7 -1.74 1.45
 9 -6 -6 0.73 1.54
 9 -6 -5 208.36 6.18
 9 -6 -3 43.25 3.38
 9 -6 -2 12.13 2.08
 9 -6 -1 6.59 2.11
 9 -6 0 1.79 1.61
 9 -6 1 61.28 4.02
 9 -6 2 3.09 1.79
 9 -6 3 2.5 1.81
 9 -6 4 24.92 3.08
 9 -6 5 80.96 4.58
 9 -5 -10 31.21 2.99
 9 -5 -9 48.95 3.35
 9 -5 -8 2.11 1.52
 9 -5 -6 35.73 3.05
 9 -5 -5 13.28 2.16
 9 -5 -4 1.37 1.4
 9 -5 -3 58.09 3.49
 9 -5 -2 25.41 2.68
 9 -5 -1 2.1 1.49
 9 -5 0 22.54 2.79
 9 -5 1 7.54 2.08
 9 -5 2 42.12 3.53
 9 -5 3 20.95 2.87
 9 -5 4 88.5 4.63
 9 -5 5 1.4 1.89
 9 -4 -9 0.38 1.39
 9 -4 -7 24 2.62
 9 -4 -6 9.65 1.9
 9 -4 -5 17.68 2.43
 9 -4 -4 28.16 2.76
 9 -4 -3 86.12 3.98
 9 -4 -2 1.31 1.27
 9 -4 -1 1.11 1.45
 9 -4 0 59.08 3.48
 9 -4 1 83.29 4.24
 9 -4 2 6.13 1.79
 9 -4 3 56.72 3.78
 9 -4 4 35.36 3.13
 9 -4 5 1.72 1.62
 9 -4 6 12.45 2.32
 9 -3 -9 39.59 3.26
 9 -3 -8 1.76 1.49
 9 -3 -7 14.62 2.38
 9 -3 -6 2.7 1.47
 9 -3 -5 33.95 2.77
 9 -3 -4 8.29 1.81
 9 -3 -3 0.16 1.14
 9 -3 -2 51.26 3.14
 9 -3 -1 42 3.09
 9 -3 1 39.14 3.08
 9 -3 2 0.04 1.67
 9 -3 3 41.18 3.28
 9 -3 4 47.62 3.41
 9 -3 5 0.09 1.64
 9 -3 6 15.6 2.38
 9 -2 -8 -0.91 1.26
 9 -2 -6 76.09 3.76
 9 -2 -4 26.76 2.36
 9 -2 -3 98.96 4.15
 9 -2 -2 24.97 2.5
 9 -2 0 47.77 3.07
 9 -2 1 0.36 1.34
 9 -2 2 -0.37 1.28
 9 -2 3 12.56 2.11
 9 -1 -8 63.75 3.8
 9 -1 -7 -0.59 1.38
 9 -1 -6 252.42 6.6
 9 -1 -5 3.42 1.58
 9 -1 -4 0.47 1.27
 9 -1 -3 33.53 2.74
 9 -1 -2 5.31 1.66
 9 -1 -1 3.26 1.4
 9 -1 0 1.84 1.3
 9 -1 2 104.35 4.28
 9 -1 3 3.96 1.51
 9 -1 4 27.94 2.67
 9 -1 5 0.71 0.89
 9 0 -7 -0.05 1.34
 9 0 -4 428.17 8.4
 9 0 -3 2.02 1.27
 9 0 -2 49.89 2.99
 9 0 -1 0.91 1.23
 9 0 0 7.76 1.7
 9 0 1 -0.63 1.18
 9 1 -6 263.9 6.9
 9 1 -5 3.66 1.46
 9 1 -2 5.75 1.72
 9 1 -1 2.17 1.33
 9 1 0 1.12 1.46
 9 1 1 157.52 4.98
 9 1 2 102.67 4.04
 9 1 3 5.12 1.38
 9 2 -4 26.12 2.63
 9 2 -3 95.55 4.18
 9 2 -2 29.55 2.53
 9 2 -1 61.86 3.34
 9 2 0 47.2 3.03
 9 2 1 0.92 1.26
 9 2 2 0.91 1.3
 9 3 -3 1.5 1.43
 9 3 -2 48.33 3.09
 9 3 -1 39.59 2.84
 9 3 0 93 3.89
 9 3 1 37.45 2.49
 9 3 2 -0.43 0.48
 10 -11 -7 8.75 2.57
 10 -11 -6 5.22 2.06
 10 -10 -8 0.49 1.63
 10 -10 -7 3.38 1.85
 10 -10 -6 -1.28 1.85
 10 -10 -5 1.45 1.93
 10 -10 -4 14.98 2.85
 10 -10 -3 6.68 2.31
 10 -10 -2 60.41 4.52
 10 -9 -9 2.57 1.79
 10 -9 -8 1.69 1.73
 10 -9 -7 0.39 1.58
 10 -9 -6 5.69 2.23
 10 -9 -5 -1 1.51
 10 -9 -4 1.22 2.04
 10 -9 -3 -2.14 1.72
 10 -9 -2 1.16 2.04
 10 -9 -1 42.04 3.93
 10 -9 0 35.4 3.97
 10 -8 -10 2.75 1.75
 10 -8 -9 35.31 3.13
 10 -8 -8 83.61 4.65
 10 -8 -7 7.25 2.25
 10 -8 -6 5.51 1.98
 10 -8 -5 17.71 2.75
 10 -8 -4 26.94 3.14
 10 -8 -2 -2.05 1.62
 10 -8 -1 0.84 1.85
 10 -8 0 1.08 2.02
 10 -8 1 6.19 2.4
 10 -7 -10 5.9 2.05
 10 -7 -9 1.19 1.77
 10 -7 -8 3.74 1.9
 10 -7 -7 85.14 4.63
 10 -7 -6 15.83 2.55
 10 -7 -5 29.69 3.06
 10 -7 -4 -1.29 1.5
 10 -7 -3 2.02 1.75
 10 -7 -2 31.87 3.55
 10 -7 -1 0.8 1.7
 10 -7 0 1.09 1.97
 10 -7 1 1.66 2.28
 10 -7 2 112.53 5.35
 10 -6 -10 8.69 2.28
 10 -6 -9 18.6 2.71
 10 -6 -8 17.63 2.89
 10 -6 -7 55.03 3.88
 10 -6 -6 -0.73 1.52
 10 -6 -5 8.48 2.28
 10 -6 -4 15.29 2.52
 10 -6 -3 29.34 3.16
 10 -6 -2 25.01 3
 10 -6 -1 5.46 1.91
 10 -6 0 19.35 2.92
 10 -6 1 44.99 3.8
 10 -6 2 1.31 1.87
 10 -6 3 0.26 1.87
 10 -5 -9 3.17 2.02
 10 -5 -8 42.46 3.56
 10 -5 -7 66.5 4.2
 10 -5 -6 23.5 2.79
 10 -5 -5 164.13 5.92
 10 -5 -4 15.67 2.41
 10 -5 -3 6.47 1.94
 10 -5 -2 78.31 4.47
 10 -5 -1 44.59 3.57
 10 -5 0 13.7 2.54
 10 -5 1 6.08 2.29
 10 -5 2 1.35 1.75
 10 -5 3 2.45 1.87
 10 -5 4 -0.6 2.05
 10 -4 -10 -0.55 1.49
 10 -4 -9 9.55 2.35
 10 -4 -8 15.53 2.6
 10 -4 -6 0.53 1.56
 10 -4 -4 1.73 1.47
 10 -4 -3 1.89 1.68
 10 -4 -2 39.08 3.17
 10 -4 -1 4.08 1.75
 10 -4 0 48.05 3.7
 10 -4 1 8.66 2.4
 10 -4 2 100.37 4.83
 10 -4 3 42.51 3.59
 10 -4 4 114.6 5.17
 10 -3 -9 -1.31 1.49
 10 -3 -8 5.96 1.88
 10 -3 -7 1.98 1.62
 10 -3 -6 2.87 1.56
 10 -3 -5 22.26 2.58
 10 -3 -3 19.4 2.53
 10 -3 -2 289.75 7.55
 10 -3 0 11.12 2.17
 10 -3 2 3.31 1.69
 10 -3 3 56.56 3.72
 10 -3 4 18.28 2.74
 10 -3 5 0.19 1.49
 10 -2 -9 50.98 3.86
 10 -2 -8 84.54 4.57
 10 -2 -7 7.31 1.93
 10 -2 -5 2.76 1.56
 10 -2 -4 158.81 5.58
 10 -2 -3 8.89 1.9
 10 -2 -1 87.9 4.25
 10 -2 0 41.26 3.47
 10 -2 1 155.67 5.71
 10 -2 2 6.06 1.92
 10 -2 4 6.31 1.75
 10 -1 -8 70.18 4.06
 10 -1 -6 177.66 6.14
 10 -1 -5 34.65 2.95
 10 -1 -4 54.56 3.55
 10 -1 -3 12.39 2.14
 10 -1 -1 7.54 1.95
 10 -1 1 26.7 2.94
 10 -1 2 29.32 2.83
 10 -1 3 1.4 1.62
 10 -1 4 6.19 1.71
 10 0 -7 -0.32 1.39
 10 0 -4 30.47 2.8
 10 0 -2 32.22 2.79
 10 0 -1 1.55 1.39
 10 0 0 138.8 5.16
 10 0 1 -0.45 1.33
 10 0 3 1.41 1.32
 10 1 -5 30.33 2.99
 10 1 -4 55.12 3.72
 10 1 -2 96.87 4.51
 10 1 -1 8.95 1.88
 10 1 0 4.98 1.64
 10 1 1 24.03 2.68
 10 1 2 26.6 2.62
 10 2 -5 5.64 1.81
 10 2 -4 152.55 5.54
 10 2 -3 7.28 1.92
 10 2 -2 29.41 2.67
 10 2 -1 89.86 4.27
 10 2 0 42.76 3.22
 10 2 1 143.45 5.03
 10 3 -3 22.44 2.75
 10 3 -1 23.89 2.71
 10 3 0 10.69 1.82
 10 3 1 0 0.91
 11 -9 -9 5.93 2.25
 11 -9 -8 4.48 2.15
 11 -9 -7 13.11 2.55
 11 -9 -6 20.26 3.1
 11 -9 -5 69.84 4.69
 11 -9 -4 58.66 4.35
 11 -9 -3 2.23 2.24
 11 -8 -10 4.78 2.02
 11 -8 -9 0.87 2.08
 11 -8 -8 59.12 4.36
 11 -8 -6 12.78 2.92
 11 -8 -5 -0.03 1.83
 11 -8 -4 48.58 4.18
 11 -8 -3 30.37 3.64
 11 -8 -2 0.61 1.86
 11 -8 -1 1.66 2.28
 11 -7 -10 83.12 4.8
 11 -7 -9 0.98 1.95
 11 -7 -8 9.97 2.53
 11 -7 -7 71.87 4.56
 11 -7 -5 15.07 2.76
 11 -7 -4 2.34 1.92
 11 -7 -3 1.14 1.91
 11 -7 -2 -1.72 1.64
 11 -7 -1 4.22 2.22
 11 -7 0 6.27 2.42
 11 -6 -9 12.49 2.66
 11 -6 -8 75.98 4.74
 11 -6 -7 1.61 2.01
 11 -6 -6 1.83 2.2
 11 -6 -5 37.15 3.65
 11 -6 -4 6.46 2.37
 11 -6 -3 21.82 3.04
 11 -6 -2 2.47 2.07
 11 -6 -1 17.48 3.11
 11 -6 1 10.57 2.68
 11 -5 -10 1.41 1.82
 11 -5 -9 0.93 1.84
 11 -5 -8 17.06 2.8
 11 -5 -7 -0.82 1.66
 11 -5 -6 -0.3 1.79
 11 -5 -5 1.21 1.77
 11 -5 -4 0.47 1.81
 11 -5 -3 0.17 1.9
 11 -5 -2 31 3.66
 11 -5 -1 17.97 2.79
 11 -5 0 1.78 1.91
 11 -5 1 7.83 2.5
 11 -5 2 106.32 5.46
 11 -4 -10 11.17 2.67
 11 -4 -9 1.17 2.03
 11 -4 -8 1.93 1.81
 11 -4 -7 17.27 2.67
 11 -4 -6 4.12 2.11
 11 -4 -5 0.26 1.67
 11 -4 -3 32.73 3.45
 11 -4 -2 8.77 2.34
 11 -4 -1 6.9 2.13
 11 -4 0 2.03 1.84
 11 -4 1 9.92 2.69
 11 -4 2 1.45 2.07
 11 -3 -9 0.75 1.76
 11 -3 -8 2.91 2.24
 11 -3 -7 36.57 3.71
 11 -3 -6 75.23 4.54
 11 -3 -5 0.1 1.85
 11 -3 -4 4.97 1.94
 11 -3 -3 9.85 2.34
 11 -3 -2 67.23 4.38
 11 -3 0 100.53 5.05
 11 -3 1 74.31 4.48
 11 -3 2 27.65 3.13
 11 -3 3 -0.8 1.92
 11 -2 -8 1.06 1.77
 11 -2 -6 35.22 3.55
 11 -2 -5 2.84 1.93
 11 -2 -3 43.34 3.67
 11 -2 -2 5.83 2.05
 11 -2 -1 76.6 4.34
 11 -2 0 72.12 4.26
 11 -2 1 38.21 3.53
 11 -2 2 1.3 1.72
 11 -2 3 0.74 1.59
 11 -1 -8 0.27 1.62
 11 -1 -7 4.54 1.98
 11 -1 -6 28.33 3.02
 11 -1 -5 9.83 2.26
 11 -1 -4 1.93 1.7
 11 -1 -3 14.28 2.44
 11 -1 -2 11.36 2.31
 11 -1 -1 133.05 5.61
 11 -1 0 0.77 1.94
 11 -1 1 1.43 1.6
 11 -1 2 74.7 4.25
 11 -1 3 46.37 3.41
 11 0 -7 -1.78 1.45
 11 0 -6 39.77 3.65
 11 0 -5 1.22 2.01
 11 0 -4 16.73 2.62
 11 0 -3 0.59 1.77
 11 0 -2 62.36 3.92
 11 0 -1 -0.45 1.94
 11 0 0 95.41 4.72
 11 0 1 -1.23 1.44
 11 0 2 -0.72 1.5
 11 1 -6 28.31 3.35
 11 1 -5 5.63 2.22
 11 1 -4 0.39 1.6
 11 1 -3 12.37 2.3
 11 1 -2 11.73 2.43
 11 1 -1 131.97 5.39
 11 1 0 0.22 1.81
 11 1 1 0.53 1.6
 11 2 -5 1.37 1.66
 11 2 -4 68.25 4.21
 11 2 -2 5.97 2.08
 11 2 -1 74.68 4.24
 11 2 0 68.72 3.91
 11 2 1 36.09 2.78
 11 3 -2 61.51 3.89
 12 -7 -9 44.84 4.2
 12 -7 -8 -1.85 1.78
 12 -7 -7 35.42 4.19
 12 -7 -6 10.17 2.57
 12 -7 -5 -0.9 1.81
 12 -7 -4 3.12 2.54
 12 -7 -3 1.11 2.47
 12 -6 -10 3.03 2.16
 12 -6 -9 37.3 4
 12 -6 -8 23.22 3.45
 12 -6 -7 6.82 2.64
 12 -6 -6 1.72 1.98
 12 -6 -5 1.36 2.05
 12 -6 -4 6.88 2.42
 12 -6 -3 40.62 4.01
 12 -6 -2 29.62 3.67
 12 -5 -10 16.88 2.87
 12 -5 -9 11.94 2.7
 12 -5 -8 9.57 2.77
 12 -5 -7 35.19 3.61
 12 -5 -6 146.35 6.5
 12 -5 -5 8.05 2.47
 12 -5 -4 17.81 3.16
 12 -5 -3 0.54 2.09
 12 -5 -2 2.07 2.06
 12 -5 -1 0.5 2.38
 12 -4 -10 14.29 2.75
 12 -4 -9 2.49 2.3
 12 -4 -6 13.43 2.96
 12 -4 -5 10.86 2.57
 12 -4 -4 18.54 3.1
 12 -4 -3 31.52 3.84
 12 -4 -2 12.68 2.69
 12 -4 -1 9.47 2.79
 12 -4 0 18.85 2.94
 12 -3 -9 15.73 3.2
 12 -3 -8 0.88 2.14
 12 -3 -7 12.71 2.68
 12 -3 -6 53.59 4.09
 12 -3 -5 7.38 2.45
 12 -3 -4 19.52 2.95
 12 -3 -3 5.88 2.16
 12 -3 -2 4.22 2.18
 12 -3 -1 20.69 2.93
 12 -3 0 3.48 2.16
 12 -2 -9 2.34 2.07
 12 -2 -8 31.72 3.45
 12 -2 -7 9.25 2.66
 12 -2 -6 9.96 2.74
 12 -2 -5 0.17 1.74
 12 -2 -4 3 2.43
 12 -2 -2 59.06 4.13
 12 -2 -1 0.25 1.7
 12 -2 1 14.16 2.72
 12 -1 -8 -1.99 1.6
 12 -1 -7 1.52 2.15
 12 -1 -6 13.32 2.92
 12 -1 -4 74.33 4.78
 12 -1 -3 17.62 2.86
 12 -1 -2 91.67 5.17
 12 -1 0 -1.28 1.49
 12 -1 1 3.9 1.96
 12 0 -7 -0.25 1.83
 12 0 -6 5.19 2.13
 12 0 -4 55.93 4.3
 12 0 -3 1.77 2.33
 12 0 -2 8.53 2.31
 12 0 -1 0.47 1.82
 12 0 0 79.77 4.53
 12 0 1 0.31 1.59
 12 1 -6 11.92 2.65
 12 1 -5 1.13 1.9
 12 1 -4 81.08 4.84
 12 1 0 2.11 1.86
 12 1 1 2.96 1.72
 12 2 -4 3.16 2.08
 12 2 -3 99.91 5.1
 12 2 -2 57.75 4.06
 12 2 -1 0.87 1.91
 12 2 0 7.75 2.21
 13 -5 -8 -0.13 2.58
 13 -5 -7 6.85 2.66
 13 -5 -6 -2.61 2.09
 13 -5 -5 140.72 6.5
 13 -4 -9 9.42 2.66
 13 -4 -7 19.43 3.27
 13 -4 -6 38.26 4.11
 13 -4 -5 1.46 2.1
 13 -4 -4 7.15 2.56
 13 -3 -9 15.86 3.03
 13 -3 -8 49.14 4.44
 13 -3 -7 -1.12 1.88
 13 -3 -6 8.41 2.71
 13 -3 -5 15.97 3.06
 13 -3 -4 25.34 3.48
 13 -3 -3 5.15 2.53
 13 -2 -8 5.98 2.81
 13 -2 -7 33.51 4.05
 13 -2 -6 0.1 1.86
 13 -2 -5 2.42 2.5
 13 -2 -4 2.05 2.22
 13 -2 -3 46.79 4.19
 13 -2 -2 5.3 2.33
 13 -1 -7 7.64 2.75
 13 -1 -6 17.18 3.02
 13 -1 -5 35.66 4.08
 13 -1 -3 13.75 2.9
 13 -1 -2 6.07 2.32
 13 0 -6 85.17 5.08
 13 0 -5 -0.45 1.92
 13 0 -4 62.89 4.54
 13 0 -3 1.34 2.02
 13 0 -2 3.99 2.02
 13 0 -1 -0.39 1.85
 13 1 -5 33.62 4.08
 13 1 -4 10.73 2.56
 13 1 -3 10.72 2.7
 13 1 -2 2.73 1.88
 13 1 -1 4.26 2.26
 0 -1 -2 2227.29 4.93
 0 -1 -1 698.56 2.96
 1 0 5 -0.08 0.31
 1 0 6 221.75 2.29
 1 1 -2 9810.68 13.43
 1 1 -1 228.03 2.13
 1 1 0 360.22 2.64
 1 1 1 16.23 0.69
 1 1 2 949.11 4.58
 1 1 6 7.59 0.57
 1 2 -2 386.14 3.64
 1 2 -1 126.29 2.06
 1 2 0 1240.95 6.25
 1 2 1 16.01 0.97
 1 2 2 657.81 4.65
 1 2 3 359.55 3.54
 1 2 5 254.67 2.88
 1 2 6 6.74 0.65
 1 3 -1 707.29 5.83
 1 3 0 119.54 2.48
 1 3 1 176.6 3
 1 3 2 1748.39 8.9
 1 3 3 549.84 5.06
 1 4 2 275.26 4.24
 1 4 3 361.58 4.75
 2 -1 -5 46.42 0.77
 2 -1 7 276.2 3.49
 2 0 -4 959.22 4.14
 2 0 -3 0.9 0.36
 2 0 6 124.04 2.33
 2 0 7 0.06 0.45
 2 1 -5 47.4 1.18
 2 1 -4 359.57 3.2
 2 1 -3 542.58 3.89
 2 1 -2 915.35 5.13
 2 1 0 1901.12 7.66
 2 1 1 244.18 2.91
 2 1 2 33.57 1.37
 2 1 3 681.64 5.11
 2 1 4 85.35 1.95
 2 1 6 444.5 4.3
 2 1 7 277.21 3.25
 2 2 -4 324.75 3.67
 2 2 -3 11.26 1.11
 2 2 -1 152.41 2.58
 2 2 1 19.95 1.1
 2 2 2 619.83 5.24
 2 2 3 319.25 3.9
 2 2 4 58.19 1.78
 2 2 6 12.5 1.02
 2 2 7 9.5 0.82
 2 3 -3 168.29 3.26
 2 3 -2 19.35 1.48
 2 3 0 158.73 3.17
 2 3 2 972.21 7.44
 2 3 4 83.64 2.35
 2 3 5 269.32 4
 2 4 -3 1.45 0.99
 2 4 -2 155.21 3.48
 2 4 -1 7.65 1.16
 2 4 0 1223.26 9.15
 2 4 2 362.65 5.14
 2 4 3 50.57 2.1
 2 4 5 35.14 1.81
 2 5 0 585.7 7.21
 2 5 1 409.87 6.03
 2 5 2 16.63 1.69
 2 5 4 307.72 5.32
 3 -2 -7 197.76 1.82
 3 -1 -6 0.58 0.34
 3 0 -6 60.39 1.34
 3 0 -5 0.51 0.43
 3 0 -4 229.79 2.87
 3 0 5 0.3 0.65
 3 1 -6 0.9 0.49
 3 1 -5 8.01 0.84
 3 1 -4 102.22 2.17
 3 1 -3 543.44 4.76
 3 1 -2 100.82 2.16
 3 1 -1 1832.48 8.99
 3 1 0 1109.88 7.2
 3 1 1 14.5 1.34
 3 1 2 18.57 1.21
 3 1 3 47.47 1.81
 3 1 4 13.15 1.17
 3 1 5 1.27 0.71
 3 1 7 47.4 1.7
 3 2 -6 279.36 3.72
 3 2 -5 462.2 4.82
 3 2 -4 82.43 2.22
 3 2 -3 3109.32 12.35
 3 2 -2 60.58 1.94
 3 2 -1 62.78 2.12
 3 2 1 35.79 1.61
 3 2 2 1152.98 8.27
 3 2 3 54.84 2.05
 3 2 4 1.48 0.83
 3 2 5 61.38 2.15
 3 3 -5 332.14 4.66
 3 3 -4 515.21 5.79
 3 3 -2 199.62 3.69
 3 3 0 857.99 7.53
 3 3 1 110.03 2.79
 3 3 2 57.07 2.22
 3 3 3 74.04 2.45
 3 3 4 305.3 4.81
 3 3 5 227.07 4.2
 3 4 -3 438.5 5.94
 3 4 -2 687.47 7.44
 3 4 -1 619.85 7.14
 3 4 2 1.52 1.16
 3 4 3 4.6 1.13
 3 4 5 17.82 1.61
 3 4 6 33.12 1.93
 3 5 -4 4.93 1.21
 3 5 -3 69.11 2.85
 3 5 -2 254.99 4.99
 3 5 -1 0.8 0.94
 3 5 0 3.76 1.13
 3 5 1 83.19 3.09
 3 5 2 7.54 1.37
 3 6 -2 1.62 1.42
 3 6 -1 162.63 4.5
 3 6 0 13.66 1.78
 3 6 1 5.41 1.64
 4 -2 -8 9.07 0.69
 4 -1 -8 80.3 1.47
 4 -1 -7 118.05 2.14
 4 0 -8 4.3 0.57
 4 0 -7 -0.08 0.47
 4 0 -6 362.49 4.03
 4 0 -5 0.09 0.54
 4 0 5 0.15 0.79
 4 0 6 491.21 6.26
 4 1 -8 78.68 1.85
 4 1 -5 807.57 6.52
 4 1 -4 15.87 1.16
 4 1 -2 888.06 7.22
 4 1 -1 39.21 1.84
 4 1 0 252.98 4.09
 4 1 4 27.8 1.75
 4 1 5 335.39 5.27
 4 1 6 10.27 1.31
 4 2 -7 0.48 0.72
 4 2 -6 251.15 4
 4 2 -5 161.1 3.3
 4 2 -4 84.02 2.43
 4 2 -3 1042.83 8.21
 4 2 -2 3.76 0.98
 4 2 -1 117.93 3.04
 4 2 0 297.39 4.7
 4 2 1 74.42 2.53
 4 2 2 1.15 0.84
 4 2 3 46.57 2.13
 4 2 4 48.61 2.26
 4 2 5 38.53 2.07
 4 2 6 191.49 4.1
 4 3 -7 218.6 4.09
 4 3 -6 19.42 1.61
 4 3 -5 476.86 6.09
 4 3 -4 294.22 4.88
 4 3 -1 954.31 8.62
 4 3 3 16.37 1.56
 4 3 4 522.01 6.9
 4 3 5 33.34 2.11
 4 3 6 95.08 3.14
 4 4 -6 130.33 3.54
 4 4 -4 61.94 2.57
 4 4 -3 0.5 0.94
 4 4 -2 1.46 0.96
 4 4 -1 9.82 1.36
 4 4 1 36.72 2.27
 4 4 2 1023.35 10.1
 4 4 3 199.51 4.59
 4 4 4 1.17 1.34
 4 5 -6 1.42 1.12
 4 5 -5 30.13 2.38
 4 5 -4 37.48 2.25
 4 5 -1 483.8 7.31
 4 5 0 0 1.02
 4 6 5 8.13 1.76
 4 6 6 19.43 1.9
 4 7 -3 12.97 2.01
 4 7 -2 55.19 3.31
 4 7 0 178.42 5.36
 4 7 1 62.49 3.48
 4 7 2 1.53 1.41
 4 7 3 17.94 2.34
 4 7 4 2.27 1.63
 4 8 0 3.67 1.63
 4 8 1 3.6 1.64
 5 -3 -9 23.22 1.14
 5 -2 -9 2.04 0.57
 5 -2 -8 1.53 0.7
 5 -1 -9 41.96 1.35
 5 -1 -8 1.69 0.67
 5 -1 -7 142.47 2.91
 5 -1 6 23 1.95
 5 0 -9 0.44 0.54
 5 0 -8 462.22 4.92
 5 0 -7 0.47 0.69
 5 0 -6 299.49 4.33
 5 0 -5 0.95 0.74
 5 0 7 0.36 0.41
 5 1 -9 40.24 1.6
 5 1 -8 2.25 0.88
 5 1 -7 141.78 3.12
 5 1 -6 126.2 3.07
 5 1 -5 31.9 1.68
 5 1 -4 189.36 3.78
 5 1 -3 74.36 2.46
 5 1 -2 36.28 1.87
 5 1 0 176.38 3.95
 5 1 1 111.32 3.3
 5 1 2 695.73 7.99
 5 1 3 4.34 1.38
 5 2 -9 1.73 0.77
 5 2 -8 1.27 0.93
 5 2 -7 138.71 3.34
 5 2 -6 -0.69 0.83
 5 2 -4 166.83 3.79
 5 2 -3 0.13 0.81
 5 2 -2 19.59 1.56
 5 2 -1 375.19 5.82
 5 2 0 14.71 1.67
 5 2 1 0.23 0.95
 5 2 2 590.4 7.63
 5 3 -8 421.75 6.05
 5 3 -7 50.61 2.38
 5 3 -6 62.59 2.58
 5 3 -5 3.65 1.16
 5 3 -4 101.16 3.13
 5 3 -3 63 2.63
 5 3 -2 0.47 0.9
 5 3 -1 351.55 5.92
 5 3 0 230.07 4.95
 5 3 1 4.87 1.25
 5 4 -8 13.23 1.63
 5 4 -7 194.86 4.6
 5 4 -5 12.27 1.68
 5 4 -4 14.79 1.68
 5 4 -3 193.56 4.6
 5 4 -2 3.15 1.18
 5 4 4 3 1.26
 5 4 5 7.01 1.66
 5 4 6 0.5 0.85
 5 5 3 72.57 3.54
 5 5 4 14.57 1.98
 5 5 5 36.47 2.7
 5 6 0 21.05 2.31
 5 6 1 18.56 2.14
 5 6 3 -0.17 1.61
 5 6 4 27.06 2.53
 5 6 5 -0.51 1.24
 5 7 -5 2.34 1.5
 5 7 -4 444.25 8.61
 5 7 -2 76.93 3.94
 5 7 0 12.66 2.08
 5 7 1 -0.61 1.41
 5 7 2 2.5 1.64
 5 7 3 55.98 3.52
 5 7 4 59.57 3.5
 5 7 5 119.78 4.72
 5 8 -1 0.76 1.62
 5 8 0 8.47 2.04
 5 8 1 2.73 1.68
 5 8 2 36.76 3.05
 5 8 3 9.1 2.4
 6 -3 -9 64.29 2.15
 6 -2 -9 145.62 3.06
 6 -2 -8 0.1 0.88
 6 -1 -9 27.56 1.54
 6 -1 -8 228.27 4.04
 6 -1 -7 3.73 1.17
 6 -1 5 4.05 1.4
 6 0 -9 -0.29 0.72
 6 0 -8 1.43 0.84
 6 0 -7 0.03 0.8
 6 0 -5 0.09 1.02
 6 0 3 -0.22 1.08
 6 0 5 -0.75 1.05
 6 0 6 90.34 3.49
 6 1 -10 11.06 1.2
 6 1 -8 233.87 4.4
 6 1 -7 1.89 0.96
 6 1 -6 61.94 2.54
 6 1 -5 1.1 1.13
 6 1 -4 386.46 5.95
 6 1 -3 745.09 8.36
 6 1 -1 70.66 2.9
 6 1 3 25.14 2.24
 6 1 4 28.18 2.44
 6 1 5 1.24 1.4
 6 1 6 10.9 1.7
 6 2 -10 71.18 2.45
 6 2 -8 0.15 0.87
 6 2 -7 11.38 1.53
 6 2 -6 410.29 6.28
 6 2 -5 30.83 2.19
 6 2 -4 5.48 1.25
 6 2 -3 499.59 7.21
 6 2 -2 28.02 2.04
 6 2 3 9.21 1.62
 6 2 4 11.21 1.76
 6 2 5 28.92 2.26
 6 3 -9 67.14 2.78
 6 3 -8 130.09 3.8
 6 3 -7 6.53 1.54
 6 3 -6 86.3 3.22
 6 3 -5 42.19 2.54
 6 3 3 14.79 2.07
 6 3 4 4.78 1.68
 6 3 5 9.2 1.87
 6 4 1 1.72 1.49
 6 4 2 0.47 1.25
 6 4 3 -1.03 1.15
 6 4 4 175.19 5.25
 6 4 5 21.02 2.4
 6 5 -7 57.49 3.2
 6 5 -6 3.95 1.51
 6 5 -4 9.07 1.69
 6 5 -3 39.12 2.87
 6 5 -2 99.57 3.95
 6 5 -1 0.32 1.23
 6 5 0 6.6 1.74
 6 5 2 4.34 1.62
 6 5 3 11.91 2.07
 6 5 4 20.5 2.64
 6 5 6 0.24 0.74
 6 6 -7 53.26 3.26
 6 6 -6 148.9 5.09
 6 6 -5 29.57 2.59
 6 6 -4 0.1 1.31
 6 6 -3 55.73 3.27
 6 6 -2 53.31 3.33
 6 6 0 1.5 1.51
 6 6 2 42.91 3.38
 6 6 3 41.45 3.31
 6 6 4 16.22 2.34
 6 6 5 77.9 3.97
 6 7 -6 1.35 1.58
 6 7 -5 -0.33 1.43
 6 7 -3 -0.65 1.32
 6 7 -2 7.91 1.95
 6 7 -1 84.62 4.21
 6 7 0 51.71 3.41
 6 7 2 3.62 2.01
 6 7 3 63.24 4.01
 6 7 5 50.72 3.58
 6 8 -5 6.56 2.04
 6 8 -3 61.39 3.94
 6 8 -1 12 2.28
 6 8 0 139.46 5.57
 6 8 1 5.95 2.24
 6 8 2 117.86 5.41
 6 8 3 71.69 4.34
 6 8 4 107.75 5.14
 6 9 -3 29.67 3.14
 6 9 -2 2.65 1.97
 6 9 0 55.83 4.27
 6 9 1 30.64 3.67
 7 -2 -10 59.02 2.27
 7 -2 -9 3.4 1.05
 7 -2 6 41.12 2.75
 7 -1 -10 3.94 1.04
 7 -1 -9 6.26 1.29
 7 -1 -8 54.11 2.46
 7 -1 4 1.48 1.41
 7 -1 5 52.74 3.11
 7 0 -9 0.14 1.03
 7 0 3 -0.33 1.19
 7 0 4 264.93 6.25
 7 0 5 -0.99 1.35
 7 1 -10 2.72 1.06
 7 1 -9 8.52 1.41
 7 1 -1 14.03 1.98
 7 1 0 2.29 1.21
 7 1 1 5.2 1.52
 7 1 2 40.93 2.74
 7 1 3 3.05 1.66
 7 1 4 1.2 1.43
 7 1 5 49.71 3.15
 7 2 -2 164.39 4.64
 7 2 0 40.58 2.71
 7 2 1 10.77 1.78
 7 2 2 28.38 2.39
 7 2 3 2.59 1.63
 7 2 4 2.05 1.76
 7 2 5 16.46 2.36
 7 3 -3 238.65 5.8
 7 3 -1 105.98 4
 7 3 0 38.13 2.85
 7 3 1 4.29 1.56
 7 3 2 46.78 3.04
 7 3 3 23.84 2.54
 7 3 4 0.75 1.38
 7 3 5 10.49 1.99
 7 4 -10 96.08 3.68
 7 4 -9 3.37 1.56
 7 4 -8 63.77 3.32
 7 4 -7 73.86 3.48
 7 4 -4 15.73 2.01
 7 4 -3 27.47 2.74
 7 4 -2 41.82 2.96
 7 4 -1 60.28 3.26
 7 4 1 4.46 1.66
 7 4 2 18.96 2.6
 7 4 3 101.59 4.45
 7 4 4 2.92 1.91
 7 4 5 35.23 3.05
 7 5 -9 -0.8 1.31
 7 5 -8 -0.11 1.34
 7 5 -6 41.27 3.15
 7 5 -4 5.57 1.69
 7 5 -3 2.34 1.48
 7 5 -1 32.1 3
 7 5 0 22.03 2.6
 7 5 1 349.27 7.94
 7 5 2 67.97 3.82
 7 5 3 1.19 1.6
 7 5 4 12.36 2.28
 7 5 5 10.72 2.36
 7 6 -8 39.88 3.24
 7 6 -7 13.8 2.18
 7 6 -6 3.88 1.77
 7 6 -5 1.42 1.63
 7 6 -4 46.4 3.24
 7 6 -1 160.21 5.59
 7 6 0 40.62 3.22
 7 6 1 90.36 4.5
 7 6 2 58.15 3.95
 7 6 3 48.48 3.64
 7 6 4 5.69 1.97
 7 6 5 16.56 2.69
 7 7 -7 4.61 1.98
 7 7 -6 -0.84 1.54
 7 7 -5 3.35 1.73
 7 7 -4 2.27 1.71
 7 7 -3 0 1.62
 7 7 -2 210.48 6.74
 7 7 -1 13.39 2.41
 7 7 0 -0.76 1.62
 7 7 1 104.96 5
 7 7 2 80.17 4.5
 7 7 3 -0.14 1.78
 7 7 4 10.6 2.55
 7 7 5 1.5 1.62
 7 8 -6 50.45 3.83
 7 8 -4 17.78 2.82
 7 8 -3 1.62 1.81
 7 8 -2 1.74 1.9
 7 8 -1 0.93 2.3
 7 8 0 5.05 2.28
 7 8 1 35.68 3.7
 7 8 2 26.03 3.36
 7 8 3 199.35 7.05
 7 8 4 0.17 1.93
 7 9 -4 -0.87 2.26
 7 9 -3 147.18 6.22
 7 9 -2 20.64 3.23
 8 -4 -10 17.19 1.84
 8 -2 -8 38.45 2.47
 8 -2 5 1.01 1.64
 8 -1 3 6.26 1.91
 8 -1 4 62.13 3.69
 8 -1 5 8.1 1.99
 8 0 -8 34.73 2.42
 8 0 -6 16.18 1.83
 8 0 -5 -0.16 1.25
 8 0 -3 -0.1 1.49
 8 0 -2 9.54 1.73
 8 0 -1 0.45 1.34
 8 0 0 109.62 4.36
 8 0 1 1.07 1.41
 8 0 2 0.88 1.47
 8 0 3 -0.84 1.54
 8 0 4 205.78 6.11
 8 0 5 0.06 1.85
 8 1 -8 202.79 5.05
 8 1 -7 144.66 4.53
 8 1 -6 5.56 1.49
 8 1 -5 6.61 1.59
 8 1 -4 9.17 1.66
 8 1 -2 -0.25 1.43
 8 1 -1 138.46 4.78
 8 1 0 0.93 1.51
 8 1 1 50.89 3.33
 8 1 2 102.83 4.46
 8 1 3 5.74 1.87
 8 1 5 7.06 2.02
 8 2 -10 4.11 1.44
 8 2 -9 11.76 1.96
 8 2 -8 36.69 2.73
 8 2 -7 3.84 1.41
 8 2 -6 96.07 3.95
 8 2 -5 2.29 1.36
 8 2 -4 3.95 1.47
 8 2 -3 40.29 2.97
 8 2 -2 -0.36 1.18
 8 2 -1 17.4 2.24
 8 2 0 -0.15 1.35
 8 2 1 3.26 1.61
 8 2 2 42.62 3.21
 8 2 3 209.29 6.25
 8 2 4 2.07 1.9
 8 2 5 1.17 1.59
 8 3 -10 1.08 1.3
 8 3 -9 10.15 2.02
 8 3 -8 191.17 5.36
 8 3 -7 11.84 2.03
 8 3 -6 1.42 1.38
 8 3 -5 89.71 4.02
 8 3 -4 26.73 2.78
 8 3 -3 150.3 5.02
 8 3 -2 2.09 1.77
 8 3 1 9.44 1.97
 8 3 2 28.24 2.73
 8 3 4 12.77 2.47
 8 3 5 57.88 3.67
 8 4 -9 7.49 1.92
 8 4 -8 13.99 2.13
 8 4 -7 16.58 2.24
 8 4 -6 -0.21 1.67
 8 4 -5 0.71 1.39
 8 4 -4 127.07 4.79
 8 4 -2 12.45 2.14
 8 4 -1 79.09 4.11
 8 4 0 31.29 3.1
 8 4 1 15.93 2.59
 8 4 2 3.07 1.8
 8 4 3 0.88 1.83
 8 4 4 4.57 2
 8 4 5 10.1 2.15
 8 5 -10 51.94 3.44
 8 5 -7 4.71 1.84
 8 5 -6 69.92 4.14
 8 5 -5 -0.3 1.42
 8 5 -4 1.76 1.64
 8 5 -3 70.78 4.13
 8 5 -2 144.48 5.39
 8 5 -1 2.91 1.7
 8 5 0 -0.08 1.8
 8 5 1 37.23 3.59
 8 5 3 61.97 4.19
 8 5 4 6.4 2.2
 8 5 5 48.82 3.51
 8 6 -8 13.89 2.38
 8 6 -6 4.25 1.92
 8 6 -5 107.52 5
 8 6 -4 6.57 2.05
 8 6 -3 -1.62 1.68
 8 6 -2 10.72 2.33
 8 6 -1 314.94 8.22
 8 6 0 8.16 2.37
 8 6 2 0.9 1.99
 8 6 4 23.62 3.1
 8 7 -8 34.49 3.54
 8 7 -7 71.25 4.51
 8 7 -5 33.68 3.56
 8 7 -4 67.04 4.4
 8 7 -3 123.84 5.67
 8 7 -1 5.38 2.54
 8 7 0 0.76 1.96
 8 7 1 40.51 3.69
 8 7 2 7.15 2.74
 8 7 3 9.32 2.88
 8 7 4 0.46 2.13
 8 8 -7 7.45 2.85
 8 8 -6 -0.13 2.02
 8 8 -5 93.85 5.33
 8 8 -4 59.65 4.28
 8 8 -3 44.32 4.02
 8 8 -2 36.4 3.74
 8 8 -1 10.06 2.49
 8 8 0 1.84 2.54
 8 8 1 13.65 3.21
 8 8 2 1.17 2.15
 8 8 3 2.02 2.13
 8 8 4 21.55 3.17
 8 9 -4 -1.2 2.06
 8 9 -2 14.42 3.35
 8 9 -1 -0.26 2.33
 8 9 0 80.33 5.44
 8 9 2 23.9 3.56
 8 10 -3 3.42 2.58
 8 10 -2 5.32 2.96
 8 10 -1 27.31 4.25
 8 10 0 82.75 5.53
 9 -4 -10 58.6 3.06
 9 -4 5 1.25 1.87
 9 -3 -10 24.06 2.21
 9 -3 -9 38.39 2.7
 9 -3 4 47.63 3.77
 9 -3 5 -0.02 1.7
 9 -2 -9 39.66 2.68
 9 -2 -8 1.7 1.35
 9 -2 3 9.6 2.29
 9 -2 4 5.4 2.36
 9 -2 5 15.19 2.8
 9 -1 -10 2.33 1.46
 9 -1 -9 5.85 1.78
 9 -1 -8 60.75 3.17
 9 -1 -7 -0.54 1.28
 9 -1 -6 248.64 6.27
 9 -1 1 155.1 5.51
 9 -1 2 106.31 4.84
 9 -1 3 5.23 1.94
 9 0 -9 1.77 1.59
 9 0 -8 22.64 2.37
 9 0 -7 -0.69 1.23
 9 0 -6 120.44 4.49
 9 0 -5 -0.46 1.32
 9 0 -4 445.06 8.42
 9 0 -3 0.65 1.38
 9 0 -2 48.39 3.17
 9 0 -1 0.3 1.83
 9 0 0 7.35 2.22
 9 0 1 -0.53 1.48
 9 0 2 0.45 1.7
 9 0 3 -1.09 1.63
 9 0 4 9.21 2.27
 9 0 5 0.68 1.7
 9 1 -10 0.56 1.52
 9 1 -9 3.27 1.67
 9 1 -8 57.02 3.26
 9 1 -7 0.93 1.42
 9 1 -6 256.22 6.48
 9 1 -5 2.71 1.54
 9 1 -4 0.25 1.46
 9 1 -2 5.69 1.85
 9 1 -1 1.57 1.51
 9 1 0 -0.36 1.48
 9 1 1 164.58 5.92
 9 1 2 109.54 5.09
 9 1 3 4.29 2.06
 9 1 5 0.85 1.65
 9 2 -10 17.72 2.37
 9 2 -9 38.73 3
 9 2 -8 0.22 1.34
 9 2 -7 80.31 3.88
 9 2 -6 73.18 3.91
 9 2 -5 46 3.14
 9 2 -3 95.27 4.43
 9 2 -2 30.89 3.25
 9 2 0 51.13 3.75
 9 2 1 1.26 1.76
 9 2 3 12.01 2.72
 9 2 4 5.75 2.16
 9 2 5 15.94 2.52
 9 3 -11 2.18 1.55
 9 3 -9 39.99 3.18
 9 3 -8 0.96 1.57
 9 3 -7 11.59 2.08
 9 3 -4 10.83 2.34
 9 3 -3 -0.03 1.66
 9 3 -1 37.75 3.49
 9 3 0 98.08 4.9
 9 3 2 0.23 2.18
 9 3 3 38.84 3.51
 9 3 4 44.48 3.78
 9 3 5 1.49 1.65
 9 4 -11 3.07 1.91
 9 4 -10 55.47 3.5
 9 4 -9 0.23 1.52
 9 4 -8 65.19 4.04
 9 4 -7 19.02 2.58
 9 4 -6 6.89 2.03
 9 4 -5 12.78 2.36
 9 4 -4 26.2 3.07
 9 4 -3 80.65 4.55
 9 4 -2 0.46 1.51
 9 4 -1 0.63 1.8
 9 4 0 57.59 3.85
 9 4 2 6.88 2.32
 9 4 3 51.12 4.2
 9 4 4 35.51 3.69
 9 5 -10 27.16 3
 9 5 -9 51.69 3.71
 9 5 -8 3.01 1.85
 9 5 -7 47.91 3.83
 9 5 -6 35.88 3.45
 9 5 -5 17.68 2.81
 9 5 -4 3.4 1.88
 9 5 -3 63.69 4.25
 9 5 -2 25.15 2.9
 9 5 -1 2.11 1.97
 9 5 1 9.68 2.5
 9 5 2 38.67 3.9
 9 5 3 23.41 3.37
 9 5 4 84.99 4.92
 9 6 -10 13.49 2.51
 9 6 -9 40.87 3.67
 9 6 -6 1.28 1.99
 9 6 -5 198.99 7
 9 6 -4 16.76 2.83
 9 6 -3 43.91 3.7
 9 6 -2 9.66 2.85
 9 6 -1 9.07 2.79
 9 6 0 2.98 2.31
 9 6 1 54.2 4.6
 9 6 2 2.99 2.34
 9 6 3 2.73 2.57
 9 6 4 22.65 3.48
 9 7 -8 16.55 2.97
 9 7 -7 1.34 1.97
 9 7 -6 59.28 4.57
 9 7 -5 13.46 3.06
 9 7 -4 33.53 3.99
 9 7 -3 4.56 2.42
 9 7 -2 -0.36 1.99
 9 7 -1 19.59 3.15
 9 7 0 63.72 4.84
 9 7 1 1.54 2.21
 9 7 2 21.18 3.64
 9 7 3 16.81 3.08
 9 7 4 10.06 2.7
 9 8 -8 42.04 3.9
 9 8 -7 2.43 2.29
 9 8 -5 32.78 4.01
 9 8 -4 13.59 3.15
 9 8 -3 27.07 4.02
 9 8 -2 21.42 3.44
 9 8 -1 3.7 2.6
 9 8 0 2.73 2.39
 9 8 4 99.29 5.65
 9 9 -6 1.51 2.89
 9 9 -4 9.33 3.17
 9 9 -3 2.54 3.02
 9 9 -1 1.64 2.92
 9 9 0 6.04 2.69
 9 9 3 44.69 4.68
 9 10 -4 9.67 3.34
 9 10 -3 0.9 3.15
 9 10 -1 8.24 3.49
 10 -4 -10 0.22 1.35
 10 -4 4 109.8 5.52
 10 -3 -9 -1.05 1.31
 10 -3 3 53.39 4.25
 10 -3 4 20.4 3.18
 10 -2 -9 50.47 3.25
 10 -2 -8 81.19 3.92
 10 -2 -7 11.15 2.14
 10 -2 2 3.63 2.16
 10 -2 4 2.94 2.07
 10 -2 5 31.49 3.63
 10 -1 -10 8.78 1.92
 10 -1 -7 21.29 2.53
 10 -1 -6 184.09 5.78
 10 -1 -5 34.99 3.25
 10 -1 -4 56.71 3.91
 10 -1 -2 97.01 4.83
 10 -1 -1 5.94 2.07
 10 -1 0 6.27 2.21
 10 -1 1 25.97 3.05
 10 -1 2 30.7 3.44
 10 -1 3 3.26 2.1
 10 -1 4 9.05 2.61
 10 0 -11 -0.89 1.37
 10 0 -10 151.08 5.02
 10 0 -8 393.69 8.41
 10 0 -7 0.98 1.62
 10 0 -6 24.28 2.58
 10 0 -4 31.87 3.21
 10 0 -3 -0.7 1.54
 10 0 -2 35.15 3.11
 10 0 -1 0.4 1.69
 10 0 1 0.34 2.3
 10 0 2 107.83 5.37
 10 0 3 0.79 2.42
 10 0 4 16.23 2.8
 10 1 -11 1.06 1.67
 10 1 -10 6.34 2.08
 10 1 -9 18.77 2.6
 10 1 -8 67.28 3.89
 10 1 -7 16.84 2.56
 10 1 -6 185.94 6.13
 10 1 -5 32.21 3.08
 10 1 -3 11.19 2.29
 10 1 -1 9.15 2.28
 10 1 0 5.85 2.21
 10 1 1 22.86 3.56
 10 1 3 3.54 2.28
 10 1 4 8.03 2.69
 10 2 -10 11.43 2.09
 10 2 -9 55.25 3.57
 10 2 -8 88.69 4.42
 10 2 -7 11.76 2.35
 10 2 -6 1.9 1.79
 10 2 -4 148.29 5.63
 10 2 -2 30.83 3.63
 10 2 0 45.56 3.76
 10 2 1 144.04 6.12
 10 2 2 2.5 2.49
 10 2 3 6.9 2.45
 10 2 4 5.92 2.59
 10 3 -11 -0.19 1.49
 10 3 -10 51.83 3.62
 10 3 -9 -1.47 1.84
 10 3 -8 7.32 2.3
 10 3 -7 1.52 2.04
 10 3 -6 2.42 1.79
 10 3 -5 27.94 3.2
 10 3 -4 1.27 1.93
 10 3 -3 20.37 2.88
 10 3 0 10.8 2.6
 10 3 1 -1.24 2.08
 10 3 2 2.34 2.29
 10 3 3 50.4 4.28
 10 3 4 18.42 3.37
 10 4 -11 8.88 2.17
 10 4 -10 0.86 1.76
 10 4 -9 9.4 2.54
 10 4 -8 13.5 2.49
 10 4 -7 9.14 2.3
 10 4 -6 -0.97 1.78
 10 4 -5 43.68 3.53
 10 4 -4 0.77 1.75
 10 4 -3 -0.3 1.77
 10 4 -2 35.87 3.47
 10 4 -1 5.39 2.7
 10 4 1 5.81 2.39
 10 4 2 112.81 5.64
 10 4 3 42.61 4.16
 10 4 4 110.74 5.6
 10 5 -11 1.7 2.02
 10 5 -10 36.67 3.52
 10 5 -9 2.26 2.04
 10 5 -8 44.11 3.91
 10 5 -7 68.95 4.64
 10 5 -5 168.59 6.72
 10 5 -3 3.38 2.67
 10 5 -2 79.61 5.17
 10 5 -1 40.28 4.1
 10 5 0 12.55 3.06
 10 5 1 4.98 2.5
 10 5 2 4 2.37
 10 5 3 3.42 2.79
 10 5 4 0.21 2.18
 10 6 -11 5.39 2.07
 10 6 -10 5.5 2.22
 10 6 -9 15.22 3
 10 6 -8 15.55 2.95
 10 6 -6 1.52 2.17
 10 6 -1 7.63 2.72
 10 6 0 17.98 3.27
 10 6 1 38.78 4.35
 10 6 2 3.3 2.54
 10 7 -10 3.28 2.49
 10 7 -9 1.94 2.45
 10 7 -8 2.94 2.35
 10 7 -6 9.35 2.85
 10 7 -5 22.91 3.64
 10 7 -4 0.12 2.85
 10 7 -3 1.49 2.39
 10 7 -1 1.18 2.34
 10 7 0 0.43 2.39
 10 7 1 -0.09 2.5
 10 7 2 111.56 6.17
 10 7 3 2.34 2.55
 10 8 -7 5.78 2.79
 10 8 -6 2.45 2.56
 10 8 -5 17.3 3.54
 10 8 -3 20.59 3.5
 10 8 -2 -1.56 2.24
 10 8 -1 2.2 2.6
 10 8 0 -3.02 2.2
 10 8 1 7 3.17
 10 9 -6 4.32 2.67
 10 9 -5 1.5 3.2
 10 9 -4 -0.2 3.09
 10 9 -3 -1.66 2.33
 10 9 -2 -2.76 2.35
 10 9 -1 46.54 4.99
 10 9 0 41.01 4.72
 10 10 -5 1.66 2.93
 10 10 -4 12.31 3.66
 10 10 -3 9.5 3.35
 10 10 -2 65.86 5.69
 11 -5 -10 0.02 1.87
 11 -4 -10 14.04 2.31
 11 -4 -9 0.95 1.83
 11 -4 2 1.82 2.51
 11 -3 -10 2.72 1.73
 11 -3 -9 -0.62 1.69
 11 -3 -8 1.45 1.81
 11 -3 1 72.6 5
 11 -3 2 26.5 3.61
 11 -3 3 -0.25 2.45
 11 -2 -9 34.6 3.32
 11 -2 -8 1.78 1.95
 11 -2 -7 7.08 2.13
 11 -2 -5 3.73 2.01
 11 -2 -4 81.13 4.88
 11 -2 -3 52.28 4.18
 11 -2 -2 7.73 2.42
 11 -2 -1 76.79 4.93
 11 -2 0 70.13 4.7
 11 -2 1 34.57 3.57
 11 -2 2 -0.15 2.2
 11 -2 3 2.86 2.32
 11 -1 -10 132.08 5.14
 11 -1 -9 8.26 2.17
 11 -1 -8 0.53 1.74
 11 -1 -7 5.45 2.28
 11 -1 -6 28.6 3.41
 11 -1 -5 7.23 2.43
 11 -1 -4 0.71 1.97
 11 -1 -2 13.02 2.71
 11 -1 -1 139.63 6.08
 11 -1 0 2.53 2.25
 11 -1 2 72.44 4.96
 11 -1 3 44.55 4.17
 11 0 -11 1.38 1.62
 11 0 -9 2.79 1.89
 11 0 -8 59.98 4.16
 11 0 -7 -2.71 1.61
 11 0 -6 36.63 3.55
 11 0 -5 -1.17 1.67
 11 0 -4 17.61 2.8
 11 0 -3 0.67 1.92
 11 0 -1 -1.68 1.78
 11 0 0 101 5.58
 11 0 1 0.25 2.15
 11 0 2 0.66 2.52
 11 0 3 1.41 2.44
 11 1 -11 40.28 3.27
 11 1 -10 135.53 5.31
 11 1 -9 6.75 2.25
 11 1 -8 -0.37 1.99
 11 1 -7 3.42 2.03
 11 1 -4 0.1 1.86
 11 1 -3 9.91 2.66
 11 1 -2 10.88 2.61
 11 1 -1 136.74 6.21
 11 1 0 3.42 2.33
 11 1 1 0.33 2.36
 11 1 2 72.92 4.75
 11 2 -11 2.95 1.94
 11 2 -10 -1.87 1.74
 11 2 -9 31.02 3.41
 11 2 -8 -0.35 2.01
 11 2 -7 4.37 2.05
 11 2 -6 37.09 3.46
 11 2 -5 1.47 2.37
 11 2 -2 6.02 2.62
 11 2 -1 73.27 5.06
 11 2 0 67.37 4.96
 11 2 2 -0.98 2.64
 11 2 3 0.51 2.26
 11 3 -11 40.29 3.62
 11 3 -10 0.9 2.25
 11 3 -9 -2.45 2.08
 11 3 -8 0.82 2.17
 11 3 -7 38.5 3.72
 11 3 -5 0.25 2.45
 11 3 -4 3.58 2.27
 11 3 -2 66.37 4.93
 11 3 -1 88.78 5.46
 11 3 0 99.68 5.73
 11 3 1 69.43 4.82
 11 3 2 26.42 3.86
 11 3 3 -0.58 2.09
 11 4 -11 45.15 3.79
 11 4 -10 10.43 2.81
 11 4 -9 2.18 2.58
 11 4 -8 0.64 2.28
 11 4 -7 17.55 3.08
 11 4 -6 5.57 2.35
 11 4 -5 1.28 2.61
 11 4 -2 7.64 3.13
 11 4 -1 6.78 2.65
 11 4 0 2.67 2.6
 11 4 1 5.98 2.6
 11 4 2 -0.03 2.34
 11 5 -11 11.41 2.56
 11 5 -10 3.98 2.36
 11 5 -9 1.98 2.53
 11 5 -8 14.11 3.15
 11 5 -7 1.41 2.29
 11 5 -6 -0.9 2.05
 11 5 -4 0.91 2.38
 11 5 -1 12.4 3.11
 11 5 0 3.67 2.67
 11 5 1 7.48 2.94
 11 5 2 112.19 6.06
 11 6 -11 7.16 2.54
 11 6 -10 0.34 2.1
 11 6 -9 11.69 2.85
 11 6 -8 69.18 4.95
 11 6 -7 3.76 2.6
 11 6 -6 1.65 2.41
 11 6 -5 32.7 4.38
 11 6 -4 3.09 2.82
 11 6 -3 20.28 3.76
 11 6 -2 0.89 2.77
 11 6 -1 19.07 3.53
 11 7 -10 71.89 5.21
 11 7 -9 0.67 2.38
 11 7 -8 11.39 2.89
 11 7 -6 40.74 4.63
 11 7 -5 17.56 3.77
 11 7 -4 -2.54 2.69
 11 7 -3 1.81 2.79
 11 7 -2 -0.73 2.58
 11 7 0 6.51 2.88
 11 8 -9 -1.39 2.67
 11 8 -8 56.09 5.22
 11 8 -5 0.83 2.55
 11 8 -3 23.95 3.91
 11 8 -2 -0.11 2.69
 11 8 -1 -0.21 2.6
 11 9 -8 2.09 2.76
 11 9 -7 11.59 3.35
 11 9 -5 71.87 5.51
 11 9 -4 52.45 5.41
 12 -6 -10 2.73 2.2
 12 -5 -10 12.5 2.54
 12 -5 -9 10.92 2.46
 12 -4 -10 15.21 2.91
 12 -4 -9 4.03 2.15
 12 -4 -8 20.54 3.36
 12 -4 0 17.75 3.31
 12 -3 -10 2.25 1.95
 12 -3 -9 15.96 2.83
 12 -3 -8 0.92 2
 12 -3 -7 11.51 2.67
 12 -3 -6 53.92 4.28
 12 -3 -5 9.06 2.65
 12 -3 -4 25 3.64
 12 -3 -3 6.84 2.53
 12 -3 -2 -0.26 2.64
 12 -3 -1 26.17 3.99
 12 -3 0 0.69 2.36
 12 -2 -10 17.18 2.78
 12 -2 -9 2.34 2.34
 12 -2 -8 29.14 3.27
 12 -2 -7 12.22 2.7
 12 -2 -5 1.24 2.55
 12 -2 -4 0.79 2.09
 12 -2 -3 106.64 5.89
 12 -2 -2 61.56 4.48
 12 -2 1 18.2 3.6
 12 -1 -11 -0.67 1.94
 12 -1 -9 0.5 2.18
 12 -1 -8 -0.12 1.86
 12 -1 -7 2.24 2.13
 12 -1 -6 12.88 2.97
 12 -1 -4 78.96 4.85
 12 -1 -2 88.03 5.44
 12 -1 -1 25.92 3.83
 12 -1 0 -0.23 2.2
 12 -1 1 2.6 2.61
 12 0 -11 -0.98 1.6
 12 0 -10 8.63 2.64
 12 0 -9 0.77 1.91
 12 0 -8 0.37 2
 12 0 -7 -0.87 1.86
 12 0 -6 5.92 2.89
 12 0 -5 -0.43 2.38
 12 0 -4 53.21 4.4
 12 0 0 82.55 5.32
 12 0 1 0.52 2.3
 12 1 -11 0.47 1.92
 12 1 -10 2.3 1.99
 12 1 -9 -0.25 2.19
 12 1 -8 0.34 2.27
 12 1 -7 1.65 2.65
 12 1 -6 14.7 2.9
 12 1 -5 0.4 2.11
 12 1 -4 76.8 5.31
 12 1 -3 21.99 3.74
 12 1 -2 86.42 5.23
 12 1 -1 27.01 3.83
 12 1 0 3.47 2.65
 12 2 -11 0.69 1.83
 12 2 -10 17.46 3.22
 12 2 -9 1.69 2.16
 12 2 -8 25.73 3.53
 12 2 -7 12.98 2.86
 12 2 -6 11.31 3.08
 12 2 -5 1.08 2.57
 12 2 -4 4.05 2.47
 12 2 -2 58.25 4.85
 12 2 -1 1.45 2.39
 12 2 0 4.45 3.17
 12 2 1 16.57 3.56
 12 3 -11 0.37 2.03
 12 3 -10 -0.85 1.96
 12 3 -9 20.1 3.46
 12 3 -8 2.19 2.21
 12 3 -7 8.89 2.79
 12 3 -6 52.62 4.42
 12 3 -4 22.06 3.89
 12 3 -3 4.24 2.86
 12 3 -2 3.01 2.48
 12 3 -1 23.01 3.87
 12 3 0 3.2 2.65
 12 4 -11 -0.77 1.95
 12 4 -10 13.79 3.17
 12 4 -9 4.34 2.53
 12 4 -8 22.12 3.84
 12 4 -7 9.41 3
 12 4 -6 12.45 3.13
 12 4 -5 15.37 3.38
 12 4 -4 19.86 3.62
 12 4 -3 28.58 3.91
 12 4 -1 7.44 3.03
 12 5 -11 12.58 2.86
 12 5 -10 17.64 3.28
 12 5 -9 11.15 2.99
 12 5 -8 10.57 3.05
 12 5 -7 33.9 4.07
 12 5 -6 146.01 7.15
 12 5 -5 5.96 3.21
 12 5 -4 16 3.36
 12 5 -1 0.09 2.63
 12 6 -11 23.52 3.67
 12 6 -10 3.45 2.71
 12 6 -9 28.3 4.27
 12 6 -7 7.73 3.17
 12 6 -6 0.34 2.55
 12 6 -5 0.2 2.52
 12 6 -2 25.6 4.19
 12 7 -9 40.28 4.35
 12 7 -8 -2.54 2.57
 12 7 -7 35.32 4.81
 12 7 -6 12.99 3.42
 12 7 -5 0.62 2.68
 12 7 -4 -2.16 2.56
 13 -5 -10 0.12 2.13
 13 -5 -9 -0.1 2.38
 13 -5 -8 0.99 2.39
 13 -5 -7 5.11 2.76
 13 -4 -9 12 2.93
 13 -4 -8 38.7 3.94
 13 -4 -7 17.14 3.5
 13 -4 -6 32.22 4.22
 13 -4 -5 1.9 2.48
 13 -4 -4 8.54 2.91
 13 -3 -10 6.2 2.66
 13 -3 -9 12.86 3.1
 13 -3 -8 40.48 4.19
 13 -3 -7 1.41 2.72
 13 -3 -6 13.62 3.37
 13 -3 -4 27.42 3.85
 13 -3 -3 4.24 2.63
 13 -2 -10 3.53 2.18
 13 -2 -9 19.49 3.06
 13 -2 -8 3.98 2.53
 13 -2 -7 29.43 3.67
 13 -2 -6 0.5 2.26
 13 -2 -5 1.51 2.53
 13 -2 -4 1.5 2.42
 13 -2 -3 50.65 4.85
 13 -2 -2 6.54 2.83
 13 -1 -10 14.43 2.81
 13 -1 -9 18.89 3.22
 13 -1 -8 5.16 2.79
 13 -1 -7 3.48 2.68
 13 -1 -6 22.43 3.97
 13 -1 -4 17.13 3.83
 13 -1 -3 12.89 3.17
 13 -1 -2 5.71 3.42
 13 0 -11 -1.39 2.16
 13 0 -10 16.37 3
 13 0 -9 0.96 2.43
 13 0 -8 28.71 3.81
 13 0 -7 -1.31 2.66
 13 0 -6 97.52 5.84
 13 0 -5 1.53 2.94
 13 0 -4 60.81 5.15
 13 0 -3 0.53 2.95
 13 0 -2 2.12 2.59
 13 1 -11 3.14 2.51
 13 1 -10 15.39 2.85
 13 1 -9 17.81 3.11
 13 1 -8 6.61 2.99
 13 1 -6 18.14 3.45
 13 1 -5 27.02 4.1
 13 1 -3 14.46 3.73
 13 1 -2 1.98 2.6
 13 2 -11 4.25 2.34
 13 2 -10 1.25 2.25
 13 2 -9 20.25 3.33
 13 2 -8 6.04 3.08
 13 2 -7 38.1 4.31
 13 2 -6 0.02 2.82
 13 2 -5 2.08 2.76
 13 2 -4 0.19 2.67
 13 2 -3 48.5 4.95
 13 2 -2 3.01 2.75
 13 3 -11 2.67 2.35
 13 3 -10 8.98 2.98
 13 3 -9 18.27 3.43
 13 3 -8 42.91 4.42
 13 3 -7 -0.09 2.33
 13 3 -6 12.86 3.13
 13 3 -5 16.51 3.35
 13 3 -3 6.18 3.09
 13 4 -11 13.95 3.09
 13 4 -10 16.11 3.57
 13 4 -9 9.25 3.32
 13 4 -7 17.89 4
 13 4 -6 33.2 4.32
 13 4 -5 -0.03 2.82
 13 4 -4 6.89 3.08
 13 5 -9 -2.15 2.32
 13 5 -8 -1.83 2.79
 13 5 -7 6.85 3.08
 13 5 -6 0 3.19
 13 5 -5 132.78 7.23
 -2 -13 9 1.57 1.55
 -2 -12 5 1.82 0.94
 -2 -12 7 37.28 2.5
 -2 -12 8 8.95 1.78
 -2 -12 9 5.55 1.55
 -2 -12 10 -1.23 1.23
 -2 -11 4 38.14 1.89
 -2 -10 2 46 1.49
 -2 -9 1 743.37 4.52
 -2 -8 0 82.82 1.02
 -1 -13 8 3.95 1.6
 -1 -12 6 0.1 1.03
 -1 -12 7 0.52 1.08
 -1 -12 8 8.98 1.72
 -1 -11 4 22.28 1.57
 -1 -11 6 156.5 4.31
 -1 -11 7 31.59 2.46
 -1 -11 9 5.29 1.54
 -1 -11 10 10.84 2.01
 -1 -10 1 33.56 1.2
 -1 -10 2 0.56 0.5
 -1 -10 11 1.14 1.67
 -1 -9 1 12.26 0.8
 -1 -9 2 135.47 2.7
 -1 -8 1 15.72 0.89
 -1 0 15 -0.56 1.14
 0 -13 6 12.29 1.75
 0 -13 7 9.78 1.66
 0 -12 4 36.07 2.13
 0 -12 5 3.01 1.2
 0 -12 6 0.42 1.08
 0 -12 7 -0.08 1.18
 0 -12 9 27.79 2.84
 0 -11 3 75.68 2.57
 0 -11 4 14.73 1.46
 0 -11 5 13 1.59
 0 -11 6 9.99 1.63
 0 -11 7 2.85 1.31
 0 -11 9 20.63 2.41
 0 -10 2 17.32 1.25
 0 -10 5 19.49 1.79
 0 -10 6 3.24 1.26
 0 -10 7 3.51 1.31
 0 -10 8 11.47 1.99
 0 -10 9 24.84 2.67
 0 -10 10 -0.86 1.52
 0 -9 0 0.78 0.39
 0 -9 1 8.46 0.85
 0 -9 2 4.26 0.86
 0 -9 4 2.76 1.07
 0 -9 9 6.81 1.76
 0 -9 10 30.62 2.92
 0 -9 11 10.41 2.25
 0 -8 0 133.69 2.06
 0 -8 1 2.54 0.55
 0 -8 2 25.35 1.32
 0 -8 11 0.73 1.43
 0 -8 12 2.36 1.71
 0 -7 -1 12.2 0.52
 0 -7 0 0.39 0.35
 0 -7 1 13.63 0.9
 0 -7 12 -0.65 1.49
 0 -6 0 197.17 2.18
 0 -6 13 -1.62 1.46
 0 -5 -1 1.82 0.23
 0 -5 0 0 0.24
 0 -5 13 0.1 1.52
 0 -2 14 0.3 1.64
 0 -1 14 34.62 2.69
 0 0 14 21.62 2.26
 0 1 13 -1.04 1.07
 0 1 14 33.58 2.47
 0 2 13 -0.81 0.62
 1 -13 5 6.59 1.43
 1 -13 6 46.73 2.82
 1 -13 7 6.46 1.62
 1 -12 3 2.93 0.95
 1 -12 4 1.07 1.05
 1 -12 5 113.12 3.82
 1 -12 6 4.79 1.66
 1 -12 7 5.38 1.55
 1 -12 8 5.55 1.77
 1 -11 2 30.1 1.7
 1 -11 4 -0.2 0.9
 1 -11 5 9.11 1.6
 1 -11 6 -0.49 1.26
 1 -11 7 -0.63 1.15
 1 -11 8 9.98 1.85
 1 -11 9 16.53 2.49
 1 -10 0 82.39 2.03
 1 -10 1 87.94 2.38
 1 -10 3 5.66 1.17
 1 -10 4 1.22 1.03
 1 -10 5 0.06 1.01
 1 -10 7 35.87 2.69
 1 -10 9 139.38 5.07
 1 -10 10 25.96 3.11
 1 -9 -1 13.39 0.82
 1 -9 0 164.83 2.79
 1 -9 3 17.73 1.38
 1 -9 4 3.02 1.06
 1 -9 5 9.66 1.36
 1 -9 6 0.33 1.04
 1 -9 7 16.37 1.94
 1 -9 8 4.5 1.51
 1 -9 9 0.88 1.47
 1 -9 10 -0.32 1.3
 1 -9 11 18.06 2.71
 1 -8 -1 14.84 0.81
 1 -8 0 40.62 1.42
 1 -8 1 434.24 4.79
 1 -8 2 40.58 1.68
 1 -8 5 33.64 2.14
 1 -8 7 33.74 2.48
 1 -8 8 11.2 1.77
 1 -8 9 11.36 1.88
 1 -8 10 10.2 2.16
 1 -8 11 3.52 1.82
 1 -7 -1 0.14 0.39
 1 -7 1 306.92 3.82
 1 -7 2 238.52 3.69
 1 -7 3 363.89 5
 1 -7 9 -1.2 1.17
 1 -7 10 13.48 2.22
 1 -7 11 3.41 1.79
 1 -7 12 57.09 3.82
 1 -6 0 86.46 1.78
 1 -6 1 576.1 4.82
 1 -6 2 0.94 0.61
 1 -6 10 0.45 1.37
 1 -6 11 41 3.12
 1 -6 12 0.05 1.44
 1 -5 -1 698.88 3.95
 1 -5 0 75.17 1.57
 1 -5 1 141.99 2.3
 1 -5 11 0.57 1.61
 1 -5 12 31.24 2.75
 1 -5 13 -0.86 1.61
 1 -4 -1 331.9 2.53
 1 -4 0 3.27 0.51
 1 -4 11 6.28 1.86
 1 -4 12 21.83 2.6
 1 -3 -1 701.95 3.32
 1 -3 0 117.09 1.58
 1 -3 12 23.06 2.56
 1 -3 13 17.67 2.44
 1 -2 13 0.48 1.38
 1 -1 -1 226.91 1.69
 1 -1 0 365.86 2.15
 1 -1 13 0.39 1.15
 1 -1 14 0.38 1.38
 1 0 0 0.53 0.19
 1 0 1 0.51 0.3
 1 0 11 -0.36 1.01
 1 0 12 23.02 2.09
 1 0 13 -0.08 1.15
 1 0 14 -0.25 1.14
 1 1 11 0.07 0.99
 1 1 12 2.74 1.31
 1 1 13 0.36 0.91
 1 2 10 31.92 1.96
 1 2 11 24.43 1.85
 1 3 8 92.77 2.46
 1 4 4 1005.01 3.85
 1 4 8 -0.24 0.44
 1 5 5 9.57 0.4
 1 5 6 0.24 0.26
 1 5 7 62.81 1.41
 2 -13 5 0.43 1.35
 2 -13 7 3.82 1.68
 2 -12 2 1 0.88
 2 -12 3 0.92 1.16
 2 -12 4 2.48 1.33
 2 -12 5 116.32 4.14
 2 -12 6 4.18 1.52
 2 -12 7 1.35 1.6
 2 -12 8 8.71 2.05
 2 -11 1 52.84 2.18
 2 -11 2 16.71 1.6
 2 -11 3 148.46 3.99
 2 -11 4 3.35 1.27
 2 -11 5 1.78 1.34
 2 -11 6 6.49 1.7
 2 -11 7 250.63 6.36
 2 -11 9 3.61 1.79
 2 -10 -1 35.99 1.48
 2 -10 0 38.74 1.7
 2 -10 2 -0.13 0.79
 2 -10 3 28.22 2
 2 -10 4 1.99 1.22
 2 -10 5 95.76 3.57
 2 -10 6 51.41 2.93
 2 -10 7 7.61 1.85
 2 -10 8 16.83 2.26
 2 -10 9 5.75 2.11
 2 -9 -2 13.95 0.92
 2 -9 -1 780.09 6.13
 2 -9 0 8.28 1.03
 2 -9 2 5.36 1.07
 2 -9 3 0.64 0.9
 2 -9 4 16.81 1.68
 2 -9 5 130.36 4.05
 2 -9 7 103.31 4.04
 2 -9 8 30.01 2.67
 2 -9 9 22.13 2.6
 2 -9 10 18.62 2.52
 2 -8 -1 105.57 2.26
 2 -8 0 82.09 2.16
 2 -8 1 46 1.89
 2 -8 3 16.33 1.49
 2 -8 4 3.53 0.98
 2 -8 5 38.33 2.21
 2 -8 7 28.29 2.38
 2 -8 8 0.78 1.26
 2 -8 9 72.63 3.74
 2 -7 -1 114.58 2.27
 2 -7 0 26.31 1.29
 2 -7 2 46.49 1.9
 2 -7 5 7.03 1.25
 2 -7 6 15.21 1.6
 2 -7 7 0.4 1.02
 2 -7 8 1.09 1.12
 2 -7 9 60.95 3.35
 2 -7 10 3.14 1.7
 2 -7 11 50.43 3.4
 2 -6 -2 28.93 1.11
 2 -6 -1 98.8 2.01
 2 -6 0 28.98 1.24
 2 -6 5 88.39 2.95
 2 -6 6 30.78 2
 2 -6 7 75.61 3.15
 2 -6 8 0.85 1.17
 2 -6 9 3.47 1.42
 2 -6 10 12.37 1.99
 2 -6 12 3.43 1.75
 2 -5 -2 33.51 1.13
 2 -5 -1 60.66 1.51
 2 -5 0 568.37 4.77
 2 -5 1 412.67 4.42
 2 -5 2 18.42 1.25
 2 -5 3 8.17 0.95
 2 -5 5 28.64 1.86
 2 -5 6 1.18 0.89
 2 -5 7 0.91 1.03
 2 -5 9 97.91 3.81
 2 -5 10 32.94 2.79
 2 -5 11 41.78 3.2
 2 -5 12 51.37 3.38
 2 -4 -2 152.87 2.18
 2 -4 -1 6.88 0.71
 2 -4 0 1260.89 6.64
 2 -4 1 471.74 4.47
 2 -4 2 348.37 4.1
 2 -4 3 52.64 1.9
 2 -4 6 181.68 4.25
 2 -4 7 2.67 1.26
 2 -4 8 0.58 1.25
 2 -4 9 10.21 1.67
 2 -4 10 30.17 2.42
 2 -4 11 33.09 2.64
 2 -4 12 -0.66 1.39
 2 -3 -2 19.35 0.94
 2 -3 -1 993.8 5.16
 2 -3 2 954.63 6.38
 2 -3 3 26.15 1.35
 2 -3 10 60.18 3.24
 2 -3 11 1.04 1.46
 2 -3 12 -0.85 1.28
 2 -2 -1 158.52 2.01
 2 -2 0 98.89 1.67
 2 -2 1 20.51 1
 2 -2 2 622.57 4.9
 2 -2 3 332.28 4.08
 2 -2 8 42.47 2.34
 2 -2 9 1.49 1.28
 2 -2 10 0.56 1.24
 2 -2 11 12.62 1.87
 2 -2 12 6.95 1.85
 2 -1 -1 225.48 2.29
 2 -1 0 1883.27 6.56
 2 -1 1 249.92 2.67
 2 -1 2 34.62 1.23
 2 -1 3 707.15 5.45
 2 -1 8 27.2 1.87
 2 -1 9 36.44 2.18
 2 -1 10 5.66 1.34
 2 -1 11 3.59 1.44
 2 -1 12 -0.11 1.14
 2 -1 13 12.82 2.07
 2 0 -1 0.13 0.39
 2 0 0 259.14 2.33
 2 0 1 0.01 0.34
 2 0 2 2167.01 7.99
 2 0 4 0.56 0.5
 2 0 6 123.35 2.98
 2 0 8 1.35 0.88
 2 0 9 -1.19 0.76
 2 0 10 0.67 0.94
 2 0 11 0.11 1.32
 2 0 12 2.38 1.39
 2 0 13 0.4 1.41
 2 1 0 1863.51 5.96
 2 1 1 239.16 2.23
 2 1 3 717.71 4.78
 2 1 4 89.47 1.94
 2 1 6 478.07 5.38
 2 1 8 31.28 1.74
 2 1 9 36.75 2.02
 2 1 10 6.22 1.24
 2 1 11 4.55 1.34
 2 1 12 -1.59 0.89
 2 2 2 609.45 3.63
 2 2 3 331.17 3.09
 2 2 5 113.51 2.26
 2 2 6 13.25 1.1
 2 2 9 0.47 0.88
 2 2 10 0.05 0.95
 2 3 5 261.99 3.16
 2 3 6 25.37 1.21
 2 3 7 103.02 2.46
 2 3 9 24.55 1.51
 2 4 3 49.79 0.94
 2 4 4 9.11 0.57
 2 4 5 34.19 1.08
 2 5 5 26.04 0.75
 2 5 6 0.63 0.28
 3 -13 4 3.86 1.55
 3 -13 5 0.88 1.45
 3 -13 6 31.04 2.74
 3 -12 1 229.04 4.69
 3 -12 2 1.23 1
 3 -12 3 16.78 2.05
 3 -12 4 82.03 3.59
 3 -12 5 82.07 3.77
 3 -12 7 1.03 1.48
 3 -11 0 23.39 1.66
 3 -11 1 2.79 0.91
 3 -11 2 -0.65 0.84
 3 -11 3 170.99 4.56
 3 -11 4 71.47 3.27
 3 -11 5 2.43 1.33
 3 -11 6 -0.57 1.27
 3 -11 7 0.22 1.75
 3 -10 -2 37.6 1.65
 3 -10 1 44.21 2.14
 3 -10 2 28.22 2.04
 3 -10 3 3.32 1.14
 3 -10 4 11.71 1.83
 3 -10 5 146.54 4.57
 3 -10 6 9.05 1.79
 3 -10 7 24.65 2.61
 3 -10 8 0.63 1.55
 3 -10 9 18.7 2.83
 3 -9 -2 44.16 1.77
 3 -9 -1 23.57 1.47
 3 -9 2 40.53 2.21
 3 -9 3 16.55 1.62
 3 -9 4 8.81 1.59
 3 -9 5 93.66 3.7
 3 -9 6 48.75 3.09
 3 -9 8 0.04 1.72
 3 -9 9 6.67 2.1
 3 -8 -2 127.69 2.73
 3 -8 -1 77.06 2.24
 3 -8 0 68.73 2.32
 3 -8 2 18.57 1.63
 3 -8 4 0.61 0.9
 3 -8 5 4.16 1.29
 3 -8 6 7.79 1.58
 3 -8 7 7.63 1.65
 3 -8 9 37.78 3.18
 3 -8 10 -1.22 1.76
 3 -7 -2 6.21 0.85
 3 -7 -1 47.78 1.73
 3 -7 3 181.55 4.11
 3 -7 4 357.81 6.14
 3 -7 5 3.33 1.23
 3 -7 6 -0.06 0.94
 3 -7 8 72.95 3.71
 3 -7 9 6.75 1.85
 3 -7 10 2.78 1.67
 3 -6 -2 2.48 0.7
 3 -6 -1 158.46 2.92
 3 -6 0 11.34 1.12
 3 -6 1 7.21 0.96
 3 -6 4 19.68 1.59
 3 -6 5 28.95 1.98
 3 -6 6 1.65 1.23
 3 -6 7 160.43 4.78
 3 -6 8 6.15 1.59
 3 -6 9 151 5.2
 3 -6 10 38.74 3.12
 3 -6 11 0.79 1.93
 3 -5 -2 263.02 3.49
 3 -5 -1 0.41 0.52
 3 -5 0 4.21 0.72
 3 -5 1 85.47 2.31
 3 -5 4 198.1 4.19
 3 -5 5 5.16 1.28
 3 -5 7 3.68 1.34
 3 -5 8 0.89 1.08
 3 -5 9 0.52 1.39
 3 -5 10 2.38 1.47
 3 -5 11 7.92 1.94
 3 -4 -2 688.83 5.37
 3 -4 -1 614.77 5.12
 3 -4 0 30.34 1.3
 3 -4 2 1.97 0.69
 3 -4 3 4.08 0.83
 3 -4 5 16.97 1.6
 3 -4 7 43.17 2.49
 3 -4 8 58.45 3.07
 3 -4 9 1.12 1.25
 3 -4 11 37.77 3.16
 3 -4 12 0.03 1.9
 3 -3 -2 190.7 2.81
 3 -3 -1 98.79 2.05
 3 -3 0 854.34 6.02
 3 -3 1 106.37 2.32
 3 -3 2 59.26 1.9
 3 -3 7 5.52 1.26
 3 -3 8 8.56 1.51
 3 -3 9 47.86 2.96
 3 -3 10 1.02 1.33
 3 -3 11 0.89 1.45
 3 -3 12 1.52 1.72
 3 -2 -2 59.35 1.58
 3 -2 -1 62.88 1.63
 3 -2 0 80.11 1.84
 3 -2 1 33.77 1.33
 3 -2 2 1125.54 7.51
 3 -2 3 55.31 1.87
 3 -2 6 9.74 1.27
 3 -2 9 1.44 1.14
 3 -2 10 8.61 1.89
 3 -2 12 2.33 1.47
 3 -1 -1 1857.71 7.97
 3 -1 0 1152.46 6.35
 3 -1 1 14.22 0.95
 3 -1 2 18.29 1.06
 3 -1 3 47.6 1.75
 3 -1 4 12.61 1.08
 3 -1 6 52.62 2.17
 3 -1 7 51.47 2.41
 3 -1 8 62.42 2.78
 3 -1 9 4.92 1.45
 3 -1 10 0.52 1.25
 3 -1 12 -0.31 1.26
 3 0 -1 -0.41 0.46
 3 0 0 4554.25 12.05
 3 0 1 0.24 0.58
 3 0 2 544.29 4.75
 3 0 4 607.49 5.88
 3 0 5 -0.4 0.61
 3 0 7 0.85 0.84
 3 0 8 55.43 2.57
 3 0 9 0.14 0.9
 3 0 10 20.83 2.11
 3 0 11 0.34 1.09
 3 0 12 78.73 3.64
 3 1 0 1130.7 5.94
 3 1 1 14.29 0.94
 3 1 2 17.97 0.98
 3 1 3 47.65 1.55
 3 1 4 12.87 1.09
 3 1 5 1.56 0.69
 3 1 8 62.55 2.55
 3 1 9 4.49 1.16
 3 1 10 1.61 1.06
 3 1 11 1.22 1.11
 3 2 1 33.64 1.11
 3 2 2 1148.66 6.12
 3 2 3 55.35 1.54
 3 2 4 1.19 0.58
 3 2 5 59.87 1.92
 3 2 8 35.14 1.93
 3 2 9 2.45 1.01
 3 2 10 9.27 1.28
 3 3 3 68.71 1.58
 3 3 4 303.41 3.47
 3 3 5 229.43 3.33
 3 3 6 15.41 1.17
 3 3 8 10.2 1.12
 3 4 3 4.87 0.55
 3 5 4 199.92 2.2
 3 5 5 6.83 0.58
 4 -13 3 1.8 1.3
 4 -13 4 -0.52 1.22
 4 -13 5 43.9 3.21
 4 -12 2 40.41 2.58
 4 -12 3 14.92 1.88
 4 -12 4 67.59 3.53
 4 -12 5 2.8 1.49
 4 -12 6 13.71 2.28
 4 -11 0 6.04 1.24
 4 -11 1 49.49 2.56
 4 -11 2 0.67 1.26
 4 -11 3 2.1 1.48
 4 -11 4 8.86 1.77
 4 -11 5 1.38 1.57
 4 -11 6 11.66 2.16
 4 -11 7 31.02 3.1
 4 -10 -1 9.51 1.22
 4 -10 0 33.39 1.95
 4 -10 1 6.7 1.4
 4 -10 2 90.73 3.46
 4 -10 3 1.05 1.29
 4 -10 5 3.34 1.45
 4 -10 6 13.85 2.1
 4 -10 8 100.05 4.55
 4 -9 0 3.38 0.96
 4 -9 1 9.63 1.34
 4 -9 2 44.69 2.42
 4 -9 3 3.86 1.23
 4 -9 4 5.69 1.43
 4 -9 5 3.07 1.53
 4 -9 6 1.93 1.49
 4 -9 7 -0.78 1.66
 4 -9 8 -0.51 1.41
 4 -8 1 3.85 1.15
 4 -8 2 191.52 4.49
 4 -8 3 57.3 2.79
 4 -8 4 6.19 1.51
 4 -8 5 96.37 3.9
 4 -8 6 25.35 2.54
 4 -8 7 51.44 3.38
 4 -8 8 12.83 2.22
 4 -8 9 1.9 1.7
 4 -7 -3 11.15 1.25
 4 -7 -1 13.98 1.3
 4 -7 1 60.06 2.4
 4 -7 2 0.86 0.89
 4 -7 3 16.42 1.55
 4 -7 4 1.83 1.06
 4 -7 5 3.76 1.36
 4 -7 6 7.03 1.6
 4 -7 7 49.71 3.07
 4 -7 8 9.19 2.2
 4 -7 9 -0.24 1.62
 4 -7 10 13.95 2.45
 4 -6 -3 5.5 0.88
 4 -6 -2 464.79 5.48
 4 -6 -1 0.75 0.66
 4 -6 0 13.92 1.22
 4 -6 2 3.46 1.03
 4 -6 3 14.68 1.63
 4 -6 4 0.58 1.02
 4 -6 5 7.01 1.38
 4 -6 6 17.75 2
 4 -6 7 70.18 3.45
 4 -6 8 6.34 1.89
 4 -6 9 37.63 3.17
 4 -6 10 -0.4 1.6
 4 -5 -3 20.92 1.4
 4 -5 -2 258.85 3.96
 4 -5 -1 489.1 5.47
 4 -5 0 0.87 0.79
 4 -5 3 2.28 1.05
 4 -5 5 77.18 3.18
 4 -5 6 6.01 1.34
 4 -5 7 4.44 1.41
 4 -5 8 36.83 2.93
 4 -5 9 48.58 3.4
 4 -5 10 17.14 2.42
 4 -4 -2 1.7 0.69
 4 -4 -1 11.52 1.01
 4 -4 0 2.7 0.71
 4 -4 1 37.2 1.75
 4 -4 5 0.53 0.81
 4 -4 6 3.81 1.26
 4 -4 7 2.95 1.48
 4 -4 8 3.77 1.4
 4 -4 9 1.02 1.42
 4 -4 10 0.14 1.42
 4 -3 -2 -0.08 0.5
 4 -3 -1 969.79 7.13
 4 -3 0 237.09 3.67
 4 -3 1 55.64 2
 4 -3 2 59.35 2.2
 4 -3 4 528.55 6.84
 4 -3 5 33.8 2.04
 4 -3 6 97.63 3.47
 4 -3 8 5.72 1.48
 4 -3 9 0.86 1.36
 4 -3 10 0.32 1.31
 4 -3 11 0.79 1.47
 4 -2 -2 3.05 0.69
 4 -2 -1 122.89 2.55
 4 -2 0 299.81 3.97
 4 -2 1 73.61 2.11
 4 -2 5 39.12 2.19
 4 -2 6 189.98 4.48
 4 -2 7 14.54 1.65
 4 -2 8 -0.4 1.13
 4 -2 9 1.86 1.3
 4 -2 10 65.12 3.57
 4 -1 -2 893.21 6.69
 4 -1 0 246.08 3.51
 4 -1 1 29.85 1.42
 4 -1 2 94.65 2.39
 4 -1 3 2.04 0.74
 4 -1 5 324.42 5.32
 4 -1 6 8.85 1.33
 4 -1 9 44.69 2.65
 4 -1 10 33.81 2.69
 4 -1 11 1.17 1.6
 4 0 -1 -0.08 0.53
 4 0 0 1.33 0.55
 4 0 1 0.28 0.49
 4 0 2 168.23 3.05
 4 0 3 -0.1 0.66
 4 0 6 490.28 6.63
 4 0 7 0.63 0.87
 4 0 8 9.73 1.64
 4 0 9 -0.65 1.18
 4 0 10 23.53 2.29
 4 0 11 1.87 1.35
 4 1 0 252.06 3.41
 4 1 2 93.9 2.22
 4 1 3 2.94 0.74
 4 1 4 28.98 1.52
 4 1 6 8.55 1.22
 4 1 8 71.32 2.82
 4 1 10 31.06 2.37
 4 2 0 294.48 3.56
 4 2 1 77.52 1.88
 4 2 3 47.99 1.68
 4 2 4 50 1.79
 4 2 5 41.01 1.82
 4 2 8 1.1 0.99
 4 3 2 60.73 1.71
 4 3 3 16.5 1.06
 4 3 4 525.55 5.22
 4 3 7 15.44 1.32
 4 4 6 4.36 0.72
 4 5 4 28.5 1.11
 5 -13 3 10.43 1.91
 5 -12 0 8.41 1.5
 5 -12 1 7.35 1.54
 5 -12 2 3.8 1.58
 5 -12 3 34.74 2.85
 5 -12 4 32.28 2.95
 5 -12 5 -0.73 1.44
 5 -11 -2 16.24 1.7
 5 -11 -1 25.67 2.09
 5 -11 0 132.52 4.09
 5 -11 1 41.06 2.54
 5 -11 2 18.5 2.24
 5 -11 3 7.2 1.87
 5 -11 4 7.16 2.05
 5 -11 5 81.32 4.04
 5 -11 6 18.92 2.72
 5 -10 -2 2.08 1.04
 5 -10 -1 0.02 0.89
 5 -10 0 6.44 1.47
 5 -10 1 7 1.38
 5 -10 2 9.38 1.86
 5 -10 3 10.6 1.81
 5 -10 4 1.83 1.41
 5 -10 5 2.76 1.71
 5 -10 6 0.55 1.45
 5 -9 -2 8.34 1.3
 5 -9 -1 186.31 4.34
 5 -9 0 39.85 2.36
 5 -9 1 0.64 1.06
 5 -9 2 24.81 2.13
 5 -9 3 6.15 1.72
 5 -9 4 71.53 3.61
 5 -9 5 37.57 3.06
 5 -9 6 11.66 2.02
 5 -9 7 2.6 1.76
 5 -8 -1 0.27 0.85
 5 -8 0 9.26 1.41
 5 -8 1 2.84 1.07
 5 -8 2 41.71 2.51
 5 -8 3 9.56 1.64
 5 -8 5 23.4 2.56
 5 -8 6 21.61 2.45
 5 -8 7 34.99 2.91
 5 -8 8 0.72 1.86
 5 -7 0 15.77 1.51
 5 -7 1 1.15 1.01
 5 -7 2 1.18 0.96
 5 -7 4 57.81 3.11
 5 -7 5 118.84 4.4
 5 -7 6 87.3 3.98
 5 -7 7 75.29 3.96
 5 -7 9 1.33 1.71
 5 -6 -3 22.55 1.54
 5 -6 0 17.35 1.49
 5 -6 1 18.74 1.73
 5 -6 2 16.09 1.55
 5 -6 3 0.67 0.92
 5 -6 4 26.67 2.21
 5 -6 5 0.6 1.12
 5 -6 6 40.37 2.89
 5 -6 7 12.43 2
 5 -6 8 4.72 1.8
 5 -6 9 0.03 1.58
 5 -5 -3 13.73 1.39
 5 -5 -2 140.61 3.43
 5 -5 2 64.44 2.64
 5 -5 4 12.77 1.67
 5 -5 6 18.23 2.13
 5 -5 8 3.76 1.68
 5 -5 9 7.27 2
 5 -4 -3 202.38 3.92
 5 -4 -2 3.53 0.93
 5 -4 -1 27.76 1.69
 5 -4 2 322.48 5.41
 5 -4 4 5.09 1.31
 5 -4 6 -0.08 1.07
 5 -4 7 15.02 2.03
 5 -4 8 11.04 2.23
 5 -4 9 9.68 2.28
 5 -3 -2 0.56 0.61
 5 -3 -1 338.81 4.79
 5 -3 0 230.91 4.12
 5 -3 3 15.9 1.43
 5 -3 6 25.45 2.03
 5 -3 9 17.44 2.28
 5 -3 10 7.65 2.07
 5 -2 -2 17.66 1.24
 5 -2 -1 372.44 4.96
 5 -2 0 14.44 1.25
 5 -2 1 0.56 0.8
 5 -2 4 45.44 2.25
 5 -2 5 36.17 2.27
 5 -2 6 15.61 1.7
 5 -2 7 11.03 1.71
 5 -2 9 10.85 2.12
 5 -1 -2 38.76 1.76
 5 -1 -1 52.57 1.93
 5 -1 0 171.12 3.35
 5 -1 1 113.74 2.83
 5 -1 4 339.11 5.59
 5 -1 5 14.77 1.49
 5 -1 6 23.61 2.05
 5 -1 7 3.3 1.32
 5 -1 8 180.1 5.01
 5 -1 9 0.4 1.25
 5 -1 10 -1.45 1.25
 5 -1 11 0.32 1.46
 5 0 -1 0.07 0.63
 5 0 0 656.15 6.33
 5 0 1 0.63 0.66
 5 0 2 44.54 2.01
 5 0 7 0.39 1.04
 5 0 8 -0.54 1.01
 5 0 9 -0.25 1.11
 5 0 10 41.76 2.87
 5 0 11 -0.81 1.23
 5 1 -1 50.34 1.81
 5 1 0 181.09 3.39
 5 1 2 673.98 6.55
 5 1 3 2.56 0.95
 5 1 5 17.73 1.64
 5 1 6 23.1 1.85
 5 1 7 1.37 1
 5 1 8 179.36 4.65
 5 1 9 1.87 1.28
 5 2 0 15.74 1.21
 5 2 1 1.64 0.68
 5 2 2 583.89 5.96
 5 2 3 340.99 4.76
 5 2 5 35.55 1.92
 5 2 7 10.1 1.33
 5 2 8 22.98 1.83
 5 3 1 5.41 0.81
 5 3 2 38.66 1.61
 5 3 3 16 1.25
 5 3 4 2.41 0.76
 5 4 3 67.45 2.04
 5 4 4 4.29 0.83
 5 4 5 8.98 0.97
 6 -13 2 16.9 2.31
 6 -12 -1 3.5 1.37
 6 -12 0 3.86 1.44
 6 -12 1 4.85 1.51
 6 -12 2 13.59 2.01
 6 -12 3 71.9 3.86
 6 -12 4 4.31 2.07
 6 -11 -2 6.23 1.37
 6 -11 -1 -0.44 0.99
 6 -11 0 23.94 2.2
 6 -11 1 5.39 1.54
 6 -11 2 2.15 1.42
 6 -11 3 4.37 1.9
 6 -11 4 2.07 1.63
 6 -11 5 2.77 2.02
 6 -10 -2 67.51 3.01
 6 -10 -1 53.8 2.86
 6 -10 0 1.19 1.33
 6 -10 1 1.35 1.52
 6 -10 2 137.74 4.8
 6 -10 3 1.46 1.42
 6 -10 4 24.71 2.95
 6 -10 5 5.18 1.9
 6 -10 6 2.51 1.82
 6 -9 -2 2.32 1.1
 6 -9 -1 6.51 1.41
 6 -9 0 56.19 2.99
 6 -9 1 32.13 2.57
 6 -9 2 18.48 2.34
 6 -9 3 51.16 3.18
 6 -9 4 11.69 2.27
 6 -9 5 99.43 4.59
 6 -9 6 28.03 2.8
 6 -8 -2 -0.89 0.96
 6 -8 -1 13.65 1.82
 6 -8 0 139.6 4.19
 6 -8 1 5.38 1.38
 6 -8 2 119.33 4.18
 6 -8 3 74.28 3.68
 6 -8 4 117.36 4.45
 6 -8 5 0.5 1.41
 6 -8 6 25.26 3.05
 6 -8 7 12.68 2.48
 6 -7 -3 -0.02 0.87
 6 -7 -2 10.09 1.56
 6 -7 -1 89.39 3.3
 6 -7 0 53.05 2.75
 6 -7 1 -0.08 1.03
 6 -7 2 1.51 1.29
 6 -7 3 61.16 3.19
 6 -7 5 47.35 3.23
 6 -7 6 0.98 1.46
 6 -7 7 10.13 2.22
 6 -7 8 3.06 1.91
 6 -6 -2 50.12 2.38
 6 -6 -1 6.23 1.19
 6 -6 0 2.38 1
 6 -6 1 41.71 2.37
 6 -6 2 38.53 2.39
 6 -6 4 17.58 2.04
 6 -6 5 81.61 3.76
 6 -6 6 13.03 2.29
 6 -6 7 18.73 2.75
 6 -6 8 5.6 1.89
 6 -5 -1 1.3 0.89
 6 -5 0 8 1.26
 6 -5 1 151.63 4.11
 6 -5 2 4.49 1.34
 6 -5 3 12.34 1.67
 6 -5 4 23.74 2.25
 6 -5 5 -0.14 1.26
 6 -5 6 0.72 1.35
 6 -5 7 2.17 1.5
 6 -5 9 2.53 2.04
 6 -4 1 1.18 0.83
 6 -4 2 0.49 0.87
 6 -4 3 0.24 0.96
 6 -4 5 22.28 2.31
 6 -4 7 4.35 1.6
 6 -4 8 25.07 2.82
 6 -4 9 -0.66 1.59
 6 -3 2 43.53 2.39
 6 -3 3 16.48 1.65
 6 -3 5 8.49 1.61
 6 -3 6 50.88 3.09
 6 -3 8 11.59 2.07
 6 -2 -2 27.29 1.67
 6 -2 2 16.58 1.51
 6 -2 3 9.49 1.41
 6 -2 4 11.64 1.53
 6 -2 5 31.65 2.21
 6 -2 6 120.81 4.23
 6 -2 7 6.82 1.89
 6 -2 8 6.12 1.65
 6 -2 9 4.91 1.71
 6 -2 10 16.57 2.53
 6 -1 -2 5.16 1.01
 6 -1 -1 75.22 2.57
 6 -1 4 29.77 2.01
 6 -1 5 3.2 1.26
 6 -1 6 9.71 1.56
 6 -1 7 48.77 2.83
 6 -1 8 0.28 1.51
 6 -1 9 -0.03 1.53
 6 -1 10 26.89 2.63
 6 0 -1 -0.66 0.61
 6 0 3 0.57 0.84
 6 0 4 9.75 1.52
 6 0 6 87.62 3.41
 6 0 7 0.54 1.15
 6 0 8 13.76 2.02
 6 0 10 2.55 1.41
 6 1 0 5.28 1.01
 6 1 3 26.07 1.82
 6 1 4 29.38 1.93
 6 1 5 2.15 0.98
 6 1 6 9.22 1.47
 6 1 7 45.62 2.56
 6 1 8 0.2 1.31
 6 2 0 15.25 1.27
 6 2 1 37.26 1.86
 6 2 5 28.42 1.94
 6 2 6 124.09 3.66
 6 2 7 8.96 1.4
 6 3 2 38.62 1.92
 6 3 4 4.89 0.95
 6 3 5 6.63 1.1
 6 3 7 -0.18 0.37
 6 4 3 -0.68 0.57
 7 -12 -1 11.8 1.87
 7 -12 0 4.25 1.83
 7 -12 1 0.06 1.36
 7 -11 -1 21.85 2.26
 7 -11 0 19.22 2.44
 7 -11 2 25.63 2.79
 7 -10 -2 20.38 2.44
 7 -10 -1 20.45 2.48
 7 -10 0 3.45 1.68
 7 -10 1 7.69 1.79
 7 -10 2 29.77 2.97
 7 -10 3 6.12 2.02
 7 -10 4 -0.66 1.44
 7 -9 -2 23.14 2.36
 7 -9 0 88.91 3.91
 7 -9 1 8.73 1.86
 7 -9 2 5.83 1.95
 7 -9 4 3.73 1.71
 7 -9 5 14.99 2.6
 7 -8 -3 1.74 1.13
 7 -8 -2 1.49 1.17
 7 -8 -1 -0.05 1.12
 7 -8 0 4.76 1.38
 7 -8 1 39.87 2.69
 7 -8 2 27.75 2.61
 7 -8 3 198.85 5.9
 7 -8 4 -0.12 1.45
 7 -8 5 5.61 1.91
 7 -8 6 12.68 2.69
 7 -7 -3 -0.09 0.97
 7 -7 -2 211.12 5.25
 7 -7 -1 16.41 2.08
 7 -7 0 0.16 1.1
 7 -7 1 110.58 4.05
 7 -7 2 81.53 3.73
 7 -7 3 2.01 1.39
 7 -7 4 14.22 2.22
 7 -7 5 -0.68 1.35
 7 -7 7 26.09 3.22
 7 -6 -3 184.6 4.67
 7 -6 -2 19.92 1.83
 7 -6 -1 154.22 4.41
 7 -6 0 39.92 2.52
 7 -6 1 90.46 3.68
 7 -6 2 60.47 3.26
 7 -6 3 53.86 3.29
 7 -6 4 5.92 1.73
 7 -6 5 15.89 2.44
 7 -6 6 38.87 3.09
 7 -6 7 44.04 3.42
 7 -5 -2 112.58 3.76
 7 -5 -1 28.41 2.07
 7 -5 0 22.1 1.97
 7 -5 1 343.09 6.7
 7 -5 2 65.67 3.28
 7 -5 3 -0.82 1.1
 7 -5 4 15.12 2.08
 7 -5 6 -0.1 1.4
 7 -5 7 5.88 1.88
 7 -5 8 7.52 2.28
 7 -4 -3 26.26 1.99
 7 -4 -1 57.01 2.67
 7 -4 1 4.72 1.27
 7 -4 2 19.6 2
 7 -4 3 105.43 4.03
 7 -4 4 0.79 1.23
 7 -4 5 35 2.79
 7 -4 6 37.43 2.88
 7 -4 7 -0.49 1.38
 7 -4 8 31.59 3.13
 7 -3 -1 109.17 3.5
 7 -3 0 35.63 2.27
 7 -3 1 6.01 1.36
 7 -3 2 49.68 2.71
 7 -3 3 24.58 2.25
 7 -3 4 1.36 1.19
 7 -3 5 11.75 1.87
 7 -3 6 57.14 3.52
 7 -3 7 1.75 1.73
 7 -3 8 3.55 1.82
 7 -2 -2 162.78 4.18
 7 -2 -1 134.1 3.79
 7 -2 0 42.9 2.28
 7 -2 1 11.91 1.46
 7 -2 2 27.12 1.98
 7 -2 3 2.94 1.19
 7 -2 4 0.64 1.13
 7 -2 5 17.25 2.07
 7 -2 6 44.43 3.13
 7 -2 7 -0.12 1.38
 7 -2 8 2.58 1.62
 7 -1 -1 15.55 1.64
 7 -1 0 0.89 0.96
 7 -1 1 5.42 1.28
 7 -1 3 4.09 1.31
 7 -1 4 -0.27 1.03
 7 -1 5 56.15 3.1
 7 -1 6 41.74 2.9
 7 -1 7 11.01 2.05
 7 -1 8 4.52 1.62
 7 -1 9 6.35 1.85
 7 0 1 0.34 0.97
 7 0 3 -0.3 0.94
 7 0 4 256.87 5.57
 7 0 5 0.32 1.05
 7 0 6 42.3 2.85
 7 0 7 -0.12 1.38
 7 0 8 125.5 4.56
 7 1 1 3.72 1.16
 7 1 2 43.78 2.4
 7 1 3 2.7 1.09
 7 1 4 1.06 1.12
 7 1 5 50.33 2.77
 7 1 6 34.99 2.52
 7 1 8 3.61 1.39
 7 2 2 26.98 1.97
 7 2 3 4.04 1.12
 7 2 4 1.36 0.95
 7 2 5 19.33 1.9
 7 2 6 45.94 2.61
 7 3 3 23.82 1.81
 7 3 4 1.33 0.99
 7 3 5 12.17 1.46
 8 -12 0 2.01 1.73
 8 -11 -1 -0.55 1.43
 8 -11 0 19.82 2.69
 8 -11 1 5.17 1.88
 8 -11 2 39.98 3.5
 8 -10 -2 6.63 1.91
 8 -10 1 4.37 1.92
 8 -10 2 17.06 2.68
 8 -10 3 53.01 3.86
 8 -9 -2 10.96 1.94
 8 -9 -1 -0.38 1.56
 8 -9 0 88.47 4.13
 8 -9 3 0.06 1.56
 8 -9 4 4.52 1.9
 8 -8 -2 38.15 2.97
 8 -8 -1 10.71 1.98
 8 -8 0 -0.61 1.35
 8 -8 1 15.42 2.22
 8 -8 2 0.92 1.76
 8 -8 3 4.07 1.79
 8 -8 4 22.09 3.07
 8 -8 5 2.4 1.85
 8 -7 -2 -0.31 1.18
 8 -7 -1 8.63 1.91
 8 -7 0 2.42 1.41
 8 -7 1 42.43 2.96
 8 -7 2 5.6 1.85
 8 -7 3 6.17 1.86
 8 -7 4 -0.01 1.6
 8 -7 5 41.95 3.31
 8 -6 -2 10.58 1.96
 8 -6 -1 323.77 6.91
 8 -6 0 7.69 1.87
 8 -6 1 12.06 2.12
 8 -6 2 2.99 1.44
 8 -6 3 0.5 1.62
 8 -6 4 25.48 2.99
 8 -6 5 34.56 3.39
 8 -6 6 1.57 1.91
 8 -5 -2 153.18 4.74
 8 -5 -1 2.94 1.33
 8 -5 0 -0.63 1.13
 8 -5 1 43.69 2.98
 8 -5 2 2.29 1.31
 8 -5 3 56.85 3.5
 8 -5 4 9.23 2.01
 8 -5 5 47.61 3.6
 8 -5 6 22.26 3.01
 8 -4 -2 15.52 2.11
 8 -4 -1 81.47 3.45
 8 -4 0 40.42 2.61
 8 -4 1 18.73 1.99
 8 -4 2 7.1 1.75
 8 -4 3 1.29 1.3
 8 -4 4 6.46 1.98
 8 -4 5 7.43 1.99
 8 -4 6 54.6 3.76
 8 -4 7 28.68 3.05
 8 -3 -2 2.75 1.24
 8 -3 0 112.24 4.03
 8 -3 1 11.42 1.74
 8 -3 2 27.25 2.48
 8 -3 4 12.5 2.09
 8 -3 5 60.33 3.66
 8 -3 6 9.88 2.27
 8 -3 7 16.62 2.66
 8 -2 -2 2.87 1.18
 8 -2 -1 15.28 1.73
 8 -2 0 0.41 1.05
 8 -2 2 43.33 2.66
 8 -2 3 205.34 5.49
 8 -2 4 0.69 1.5
 8 -2 5 0.03 1.32
 8 -2 6 2.89 1.83
 8 -2 7 4.09 1.77
 8 -1 -1 133.63 4.12
 8 -1 0 0.31 1.04
 8 -1 1 52.26 2.89
 8 -1 2 104.35 3.83
 8 -1 3 6.46 1.55
 8 -1 4 57.51 3.31
 8 -1 5 6.58 1.95
 8 -1 6 49.98 3.29
 8 -1 7 5.42 1.94
 8 0 0 108.16 3.71
 8 0 1 1.53 1.31
 8 0 2 -0.15 1.05
 8 0 3 -0.44 1.21
 8 0 4 200.25 5.29
 8 0 5 -0.26 1.2
 8 0 6 6.83 1.84
 8 0 7 0.33 1.32
 8 0 8 19.95 2.48
 8 1 0 1.33 1.03
 8 1 1 50.83 2.62
 8 1 2 102.21 3.66
 8 1 3 5 1.34
 8 1 4 57.04 3
 8 1 5 5.26 1.46
 8 1 6 52.92 3.12
 8 1 7 6.84 1.62
 8 2 2 40.25 2.48
 8 2 4 1.66 1.17
 8 2 5 -0.43 1.01
 8 3 4 16.36 1.71
 9 -11 0 8.59 2.17
 9 -10 -1 8.2 2.07
 9 -10 0 42.07 3.32
 9 -10 1 3.01 2.01
 9 -9 -1 1.47 1.84
 9 -9 0 7.99 2.25
 9 -9 1 30.19 3.02
 9 -9 2 18.28 2.67
 9 -8 -2 24.28 2.5
 9 -8 -1 5.6 1.97
 9 -8 0 1.46 1.71
 9 -8 1 17.24 2.57
 9 -8 2 6.12 2.06
 9 -8 3 54.54 3.96
 9 -7 -2 -0.12 1.4
 9 -7 0 65.6 3.97
 9 -7 1 1.27 1.54
 9 -7 2 21.01 2.68
 9 -6 -1 6.81 1.89
 9 -6 0 3.4 1.69
 9 -6 1 57.12 3.68
 9 -6 2 1.95 1.62
 9 -6 3 4.59 1.85
 9 -6 4 20.87 2.96
 9 -5 -1 1.22 1.59
 9 -5 0 24.01 2.68
 9 -5 1 11.03 2.11
 9 -5 2 38.04 3.2
 9 -5 5 1.46 1.79
 9 -4 -2 1.03 1.18
 9 -4 -1 -0.65 1.13
 9 -4 0 63.15 3.46
 9 -4 1 88.37 4.18
 9 -4 2 7.63 1.93
 9 -4 3 48.81 3.54
 9 -4 4 36.37 3.24
 9 -4 5 1.1 1.67
 9 -3 -1 37.35 2.87
 9 -3 1 39.24 3
 9 -3 2 1.82 1.51
 9 -3 3 40.78 3.27
 9 -3 4 43.98 3.45
 9 -3 5 2.71 1.73
 9 -3 6 13.21 2.29
 9 -2 -1 59.49 3.16
 9 -2 1 0.47 1.25
 9 -2 2 -0.2 1.33
 9 -2 3 9.7 1.97
 9 -2 4 5.41 1.79
 9 -2 6 66.22 3.99
 9 -1 0 0.98 1.18
 9 -1 1 160.63 5.03
 9 -1 2 102.35 4.3
 9 -1 3 5.27 1.64
 9 -1 4 30.91 2.81
 9 -1 5 -0.72 1.4
 9 -1 6 5.7 1.86
 9 0 0 7.77 1.8
 9 0 1 -0.24 1.29
 9 0 2 0.32 1.32
 9 0 3 -1.57 1.35
 9 0 4 11.06 2.06
 9 0 5 0.63 1.6
 9 0 6 5 1.97
 9 1 1 164.43 4.86
 9 1 2 102.19 4.07
 9 1 3 5.08 1.67
 9 1 4 29.94 2.74
 9 1 5 0.26 1.32
 9 1 6 6.03 1.81
 9 2 3 8.43 1.78
 9 2 4 6.42 1.65
 9 2 5 18.97 2.07
 10 -9 -1 46.24 3.75
 10 -9 0 34.95 3.24
 10 -8 -1 -1.25 1.85
 10 -8 0 -1.25 1.47
 10 -8 1 7 2.21
 10 -7 -1 2.44 1.69
 10 -7 0 -0.79 1.66
 10 -7 1 1.49 1.76
 10 -7 2 108.61 5.31
 10 -6 -1 3.33 1.7
 10 -6 1 44.4 3.49
 10 -6 3 -0.14 1.75
 10 -5 0 12.61 2.37
 10 -5 1 8.65 2.2
 10 -5 2 2.43 1.94
 10 -5 3 0.81 1.76
 10 -4 -1 5.37 1.91
 10 -4 0 43.27 3.21
 10 -4 1 7.93 2.21
 10 -4 3 38.35 3.58
 10 -4 4 114.92 5.22
 10 -3 -1 24.93 2.75
 10 -3 0 12.89 2.22
 10 -3 1 2.02 1.78
 10 -3 2 2.34 1.65
 10 -3 4 22.22 2.84
 10 -2 0 48.3 3.4
 10 -2 1 152.05 5.38
 10 -2 3 5.52 1.9
 10 -2 4 4.83 1.86
 10 -1 1 25.86 2.58
 10 -1 2 26.93 2.99
 10 -1 3 4.33 1.75
 10 -1 4 8.24 2.09
 10 -1 5 2.75 1.77
 10 0 4 13.21 2.33
 10 0 5 -2.27 1.35
 10 1 4 8.55 2
 10 1 5 2.33 1.57
 11 -6 0 8.01 2.27
 11 -6 1 8.55 2.33
 11 -5 0 3.3 1.87
 11 -5 1 7.36 2.43
 11 -4 0 -1.68 1.46
 11 -4 2 1.94 2.26
 11 -3 1 75.29 4.23
 11 -3 2 29.3 3.54
 11 -2 2 -0.99 1.51
 11 -2 3 -0.12 1.67
 11 -1 3 46.84 3.58
 -9 8 6 26.87 2.01
 -9 9 7 121.21 4.04
 -9 10 7 4.15 1.48
 -9 10 8 3.63 1.5
 -9 11 8 0.74 1.44
 -8 6 3 -0.33 0.54
 -8 6 4 5.45 0.9
 -8 6 6 3.75 0.98
 -8 7 5 27.38 1.74
 -8 7 6 39.64 2.21
 -8 7 7 73.98 3.15
 -8 8 4 61.61 2.48
 -8 8 5 97.03 3.2
 -8 8 6 -0.15 0.96
 -8 8 7 4.05 1.3
 -8 8 8 43.57 2.86
 -8 9 4 0.41 0.94
 -8 9 5 22.59 1.98
 -8 9 8 71.46 3.58
 -8 9 9 20.94 2.5
 -8 10 4 41.43 2.43
 -8 10 5 81.27 3.34
 -8 10 6 19.63 2.18
 -8 10 7 0.25 1.44
 -8 10 8 2.8 1.63
 -8 11 5 42.77 2.75
 -8 11 6 -1.46 1
 -8 11 7 120.64 4.48
 -8 11 8 3.06 1.79
 -8 11 9 6.5 2.09
 -8 11 10 -0.92 1.5
 -8 12 6 2.17 1.35
 -8 12 7 0.41 1.59
 -8 12 8 0.29 1.54
 -7 4 3 28.65 1.21
 -7 4 4 13.34 1.07
 -7 5 1 28.87 1.01
 -7 5 2 118.6 2.23
 -7 5 3 0.98 0.58
 -7 5 4 6.02 0.95
 -7 5 7 15.3 1.54
 -7 6 2 18.34 1.16
 -7 6 3 201.29 3.54
 -7 6 6 5.24 1.18
 -7 6 7 12.92 1.64
 -7 6 8 40.71 2.41
 -7 7 1 18.42 1.17
 -7 7 2 221.35 3.73
 -7 7 5 5.09 1.1
 -7 7 6 0.92 0.95
 -7 7 7 4.9 1.44
 -7 7 8 46.46 2.82
 -7 7 9 21.49 2.16
 -7 8 3 1.93 0.85
 -7 8 4 20.96 1.66
 -7 8 5 58.81 2.68
 -7 8 6 54.77 2.81
 -7 8 7 20.89 1.96
 -7 8 8 2.06 1.43
 -7 8 9 8.88 1.77
 -7 9 2 22.54 1.67
 -7 9 3 151.45 3.83
 -7 9 4 0.39 1.02
 -7 9 5 37.28 2.49
 -7 9 6 1.74 1.22
 -7 9 8 30.9 2.74
 -7 9 9 80.52 3.92
 -7 9 10 3.06 1.83
 -7 10 2 17.47 1.72
 -7 10 3 51.36 2.59
 -7 10 4 -0.69 1.03
 -7 10 5 217.84 5.37
 -7 10 6 10.94 1.81
 -7 10 7 0.28 1.24
 -7 10 8 1.7 1.61
 -7 10 9 29.83 2.71
 -7 10 10 19.03 2.7
 -7 11 2 0.31 1.16
 -7 11 3 27.89 2.2
 -7 11 4 1.18 1.17
 -7 11 5 2.42 1.4
 -7 11 6 -0.67 1.26
 -7 11 7 6.98 1.93
 -7 11 8 4.83 1.73
 -7 11 9 60.64 3.77
 -7 11 10 0.3 1.64
 -7 12 3 32.46 2.47
 -7 12 4 5.24 1.58
 -7 12 5 25.04 2.48
 -7 12 7 -0.86 1.42
 -7 12 8 1.17 1.91
 -7 12 9 104.05 4.67
 -7 13 4 5.46 1.56
 -7 13 5 2.27 1.43
 -7 13 6 14.44 2.38
 -7 13 7 86.19 4.33
 -6 3 2 145.71 2.03
 -6 3 3 298.99 3.39
 -6 4 0 337.98 2.52
 -6 4 2 382.95 3.73
 -6 4 3 299.11 3.71
 -6 4 4 123.6 2.65
 -6 4 5 27.85 1.52
 -6 5 -1 154.93 2.03
 -6 5 0 6.08 0.59
 -6 5 1 0.85 0.44
 -6 5 2 98.69 2.16
 -6 5 3 37.3 1.6
 -6 5 7 59.26 2.65
 -6 5 8 164.98 4.33
 -6 6 -1 39.34 1.32
 -6 6 0 0.48 0.46
 -6 6 1 5.86 0.83
 -6 6 2 52.09 1.77
 -6 6 3 59.48 2.07
 -6 6 6 144.82 3.81
 -6 6 7 51.53 2.6
 -6 6 8 1.75 1.12
 -6 6 9 41.78 2.57
 -6 7 -1 0.77 0.55
 -6 7 1 94.81 2.46
 -6 7 2 7.13 1.02
 -6 7 5 -1.05 0.75
 -6 7 6 2.86 1.22
 -6 7 7 11.56 1.72
 -6 7 8 22.11 2.22
 -6 7 9 1.45 1.26
 -6 7 10 2.31 1.39
 -6 8 2 0.08 0.64
 -6 8 3 66.33 2.44
 -6 8 4 141.23 3.66
 -6 8 5 7.59 1.34
 -6 8 6 6.02 1.34
 -6 8 7 113.69 3.92
 -6 8 9 8.08 1.77
 -6 8 10 19.05 2.42
 -6 9 -1 27.35 1.67
 -6 9 0 53.07 2.19
 -6 9 1 6.92 1.26
 -6 9 2 4.07 1.05
 -6 9 3 30.91 1.92
 -6 9 4 53.84 2.6
 -6 9 5 0.77 1.09
 -6 9 6 46.45 2.83
 -6 9 7 21.22 2.56
 -6 9 8 0.39 1.5
 -6 9 9 5.31 1.75
 -6 9 10 3.24 1.72
 -6 10 0 1.67 1.05
 -6 10 1 56.71 2.55
 -6 10 2 65.31 2.71
 -6 10 3 102.17 3.52
 -6 10 4 13.2 1.71
 -6 10 5 26.89 2.15
 -6 10 6 218.91 5.66
 -6 10 7 6.16 1.94
 -6 10 8 2.23 1.66
 -6 10 9 2.57 1.61
 -6 10 10 9.45 2.13
 -6 10 11 0.42 1.63
 -6 11 0 21.35 1.9
 -6 11 1 -1.32 1.03
 -6 11 2 7.67 1.58
 -6 11 3 7.92 1.55
 -6 11 4 0.72 1.22
 -6 11 5 0.36 1.24
 -6 11 6 2.1 1.57
 -6 11 8 5.15 1.78
 -6 11 9 -0.66 1.76
 -6 11 10 0.91 1.8
 -6 12 1 4.08 1.34
 -6 12 2 3.6 1.53
 -6 12 3 0.87 1.43
 -6 12 4 6.92 1.73
 -6 12 5 13.77 2.1
 -6 12 7 36.3 2.98
 -6 12 8 12.54 2.3
 -6 12 9 1.25 1.79
 -6 13 1 2.11 1.28
 -6 13 2 10.23 1.75
 -6 13 3 28.97 2.61
 -6 13 4 0.4 1.56
 -6 13 5 5.87 1.8
 -6 13 6 4.61 1.74
 -6 13 7 17.21 2.69
 -6 14 2 9.25 1.99
 -6 14 3 2.66 1.45
 -6 14 4 29.17 2.76
 -6 14 5 33.62 3.05
 -5 3 -2 39.58 0.69
 -5 3 -1 5.93 0.33
 -5 3 0 225.94 1.86
 -5 3 1 353.37 2.81
 -5 3 2 0.54 0.36
 -5 3 4 102.26 2.3
 -5 3 5 3.14 0.83
 -5 4 -1 216.74 2.27
 -5 4 0 2.78 0.43
 -5 4 1 27.22 1.02
 -5 4 2 3.19 0.62
 -5 4 3 202.49 3.12
 -5 4 5 14.51 1.37
 -5 5 0 746.54 5.26
 -5 5 1 319.2 3.65
 -5 5 2 136.54 2.58
 -5 5 3 12.59 1.06
 -5 5 4 209.93 3.68
 -5 5 7 7.06 1.22
 -5 5 8 23.22 1.85
 -5 5 9 7.44 1.41
 -5 6 -1 17.02 1.06
 -5 6 0 18.99 1.1
 -5 6 1 123.71 2.61
 -5 6 2 235.95 3.68
 -5 6 3 24.23 1.51
 -5 6 6 89.14 3.11
 -5 6 7 78.17 2.99
 -5 6 8 1.49 1.19
 -5 6 9 92.48 3.78
 -5 7 -2 1.92 0.69
 -5 7 -1 -0.34 0.56
 -5 7 1 200.51 3.66
 -5 7 5 3.25 0.99
 -5 7 6 7.17 1.34
 -5 7 7 1.89 1.09
 -5 7 8 1.28 1.16
 -5 7 9 6.07 1.56
 -5 7 10 20.75 2.41
 -5 8 2 205.09 4.14
 -5 8 3 23.32 1.77
 -5 8 4 -0.1 0.93
 -5 8 5 7.95 1.32
 -5 8 6 6.19 1.41
 -5 8 7 2.35 1.19
 -5 8 8 6.13 1.7
 -5 8 9 33.29 2.59
 -5 8 10 7.23 1.8
 -5 9 -3 5.09 1.17
 -5 9 -2 20.91 1.61
 -5 9 1 185.3 4.1
 -5 9 2 8.6 1.41
 -5 9 3 3.76 1.06
 -5 9 5 73.2 3.04
 -5 9 6 9.85 1.7
 -5 9 7 28.14 2.5
 -5 9 8 -1.18 1.16
 -5 9 9 16.03 2.27
 -5 9 10 5.83 2.07
 -5 9 11 11.98 2.33
 -5 10 -3 10.3 1.44
 -5 10 -2 8.7 1.34
 -5 10 -1 5.47 1.14
 -5 10 0 6.01 1.23
 -5 10 1 1.84 1
 -5 10 2 3.94 1.15
 -5 10 3 0.11 0.96
 -5 10 4 11.69 1.64
 -5 10 5 19.22 2.15
 -5 10 6 69.47 3.5
 -5 10 7 31.9 2.72
 -5 10 8 13.09 2.12
 -5 10 9 0.78 1.54
 -5 10 10 2.09 1.83
 -5 10 11 3.28 2.11
 -5 11 -1 39.88 2.39
 -5 11 1 26 2.13
 -5 11 2 12.82 1.73
 -5 11 3 225.59 5.44
 -5 11 5 3.59 1.51
 -5 11 6 -0.58 1.36
 -5 11 7 101.86 4.45
 -5 11 8 21.75 2.76
 -5 11 9 40.1 3.44
 -5 11 11 5.83 2.17
 -5 12 -2 1.11 1.27
 -5 12 -1 8.63 1.53
 -5 12 0 6.11 1.53
 -5 12 1 67.24 3.26
 -5 12 2 -0.09 1.13
 -5 12 3 5.72 1.68
 -5 12 4 6.66 1.66
 -5 12 5 -0.59 1.25
 -5 12 6 0.65 1.77
 -5 12 7 3.85 2.05
 -5 12 8 12.26 2.48
 -5 12 9 1.14 1.93
 -5 13 -1 -0.55 1.15
 -5 13 0 1.16 1.34
 -5 13 1 0.92 1.49
 -5 13 2 10.81 2.09
 -5 13 3 11.24 1.96
 -5 13 4 28.66 2.6
 -5 13 5 5.96 1.98
 -5 13 6 1.95 1.7
 -5 13 7 2.55 1.78
 -5 13 8 1.59 1.8
 -5 14 0 1.33 1.35
 -5 14 2 -1.57 1.24
 -5 14 3 7.79 1.92
 -5 14 4 1.05 1.64
 -5 14 5 8 2.02
 -4 2 1 117.72 1.44
 -4 2 2 2.99 0.43
 -4 2 3 1035.25 5.91
 -4 2 4 81.46 2.01
 -4 2 5 167.27 3.1
 -4 3 0 239.56 2.22
 -4 3 1 943.32 4.75
 -4 3 2 0.81 0.39
 -4 3 3 13.51 0.85
 -4 3 4 300.68 3.9
 -4 3 5 477.11 5.33
 -4 3 6 19.69 1.46
 -4 4 0 2.08 0.43
 -4 4 2 0.78 0.54
 -4 4 3 0.51 0.49
 -4 4 5 81.59 2.4
 -4 4 8 123.61 3.7
 -4 5 0 0.95 0.61
 -4 5 1 503.11 4.69
 -4 5 4 37.29 1.61
 -4 5 5 28.04 1.61
 -4 5 7 16.53 1.63
 -4 6 0 14.66 1.1
 -4 6 1 0.66 0.61
 -4 6 2 487.65 5.38
 -4 6 3 4.04 0.89
 -4 6 6 2.37 1.04
 -4 6 7 1.92 1.01
 -4 6 8 11.29 1.71
 -4 6 9 22.45 2.08
 -4 6 10 1.99 1.49
 -4 7 1 11.77 1.25
 -4 7 5 1.07 0.96
 -4 7 6 3.16 1.1
 -4 7 7 42.83 2.41
 -4 7 8 0.17 0.92
 -4 7 9 32.63 2.61
 -4 7 10 178.18 5.4
 -4 8 3 10.4 1.38
 -4 8 4 -0.45 0.84
 -4 8 5 4.47 1.11
 -4 8 6 39.25 2.31
 -4 8 7 36.4 2.39
 -4 8 8 8.42 1.65
 -4 8 9 23.54 2.52
 -4 8 10 22.73 2.4
 -4 9 0 2.83 1.07
 -4 9 1 33.34 2
 -4 9 2 41.01 2.16
 -4 9 3 64.69 2.71
 -4 9 4 241.21 5.1
 -4 9 5 104.56 3.57
 -4 9 6 65.52 3.12
 -4 9 7 7.41 1.76
 -4 9 8 48.52 3.13
 -4 9 9 50.54 3.2
 -4 9 10 35.47 3.14
 -4 9 11 7.76 2
 -4 10 -1 5.75 1.33
 -4 10 0 31.42 2.12
 -4 10 1 10.98 1.64
 -4 10 2 38.55 2.28
 -4 10 3 27.28 2.25
 -4 10 4 35.03 2.28
 -4 10 5 88.13 3.64
 -4 10 6 9.94 1.77
 -4 10 7 28.38 2.61
 -4 10 9 7.55 1.92
 -4 10 10 3.38 1.86
 -4 10 11 37.19 3.29
 -4 11 -2 1.02 1.3
 -4 11 -1 53.36 2.81
 -4 11 0 4.96 1.37
 -4 11 2 34.73 2.35
 -4 11 3 4.95 1.39
 -4 11 5 39.49 2.84
 -4 11 6 52.63 3.12
 -4 11 7 11.24 2.33
 -4 11 8 -1 1.37
 -4 11 9 33.57 3.26
 -4 11 10 21.67 2.89
 -4 12 -4 65.69 3.2
 -4 12 -3 16.04 1.97
 -4 12 -2 41.44 2.74
 -4 12 2 2.43 1.48
 -4 12 3 1.85 1.37
 -4 12 4 12.77 1.98
 -4 12 5 69.36 3.7
 -4 12 6 9.06 2.11
 -4 12 7 78.15 4.22
 -4 12 8 6.31 1.98
 -4 12 9 1.3 1.77
 -4 13 -3 3.83 1.5
 -4 13 -2 29.34 2.55
 -4 13 -1 9.64 1.72
 -4 13 0 -0.26 1.36
 -4 13 1 70.17 3.58
 -4 13 2 4.79 1.64
 -4 13 3 5.66 1.85
 -4 13 4 5.95 1.81
 -4 13 5 2.13 1.59
 -4 13 6 3.94 1.76
 -4 13 7 20.15 2.84
 -4 13 8 59.63 4.1
 -4 14 -3 -0.27 1.48
 -4 14 -2 5.53 1.72
 -4 14 -1 2.04 1.64
 -4 14 0 6.04 1.76
 -4 14 1 5.64 1.67
 -4 14 3 0.6 1.55
 -4 14 4 2.98 1.67
 -4 14 6 70.88 4.21
 -3 1 1 1766.35 4.47
 -3 1 2 103.72 1.54
 -3 1 3 545.49 4.02
 -3 2 0 76.67 1.05
 -3 2 1 63.34 1.12
 -3 2 4 80.27 1.95
 -3 2 5 488.24 5.19
 -3 2 6 277.61 4.22
 -3 3 1 93.83 1.62
 -3 3 2 193.55 2.5
 -3 3 3 6.06 0.73
 -3 3 4 504.3 4.97
 -3 3 5 345.23 4.55
 -3 3 6 186.94 3.67
 -3 4 1 615.87 4.61
 -3 4 3 435.06 4.46
 -3 4 5 29.98 1.54
 -3 4 8 383.71 6.34
 -3 5 1 0.38 0.52
 -3 5 2 249.85 3.52
 -3 5 3 70.94 2.04
 -3 5 4 6.62 1.03
 -3 5 7 70.53 2.78
 -3 5 8 7.63 1.31
 -3 6 3 4.41 0.92
 -3 6 6 5.66 1.21
 -3 6 8 7.06 1.45
 -3 6 9 1.25 1.25
 -3 6 10 10.33 1.75
 -3 7 1 51.35 2.08
 -3 7 5 91.43 2.96
 -3 7 6 123.33 3.62
 -3 7 7 1.21 1.1
 -3 7 8 33.08 2.48
 -3 7 9 15.61 2.04
 -3 7 10 10.94 2.1
 -3 8 4 32.48 1.95
 -3 8 5 32.77 2.14
 -3 8 6 0.37 0.93
 -3 8 7 4.3 1.39
 -3 8 8 199 5.47
 -3 8 9 5.2 1.64
 -3 8 10 14.89 2.39
 -3 8 11 78.41 4.17
 -3 9 0 0.72 1.01
 -3 9 1 22.58 1.85
 -3 9 2 42.97 2.3
 -3 9 3 14.92 1.5
 -3 9 4 -0.2 1.06
 -3 9 5 61.86 2.82
 -3 9 6 3.34 1.19
 -3 9 7 36.76 2.62
 -3 9 8 15.33 2.15
 -3 9 9 64.22 3.55
 -3 9 10 -0.3 1.43
 -3 9 11 -0.15 1.61
 -3 10 0 45.32 2.58
 -3 10 3 188.88 4.81
 -3 10 6 117.11 4.29
 -3 10 8 0.74 1.54
 -3 10 9 30.64 2.9
 -3 10 10 30.33 2.86
 -3 10 11 32.42 3.37
 -3 11 -1 0.96 1.12
 -3 11 0 23.04 2.2
 -3 11 1 61.9 3.01
 -3 11 2 9.08 1.6
 -3 11 3 14.27 1.93
 -3 11 4 9.02 1.69
 -3 11 5 0.92 1.21
 -3 11 6 2.29 1.69
 -3 11 7 8.13 1.93
 -3 11 8 3.3 1.7
 -3 11 9 35.01 3.36
 -3 11 10 6.44 2.11
 -3 12 -2 2.12 1.47
 -3 12 -1 229.45 5.74
 -3 12 0 44.33 2.71
 -3 12 1 47.24 2.93
 -3 12 2 1.93 1.38
 -3 12 3 1.75 1.31
 -3 12 4 12.94 2
 -3 12 5 36.57 3
 -3 12 6 1.36 1.48
 -3 12 8 2.78 1.77
 -3 12 9 12.72 2.6
 -3 13 -4 3.85 1.52
 -3 13 -3 85.46 3.84
 -3 13 -2 7.95 1.97
 -3 13 -1 0.13 1.33
 -3 13 1 0.84 1.34
 -3 13 2 34.76 2.97
 -3 13 3 1.04 1.58
 -3 13 4 -0.12 1.51
 -3 13 5 51.71 3.55
 -3 13 6 27.19 2.94
 -3 13 7 1.04 1.66
 -3 13 8 1.32 1.85
 -3 14 -3 7.15 1.94
 -3 14 -2 22.22 2.77
 -3 14 -1 62.24 3.59
 -3 14 0 7.12 1.79
 -3 14 1 0.34 1.46
 -3 14 2 -1.61 1.66
 -3 14 3 4.27 1.78
 -3 14 4 35.37 2.96
 -3 14 5 51.34 3.54
 -3 14 6 2.77 1.8
 -3 15 -1 11.3 2.19
 -3 15 0 67.61 3.85
 -3 15 1 32.46 3.15
 -3 15 3 0.78 1.66
 -2 1 1 216.39 1.61
 -2 1 2 929.33 4.32
 -2 1 3 547.96 4.04
 -2 2 1 160.21 1.74
 -2 2 2 532.59 3.58
 -2 2 3 11.46 0.8
 -2 2 4 321.08 3.82
 -2 2 5 1552.86 9.07
 -2 2 6 0.16 0.57
 -2 3 1 1003.11 5.15
 -2 3 4 150.55 2.76
 -2 3 6 152.66 3.31
 -2 4 1 6.56 0.72
 -2 4 2 148.65 2.51
 -2 4 3 0.85 0.51
 -2 4 5 3.19 0.74
 -2 4 8 30.22 2.07
 -2 5 1 58.52 1.77
 -2 5 2 31.55 1.36
 -2 5 3 37.37 1.53
 -2 5 4 131.51 2.87
 -2 5 7 60.12 2.54
 -2 5 9 6.82 1.52
 -2 6 2 28.23 1.48
 -2 6 3 38.1 1.78
 -2 6 7 40.2 2.37
 -2 6 8 13.69 1.61
 -2 6 9 36.32 2.57
 -2 6 10 1.08 1.37
 -2 7 5 458.86 6.48
 -2 7 6 0.28 0.96
 -2 7 7 48.92 2.62
 -2 7 8 9.48 1.63
 -2 7 9 17.17 2.24
 -2 7 10 0.55 1.32
 -2 8 3 87.83 2.89
 -2 8 4 311.08 5.57
 -2 8 5 0.93 0.8
 -2 8 6 6.84 1.34
 -2 8 8 45.26 2.94
 -2 8 9 47.14 3.15
 -2 8 10 6.13 1.84
 -2 8 11 -0.83 1.34
 -2 9 1 766.33 8.65
 -2 9 2 13.07 1.61
 -2 9 3 3.38 1.06
 -2 9 4 -0.73 0.79
 -2 9 5 54.11 2.81
 -2 9 6 -0.34 0.91
 -2 9 7 -0.22 1.24
 -2 9 8 12.79 1.98
 -2 9 10 48.47 3.34
 -2 9 11 25.87 3.19
 -2 10 0 35.62 2.43
 -2 10 1 37.37 2.4
 -2 10 3 6.49 1.35
 -2 10 4 9.04 1.52
 -2 10 5 32.3 2.51
 -2 10 6 7.16 1.57
 -2 10 7 53.76 3.12
 -2 10 8 71.45 3.71
 -2 10 9 14.67 2.24
 -2 10 10 33.53 3.01
 -2 10 11 16.67 2.66
 -2 11 0 28.35 2.17
 -2 11 1 2.09 1.31
 -2 11 2 0.16 1.07
 -2 11 5 0.74 1.31
 -2 11 6 4.12 1.58
 -2 11 7 2.64 1.71
 -2 11 8 0.95 1.8
 -2 11 9 9.55 2.41
 -2 11 10 0.71 1.85
 -2 12 0 1.96 1.55
 -2 12 1 3.39 1.6
 -2 12 2 20.33 2.44
 -2 12 3 1.28 1.31
 -2 12 4 4.5 1.57
 -2 12 5 0.17 1.43
 -2 12 6 10.13 2.01
 -2 12 8 10.61 2.36
 -2 12 9 6.15 2.3
 -2 13 -2 0.43 1.72
 -2 13 -1 23.91 2.59
 -2 13 0 0.21 1.34
 -2 13 1 5.28 1.66
 -2 13 2 162.85 5.34
 -2 13 3 1.65 1.49
 -2 13 4 11.04 2.02
 -2 13 5 24.21 2.98
 -2 13 6 4.55 1.75
 -2 13 7 0.42 1.92
 -2 13 8 -2.23 1.53
 -2 14 -4 13.54 2.3
 -2 14 -3 1.65 1.68
 -2 14 -2 120.99 4.74
 -2 14 -1 20.78 2.6
 -2 14 1 18.2 2.45
 -2 14 2 1.53 1.59
 -2 14 3 42.71 3.4
 -2 14 4 17.22 2.55
 -2 14 5 27.68 2.84
 -2 14 6 -0.5 1.55
 -2 15 -2 1.44 1.59
 -2 15 -1 3.86 1.85
 -2 15 0 1.17 1.88
 -2 15 1 83.22 4.27
 -2 15 2 5.97 1.93
 -2 15 3 1.13 1.82
 -1 0 -1 0.14 0.2
 -1 1 2 9627.9 13.63
 -1 1 3 4572.26 11.37
 -1 1 4 104.39 2.15
 -1 2 1 122.27 1.55
 -1 2 2 386.61 3.04
 -1 2 5 400.5 4.64
 -1 2 6 36.37 1.76
 -1 3 1 690.92 4.43
 -1 3 3 913.03 5.86
 -1 3 6 422.52 5.42
 -1 4 2 41.35 1.46
 -1 4 3 1 0.54
 -1 4 4 303.11 4.06
 -1 4 5 51.86 1.94
 -1 4 8 138.04 3.83
 -1 5 2 19.95 1.18
 -1 5 3 25.3 1.33
 -1 5 4 335.69 4.59
 -1 5 7 99.34 3.19
 -1 5 8 153.61 4.18
 -1 5 9 3.75 1.36
 -1 6 2 76.98 2.28
 -1 6 3 496.56 5.73
 -1 6 6 26.89 1.78
 -1 6 7 12.07 1.65
 -1 6 8 51 2.74
 -1 6 9 131.48 4.29
 -1 7 5 46.33 2.21
 -1 7 6 24.34 1.94
 -1 7 7 0.64 0.9
 -1 7 8 -0.49 1.04
 -1 7 9 1.13 1.24
 -1 7 10 136.41 4.88
 -1 8 2 212.78 4.3
 -1 8 3 20.89 1.65
 -1 8 4 43.63 2.28
 -1 8 5 1.48 0.94
 -1 8 6 89.27 3.32
 -1 8 7 13.97 1.77
 -1 8 8 20.56 2.34
 -1 8 9 53.23 3.17
 -1 8 10 16.86 2.51
 -1 9 2 133.78 3.73
 -1 9 3 2.3 1.02
 -1 9 4 38.14 2.23
 -1 9 5 43.38 2.41
 -1 9 6 213.13 5.24
 -1 9 7 44.39 2.94
 -1 9 8 60.11 3.4
 -1 9 9 15.4 2.31
 -1 9 10 1.39 1.57
 -1 9 11 -0.15 1.52
 -1 10 1 33.63 2.16
 -1 10 2 1.48 1.02
 -1 10 3 -0.01 0.93
 -1 10 4 8.74 1.64
 -1 10 5 8.73 1.59
 -1 10 6 10.05 1.92
 -1 10 7 4.21 1.53
 -1 10 9 8.94 2.14
 -1 10 10 33.23 2.95
 -1 10 11 -1.35 1.49
 -1 11 0 0.73 1.14
 -1 11 1 25.69 2.14
 -1 11 2 54.88 2.91
 -1 11 3 24.99 2.16
 -1 11 4 18.31 2.02
 -1 11 5 79.65 3.67
 -1 11 6 159.79 5.19
 -1 11 7 32.3 2.95
 -1 11 8 24.27 2.63
 -1 11 9 4.15 1.78
 -1 11 10 12.31 2.43
 -1 12 0 81.36 3.72
 -1 12 1 13.78 1.94
 -1 12 2 7.72 1.9
 -1 12 3 58.53 3.34
 -1 12 4 2.27 1.46
 -1 12 5 60.4 3.38
 -1 12 6 1.46 1.53
 -1 12 7 0.69 1.53
 -1 12 8 17.73 2.58
 -1 12 9 33.46 3.08
 -1 13 -1 -0.83 1.25
 -1 13 1 1.99 1.6
 -1 13 2 27.79 2.88
 -1 13 3 66.08 3.61
 -1 13 4 0.49 1.64
 -1 13 5 40.89 3.07
 -1 13 6 4.73 1.86
 -1 13 7 -1.23 1.82
 -1 13 8 3.62 2.12
 -1 14 -3 2.06 1.64
 -1 14 -2 0.02 1.49
 -1 14 -1 55.56 3.46
 -1 14 0 54.15 3.43
 -1 14 1 0.75 1.43
 -1 14 2 49.84 3.53
 -1 14 4 7.82 2
 -1 14 6 3.68 1.91
 -1 15 -3 36.73 3.38
 -1 15 -2 4.47 1.88
 -1 15 -1 17.4 2.48
 -1 15 0 7.91 2.09
 -1 15 1 44.54 3.57
 -1 15 2 9.62 2.13
 -1 15 3 11.29 2.28
 0 1 1 705.25 2.85
 0 1 2 2240.38 6.54
 0 1 3 2.88 0.58
 0 1 4 8.59 0.8
 0 2 1 2214.74 6.52
 0 2 3 196.32 2.58
 0 2 4 552.9 4.88
 0 2 5 63.63 1.95
 0 2 6 154.36 3.2
 0 3 2 1042.3 5.78
 0 3 3 196.71 2.83
 0 3 4 0.24 0.55
 0 3 6 303.17 4.6
 0 4 2 29.02 1.21
 0 4 3 0.95 0.62
 0 4 4 451.72 4.93
 0 4 5 55.39 2.09
 0 5 3 407.33 4.81
 0 5 4 37.29 1.65
 0 5 7 291.26 5.32
 0 5 8 -0.21 0.86
 0 5 9 0.34 0.97
 0 6 2 117.61 2.74
 0 6 6 144.02 3.79
 0 6 7 16.79 1.86
 0 6 8 116.25 3.92
 0 6 9 0.17 1.3
 0 7 5 3.98 1.08
 0 7 6 5.82 1.2
 0 7 7 39.08 2.48
 0 7 8 2.89 1.22
 0 7 9 8.21 1.82
 0 7 10 38.94 3
 0 8 2 26.67 1.78
 0 8 3 139.7 3.68
 0 8 4 0.85 0.94
 0 8 5 23.46 1.84
 0 8 6 3.98 1.32
 0 8 8 84.02 3.74
 0 8 9 5.43 1.82
 0 8 10 0.1 1.37
 0 9 1 6.75 1.23
 0 9 2 5.29 1.17
 0 9 4 3.9 1.13
 0 9 5 27.54 2.16
 0 9 6 13.47 1.98
 0 9 7 102.04 4.02
 0 9 9 8.12 1.87
 0 9 10 32.13 3.06
 0 10 1 51.29 2.63
 0 10 3 28.91 2.32
 0 10 4 154.63 4.56
 0 10 5 17.12 1.89
 0 10 6 2.56 1.33
 0 10 7 5.37 1.76
 0 10 8 14.48 2.29
 0 10 9 22.17 2.77
 0 10 10 -0.21 1.57
 0 10 11 15.28 2.4
 0 11 0 0.53 1.03
 0 11 1 9.59 1.61
 0 11 2 -0.56 1.03
 0 11 3 77.03 3.53
 0 11 5 15.01 2.22
 0 11 7 3.6 1.81
 0 11 8 43.27 3.28
 0 11 10 3.39 1.98
 0 12 0 215.86 5.77
 0 12 1 1.15 1.27
 0 12 2 31.44 2.48
 0 12 4 31.34 2.58
 0 12 5 0.96 1.38
 0 12 6 1.94 1.65
 0 12 7 1.18 1.84
 0 12 8 11.08 2.3
 0 12 9 29.98 3.15
 0 13 -1 48.85 3.41
 0 13 0 -0.73 1.43
 0 13 2 27.03 2.57
 0 13 3 8.01 2.07
 0 13 4 3.43 1.75
 0 13 5 11.4 2.17
 0 13 6 12.85 2.21
 0 14 -1 6.45 2.02
 0 14 0 -0.89 1.39
 0 14 1 8.03 2.01
 0 14 2 36.88 3.13
 0 14 3 0.38 1.82
 0 14 5 -0.01 1.92
 0 15 -3 9.62 2.23
 0 15 -2 0.33 1.64
 0 15 -1 1.17 1.6
 0 15 0 -0.45 1.57
 0 15 1 -0.94 1.51
 0 15 2 -0.03 1.95
 0 15 3 11.69 2.51
 1 1 1 16.56 0.52
 1 1 2 952.04 4.25
 1 1 3 0.48 0.41
 1 1 4 29.82 1.15
 1 2 1 17.37 0.71
 1 2 2 680.91 4.1
 1 2 3 363.91 3.49
 1 2 4 695.7 5.45
 1 2 5 265.89 3.82
 1 3 2 1722.24 7.49
 1 3 3 529.38 4.5
 1 3 4 585.07 5.29
 1 3 6 103.64 2.74
 1 4 3 355.26 4.12
 1 4 5 55.31 2.02
 1 5 2 381.37 4.45
 1 5 3 90.42 2.4
 1 5 4 94.85 2.53
 1 5 8 1.18 1.06
 1 6 2 0.04 0.53
 1 6 3 58.56 2.09
 1 6 6 34.03 2.08
 1 6 7 0.07 0.86
 1 6 8 16.23 1.9
 1 6 9 1.61 1.19
 1 7 4 -0.05 0.73
 1 7 5 16.76 1.67
 1 7 6 63.54 2.82
 1 7 7 16.81 1.95
 1 7 8 7.79 1.54
 1 7 9 0.89 1.23
 1 8 2 40.28 2.15
 1 8 3 9.73 1.34
 1 8 4 112.57 3.42
 1 8 6 53.47 2.72
 1 8 7 32.64 2.44
 1 8 8 11.83 2
 1 8 9 10.68 2.07
 1 8 10 9.68 2.03
 1 9 1 118.82 3.6
 1 9 2 5.46 1.33
 1 9 3 14.43 1.53
 1 9 4 2.15 1.09
 1 9 5 10.35 1.53
 1 9 6 2.03 1.3
 1 9 8 5.49 1.6
 1 9 10 0.76 1.43
 1 10 1 86.21 3.31
 1 10 2 117.35 3.83
 1 10 3 3.66 1.24
 1 10 4 0.91 1.11
 1 10 5 -0.39 1.05
 1 10 6 90.79 3.75
 1 10 7 34.07 2.67
 1 10 8 29.36 2.67
 1 10 9 140.13 5.13
 1 10 10 28.32 3.02
 1 11 2 36.21 2.66
 1 11 4 1.69 1.46
 1 11 5 7.53 1.75
 1 11 6 -0.8 1.19
 1 11 7 0.72 1.47
 1 11 8 11.8 2.37
 1 11 9 17.02 2.4
 1 12 0 85.85 3.96
 1 12 1 19.61 2.15
 1 12 2 -1.22 1.2
 1 12 3 3.41 1.6
 1 12 4 1.86 1.6
 1 12 5 111.56 4.42
 1 12 6 3.99 1.86
 1 12 7 5.93 1.84
 1 12 8 4.92 2.06
 1 13 -1 2.03 1.52
 1 13 0 57.31 3.35
 1 13 1 0.06 1.65
 1 13 2 -0.65 1.34
 1 13 3 8.98 1.94
 1 13 4 21.15 2.44
 1 13 5 7.51 1.9
 1 13 6 46.67 3.44
 1 13 7 9.54 2.39
 1 14 -2 49.16 3.63
 1 14 0 55.72 3.46
 1 14 2 0.4 1.7
 1 14 3 3.34 1.74
 1 15 -3 10.54 2.23
 1 15 -2 8.36 2.17
 1 15 -1 42.4 3.45
 1 15 0 5 1.81
 1 15 1 17.64 2.74
 1 15 2 1.27 1.84
 2 1 3 719.4 4.47
 2 2 1 21.11 0.74
 2 2 2 626 3.92
 2 2 4 59.07 1.61
 2 2 5 114.53 2.48
 2 3 3 26.54 1.1
 2 3 5 269.05 3.95
 2 4 2 343.26 3.83
 2 4 3 50.7 1.66
 2 4 7 3.45 0.97
 2 5 2 15.71 1.14
 2 5 3 8.32 1.02
 2 5 4 318.2 4.52
 2 5 6 0.55 0.78
 2 5 7 2.06 0.95
 2 5 8 0.81 1.11
 2 6 2 -0.18 0.75
 2 6 3 40.67 1.8
 2 6 5 81.4 2.7
 2 6 6 29.42 1.94
 2 6 7 75.95 2.94
 2 6 8 0.43 1.19
 2 7 4 -0.07 0.76
 2 7 5 7.61 1.33
 2 7 6 16.05 1.63
 2 7 7 0.86 1.08
 2 7 8 0.28 1.34
 2 7 9 58.96 3.03
 2 8 1 46.51 2.21
 2 8 2 6.36 1.16
 2 8 3 15.88 1.57
 2 8 4 3.85 1.12
 2 8 5 43.37 2.34
 2 8 6 46.2 2.52
 2 8 7 30.23 2.45
 2 8 8 0.1 1.22
 2 9 1 0.83 0.91
 2 9 2 5.5 1.35
 2 9 3 0.16 1.02
 2 9 4 15.26 1.76
 2 9 5 126.33 3.96
 2 9 6 19.74 2.28
 2 9 8 32.84 2.85
 2 10 1 111.3 3.79
 2 10 2 0.98 1.05
 2 10 3 22.57 1.95
 2 10 4 2.78 1.39
 2 10 5 89.63 3.7
 2 10 6 45.51 2.83
 2 10 8 15.42 2.32
 2 10 10 25.66 2.78
 2 11 3 150.78 4.68
 2 11 4 4.54 1.49
 2 11 5 -0.1 1.18
 2 11 6 5.69 1.68
 2 11 7 243.09 6.45
 2 11 8 23.58 2.84
 2 11 9 4.98 1.82
 2 12 0 2.57 1.36
 2 12 2 1.21 1.31
 2 12 3 2.81 1.61
 2 12 4 2.41 1.5
 2 12 5 118.33 4.67
 2 12 6 7.13 1.89
 2 13 -1 6.73 1.84
 2 13 0 -1.77 1.39
 2 13 1 17.96 2.34
 2 13 2 2.83 1.55
 2 13 4 9.1 1.98
 2 13 5 -1.04 1.6
 2 13 6 43.33 3.23
 2 14 -2 0.11 1.76
 2 14 -1 19.49 2.62
 2 14 0 4.5 1.81
 2 14 1 20.97 2.85
 2 14 2 120.66 4.85
 2 14 3 2.27 1.76
 2 14 4 11.88 2.31
 2 15 -3 2.9 2.01
 2 15 -2 5.08 1.93
 2 15 -1 72.87 4.26
 2 15 0 1.07 1.63
 2 15 1 1.75 1.74
 3 1 1 13.89 0.46
 3 1 2 18.27 0.64
 3 2 3 53.11 1.38
 3 2 4 2.35 0.62
 3 3 2 59.42 1.45
 3 4 1 645.72 5.2
 3 4 2 1.46 0.52
 3 4 3 4.43 0.72
 3 4 4 21.51 1.25
 3 4 5 17.31 1.29
 3 5 2 6.81 0.89
 3 5 3 261.87 3.99
 3 5 4 203.78 3.7
 3 5 6 44.38 2.14
 3 5 7 4.13 1.04
 3 6 1 6.5 0.96
 3 6 2 29.16 1.53
 3 6 5 27.96 1.86
 3 6 6 1.49 0.99
 3 6 7 164.73 4.19
 3 6 8 6.28 1.29
 3 7 4 346.44 5.54
 3 7 6 -0.47 0.9
 3 7 7 18.34 1.99
 3 7 8 73.73 3.31
 3 8 1 -0.15 0.77
 3 8 2 16.23 1.57
 3 8 3 59.67 2.59
 3 8 4 0.37 0.91
 3 8 6 7.96 1.45
 3 9 2 38.39 2.35
 3 9 4 10.74 1.65
 3 9 5 87.81 3.46
 3 9 6 43.75 2.84
 3 9 7 100.91 3.98
 3 9 8 0.73 1.23
 3 9 9 6.31 1.83
 3 10 1 47.85 2.6
 3 10 2 28.16 2.3
 3 10 3 2.37 1.22
 3 10 4 9.58 1.75
 3 10 5 145.01 4.55
 3 10 6 10.08 1.83
 3 10 8 -0.71 1.43
 3 10 9 23.01 2.68
 3 11 0 24.06 2.35
 3 11 1 1.68 1.22
 3 11 2 1.06 1.19
 3 11 4 70.68 3.36
 3 11 5 0.78 1.31
 3 11 6 0.88 1.63
 3 11 7 0.93 1.45
 3 11 8 23.35 2.77
 3 12 0 48.86 3.09
 3 12 2 0.23 1.5
 3 12 3 12.28 1.99
 3 12 6 14.17 2.28
 3 12 7 2.55 1.78
 3 13 -1 -0.22 1.41
 3 13 0 15.05 2.39
 3 13 1 0.96 1.43
 3 13 2 8.33 2.05
 3 13 3 90.26 4.29
 3 13 4 4.11 1.72
 3 13 5 1.76 1.78
 3 14 -2 2.05 1.68
 3 14 -1 0.71 1.5
 3 14 0 5.54 1.8
 3 14 1 59.23 3.77
 3 15 -2 4.13 2.08
 3 15 -1 27.17 2.94
 4 1 1 30.81 0.56
 4 2 1 75.59 1.24
 4 2 2 2.14 0.37
 4 3 1 54.82 1.33
 4 3 3 15.84 0.95
 4 3 4 535.39 4.91
 4 4 2 991.43 6.48
 4 4 3 202.98 3.12
 4 4 4 0.49 0.63
 4 4 5 -0.22 0.54
 4 5 2 10.35 0.94
 4 5 3 2.62 0.74
 4 5 4 28.01 1.58
 4 5 6 5.2 0.94
 4 6 1 1031.54 8.15
 4 6 2 3.11 0.78
 4 6 5 6.74 1.07
 4 6 6 17.91 1.59
 4 7 3 17.24 1.49
 4 7 4 1.39 0.96
 4 7 5 4.81 1.09
 4 7 6 5.23 1.26
 4 7 7 54.28 2.61
 4 8 1 4.02 1.22
 4 8 2 194.84 4.3
 4 8 3 60 2.56
 4 8 4 5.76 1.22
 4 8 5 93.38 3.34
 4 8 6 26.24 2.12
 4 9 1 10.74 1.48
 4 9 3 3.54 1.34
 4 9 4 6.14 1.31
 4 9 5 2.95 1.28
 4 9 6 2.26 1.36
 4 9 7 1 1.22
 4 10 0 31.73 2.4
 4 10 1 7.41 1.46
 4 10 3 -0.03 1.05
 4 10 4 12.18 1.82
 4 10 5 2.77 1.53
 4 10 6 15.69 2.2
 4 10 7 9.33 1.8
 4 11 0 6.38 1.5
 4 11 1 49.57 2.81
 4 11 2 -0.85 1.08
 4 11 3 2.48 1.53
 4 11 4 8.74 1.7
 4 11 5 0.34 1.32
 4 11 6 11.92 1.97
 4 12 -1 66.84 3.63
 4 12 0 41.97 3.08
 4 12 1 14.4 2.04
 4 12 2 40.29 2.97
 4 12 3 13.87 2.18
 4 12 4 66.77 3.59
 4 12 6 12.75 2.11
 4 13 -1 66.6 3.78
 4 13 0 1.7 1.44
 4 13 1 6.28 1.7
 4 13 2 25.83 2.78
 4 13 3 4.58 1.7
 4 13 4 1.37 1.68
 4 13 5 49.77 3.42
 4 14 -1 6.66 1.92
 4 14 0 6.21 1.99
 4 14 1 5.84 2
 4 14 2 2.4 1.83
 5 2 0 15.77 0.58
 5 2 1 1.03 0.26
 5 2 2 588.11 3.34
 5 3 2 37.8 1.14
 5 3 3 16.78 0.91
 5 5 1 3.7 0.78
 5 5 2 59.48 1.83
 5 5 3 74.23 2.12
 5 5 4 14.87 1.15
 5 6 1 18.46 1.28
 5 6 5 -0.02 0.53
 5 7 2 2.91 0.93
 5 7 3 54.22 2.23
 5 7 4 57.23 2.38
 5 8 1 0.03 0.83
 5 8 2 40.26 2.19
 5 8 3 9.99 1.32
 5 8 4 1.64 1.06
 5 8 5 26.02 1.9
 5 9 0 34.72 2.28
 5 9 1 0.91 0.96
 5 9 2 23.61 1.98
 5 9 3 5.01 1.31
 5 9 4 71.77 2.99
 5 9 5 42.83 2.46
 5 10 0 4.98 1.52
 5 10 1 6.1 1.45
 5 10 2 8.03 1.62
 5 10 3 8.86 1.7
 5 10 4 0.93 1.23
 5 11 0 128.64 4.34
 5 11 1 45.28 2.8
 5 11 3 9.57 1.64
 5 11 4 6.5 1.65
 5 11 5 82.72 3.68
 5 12 -1 62.98 3.6
 5 12 0 8.62 1.75
 5 12 1 8.54 1.89
 5 12 2 1.82 1.58
 5 12 3 32.12 2.65
 5 12 4 34.79 2.74
 5 12 5 0.7 1.4
 5 13 0 0.55 1.46
 5 13 1 0.17 1.48
 5 13 2 35.79 2.94
 5 13 3 9.62 1.87
 5 14 -2 -0.84 1.49
 5 14 -1 5.74 1.84
 5 14 0 -0.19 1.4
 5 14 1 -1.55 1.35
 6 2 0 13.83 0.44
 6 3 0 519.54 3.62
 6 3 1 1.45 0.35
 6 3 2 40.32 1.01
 6 4 2 0.72 0.43
 6 4 3 -0.33 0.17
 6 5 0 6.53 0.85
 6 5 1 152.25 2.76
 6 6 0 0.88 0.64
 6 6 1 37.59 1.68
 6 7 0 52.02 2.17
 6 7 1 0.3 0.67
 6 7 2 2.82 0.8
 6 8 1 5.43 1.07
 6 8 2 124.86 3.37
 6 9 0 55.17 2.65
 6 9 1 28.57 2.07
 6 9 2 20.36 1.83
 6 10 -1 57.35 3.06
 6 10 0 0.29 1.09
 6 10 1 -0.03 1.08
 6 10 2 136.85 4.11
 6 10 3 5.46 1.18
 6 11 -1 0.46 1.23
 6 11 0 22.76 2.12
 6 11 2 3.65 1.43
 6 11 3 6.5 1.37
 6 12 -2 2.2 1.47
 6 12 -1 7.1 1.87
 6 12 0 2.68 1.35
 6 12 1 3.97 1.47
 6 12 3 67.44 3.29
 6 13 -2 10.07 2.01
 6 13 -1 0.2 1.38
 6 13 0 37.23 2.97
 6 13 1 39.99 2.89
 7 3 -1 103.36 1.67
 7 3 0 34.75 0.79
 7 4 0 89.76 1.74
 7 6 0 38.3 1.6
 7 7 0 1.16 0.62
 7 8 -1 0.48 0.8
 7 8 0 5.51 1.01
 7 9 -1 35.25 2.21
 7 9 0 87.97 3.09
 7 10 -1 22.06 2.11
 7 10 0 3.16 1.12
 7 11 -2 -0.63 1.35
 7 11 -1 23.67 2.23
 7 11 0 12.12 1.9
 7 12 -2 4.81 1.76
 7 12 -1 8.92 1.71
 7 12 0 5.19 1.53
 7 12 1 -1.18 1.09
 7 13 -3 4.24 1.75
 7 13 -2 14.2 2.16
 7 13 -1 4.81 1.77
 7 13 0 2.77 1.47
 8 9 -1 -0.66 0.38
 8 10 -2 6.3 1.31
 8 11 -2 6.5 1.45
 8 12 -3 2.87 1.47
 8 12 -2 0.29 1.18
 0 -1 2 2167.22 5.34
 0 1 -1 682.95 2.97
 0 1 0 -0.31 0.26
 0 2 -4 550.51 3.59
 0 2 -2 1651.26 6.54
 0 2 -1 2233.56 7.66
 0 2 0 2065.7 7.48
 0 2 1 2213.11 7.8
 0 3 -4 -0.15 0.52
 0 3 -3 192.73 2.89
 0 3 -2 1002.63 6.43
 0 3 1 105.45 2.29
 0 4 -4 446.36 4.92
 0 4 -3 0.51 0.67
 0 4 -1 1398.44 8.99
 0 4 0 407.06 4.9
 0 4 1 1397.44 8.85
 0 5 -3 404.16 5.4
 0 5 -2 7.45 1.17
 0 5 -1 2.88 0.96
 1 0 -7 -0.1 0.25
 1 1 -6 60.02 1.29
 1 1 -5 128.29 1.89
 1 1 -4 105.6 1.75
 1 1 -1 239.34 2.3
 1 1 0 367.25 2.79
 1 1 1 15.81 0.71
 1 1 3 0.7 0.3
 1 2 -7 54.36 1.29
 1 2 -6 38.73 1.25
 1 2 -4 387.27 3.76
 1 2 -3 756.59 5.19
 1 2 -2 373.78 3.63
 1 2 0 1239.38 6.4
 1 2 1 17.38 0.95
 1 2 2 673.67 4.68
 1 3 -7 0.32 0.5
 1 3 -6 426.14 4.49
 1 3 -5 331 4.06
 1 3 -3 908.4 6.69
 1 3 -1 688.47 5.85
 1 3 2 1754.25 9.05
 1 3 3 561.78 5.14
 1 4 -7 17.6 1.23
 1 4 -6 38 1.72
 1 4 -5 52.99 2.01
 1 4 -4 296.33 4.43
 1 4 -3 1.29 0.84
 1 4 -2 42.28 2.07
 1 4 0 5.3 1.07
 1 4 1 64.89 2.19
 1 4 2 281.73 4.29
 1 4 3 368.84 4.89
 1 5 -7 101.85 2.78
 1 5 -6 2.5 0.93
 1 5 -5 92.6 2.9
 1 5 -4 340.35 5.27
 1 5 -3 27.14 1.89
 1 5 -1 690.4 7.46
 1 5 1 146.17 3.53
 1 6 -5 214.87 4.63
 1 6 -3 475.82 6.9
 1 6 -2 77.85 2.91
 1 6 1 602.85 7.66
 1 8 0 38.97 2.76
 2 0 -9 -0.23 0.4
 2 0 3 0.07 0.28
 2 1 -9 39.42 1.14
 2 1 -8 157.07 2.57
 2 1 -7 66.23 1.83
 2 1 1 243.52 2.8
 2 1 3 687.76 4.17
 2 2 -9 148.49 2.29
 2 2 -8 145.91 2.64
 2 2 -7 19 1.22
 2 2 -6 0.49 0.63
 2 2 -5 1613.11 9.01
 2 2 -4 316.77 4.04
 2 2 -3 12.45 1.14
 2 2 -2 557.76 5.07
 2 2 -1 156 2.7
 2 2 1 19.69 1.21
 2 2 2 618.3 5.05
 2 3 -8 1.59 0.69
 2 3 -7 25.53 1.52
 2 3 -6 152.56 3.16
 2 3 -5 204.26 3.66
 2 3 -4 153.13 3.25
 2 3 -1 1018.24 7.62
 2 3 1 32.97 1.6
 2 3 2 965.15 7.32
 2 3 3 25.96 1.42
 2 4 -9 2.1 0.78
 2 4 -8 30.3 1.72
 2 4 -7 677.86 7.12
 2 4 -6 17.74 1.41
 2 4 -5 2.61 0.93
 2 4 -4 306.68 4.82
 2 4 -3 0.25 0.82
 2 4 -2 148.98 3.41
 2 4 -1 7.56 1.39
 2 4 0 1208.28 9.29
 2 4 1 478.63 5.92
 2 4 2 359.58 5.12
 2 5 -9 6.56 1.13
 2 5 -8 53.47 2.32
 2 5 -7 64.03 2.63
 2 5 -6 392.81 6.11
 2 5 -5 740.28 8.29
 2 5 -4 134.55 3.7
 2 5 -2 32.14 2.05
 2 5 -1 59.94 2.58
 2 5 1 414.73 6.18
 2 5 2 17.46 1.57
 2 5 3 8.97 1.43
 2 5 4 311.78 5.09
 2 6 -8 17.13 1.79
 2 6 -6 12.95 1.84
 2 6 -5 1.74 1.15
 2 6 -4 279.71 5.67
 2 6 -3 37.11 2.31
 2 6 -2 30.29 2.16
 2 6 -1 99.4 3.53
 2 6 0 30.04 2.27
 2 6 1 195.4 4.67
 2 6 2 0.65 1.1
 2 6 3 43.53 2.35
 2 8 -7 55.47 3.21
 2 8 -6 6.13 1.84
 2 8 -5 0.99 1.64
 2 8 -2 138.8 4.6
 2 8 1 47.97 3.04
 2 8 2 7.9 1.88
 2 9 -6 -0.96 1.52
 2 9 -5 52.69 3.49
 2 9 -4 0.51 1.73
 2 9 -3 4.44 1.69
 2 9 -2 13.2 2.15
 2 9 -1 760 11.24
 2 9 0 7.77 1.91
 2 9 1 -0.08 1.37
 2 10 -4 7.66 2.3
 2 10 -3 7.25 1.97
 2 10 -2 46.47 3.34
 2 10 -1 34.09 3.13
 3 0 -10 107.8 2.45
 3 0 4 572.79 3.64
 3 1 -9 11.67 1.21
 3 1 4 13.68 0.82
 3 2 -9 8.63 1.15
 3 2 -6 289.12 4.5
 3 2 0 77.74 2.33
 3 2 1 35.38 1.7
 3 2 2 1153.22 7.77
 3 2 4 1.81 0.63
 3 2 5 58.19 1.4
 3 3 -9 73.84 2.48
 3 3 -8 8.94 1.39
 3 3 -7 0.04 1
 3 3 -6 180.96 3.89
 3 3 -1 103.67 2.87
 3 3 0 878.38 7.87
 3 3 1 104.22 2.82
 3 3 2 61.49 2.12
 3 3 3 70.75 2.28
 3 3 5 217.7 3.26
 3 4 -8 382.33 5.85
 3 4 -7 1 0.98
 3 4 -6 51.16 2.34
 3 4 -5 31.21 1.95
 3 4 -4 7.03 1.33
 3 4 -1 634.7 7.37
 3 4 0 29.06 1.94
 3 4 1 643.06 7.21
 3 4 2 1.34 1.06
 3 4 3 4.5 1.21
 3 4 4 20.71 1.53
 3 5 -9 73.43 2.95
 3 5 -8 9.23 1.66
 3 5 -7 75.4 3.1
 3 5 -6 18.19 2.01
 3 5 -5 218.39 4.86
 3 5 -4 5.7 1.32
 3 5 -3 70.61 2.99
 3 5 -2 257.49 5.19
 3 5 -1 0.16 1
 3 5 1 83.46 3.04
 3 5 2 6.59 1.49
 3 5 3 260.69 5.08
 3 5 4 195.97 4.26
 3 6 -3 2.97 1.42
 3 6 -2 1.36 1.19
 3 6 -1 156.23 4.39
 3 6 0 10.32 1.63
 3 6 1 5.73 1.68
 3 7 -9 15.61 1.98
 3 7 -8 31.78 2.59
 3 7 -7 1.7 1.49
 3 8 -7 4.19 1.7
 3 8 -6 -0.51 1.24
 3 8 -5 32.06 2.9
 3 8 -4 36.27 2.98
 3 8 -3 462.16 8.72
 3 8 1 0.2 1.28
 3 9 -8 11.82 2.2
 3 9 -7 38.28 3.15
 3 9 -6 2.35 1.72
 3 9 -5 63.25 3.88
 3 9 -4 0.71 1.84
 3 9 -3 13.92 2.46
 3 9 1 54.14 3.42
 3 10 -7 36.66 3.25
 3 10 -5 81.78 4.58
 3 10 -4 91.55 4.52
 3 10 -3 184.03 6.23
 3 10 -2 35.5 3.28
 3 10 -1 9.32 2.19
 3 11 -5 0.53 1.78
 3 11 -4 8.36 2.32
 3 11 -3 16.22 2.81
 3 11 -2 6 2.24
 3 11 -1 62.72 4.31
 4 0 4 1063.64 6.36
 4 1 -10 77.36 2.69
 4 1 2 92.61 2.43
 4 1 4 29.84 1.32
 4 2 -10 1.41 1.1
 4 2 -9 3.66 1.11
 4 2 1 78.24 2.47
 4 2 2 1.58 0.83
 4 2 3 47.66 1.93
 4 2 5 39.04 1.37
 4 3 -9 184.26 4.37
 4 3 -8 23.95 1.91
 4 3 -7 222.88 4.83
 4 3 -6 19.89 1.9
 4 3 -4 299.74 5.22
 4 3 -3 13.97 1.71
 4 3 -2 0.05 0.84
 4 3 0 247.42 4.68
 4 3 1 54.69 2.4
 4 3 2 60.11 2.38
 4 3 3 15.91 1.48
 4 3 5 34.8 1.51
 4 4 -10 7.25 1.53
 4 4 -7 272.68 5.54
 4 4 -5 81.35 3.11
 4 4 -4 62.56 2.87
 4 4 -2 1.97 1
 4 4 -1 11.01 1.55
 4 4 0 2.03 1.2
 4 4 1 33.89 2.03
 4 4 2 989.79 9.5
 4 4 3 206.43 4.43
 4 4 4 1.23 0.96
 4 5 -5 28.33 2.17
 4 5 -4 35.98 2.61
 4 5 -2 259.94 5.51
 4 5 -1 487.09 7.5
 4 5 0 0.63 1.11
 4 5 1 382 6.54
 4 5 2 10.69 1.6
 4 5 3 2.78 1.22
 4 5 5 76.37 2.74
 4 6 -10 3.04 1.4
 4 6 -9 22.13 2.22
 4 6 -8 10.7 1.75
 4 7 -10 172.18 5.06
 4 7 -8 0.86 1.4
 4 7 -7 43.02 3.11
 4 7 -6 4.27 1.81
 4 7 -5 1.47 1.46
 4 7 -4 113.6 4.34
 4 7 -2 52.38 3.12
 4 7 -1 10.46 1.89
 4 7 0 180.21 5.39
 4 7 1 63.05 3.5
 4 7 2 1.32 1.35
 4 7 3 14.88 1.99
 4 7 4 2.52 1.62
 4 8 -10 23.71 2.58
 4 8 -9 25.44 2.85
 4 8 -8 9.07 2.02
 4 8 -7 38.67 3.24
 4 8 -6 35.05 2.91
 4 8 -3 9.31 2.03
 4 8 -1 116.63 4.63
 4 8 0 6.85 1.87
 4 8 1 3.02 1.57
 4 8 2 189.97 5.76
 4 9 -10 39.11 3.18
 4 9 -9 49.81 3.52
 4 9 -8 49.05 3.42
 4 9 -7 5.37 2.14
 4 9 -6 63.03 3.85
 4 9 -4 236.39 7.01
 4 9 -3 59.45 3.69
 4 9 -2 39.11 3.53
 4 9 -1 35.65 3.03
 4 9 0 2.67 1.68
 4 9 1 13.99 2.55
 4 9 2 45.58 3.48
 4 9 3 1.87 1.87
 4 10 -8 18.37 3.08
 4 10 -7 31.14 3.56
 4 10 -6 8.11 2.37
 4 10 -5 81.34 4.65
 4 10 -4 38.49 3.74
 4 10 -3 19.94 3.06
 4 10 -1 12.65 2.66
 4 10 0 31.71 3.5
 4 10 2 90.41 4.75
 4 11 -8 -1 1.79
 4 11 -7 11.15 2.7
 4 11 -6 54.47 4.34
 4 11 -5 36.88 3.82
 4 11 -3 3.63 2.19
 4 11 -2 33.45 3.74
 4 11 -1 12.92 2.77
 4 11 1 48.21 4.09
 4 12 -6 6.73 2.87
 4 12 -4 10.17 2.7
 4 12 -3 4.06 2.41
 4 12 -2 4.17 2.4
 4 12 -1 68.56 4.7
 5 0 4 92.82 2.32
 5 1 2 666.21 7.04
 5 1 3 3.2 0.93
 5 1 4 327.11 4.38
 5 2 -9 1.98 1.38
 5 2 1 1.68 0.95
 5 2 2 581.4 6.99
 5 2 3 340.83 5.16
 5 3 -6 59 2.89
 5 3 -5 2.29 1.3
 5 3 -3 60.41 2.7
 5 3 -2 0.41 0.91
 5 3 -1 345.22 6.07
 5 3 0 227.29 4.93
 5 3 1 5.51 1.27
 5 3 2 38.25 2.11
 5 4 -11 0.53 1.24
 5 4 -3 203.48 5.07
 5 4 -2 3.16 1.25
 5 4 -1 29.4 2.38
 5 4 0 3.21 1.41
 5 4 1 219.61 4.97
 5 4 2 314.62 5.9
 5 4 3 70.5 2.93
 5 4 4 4.1 1.22
 5 5 -11 0.1 1.19
 5 5 -10 105.07 4.07
 5 5 -9 8.22 1.92
 5 6 -11 38.02 2.87
 5 6 -10 0.48 1.36
 5 6 -9 90.96 4.05
 5 6 -8 1.06 1.4
 5 6 -7 80.83 3.96
 5 6 -5 329.95 7.2
 5 6 -4 44.97 3.12
 5 6 -2 217.66 5.84
 5 6 0 18.65 2.33
 5 6 1 18.1 2.13
 5 6 3 0.12 1.25
 5 6 5 -0.94 0.45
 5 7 -11 0.46 1.48
 5 7 -10 17.11 2.56
 5 7 -8 0.54 1.53
 5 7 -7 -0.67 1.42
 5 7 -6 7.32 2.13
 5 7 -5 3.23 1.62
 5 7 -4 453.56 8.88
 5 7 -3 26.21 2.74
 5 7 -2 82.25 4.16
 5 7 -1 193.48 5.92
 5 7 0 12.23 2.06
 5 7 1 0.61 1.58
 5 7 2 1.09 1.73
 5 7 3 53.25 3.31
 5 7 4 57.35 3.23
 5 8 -10 6.93 2.25
 5 8 -9 33.07 3.17
 5 8 -8 5.23 2.21
 5 8 -7 3.84 2.07
 5 8 -4 -0.86 1.64
 5 8 -3 25.68 2.71
 5 8 -2 218.08 6.49
 5 8 -1 -0.09 1.55
 5 8 0 8.62 2.06
 5 8 1 0.39 1.63
 5 8 2 37.99 3.09
 5 8 4 -0.52 1.33
 5 9 -10 6 2.38
 5 9 -8 -1.26 2.08
 5 9 -7 32.33 3.52
 5 9 -4 34.94 3.49
 5 9 -3 2.91 1.85
 5 9 -2 9.05 2.3
 5 9 0 35.71 3.16
 5 9 1 1.71 1.75
 5 9 3 3.44 2.13
 5 10 -10 -0.49 1.73
 5 10 -5 13.84 2.7
 5 10 -4 14.63 2.99
 5 10 -3 1.29 1.89
 5 10 -2 1.39 1.88
 5 10 -1 -0.89 2.22
 5 10 0 5.96 2.48
 5 10 1 8.24 2.39
 5 11 -10 0.12 2.23
 5 11 -9 36.32 4.03
 5 11 -7 97.11 5.48
 5 11 -4 74.55 5.18
 5 11 -3 216.75 7.68
 5 11 -2 14.27 3.3
 5 11 -1 28.77 3.34
 5 11 0 130.85 5.95
 5 12 -8 15.73 3.47
 5 12 -7 4.33 2.69
 5 12 -6 1.37 2.96
 5 12 -4 6.68 2.68
 5 12 -3 4.38 2.54
 5 12 -2 -0.53 2.06
 5 12 -1 63.75 4.98
 5 12 0 7.54 2.67
 5 13 -6 1.12 2.36
 5 13 -3 5.45 3.02
 6 0 3 -0.16 0.88
 6 1 -12 73.44 3.34
 6 2 -12 29.81 2.53
 6 2 -11 17.47 2.19
 6 2 -10 70.74 3.29
 6 2 1 36.51 2.24
 6 2 2 15.17 1.74
 6 2 3 9.15 1.35
 6 3 -12 61.69 3.28
 6 3 -11 1.45 1.34
 6 3 -10 42.46 3
 6 3 -8 127.37 4.4
 6 3 3 14.76 1.81
 6 4 -11 17.08 2.35
 6 4 -10 198.92 5.74
 6 4 -9 22.25 2.46
 6 4 -8 40.4 2.9
 6 4 -7 25.81 2.48
 6 4 -6 61.09 3.21
 6 5 -9 90.65 4.28
 6 5 -8 172.01 5.46
 6 5 -7 58.4 3.51
 6 5 -6 2.49 1.54
 6 5 -5 21.73 2.65
 6 5 -3 38.75 2.96
 6 5 -2 96.62 4.17
 6 5 -1 1.6 1.33
 6 5 0 7.17 1.7
 6 5 2 5.18 1.51
 6 5 4 24.45 1.95
 6 6 -11 0.6 1.53
 6 6 -10 -1 1.4
 6 6 -9 38.45 3.18
 6 6 -8 1.46 1.84
 6 6 -7 51.08 3.51
 6 6 -5 33.09 3.05
 6 6 -3 53.28 3.53
 6 6 -2 50.33 3.25
 6 6 -1 4.43 1.68
 6 6 0 1.38 1.53
 6 6 1 38.9 2.81
 6 6 2 42.1 3.12
 6 6 4 17.23 1.88
 6 7 -10 0.62 1.92
 6 7 -9 1.92 1.87
 6 7 -8 20.8 2.95
 6 7 -6 2.1 1.68
 6 7 -3 -0.81 1.63
 6 7 -2 8.16 2.01
 6 7 -1 89.73 4.37
 6 7 0 54.23 3.47
 6 7 1 -0.3 1.77
 6 7 2 2.71 1.77
 6 7 4 125.15 4.41
 6 8 -11 4.37 2.22
 6 8 -10 15.36 2.56
 6 8 -9 7.64 2.27
 6 8 -8 23.8 2.95
 6 8 -7 124.29 5.6
 6 8 -5 7.95 2.07
 6 8 -3 66.19 4.18
 6 8 -2 2.03 2.04
 6 8 -1 11.94 2.64
 6 8 0 137.5 5.58
 6 8 1 3.87 2.16
 6 8 2 121.16 5.22
 6 8 3 75.07 4.1
 6 8 4 113.12 4.52
 6 9 -10 3.44 2.13
 6 9 -9 3.82 2.39
 6 9 -8 -0.5 2
 6 9 -6 44.45 3.75
 6 9 -5 -0.66 2.22
 6 9 -2 1.57 1.87
 6 9 1 28.98 3.31
 6 9 2 18.13 2.78
 6 10 -11 -0.71 2.04
 6 10 -10 6.66 2.34
 6 10 -9 5.01 2.49
 6 10 -8 2.43 2.26
 6 10 -7 4.08 2.4
 6 10 -6 213.92 7.5
 6 10 -4 10.69 2.68
 6 10 -3 106.81 5.8
 6 10 -2 63.36 4.72
 6 10 0 1.22 2.29
 6 10 1 0.43 2.4
 6 10 3 3.18 2.09
 6 11 -10 -1.37 2.43
 6 11 -9 0.55 2.1
 6 11 -8 4.56 2.47
 6 11 -7 28.58 3.99
 6 11 -6 1.15 2.4
 6 11 -5 -1.57 2.3
 6 11 -3 10.55 2.87
 6 11 -1 1.16 2.2
 6 11 2 2.99 2.16
 6 12 -10 38.68 4.14
 6 12 -9 2.18 2.94
 6 12 -7 26.7 3.78
 6 12 -6 4.95 2.86
 6 12 -5 14.93 3.25
 6 12 -4 2.78 2.5
 6 12 -3 2.68 2.83
 6 12 -2 5.11 2.77
 6 12 0 1.52 2.53
 6 12 1 3 2.36
 6 13 -6 6.78 3.01
 6 13 -5 5.81 3.29
 6 13 -4 3.74 3.38
 6 13 -2 9.96 3.09
 6 13 -1 -1.79 2.85
 7 0 3 0.7 0.85
 7 1 3 3.31 1.17
 7 2 -12 20.01 2.46
 7 2 -11 -0.48 1.38
 7 3 -12 62.82 3.73
 7 3 -11 10 2.15
 7 3 -10 13.41 2.14
 7 3 -2 159.33 4.94
 7 3 0 34.17 2.53
 7 3 1 5.05 1.69
 7 4 -12 9.23 2.27
 7 4 -11 11.4 2.28
 7 4 -10 93.85 4.54
 7 4 -9 3.17 1.74
 7 4 -7 70.18 3.83
 7 4 -5 20.62 2.49
 7 4 -4 14.21 2.19
 7 4 -3 27.24 2.5
 7 4 0 87.82 3.85
 7 4 1 2.41 1.54
 7 4 2 19.54 2.41
 7 5 -12 75.96 4.21
 7 5 -11 33.82 3.23
 7 5 -10 -1.06 1.57
 7 5 -9 -0.23 1.51
 7 5 -8 -0.72 1.48
 7 5 -7 15.11 2.33
 7 5 -6 38.32 3.07
 7 5 -4 4.8 2.11
 7 5 -3 0.35 1.59
 7 5 -2 112.62 4.82
 7 5 -1 31.22 2.73
 7 5 0 25.33 2.8
 7 5 1 332.97 7.35
 7 5 2 69.19 3.69
 7 5 3 -1.17 1.12
 7 6 -12 34.36 3.34
 7 6 -11 13.3 2.39
 7 6 -9 -0.2 1.71
 7 6 -7 16.02 2.66
 7 6 -6 6.22 2.19
 7 6 -5 1.29 1.66
 7 6 0 38.63 3.22
 7 6 2 57.13 3.4
 7 6 3 51.91 3.26
 7 7 -12 3.79 2.34
 7 7 -11 78.7 4.7
 7 7 -10 56.6 4.25
 7 7 -9 22.11 2.94
 7 7 -8 44.85 3.78
 7 7 -7 6.22 2.11
 7 7 -6 1.09 1.86
 7 7 -5 2.08 1.83
 7 7 -4 3.8 1.85
 7 7 -3 -0.8 1.57
 7 7 -1 17.11 2.6
 7 7 0 -0.24 1.61
 7 7 1 102.33 4.93
 7 7 2 79.9 4.14
 7 7 3 -1.07 1.61
 7 8 -11 0.8 1.93
 7 8 -10 5.22 2.35
 7 8 -9 6.97 2.67
 7 8 -8 4.23 2.31
 7 8 -6 47.52 3.84
 7 8 -5 58.23 4.01
 7 8 -3 2.6 2.23
 7 8 -2 -0.3 1.7
 7 8 -1 0.16 1.78
 7 8 1 35.82 3.69
 7 8 2 24.35 3.21
 7 9 -11 13.16 2.77
 7 9 -10 2.17 2.25
 7 9 -9 73.6 5.1
 7 9 -6 1.71 2.24
 7 9 -4 1.04 2.29
 7 9 -3 155.78 6.61
 7 9 -1 34.09 3.94
 7 9 0 83.34 4.93
 7 9 1 8.17 2.48
 7 9 2 3.47 2.07
 7 10 -10 17.71 3.24
 7 10 -9 29.87 4.04
 7 10 -8 2.17 2.42
 7 10 -7 0.02 2.29
 7 10 -6 7.77 3
 7 10 -5 214.46 8.09
 7 10 -4 1.17 2.5
 7 10 -3 56.01 4.82
 7 10 -2 17.65 3.14
 7 10 0 3.79 2.79
 7 10 1 11.16 3.05
 7 10 3 9.13 2.58
 7 11 -11 22.27 3.65
 7 11 -10 0.29 2.53
 7 11 -8 5.25 2.71
 7 11 -7 4.85 2.81
 7 11 -5 -0.18 2.28
 7 11 -3 24.04 3.88
 7 11 -2 1.52 2.74
 7 11 -1 16.63 3.57
 7 11 0 18.85 3.39
 7 11 1 69.89 4.85
 7 11 2 22.08 3.44
 7 12 -9 95.31 5.95
 7 12 -8 -0.38 3.05
 7 12 -7 0.42 2.9
 7 12 -6 11.53 3.14
 7 12 -5 22.66 3.93
 7 12 -4 4.02 2.84
 7 12 -3 26.15 3.94
 7 12 -2 1.38 2.61
 7 12 -1 9.14 3.1
 7 12 0 6.42 2.88
 7 13 -6 9.83 3.7
 7 13 -3 2.65 3.2
 7 13 -2 13.86 3.84
 8 1 -13 0.41 1.59
 8 1 2 102.18 3.85
 8 2 -13 12.62 2.47
 8 2 -11 7.05 2.08
 8 2 0 1.17 1.53
 8 2 1 4.15 1.69
 8 2 2 37.93 2.75
 8 3 -12 14.83 2.48
 8 3 -10 1.21 1.82
 8 3 -9 12.93 2.32
 8 3 -8 203.1 6.41
 8 3 -3 152.68 5.35
 8 3 -2 2.51 1.52
 8 3 0 109.33 4.57
 8 3 1 12.01 1.99
 8 3 2 27.17 2.52
 8 4 -13 7.87 2.33
 8 4 -12 9.81 2.41
 8 4 -10 15 2.79
 8 4 -9 4.85 1.99
 8 4 -8 15.47 2.8
 8 4 -6 2.27 1.68
 8 4 -5 1.52 1.63
 8 4 -4 131.46 5.08
 8 4 -3 144.9 5.42
 8 4 -2 12.71 2.21
 8 4 -1 77.44 3.96
 8 4 0 31.85 3.14
 8 4 1 12.61 2.13
 8 4 2 4.89 1.92
 8 4 3 0.48 0.81
 8 5 -11 16.82 2.8
 8 5 -10 49.85 4.07
 8 5 -9 13.06 2.52
 8 5 -8 16.26 2.92
 8 5 -7 6.13 2.41
 8 5 -6 68.61 4.12
 8 5 -5 1.46 1.81
 8 5 -4 1.7 1.7
 8 5 -2 155.83 5.82
 8 5 -1 3.34 1.85
 8 5 0 0.67 1.97
 8 5 1 38.05 3.09
 8 5 2 2.88 1.57
 8 6 -12 5.56 2.25
 8 6 -11 0.87 2.27
 8 6 -10 7.12 2.36
 8 6 -8 14.98 2.94
 8 6 -7 3.7 2.4
 8 6 -6 4.97 2.14
 8 6 -5 110.4 5.35
 8 6 -4 2.63 1.82
 8 6 -3 0.43 1.85
 8 6 -1 313.83 8.02
 8 6 0 5.19 1.95
 8 6 1 8.43 2.19
 8 6 2 2.98 1.85
 8 6 3 -0.22 0.87
 8 7 -12 0.91 2.24
 8 7 -11 7.7 2.56
 8 7 -10 -0.97 2.24
 8 7 -8 36.35 3.56
 8 7 -6 40.63 3.73
 8 7 -5 33.43 3.41
 8 7 -2 1.79 1.86
 8 7 -1 5.69 2.4
 8 7 0 1.76 2.36
 8 7 1 42.67 3.89
 8 7 2 5.39 2.07
 8 8 -12 1.62 2.61
 8 8 -10 20.07 3.35
 8 8 -8 39.25 4.23
 8 8 -6 -0.93 1.9
 8 8 -3 48.97 4.43
 8 8 -1 9.33 2.88
 8 8 0 0.19 2.45
 8 8 1 16.99 3.04
 8 8 2 2.76 2.35
 8 9 -12 22.65 3.72
 8 9 -11 2.24 2.65
 8 9 -10 0.56 2.31
 8 9 -9 18.46 3.3
 8 9 -8 75.58 5.52
 8 9 -7 168.46 7.24
 8 9 -6 59.92 4.96
 8 9 -5 18.19 3.42
 8 9 -3 -2.13 2.56
 8 9 -2 12.13 3.03
 8 9 1 64.85 4.52
 8 9 2 19.01 2.85
 8 10 -11 2.34 2.53
 8 10 -10 0.32 2.36
 8 10 -9 18.93 3.47
 8 10 -8 5.14 3.15
 8 10 -7 0.8 2.47
 8 10 -4 41.57 4.73
 8 10 -2 4.88 2.68
 8 10 0 86.48 5.28
 8 10 1 2.34 2.38
 8 10 2 12.51 3.03
 8 11 -10 0.35 2.88
 8 11 -9 2.53 2.8
 8 11 -8 3.09 3.21
 8 11 -7 112.24 6.67
 8 11 -6 -1.26 2.79
 8 11 -5 32.6 4.64
 8 11 -4 20.42 3.65
 8 11 -3 12.13 3.37
 8 11 -2 6.25 2.85
 8 11 -1 0.75 2.36
 8 11 0 15.95 3.53
 8 11 1 9.16 3.17
 8 11 2 29.83 3.99
 8 12 -7 -2.53 2.87
 8 12 -6 -0.71 2.52
 8 12 -5 4.64 3.03
 8 12 -4 4.01 2.91
 8 12 -3 1.25 2.69
 8 12 -2 1.26 2.88
 8 12 -1 124.94 6.86
 9 0 2 -1.11 0.54
 9 1 -13 1.4 1.86
 9 1 1 156.49 5.1
 9 2 -13 1.21 2.29
 9 2 -11 90.26 5
 9 2 -1 57.02 3.69
 9 2 0 54.77 3.57
 9 2 1 -0.57 1.35
 9 2 2 -0.6 0.94
 9 3 -13 5.35 2.29
 9 3 -12 8.27 2.44
 9 3 -11 1.13 1.96
 9 3 -10 15.93 3.05
 9 3 -9 39.66 3.81
 9 3 -8 -0.17 1.9
 9 3 -4 10.58 2.34
 9 3 -3 1.85 1.75
 9 3 -2 45.4 3.64
 9 3 -1 37.13 3.36
 9 3 1 35.12 2.99
 9 3 2 -0.46 1.04
 9 4 -13 50.22 4.14
 9 4 -12 3.88 2.57
 9 4 -11 0.96 2.56
 9 4 -9 1.35 2.16
 9 4 -8 62.76 4.22
 9 4 -7 20.67 3.17
 9 4 -6 8.74 2.27
 9 4 -4 29.24 3.43
 9 4 -3 89.17 4.75
 9 4 -1 1.15 1.91
 9 4 0 63.4 3.91
 9 5 -13 7.12 2.65
 9 5 -12 1.41 2.04
 9 5 -11 124.99 5.82
 9 5 -8 2.51 2.12
 9 5 -7 44.35 3.86
 9 5 -6 36.12 3.4
 9 5 -5 12.97 2.9
 9 5 -4 1.89 2.25
 9 5 -3 56.18 3.99
 9 5 -2 22.15 2.96
 9 5 -1 0.13 1.7
 9 5 0 18.85 2.98
 9 5 1 11.09 2.35
 9 6 -13 -0.71 1.98
 9 6 -12 -1.57 2.05
 9 6 -11 4.73 2.64
 9 6 -10 12.88 2.93
 9 6 -9 35.79 4.27
 9 6 -8 3.29 2.43
 9 6 -7 0.47 2.12
 9 6 -6 1.46 2.36
 9 6 -5 198.14 7.13
 9 6 -4 18.09 3.04
 9 6 -1 11.37 2.95
 9 6 0 2.35 1.99
 9 6 1 53.62 3.99
 9 6 2 3.02 1.69
 9 7 -12 10.6 3.18
 9 7 -11 108 5.93
 9 7 -10 18.39 3.7
 9 7 -9 24.62 3.45
 9 7 -8 14.07 3.26
 9 7 -7 1.65 2.17
 9 7 -6 55.78 4.34
 9 7 -5 14.29 3.41
 9 7 -1 16.99 3.08
 9 7 1 -1.73 1.76
 9 7 2 16.77 2.48
 9 8 -12 7.76 3.09
 9 8 -11 13.47 3.2
 9 8 -10 45.94 4.79
 9 8 -9 77.84 5.16
 9 8 -8 40.55 4.2
 9 8 -7 3.71 2.75
 9 8 -5 33.8 4.03
 9 8 -4 12.51 3.12
 9 8 -3 20.39 3.3
 9 8 -1 7.35 2.74
 9 8 0 2.66 2.18
 9 8 1 12.09 2.7
 9 9 -12 1.6 2.74
 9 9 -11 4.42 2.69
 9 9 -10 0.67 2.92
 9 9 -9 12.58 3.2
 9 9 -8 8.37 2.99
 9 9 -7 124.5 6.77
 9 9 -6 4.31 3.03
 9 9 -5 10.79 3.11
 9 9 -4 8.14 3.04
 9 9 -3 4.36 2.66
 9 9 -2 40.8 4.37
 9 9 -1 4.46 3.24
 9 9 1 28.7 3.8
 9 9 2 18.62 2.96
 9 10 -10 0.44 3.29
 9 10 -9 22.83 3.76
 9 10 -7 3.86 3.27
 9 10 -6 18.36 3.87
 9 10 -5 8.07 3
 9 10 -4 6.86 3.29
 9 10 -3 -0.13 2.42
 9 10 -2 60.26 5.04
 9 10 -1 8.61 2.98
 9 10 0 36.17 4.31
 9 10 1 0.46 2.33
 9 11 -8 0.61 2.83
 9 11 -7 0.43 2.96
 9 11 -6 15.2 3.69
 9 11 -5 5.73 3.61
 9 11 -4 -0.95 2.77
 9 11 -2 41.29 4.98
 9 11 -1 3.75 2.77
 10 0 -14 2.87 2.35
 10 1 -14 0.74 2.38
 10 1 -13 12.14 3
 10 1 0 6.19 2.05
 10 1 1 28.92 2.75
 10 2 -14 1.15 2.35
 10 2 -13 14.43 3.23
 10 2 -12 0.39 2.1
 10 2 -11 24.3 3.65
 10 2 -2 30.14 3.35
 10 2 0 44.83 3.69
 10 2 1 162.86 5.63
 10 3 -12 11.72 3.02
 10 3 -11 0.07 2.65
 10 3 -10 61.4 4.78
 10 3 -9 0.46 2
 10 3 -8 7.95 2.4
 10 3 -7 1.7 2.03
 10 3 -6 6.04 2.25
 10 3 -5 26.81 3.56
 10 3 -4 1.21 2.32
 10 3 -3 19.15 3.04
 10 3 -1 28.49 3.23
 10 3 0 11.5 2.52
 10 3 1 1.5 1.88
 10 4 -13 5.67 2.9
 10 4 -12 44.7 4.5
 10 4 -11 11.75 2.98
 10 4 -10 2.08 2.37
 10 4 -8 14.29 3.42
 10 4 -6 -0.59 1.91
 10 4 -5 42.19 3.82
 10 4 -4 2.06 2.08
 10 4 -3 3.48 2.13
 10 4 -2 39.29 3.89
 10 4 -1 6.43 2.44
 10 4 0 45.95 3.82
 10 4 1 7.09 2.13
 10 5 -13 3.41 2.78
 10 5 -12 -2.02 2.4
 10 5 -10 35.83 3.87
 10 5 -9 3.38 2.69
 10 5 -8 39.02 4.16
 10 5 -7 64.42 4.97
 10 5 -6 18.69 3.51
 10 5 -5 165.32 6.94
 10 5 -3 1.86 2.19
 10 5 -2 72.17 4.96
 10 5 0 10.06 2.68
 10 5 1 7.34 2.14
 10 6 -13 121.62 6.21
 10 6 -12 3.15 2.89
 10 6 -11 8 2.77
 10 6 -10 6.17 2.7
 10 6 -9 16.77 3.35
 10 6 -8 19.12 3.47
 10 6 -7 51.14 4.79
 10 6 -6 0.84 2.28
 10 6 -5 9.46 3.25
 10 6 -4 10.97 2.99
 10 6 -3 36.35 4.26
 10 6 -1 5.34 2.61
 10 6 0 16.03 3.12
 10 6 1 43.27 3.79
 10 7 -13 2.7 2.84
 10 7 -12 8.53 3.29
 10 7 -11 6.94 2.78
 10 7 -10 6.67 2.98
 10 7 -9 -0.18 2.33
 10 7 -8 3.19 2.6
 10 7 -6 9.12 2.87
 10 7 -5 26.83 3.87
 10 7 -4 -1.11 2.24
 10 7 -3 3.39 2.93
 10 7 -1 1.86 2.49
 10 7 0 0.73 2.24
 10 7 1 1.63 2.56
 10 8 -12 -2.06 2.72
 10 8 -11 35.29 4.39
 10 8 -8 76.36 5.77
 10 8 -6 2.76 2.47
 10 8 -4 24.2 3.7
 10 8 -3 19.64 3.89
 10 8 -2 1.92 2.54
 10 8 0 -1.67 2.01
 10 9 -9 1.89 2.72
 10 9 -8 5.18 3.04
 10 9 -7 -0.54 2.53
 10 9 -6 5.3 2.86
 10 9 -5 -0.89 2.68
 10 9 -4 0.73 2.65
 10 9 -2 -2.68 2.84
 10 9 -1 47.93 4.96
 10 9 0 36.9 4.61
 10 9 1 12.39 3.31
 10 10 -8 0.4 2.79
 10 10 -7 5.02 3.25
 10 10 -6 -0.6 2.56
 10 10 -5 -0.26 3.27
 10 10 -4 16.62 4.18
 10 10 -3 5.84 3.07
 10 10 -2 63.79 5.52
 11 1 -14 3.85 2.41
 11 1 -13 21.18 3.76
 11 1 0 1.2 1.91
 11 2 -14 2.49 2.8
 11 2 -12 46.37 4.63
 11 2 -11 0.99 2.35
 11 2 -3 46.68 4.2
 11 2 -2 5.49 2.49
 11 2 -1 70.99 4.67
 11 2 0 68.53 4.38
 11 3 -14 4.95 2.71
 11 3 -13 23.84 3.7
 11 3 -12 0.62 2.38
 11 3 -11 44.18 4.3
 11 3 -10 2.27 2.59
 11 3 -9 -0.04 2.19
 11 3 -8 2.27 2.77
 11 3 -7 37.99 4.27
 11 3 -6 76.98 5.31
 11 3 -5 0.85 2.5
 11 3 -4 5.05 2.5
 11 3 -3 11.02 2.79
 11 3 -2 67.36 4.86
 11 3 -1 94.05 5.22
 11 3 0 96.62 5.01
 11 4 -13 3.32 3.08
 11 4 -12 57.34 4.97
 11 4 -11 46.97 4.73
 11 4 -9 0.85 2.36
 11 4 -8 -0.21 2.62
 11 4 -6 4.76 2.82
 11 4 -5 -1.92 2.6
 11 4 -4 313.22 9.23
 11 4 -3 31.39 3.8
 11 4 -2 7.22 2.98
 11 4 -1 7.73 2.65
 11 4 0 0.92 2.05
 11 5 -13 -1.67 2.58
 11 5 -11 13.76 3.68
 11 5 -10 2.55 2.6
 11 5 -9 3.44 2.68
 11 5 -8 15.87 3.66
 11 5 -7 2.53 2.82
 11 5 -6 -1.69 2.5
 11 5 -5 -0.07 2.83
 11 5 -4 1.38 2.35
 11 5 -3 -0.13 2.18
 11 5 -1 14.79 3.2
 11 5 0 1.01 2.35
 11 6 -12 14.14 3.64
 11 6 -11 8.59 3.5
 11 6 -10 1.56 2.69
 11 6 -9 10.65 3.11
 11 6 -8 72.5 5.77
 11 6 -7 5.29 3.03
 11 6 -6 1.99 2.7
 11 6 -5 30.79 4.36
 11 6 -4 9.27 2.98
 11 6 -2 1.49 2.75
 11 6 -1 20.44 3.7
 11 6 0 10.67 3.03
 11 7 -11 1.62 3.02
 11 7 -10 71.24 5.54
 11 7 -9 1.61 2.68
 11 7 -7 76.81 5.92
 11 7 -6 43.1 4.89
 11 7 -5 15.95 3.85
 11 7 -4 0.24 2.44
 11 7 -3 -0.1 2.41
 11 7 -2 0.18 2.46
 11 7 -1 4.26 2.72
 11 7 0 7.74 2.66
 11 8 -9 0.49 2.95
 11 8 -8 48.25 5.19
 11 8 -7 12.2 3.37
 11 8 -6 10.74 3.82
 11 8 -5 -1.15 2.66
 11 8 -4 40.17 4.72
 11 8 -3 21.47 4.05
 11 8 -2 1.14 2.51
 11 8 -1 -1.59 2.23
 11 9 -7 14.82 3.75
 11 9 -5 69.48 5.75
 11 9 -4 49.43 5.46
 11 9 -3 -0.76 2.81
 12 1 -13 12.8 3.35
 12 1 -3 17.94 3.5
 12 1 -2 86.81 5.24
 12 1 -1 26.6 3.45
 12 2 -13 27.75 4.44
 12 2 -12 5.27 2.92
 12 2 -11 -0.36 2.57
 12 2 -9 -0.2 2.45
 12 2 -6 13.79 3.24
 12 2 -5 2.62 2.57
 12 2 -4 2.63 2.39
 12 2 -3 102.26 5.72
 12 2 -2 63.09 4.65
 12 3 -12 2.91 3.18
 12 3 -11 5.39 2.95
 12 3 -10 2.14 3.05
 12 3 -9 17.93 3.83
 12 3 -8 0.18 2.55
 12 3 -7 10.73 3.34
 12 3 -6 50.25 4.56
 12 3 -5 6.4 2.73
 12 3 -4 19.11 3.78
 12 3 -3 8.37 3.02
 12 3 -2 5.17 2.96
 12 3 -1 19.24 3.11
 12 4 -12 -1.95 2.56
 12 4 -11 -1.42 2.71
 12 4 -10 10.26 3.2
 12 4 -9 4 3.02
 12 4 -8 17.24 3.56
 12 4 -7 10.39 3.25
 12 4 -5 12.84 3.38
 12 4 -4 17.71 3.6
 12 4 -2 7.92 2.92
 12 4 -1 3.84 2.43
 12 5 -11 13.48 3.53
 12 5 -9 11.9 3.38
 12 5 -8 7.93 3.61
 12 5 -6 151.69 7.56
 12 5 -5 6.19 3.29
 12 5 -4 21.4 3.64
 12 5 -3 0.02 2.49
 12 5 -2 -1.45 2.09
 12 5 -1 -0.05 2.4
 12 6 -10 3.84 3.17
 12 6 -6 0.73 2.69
 12 6 -5 1.3 2.85
 12 6 -2 26.93 4.07
 12 6 -1 21.16 3.48
 12 7 -8 -0.15 2.85
 12 7 -6 8.62 3.34
 12 7 -5 0.38 2.64
 12 7 -4 -0.36 2.96
 12 7 -3 -0.38 3.13
 13 0 -3 -0.47 2.38
 13 0 -2 3.78 2.54
 13 1 -3 13.01 3.26
 13 2 -10 -0.51 2.6
 13 2 -8 5.67 2.92
 13 2 -6 0.34 2.66
 13 2 -5 3.16 3.22
 13 2 -3 47.58 4.79
 13 2 -2 1.46 2.42
 13 3 -10 9.37 3.48
 13 3 -9 17 4.26
 13 3 -7 1.79 2.91
 13 3 -6 9.33 3.83
 13 3 -5 15.26 3.45
 13 3 -4 24.06 3.92
 13 3 -3 4.71 2.64
 13 3 -2 8.72 2.84
 13 4 -9 9.33 3.35
 13 4 -8 34.32 4.7
 13 4 -7 22.44 3.99
 13 4 -6 34 4.44
 13 4 -5 0.8 3
 13 4 -4 7.8 3.05
 13 4 -3 4.66 3.23
 13 5 -7 6.27 3.64
 13 5 -6 0.5 3.19
 -10 8 7 7.99 1.58
 -10 8 8 72.42 3.47
 -10 9 8 3.54 1.56
 -10 9 9 3.11 1.73
 -10 10 9 7.1 1.94
 -9 6 5 202.07 4.17
 -9 6 6 1.3 1.05
 -9 6 7 0.44 1.11
 -9 6 8 2.97 1.2
 -9 7 5 14.08 1.53
 -9 7 6 57.21 2.66
 -9 7 7 1.65 1.12
 -9 7 8 18.96 2.16
 -9 7 9 25.13 2.59
 -9 8 5 34.13 2.2
 -9 8 6 26.61 2.06
 -9 8 7 -0.39 1.26
 -9 8 8 39.36 2.8
 -9 8 9 79.35 3.76
 -9 8 10 44.63 3.12
 -9 9 5 10.94 1.72
 -9 9 6 2.95 1.27
 -9 9 8 6.65 1.79
 -9 9 9 12.78 2.22
 -9 9 10 1.02 1.48
 -9 10 5 12.18 1.81
 -9 10 6 20.9 2.31
 -9 10 7 3.93 1.52
 -9 10 8 4.59 1.57
 -9 10 9 22.13 2.71
 -9 10 10 -0.09 1.44
 -9 11 6 21.8 2.37
 -9 11 7 1.19 1.55
 -9 11 8 1.16 1.52
 -9 11 9 7.85 2
 -8 4 3 149.13 2.66
 -8 4 4 142.23 2.95
 -8 4 5 1.93 0.83
 -8 5 2 151.96 2.65
 -8 5 3 67.56 2.04
 -8 5 4 1.07 0.74
 -8 5 6 65.48 2.55
 -8 5 7 6.33 1.41
 -8 5 8 17.66 1.91
 -8 6 2 10.76 1.1
 -8 6 5 108.77 3.2
 -8 6 6 3.82 1.21
 -8 6 7 5.05 1.35
 -8 6 9 27.19 2.5
 -8 7 3 130.8 3.35
 -8 7 4 69.7 2.65
 -8 7 5 32.01 2
 -8 7 6 41.57 2.33
 -8 7 7 71.85 3.17
 -8 7 8 37.05 2.68
 -8 7 9 21.25 2.42
 -8 7 10 -0.67 1.23
 -8 8 2 36.1 1.96
 -8 8 3 47.58 2.35
 -8 8 4 60.26 2.74
 -8 8 5 94.55 3.5
 -8 8 6 1.03 1.26
 -8 8 7 3.79 1.31
 -8 8 8 39.76 2.64
 -8 8 10 19.94 2.5
 -8 9 2 15.64 1.76
 -8 9 3 0.42 0.96
 -8 9 4 1.59 1.3
 -8 9 5 23.02 2.27
 -8 9 6 67.84 3.32
 -8 9 7 162.47 4.92
 -8 9 8 68.41 3.66
 -8 9 9 16.97 2.43
 -8 9 10 -0.64 1.41
 -8 10 3 -0.25 0.96
 -8 10 4 43.41 2.81
 -8 10 5 89.71 3.84
 -8 10 6 15.47 2.23
 -8 10 7 0.72 1.42
 -8 10 8 2.51 1.57
 -8 10 10 -0.34 1.46
 -8 10 11 1.05 1.96
 -8 11 3 13.34 1.97
 -8 11 4 22.27 2.4
 -8 11 5 36.46 2.79
 -8 11 6 0.25 1.36
 -8 11 7 113.57 4.65
 -8 11 8 2.37 1.69
 -8 11 9 4.87 1.87
 -8 12 4 3.81 1.7
 -8 12 5 3.95 1.61
 -8 12 7 -0.74 1.41
 -8 12 8 1.28 1.66
 -8 13 4 3.22 1.61
 -8 13 5 -1.24 1.6
 -7 3 3 239.57 3.17
 -7 3 4 192.8 3.25
 -7 3 5 243.92 4.02
 -7 4 1 58.67 1.43
 -7 4 2 44.67 1.46
 -7 4 3 27.77 1.35
 -7 4 4 13.76 1.09
 -7 4 5 17.86 1.33
 -7 5 0 20.2 1.01
 -7 5 1 29.45 1.27
 -7 5 2 115.34 2.55
 -7 5 3 1.32 0.64
 -7 5 4 5.99 1.05
 -7 5 6 41.92 2.16
 -7 5 7 17.05 1.61
 -7 5 8 0.21 1.2
 -7 5 9 0.42 1.05
 -7 6 0 44.52 1.61
 -7 6 1 158.11 3.05
 -7 6 2 18.17 1.35
 -7 6 5 0.63 0.79
 -7 6 6 3.81 1.23
 -7 6 7 11.96 1.58
 -7 6 8 39.29 2.45
 -7 6 9 2.49 1.51
 -7 6 10 -0.34 1.14
 -7 7 3 0.53 0.78
 -7 7 4 2.08 0.99
 -7 7 5 3.8 1.29
 -7 7 6 0.49 1.11
 -7 7 7 5.49 1.35
 -7 7 8 48.63 2.75
 -7 7 9 26.82 2.44
 -7 7 10 62.12 3.65
 -7 8 0 6.35 1.11
 -7 8 1 0.51 0.76
 -7 8 2 1.47 0.88
 -7 8 3 1.02 0.87
 -7 8 4 19.05 1.89
 -7 8 5 59.24 2.92
 -7 8 6 51.6 2.77
 -7 8 7 24.09 2.15
 -7 8 8 5.6 1.58
 -7 8 9 8.98 2.07
 -7 8 10 8.18 2.09
 -7 9 0 90.89 3.05
 -7 9 1 38.97 2.17
 -7 9 4 0.2 1.02
 -7 9 5 38.23 2.55
 -7 9 6 0.28 1.46
 -7 9 7 14.83 2.16
 -7 9 8 26.47 2.52
 -7 9 10 0.98 1.56
 -7 9 11 10.96 2.47
 -7 10 0 4.57 1.37
 -7 10 1 22.36 1.97
 -7 10 2 17.16 1.74
 -7 10 3 50.09 2.76
 -7 10 4 -1.29 1.27
 -7 10 6 11.69 2.14
 -7 10 7 1.51 1.53
 -7 10 8 2.9 1.56
 -7 10 10 20.04 2.85
 -7 10 11 8.36 2.45
 -7 11 1 26.73 2.31
 -7 11 2 -0.65 1.06
 -7 11 3 24.23 2.34
 -7 11 4 0.45 1.3
 -7 11 5 1.68 1.48
 -7 11 6 0.31 1.42
 -7 11 7 7.45 1.93
 -7 11 8 4.87 1.97
 -7 11 9 55.79 3.73
 -7 11 10 1.14 1.69
 -7 12 1 8.89 1.87
 -7 12 2 4.31 1.5
 -7 12 3 30.2 2.58
 -7 12 4 4.26 1.62
 -7 12 5 26.18 2.55
 -7 12 6 13.05 2.34
 -7 12 7 -0.11 1.58
 -7 12 8 0.54 1.76
 -7 13 2 18.04 2.43
 -7 13 3 4.61 1.64
 -7 13 4 4.52 1.94
 -7 13 6 14.56 2.47
 -6 2 2 29.71 0.96
 -6 2 3 517.08 4.41
 -6 2 4 5.65 0.78
 -6 3 -1 1.21 0.23
 -6 3 0 521.62 3.16
 -6 3 1 104.35 1.73
 -6 3 2 145.69 2.3
 -6 3 3 298.91 3.64
 -6 3 4 75.56 2.04
 -6 3 5 45.73 1.89
 -6 4 -2 -0.04 0.31
 -6 4 -1 0.98 0.39
 -6 4 0 330.82 3.28
 -6 4 1 178 2.61
 -6 4 2 371.58 4.1
 -6 4 4 122.86 2.84
 -6 4 7 24.93 1.78
 -6 4 8 41.37 2.32
 -6 5 -2 4.01 0.61
 -6 5 -1 151.17 2.57
 -6 5 0 7.45 0.83
 -6 5 1 0.94 0.6
 -6 5 2 101.47 2.43
 -6 5 4 9.99 1.33
 -6 5 6 2.66 1.09
 -6 5 7 53.76 2.57
 -6 5 8 164.58 4.46
 -6 6 -2 41.42 1.65
 -6 6 0 1.49 0.77
 -6 6 1 6.2 0.99
 -6 6 2 48.17 1.98
 -6 6 5 30.15 1.87
 -6 6 8 0.33 1.02
 -6 6 9 37.53 2.67
 -6 6 10 1.15 1.31
 -6 7 3 -0.1 0.76
 -6 7 4 131.93 3.6
 -6 7 5 0.93 0.93
 -6 7 6 1.24 1.07
 -6 7 7 11.83 1.65
 -6 7 8 25.78 2.38
 -6 7 10 2.95 1.55
 -6 7 11 40.44 3.07
 -6 8 -2 123.18 3.25
 -6 8 -1 4.42 1
 -6 8 0 134.24 3.45
 -6 8 2 0.53 0.85
 -6 8 3 68.41 2.8
 -6 8 4 140.86 3.93
 -6 8 5 8.7 1.46
 -6 8 6 3.75 1.46
 -6 8 7 111.01 4.02
 -6 8 8 27.59 2.5
 -6 8 9 5.3 1.7
 -6 8 10 15.41 2.42
 -6 8 11 4.26 1.82
 -6 9 -2 18.5 1.64
 -6 9 -1 31.2 2
 -6 9 0 54.54 2.54
 -6 9 1 5.13 1.25
 -6 9 2 4.04 1.33
 -6 9 3 26.78 2.12
 -6 9 4 57.1 2.81
 -6 9 5 -0.88 0.97
 -6 9 6 42.51 2.82
 -6 9 7 16.74 2.29
 -6 9 8 1.1 1.52
 -6 9 9 5.34 1.7
 -6 9 11 2.35 1.78
 -6 9 12 2.1 1.93
 -6 10 -2 136.01 3.97
 -6 10 -1 0.55 0.98
 -6 10 0 1.63 1.07
 -6 10 1 52.78 2.83
 -6 10 2 64.2 3.05
 -6 10 3 100.35 3.82
 -6 10 5 28.65 2.56
 -6 10 7 6.36 2.04
 -6 10 8 2.1 1.69
 -6 10 9 2.52 1.62
 -6 10 10 9.35 2.11
 -6 11 -2 3.27 1.3
 -6 11 -1 7.47 1.65
 -6 11 1 1.65 1.26
 -6 11 2 6.84 1.74
 -6 11 3 7.83 1.64
 -6 11 4 1.51 1.58
 -6 11 5 1.28 1.49
 -6 11 6 2.58 1.56
 -6 11 7 32.18 2.96
 -6 11 8 5.11 1.87
 -6 11 9 -0.32 1.51
 -6 11 10 -2.13 1.45
 -6 12 0 1.92 1.27
 -6 12 1 4.65 1.74
 -6 12 2 4.02 1.85
 -6 12 3 1.35 1.48
 -6 12 4 5 1.68
 -6 12 5 15.19 2.42
 -6 12 6 5.38 2.02
 -6 12 7 34.79 3.21
 -6 12 8 12.77 2.4
 -6 12 9 -0.45 1.6
 -6 13 -1 38 2.9
 -6 13 1 1.04 1.41
 -6 13 2 11.29 1.99
 -6 13 3 30.71 2.69
 -6 13 4 3.04 1.67
 -6 13 6 3.75 1.79
 -6 13 7 17.63 2.93
 -6 14 1 6.56 1.94
 -6 14 2 9.44 2.26
 -6 14 3 3.68 1.83
 -6 14 4 29.95 3.18
 -5 2 -2 580.66 2.34
 -5 2 -1 0.5 0.15
 -5 2 0 15.95 0.51
 -5 2 1 368.84 2.72
 -5 2 3 -0.05 0.37
 -5 2 4 169.85 2.89
 -5 2 6 0.03 0.68
 -5 3 -1 5.94 0.54
 -5 3 0 229.19 2.43
 -5 3 2 0.34 0.4
 -5 3 3 62.19 1.73
 -5 3 4 103 2.38
 -5 3 5 2.52 0.74
 -5 3 6 61.67 2.25
 -5 3 8 392.98 6.27
 -5 4 0 3.56 0.58
 -5 4 1 26.05 1.14
 -5 4 2 2.76 0.68
 -5 4 3 202.29 3.27
 -5 4 4 15.13 1.18
 -5 4 5 11.08 1.16
 -5 4 8 11.84 1.47
 -5 4 9 0.5 1.01
 -5 5 0 754.82 6.06
 -5 5 1 317.84 4.09
 -5 5 2 142.55 2.92
 -5 5 4 205.83 3.89
 -5 5 7 7.13 1.21
 -5 5 8 22.16 1.93
 -5 5 9 9.9 1.56
 -5 6 0 19.67 1.36
 -5 6 1 119.6 2.85
 -5 6 2 238.61 4.1
 -5 6 3 21.75 1.57
 -5 6 6 87.25 3.16
 -5 6 8 1.55 1.08
 -5 6 10 0.38 1.17
 -5 7 4 446.25 6.47
 -5 7 5 4.44 1.11
 -5 7 6 8.26 1.39
 -5 7 7 0.62 1.04
 -5 7 8 0.07 1.21
 -5 7 9 6.06 1.48
 -5 7 10 19.91 2.49
 -5 7 11 2.06 1.6
 -5 8 0 6.07 1.24
 -5 8 1 0 0.79
 -5 8 2 214.69 4.53
 -5 8 3 24.09 1.81
 -5 8 4 0.45 0.93
 -5 8 5 8.57 1.43
 -5 8 6 4.28 1.25
 -5 8 7 4.15 1.39
 -5 8 8 5.81 1.66
 -5 8 9 33.96 2.6
 -5 8 10 8.01 2.06
 -5 9 -1 0.83 1.09
 -5 9 0 35.81 2.27
 -5 9 2 10.45 1.51
 -5 9 3 3.49 1.3
 -5 9 4 35.4 2.38
 -5 9 5 67.99 3.08
 -5 9 6 10.02 1.77
 -5 9 7 29.9 2.65
 -5 9 8 0.38 1.26
 -5 9 9 16.66 2.43
 -5 9 10 4.22 1.74
 -5 9 11 9.76 2.36
 -5 9 12 25.58 3.05
 -5 10 -1 6.46 1.56
 -5 10 0 5.76 1.37
 -5 10 1 -0.42 1.21
 -5 10 2 3.57 1.44
 -5 10 3 0.66 1.1
 -5 10 4 10.88 1.72
 -5 10 5 21.75 2.35
 -5 10 6 63.54 3.3
 -5 10 7 28.27 2.86
 -5 10 8 15.04 2.34
 -5 10 9 -1.28 1.56
 -5 10 10 0.44 1.5
 -5 10 11 2.64 1.92
 -5 11 -2 14.91 1.95
 -5 11 1 27.41 2.24
 -5 11 3 213.26 5.69
 -5 11 4 74.3 3.68
 -5 11 5 1.1 1.53
 -5 11 6 -0.18 1.34
 -5 11 8 23.76 3.08
 -5 11 9 37.35 3.16
 -5 11 10 1.57 1.77
 -5 11 11 6.48 2.32
 -5 12 -3 32.1 2.64
 -5 12 -2 2.16 1.36
 -5 12 -1 7.51 1.87
 -5 12 0 9.31 1.94
 -5 12 2 -0.8 1.26
 -5 12 3 4.42 1.8
 -5 12 4 9.42 1.94
 -5 12 5 0.44 1.37
 -5 12 6 1.24 1.56
 -5 12 7 1.52 1.65
 -5 12 8 11.82 2.62
 -5 12 9 1.22 1.74
 -5 13 -3 9.96 1.9
 -5 13 -2 37.16 2.88
 -5 13 -1 -0.75 1.18
 -5 13 0 1.03 1.57
 -5 13 1 2.42 1.61
 -5 13 3 9.69 2.04
 -5 13 4 27.19 2.89
 -5 13 5 0.53 1.53
 -5 13 6 0.12 1.58
 -5 13 7 4.42 1.97
 -5 13 8 -0.06 1.73
 -5 14 -1 -0.46 1.59
 -5 14 0 0.5 1.52
 -5 14 1 5.01 1.79
 -5 14 2 -0.17 1.63
 -5 14 3 7.12 2.07
 -5 14 4 2.13 1.86
 -5 14 5 8.23 2.16
 -4 1 1 37.53 0.75
 -4 1 2 866.29 4.41
 -4 1 3 283.19 3.09
 -4 1 4 16.06 1.04
 -4 2 0 295.49 2.24
 -4 2 2 3.04 0.53
 -4 2 3 1046.46 6.23
 -4 2 4 83.71 1.99
 -4 2 5 169.24 3.14
 -4 3 0 240.25 2.6
 -4 3 1 933.76 5.34
 -4 3 2 0.23 0.4
 -4 3 5 469.85 5.4
 -4 3 6 19.29 1.46
 -4 3 8 23.67 1.76
 -4 4 2 1.4 0.54
 -4 4 3 0.59 0.54
 -4 4 4 58.05 1.96
 -4 4 5 81.44 2.49
 -4 4 8 124.5 3.7
 -4 5 1 495.07 5.1
 -4 5 3 21.13 1.28
 -4 5 4 36.88 1.72
 -4 5 7 16.64 1.75
 -4 5 8 39.56 2.43
 -4 5 9 72.13 3.23
 -4 5 10 100.44 3.92
 -4 6 1 1.21 0.83
 -4 6 2 444.83 5.51
 -4 6 3 5.28 0.97
 -4 6 6 1.25 0.96
 -4 6 7 2.13 1.04
 -4 6 9 21.33 2.01
 -4 6 10 0.55 1.28
 -4 7 4 119.18 3.43
 -4 7 5 1.18 0.86
 -4 7 6 5.26 1.21
 -4 7 7 44.53 2.57
 -4 7 8 1.72 1.15
 -4 7 9 30.8 2.57
 -4 7 10 174.19 5.33
 -4 8 1 121.6 3.46
 -4 8 2 139.56 3.67
 -4 8 3 9.47 1.4
 -4 8 4 -0.68 0.76
 -4 8 5 2.16 1.11
 -4 8 6 38.28 2.38
 -4 8 7 36.85 2.49
 -4 8 8 10.97 1.82
 -4 8 9 19.84 2.26
 -4 8 11 5.63 1.85
 -4 9 0 2.79 1.07
 -4 9 1 33.29 2.22
 -4 9 2 40.59 2.45
 -4 9 3 64.72 3.03
 -4 9 4 230.58 5.3
 -4 9 6 69.75 3.22
 -4 9 7 7.41 1.64
 -4 9 10 38.15 3.2
 -4 9 11 5.39 1.95
 -4 9 12 27.09 2.91
 -4 10 0 35.1 2.43
 -4 10 1 10.56 1.57
 -4 10 2 41.4 2.64
 -4 10 3 23.57 2.07
 -4 10 4 35.44 2.57
 -4 10 5 83.92 3.71
 -4 10 6 7.77 1.73
 -4 10 7 34.6 2.73
 -4 10 8 19.5 2.43
 -4 10 9 8.84 2.08
 -4 10 10 4.49 2.02
 -4 10 11 34.53 3.23
 -4 10 12 0.09 1.73
 -4 11 -1 51.24 3.04
 -4 11 0 7.81 1.74
 -4 11 1 14.16 2.03
 -4 11 2 34.03 2.69
 -4 11 3 4 1.48
 -4 11 4 37.14 2.69
 -4 11 5 41.18 3.03
 -4 11 6 55.26 3.4
 -4 11 7 15.3 2.3
 -4 11 8 -2.58 1.68
 -4 11 9 33.12 3.1
 -4 11 10 24.9 3.04
 -4 11 11 16.6 2.87
 -4 12 -1 13.77 2.14
 -4 12 2 2.47 1.45
 -4 12 3 2.03 1.48
 -4 12 5 72.32 3.84
 -4 12 6 9.1 2.26
 -4 12 7 76.08 4.06
 -4 12 9 -0.13 1.65
 -4 13 -3 1.29 1.69
 -4 13 0 -1.14 1.28
 -4 13 1 68.07 3.83
 -4 13 3 5.57 1.86
 -4 13 4 3.16 1.63
 -4 13 5 2.74 1.64
 -4 13 6 5.18 2.04
 -4 14 -3 2.07 1.8
 -4 14 -2 5.38 2.06
 -4 14 -1 4.73 1.73
 -4 14 0 4.55 2.04
 -4 14 1 7.28 2.1
 -4 14 3 -1.17 1.41
 -4 14 4 4.35 2.06
 -4 14 5 0.16 1.85
 -4 14 6 69.35 4.39
 -3 1 1 1810.34 5.07
 -3 1 4 100.21 2.2
 -3 2 1 63.82 1.26
 -3 2 2 56.75 1.36
 -3 2 3 3057.24 10.44
 -3 2 4 83.85 2.05
 -3 2 5 478 5.11
 -3 2 6 292.35 4.49
 -3 3 1 96.71 1.77
 -3 3 2 187.72 2.65
 -3 3 3 5.37 0.82
 -3 3 4 509.91 5.18
 -3 3 6 187.72 3.73
 -3 3 8 8.11 1.34
 -3 4 1 604.64 5.03
 -3 4 3 433.15 4.68
 -3 4 4 7.3 0.87
 -3 4 5 31.5 1.62
 -3 4 8 370.48 6.21
 -3 5 2 251.04 3.79
 -3 5 3 71.77 2.2
 -3 5 4 6.21 0.93
 -3 5 7 69.79 2.8
 -3 5 8 9.33 1.42
 -3 5 10 9.01 1.69
 -3 6 2 1.41 0.75
 -3 6 3 4.73 0.93
 -3 6 6 8.12 1.28
 -3 6 7 721.87 8.84
 -3 6 8 5.54 1.44
 -3 6 9 3.11 1.18
 -3 6 10 10.97 1.88
 -3 7 4 4.65 0.97
 -3 7 6 122.98 3.81
 -3 7 7 1.1 1.05
 -3 7 8 30.52 2.29
 -3 7 9 14.2 1.88
 -3 7 10 14.04 2.14
 -3 7 11 16.38 2.49
 -3 8 1 79.58 2.91
 -3 8 2 129.79 3.54
 -3 8 3 447.27 6.64
 -3 8 4 37.28 2.15
 -3 8 5 27.65 1.96
 -3 8 6 0.45 0.93
 -3 8 7 3.24 1.31
 -3 8 8 190.75 5.31
 -3 8 9 3.43 1.45
 -3 8 11 74.9 4.11
 -3 9 1 25.37 2.09
 -3 9 2 41.99 2.35
 -3 9 4 1.46 1.06
 -3 9 5 62.85 3.01
 -3 9 6 4.36 1.31
 -3 9 7 33.53 2.5
 -3 9 8 16.14 2.41
 -3 9 10 0.31 1.35
 -3 9 11 1.65 1.65
 -3 9 12 0.6 1.7
 -3 10 1 8.78 1.49
 -3 10 3 180.73 4.89
 -3 10 4 94.12 3.68
 -3 10 5 75.41 3.37
 -3 10 6 115.4 4.31
 -3 10 7 38.8 3.05
 -3 10 8 -1.19 1.59
 -3 10 9 29.25 3
 -3 10 10 28.89 3.06
 -3 10 11 35.09 3.35
 -3 11 0 27.59 2.49
 -3 11 1 63.14 3.25
 -3 11 2 8.39 1.6
 -3 11 3 17.1 2.12
 -3 11 4 8.12 1.91
 -3 11 5 2.3 1.46
 -3 11 6 4.06 1.62
 -3 11 7 7.4 1.9
 -3 11 8 0.73 1.5
 -3 11 9 37.38 3.1
 -3 11 10 7.51 2.05
 -3 12 0 46.32 3.02
 -3 12 2 0.68 1.35
 -3 12 4 12.85 2.29
 -3 12 5 34.15 2.82
 -3 12 6 1.37 1.8
 -3 12 7 28.63 3.07
 -3 12 8 1.14 1.67
 -3 12 9 14.5 2.49
 -3 13 -1 0.11 1.47
 -3 13 0 17.98 2.46
 -3 13 1 0.9 1.43
 -3 13 3 1.96 1.95
 -3 13 4 -0.16 1.54
 -3 13 5 46.87 3.3
 -3 13 7 0.16 1.66
 -3 13 8 -0.27 1.98
 -3 14 -3 7.58 2.19
 -3 14 -2 25.86 3.19
 -3 14 0 7.45 1.93
 -3 14 1 -1.05 1.41
 -3 14 2 -0.83 1.69
 -3 14 3 6.48 2.08
 -3 14 4 36.06 3.31
 -3 14 5 53.43 3.88
 -3 14 6 0.19 1.94
 -3 15 0 65.21 4.16
 -3 15 1 29.66 3.3
 -3 15 2 3 1.9
 -2 1 2 930.39 4.48
 -2 1 3 568.67 4.1
 -2 1 5 47.71 1.67
 -2 2 2 543.42 3.78
 -2 2 3 11.47 0.87
 -2 2 4 320.57 3.79
 -2 2 5 1574.75 9.07
 -2 2 6 0.15 0.73
 -2 3 1 1018.12 5.6
 -2 3 2 18.93 1.1
 -2 3 5 197.33 3.51
 -2 3 6 151.8 3.27
 -2 3 8 1.45 0.84
 -2 4 2 152.16 2.63
 -2 4 3 1.03 0.65
 -2 4 4 306.05 4.2
 -2 4 5 2.89 0.81
 -2 4 6 16.44 1.33
 -2 4 8 29.93 1.95
 -2 5 2 33.17 1.52
 -2 5 3 38.9 1.72
 -2 5 5 724.37 7.35
 -2 5 7 63.46 2.69
 -2 5 8 52.02 2.62
 -2 5 9 5.74 1.33
 -2 6 2 29.55 1.53
 -2 6 3 36.74 1.75
 -2 6 6 12.68 1.45
 -2 6 7 41.26 2.3
 -2 6 9 37.77 2.64
 -2 7 5 473.57 6.76
 -2 7 6 0.25 0.75
 -2 7 7 46.35 2.6
 -2 7 8 10.81 1.67
 -2 7 9 17.99 2.09
 -2 7 10 1.39 1.41
 -2 7 11 0.57 1.69
 -2 8 2 147.26 3.76
 -2 8 3 91.72 3.15
 -2 8 4 290.41 5.5
 -2 8 5 0.29 0.9
 -2 8 6 7.51 1.5
 -2 8 7 60.36 3.1
 -2 8 8 47.96 2.85
 -2 8 9 43.29 2.95
 -2 8 10 6.58 1.72
 -2 8 11 -0.37 1.61
 -2 9 2 14.08 1.55
 -2 9 3 3.94 1.13
 -2 9 4 0.04 0.95
 -2 9 5 52.29 2.88
 -2 9 6 -1.54 0.99
 -2 9 7 0.84 1.2
 -2 9 8 9.89 1.89
 -2 9 9 8.1 1.85
 -2 9 10 48.25 3.45
 -2 9 11 30.16 2.91
 -2 10 1 36.24 2.4
 -2 10 2 46.88 2.59
 -2 10 3 5.81 1.48
 -2 10 4 6.28 1.45
 -2 10 5 33.19 2.59
 -2 10 6 4.8 1.46
 -2 10 7 57.67 3.44
 -2 10 8 69.74 3.76
 -2 10 9 18.55 2.43
 -2 10 10 30.14 3.06
 -2 10 11 14.39 2.6
 -2 11 1 3.17 1.3
 -2 11 2 -0.07 1.39
 -2 11 3 260.87 6.26
 -2 11 4 39.26 2.91
 -2 11 5 0.29 1.19
 -2 11 6 7.45 1.78
 -2 11 7 0.42 1.43
 -2 11 8 -1.79 1.46
 -2 11 9 11.15 2.54
 -2 12 0 1.5 1.37
 -2 12 1 6.25 1.67
 -2 12 2 19.42 2.43
 -2 12 3 2.72 1.51
 -2 12 4 3.71 1.88
 -2 12 5 1.98 1.65
 -2 12 6 9.99 2.1
 -2 12 7 36.03 3.26
 -2 12 8 8.09 2.27
 -2 12 9 5.79 2.17
 -2 13 -1 21.03 2.49
 -2 13 0 -0.53 1.51
 -2 13 1 5.4 1.74
 -2 13 2 162.3 5.51
 -2 13 3 0.94 1.66
 -2 13 4 10.34 2.1
 -2 13 5 23.29 2.91
 -2 13 6 4.31 1.85
 -2 13 7 1.5 1.75
 -2 13 8 -0.08 1.71
 -2 14 -2 131.14 5.22
 -2 14 0 5.57 1.83
 -2 14 1 18.74 2.83
 -2 14 2 0.81 1.75
 -2 14 3 42.24 3.48
 -2 14 4 14.9 2.61
 -2 14 5 26.67 3.23
 -2 14 6 0.77 1.78
 -2 15 -1 2.14 1.81
 -2 15 0 -1.26 1.55
 -2 15 1 83.23 4.46
 -2 15 2 2.82 2.27
 -2 15 3 2.39 1.94
 -1 0 -1 0 0.14
 -1 1 1 233.07 1.74
 -1 1 2 9805.11 14.12
 -1 1 3 4586.2 11.37
 -1 1 4 107.36 2.12
 -1 2 2 366.45 3.09
 -1 2 3 762.14 5.09
 -1 2 5 394.79 4.55
 -1 2 6 36.27 1.74
 -1 3 2 1219.69 6.38
 -1 3 3 910.78 6.03
 -1 3 4 361.24 4.24
 -1 3 5 336.42 4.47
 -1 3 6 418.45 5.34
 -1 4 2 42.88 1.5
 -1 4 4 308.8 4.15
 -1 4 5 50.66 1.98
 -1 4 6 38.39 1.9
 -1 4 8 142.63 3.91
 -1 5 3 27.77 1.5
 -1 5 4 349.73 4.8
 -1 5 5 87.23 2.7
 -1 5 9 3.34 1.31
 -1 6 3 473.57 5.77
 -1 6 6 23.85 1.74
 -1 6 7 12.92 1.46
 -1 7 6 24.46 1.92
 -1 7 8 -1.03 0.99
 -1 7 9 1.46 1.23
 -1 8 2 206.02 4.41
 -1 8 4 47.68 2.45
 -1 8 5 1.06 0.97
 -1 8 6 85.19 3.3
 -1 8 7 16.12 1.87
 -1 8 8 19.67 2.13
 -1 8 9 59.95 3.23
 -1 8 10 18.66 2.38
 -1 9 2 131.52 3.82
 -1 9 3 3.72 1.18
 -1 9 4 36.89 2.42
 -1 9 5 46.1 2.72
 -1 9 6 223.09 5.45
 -1 9 7 44.07 2.83
 -1 9 8 54.64 3.34
 -1 9 10 0.19 1.44
 -1 9 11 -1.01 1.75
 -1 10 2 0.1 1.05
 -1 10 3 0.81 1.06
 -1 10 4 7.79 1.58
 -1 10 6 7.58 1.66
 -1 10 7 4.89 1.62
 -1 10 8 100.71 4.43
 -1 10 9 10.07 2.13
 -1 10 11 0.35 1.69
 -1 11 1 25.52 2.4
 -1 11 3 27.1 2.33
 -1 11 5 71.74 3.53
 -1 11 8 24.37 3.03
 -1 11 10 13.12 2.35
 -1 12 1 14.69 2.07
 -1 12 2 7.92 1.87
 -1 12 3 61.5 3.54
 -1 12 4 1.71 1.55
 -1 12 5 72.2 3.88
 -1 12 6 0.98 1.67
 -1 12 7 -0.47 1.43
 -1 12 8 9.24 2.12
 -1 12 9 33.07 3.29
 -1 13 0 55.17 3.4
 -1 13 1 2.29 1.53
 -1 13 2 25.04 2.86
 -1 13 3 68.97 3.77
 -1 13 4 -0.63 1.6
 -1 13 5 40.44 3.29
 -1 13 6 5.43 2.03
 -1 13 7 -0.18 1.78
 -1 13 8 3.29 2.28
 -1 14 -1 58.96 3.9
 -1 14 0 53.54 3.56
 -1 14 1 3 2.01
 -1 14 2 42.93 3.48
 -1 14 4 9.69 2.32
 -1 14 5 7.83 2.14
 -1 14 6 1.04 2.11
 -1 15 -2 3.51 2.25
 -1 15 -1 19.81 3.02
 -1 15 0 6.84 2.24
 -1 15 1 38.67 3.38
 -1 15 2 8.34 2.19
 -1 15 3 13.02 2.49
 0 0 -1 0.1 0.15
 0 1 1 687.83 2.86
 0 1 2 2226.94 6.59
 0 1 3 2.16 0.54
 0 2 1 2211.62 6.71
 0 2 3 195.52 2.66
 0 2 4 564.6 4.86
 0 2 5 62.71 1.87
 0 3 2 1018.31 5.8
 0 3 3 188.32 2.75
 0 3 4 -0.15 0.48
 0 3 5 357.93 4.54
 0 3 6 293.93 4.44
 0 4 2 30.01 1.28
 0 4 3 0.95 0.6
 0 4 4 440.32 4.91
 0 4 5 52.34 1.98
 0 4 8 38.65 2.27
 0 5 2 6.24 0.84
 0 5 3 400.75 4.87
 0 5 5 36.6 1.83
 0 5 7 294.26 5.29
 0 5 8 0.32 0.89
 0 5 9 1.95 1.15
 0 6 2 119.32 2.88
 0 6 3 425.13 5.48
 0 6 6 140.03 3.75
 0 6 9 -0.09 1.13
 0 7 5 3.95 1.03
 0 7 6 6.77 1.25
 0 7 7 37.63 2.38
 0 7 9 8.12 1.76
 0 7 10 36.14 2.91
 0 8 2 26.27 1.81
 0 8 4 0.34 0.81
 0 8 5 23.33 1.9
 0 8 6 2.4 1.11
 0 8 7 18.74 2.22
 0 8 8 85.97 3.57
 0 8 10 2.67 1.49
 0 9 2 3.79 1.17
 0 9 4 2.66 1.1
 0 9 5 26.74 2.2
 0 9 6 14.18 1.8
 0 9 9 7.86 1.96
 0 10 2 19.35 1.85
 0 10 3 23.3 2
 0 10 4 152.71 4.56
 0 10 5 16.67 2.04
 0 10 6 2.92 1.45
 0 10 7 5.05 1.73
 0 10 8 15.81 2.38
 0 10 9 23.4 2.84
 0 10 10 0.67 1.44
 0 10 11 20.4 2.69
 0 11 1 8.03 1.59
 0 11 2 2.03 1.43
 0 11 3 80.59 3.56
 0 11 4 10.93 1.85
 0 11 5 17.67 2.34
 0 11 6 9.3 1.87
 0 11 7 1.58 1.48
 0 11 10 2.1 1.66
 0 12 1 1.36 1.5
 0 12 2 30.38 2.76
 0 12 3 87.08 4.08
 0 12 4 31.48 2.86
 0 12 5 3.54 1.59
 0 12 6 -0.17 1.65
 0 12 7 0.39 1.52
 0 12 8 9.1 2.12
 0 12 9 23.93 3.1
 0 13 0 -0.26 1.53
 0 13 2 31.19 2.98
 0 13 3 11.31 2.07
 0 13 4 5.87 1.84
 0 13 6 13.43 2.47
 0 13 7 6.48 2.14
 0 14 -1 6.03 2.24
 0 14 0 -0.53 1.57
 0 14 1 6.79 2.03
 0 14 2 36.94 3.43
 0 14 3 -0.45 1.55
 0 14 4 15.94 2.57
 0 14 5 0.25 1.9
 0 14 6 17.56 2.81
 0 15 -2 0.64 1.99
 0 15 -1 0.42 1.98
 0 15 0 0.66 1.62
 0 15 1 -0.47 1.61
 0 15 2 1.14 1.72
 1 1 2 916.53 4.11
 1 1 3 0.62 0.43
 1 2 1 17.41 0.69
 1 2 2 640.04 3.91
 1 2 3 363.39 3.49
 1 2 4 677.29 5.2
 1 2 5 255.82 3.63
 1 3 2 1778.57 7.56
 1 3 4 592.52 5.34
 1 3 5 10.36 0.99
 1 3 6 105.45 2.73
 1 4 2 290 3.5
 1 4 3 359.84 4.17
 1 4 4 1059.88 7.56
 1 5 3 90.56 2.36
 1 5 4 94.39 2.56
 1 5 5 10.68 1.32
 1 5 7 59.69 2.55
 1 5 8 0.71 0.97
 1 6 2 -0.29 0.59
 1 6 3 59.54 2.16
 1 6 6 35.7 2.05
 1 6 7 0.36 1.03
 1 6 8 15.07 1.86
 1 6 9 0.45 1.12
 1 7 5 16.47 1.63
 1 7 6 61.92 2.74
 1 7 8 9.01 1.5
 1 7 9 0.11 1.39
 1 8 3 8.98 1.31
 1 8 4 112.27 3.5
 1 8 5 29.01 1.95
 1 8 6 53.43 2.73
 1 8 7 34.33 2.33
 1 8 8 14.12 1.91
 1 8 10 8.21 1.88
 1 9 2 4.78 1.15
 1 9 3 17.73 1.8
 1 9 4 1.5 1.06
 1 9 5 9.98 1.53
 1 9 7 20.05 2.45
 1 9 8 5.94 1.55
 1 9 9 2 1.45
 1 9 10 2.5 1.6
 1 10 2 119.89 4
 1 10 3 4.13 1.26
 1 10 4 -0.24 1.1
 1 10 5 3.27 1.37
 1 10 7 39.54 2.98
 1 10 8 33.1 2.79
 1 10 9 135.16 4.77
 1 11 1 9.1 1.77
 1 11 2 31.74 2.41
 1 11 4 0.09 1.15
 1 11 5 7.64 1.7
 1 11 6 1.58 1.45
 1 11 7 -0.2 1.35
 1 11 8 10.98 2.08
 1 11 9 17.78 2.36
 1 12 1 16.27 2.34
 1 12 2 -0.74 1.16
 1 12 3 2.44 1.46
 1 12 4 2.08 1.45
 1 12 5 122.67 4.75
 1 12 6 4.81 1.81
 1 12 7 4.13 1.72
 1 12 8 3.89 1.65
 1 13 0 59.15 3.73
 1 13 1 0.84 1.42
 1 13 2 -0.82 1.34
 1 13 3 7.51 1.88
 1 13 4 23.22 2.82
 1 13 5 8.22 2.26
 1 13 6 47.04 3.32
 1 13 7 6.6 2.29
 1 14 -1 3.81 1.88
 1 14 0 55.45 3.73
 1 14 2 -0.83 1.47
 1 14 3 2.68 1.74
 1 14 4 1.11 1.78
 1 14 5 18.18 2.6
 1 15 -2 6.74 2.15
 1 15 -1 38.16 3.59
 1 15 2 2.83 1.96
 2 2 1 19.81 0.7
 2 2 2 611.8 3.75
 2 2 3 327.36 3.19
 2 2 4 58.1 1.59
 2 3 2 947.13 5.45
 2 3 3 25.37 1.06
 2 3 4 86.58 2.08
 2 3 5 253.57 3.75
 2 3 6 25.89 1.51
 2 4 2 351.6 3.8
 2 4 3 51.19 1.6
 2 4 4 9.67 1.07
 2 5 2 16.79 1.13
 2 5 3 7.81 0.95
 2 5 4 317.51 4.53
 2 5 5 26.17 1.6
 2 5 7 1.76 0.9
 2 6 2 0.38 0.62
 2 6 3 43 1.9
 2 6 6 28.65 1.87
 2 6 8 0.28 1.04
 2 7 4 0.54 0.84
 2 7 5 6.17 1.15
 2 7 6 15.22 1.72
 2 7 7 1.66 0.99
 2 7 8 -0.06 0.94
 2 7 9 60.23 3.06
 2 8 2 7.83 1.21
 2 8 4 4.63 1.15
 2 8 5 43.54 2.39
 2 8 6 42.87 2.54
 2 8 7 28.52 2.31
 2 8 8 1.11 1.21
 2 8 9 71.5 3.34
 2 9 2 6.89 1.29
 2 9 3 -0.58 0.89
 2 9 4 16.38 1.87
 2 9 5 123.5 4
 2 9 6 19.09 2.09
 2 9 7 108.97 4.05
 2 9 9 23.9 2.34
 2 10 1 107.73 3.87
 2 10 2 -0.39 0.91
 2 10 3 23.53 2.22
 2 10 4 0.73 1.15
 2 10 6 46.15 2.87
 2 10 7 5.76 1.78
 2 10 8 17.61 2.17
 2 11 1 53.43 3.08
 2 11 2 16 2.09
 2 11 3 149.07 4.77
 2 11 4 4.12 1.41
 2 11 5 -0.5 1.22
 2 11 6 6.66 1.96
 2 11 7 239.8 6.23
 2 11 8 22.67 2.6
 2 11 9 5.68 1.83
 2 12 1 68.11 3.65
 2 12 2 3.31 1.49
 2 12 3 1.11 1.4
 2 12 4 2.65 1.6
 2 12 5 111.82 4.53
 2 12 6 5.2 1.74
 2 12 7 3.14 1.6
 2 12 8 7.07 1.79
 2 13 0 -0.27 1.4
 2 13 1 21.73 2.4
 2 13 2 0.42 1.37
 2 13 3 273.24 6.97
 2 13 4 9.57 1.93
 2 13 5 0.45 1.8
 2 13 6 47.45 3.48
 2 14 -1 16.68 2.76
 2 14 0 6.38 1.88
 2 14 1 18.72 2.71
 2 14 2 120.84 4.96
 2 14 3 1.79 1.66
 2 14 4 11.33 2.32
 2 15 -2 3.46 1.94
 2 15 0 0.33 1.75
 2 15 1 1.5 1.77
 3 3 1 108.01 1.75
 3 3 2 58.37 1.36
 3 3 3 73.26 1.69
 3 3 4 299.74 3.56
 3 3 5 224.86 3.5
 3 4 2 2.07 0.51
 3 4 3 4.06 0.72
 3 4 4 21.52 1.2
 3 4 5 16.98 1.22
 3 4 6 31.44 1.6
 3 5 2 8.41 0.92
 3 5 3 253.57 3.78
 3 5 5 5.37 0.93
 3 5 7 4.71 1.11
 3 6 2 29.15 1.58
 3 6 3 141.55 3.13
 3 6 6 0.57 0.77
 3 6 7 158.39 3.92
 3 7 5 3.5 1.03
 3 7 6 -0.01 0.76
 3 7 8 71.49 2.93
 3 8 3 58.9 2.48
 3 8 4 -0.06 0.89
 3 8 5 3.23 1.29
 3 8 6 5.78 1.39
 3 8 8 3.28 1.04
 3 9 1 52.92 2.68
 3 9 2 37.72 2.18
 3 9 3 14.1 1.74
 3 9 4 10.72 1.64
 3 9 5 94.32 3.46
 3 9 6 44.37 2.74
 3 9 7 97.38 3.64
 3 9 8 0.88 0.94
 3 10 1 50.65 2.76
 3 10 2 29.67 2.14
 3 10 3 3.2 1.26
 3 10 5 146.03 4.49
 3 10 6 7.33 1.75
 3 10 7 26.5 2.46
 3 10 8 -0.16 1.06
 3 11 1 0.51 1.13
 3 11 2 0.68 1.3
 3 11 5 2.36 1.41
 3 11 6 -0.49 1.19
 3 11 7 3.15 1.45
 3 12 0 46.94 3.17
 3 12 1 227.04 5.92
 3 12 3 15.41 2.14
 3 12 4 81.14 3.82
 3 12 5 76.4 3.79
 3 12 7 1.47 1.66
 3 13 1 1.03 1.56
 3 13 2 10.62 2.05
 3 13 3 83.34 4.11
 3 13 4 5.5 1.86
 3 13 5 -0.07 1.46
 3 13 6 37.42 3.17
 3 14 -1 -0.94 1.86
 3 14 0 5.91 1.85
 3 14 2 25.08 2.63
 3 14 3 4.4 1.84
 3 14 4 17.68 2.45
 3 15 -2 5.22 2.06
 3 15 -1 33 3.29
 3 15 0 65.81 3.87
 4 2 1 74.99 1.04
 4 2 2 1.78 0.29
 4 4 1 33.44 1.18
 4 4 2 1005.78 6.08
 4 4 3 201.29 2.94
 4 4 4 0.53 0.46
 4 4 5 -0.61 0.42
 4 5 1 390.33 4.38
 4 5 2 11.69 1.01
 4 5 3 1.87 0.61
 4 5 4 26.79 1.42
 4 6 1 1038.66 7.92
 4 6 2 3.8 0.88
 4 6 3 13.45 1.18
 4 7 4 1.74 0.82
 4 7 5 3.8 1.08
 4 8 1 3.55 1.09
 4 8 2 195.57 4.2
 4 8 3 64.07 2.56
 4 8 4 6.7 1.16
 4 8 5 93.72 3.18
 4 9 1 14.47 1.76
 4 9 3 5.61 1.3
 4 9 4 5.22 1.22
 4 9 5 2.36 1.09
 4 10 1 6.65 1.38
 4 10 2 95.79 3.54
 4 10 3 0.85 1.09
 4 10 4 13.44 1.76
 4 11 0 8.07 1.76
 4 11 1 49.53 2.91
 4 11 2 0.6 1.28
 4 11 3 2.58 1.31
 4 11 4 9.18 1.72
 4 11 5 -0.23 1.18
 4 12 0 40.12 2.95
 4 12 1 13.59 2.13
 4 12 2 39.59 2.84
 4 12 3 17.07 2.21
 4 12 4 71.34 3.46
 4 12 5 4.3 1.67
 4 13 -1 73.13 3.91
 4 13 0 -1.1 1.32
 4 13 1 6.6 1.78
 4 13 2 28.17 2.76
 4 13 3 1.89 1.65
 4 13 4 1.26 1.33
 4 13 5 44.61 3.15
 4 14 -1 4.22 1.85
 4 14 0 4.71 1.74
 4 14 1 5.86 1.86
 4 14 2 4.87 2
 4 14 3 1.24 1.53
 5 2 0 15.11 0.41
 5 3 0 230.3 2.33
 5 3 1 6.34 0.47
 5 3 2 37.1 0.91
 5 4 2 328.27 3.31
 5 4 3 67.59 1.57
 5 5 1 3.46 0.67
 5 6 1 17.08 1.15
 5 6 2 17.14 1.2
 5 6 3 0.33 0.55
 5 8 1 0.68 0.72
 5 8 3 11.22 1.35
 5 8 4 -0.45 0.36
 5 9 1 0.09 0.97
 5 9 2 25.01 1.88
 5 9 3 4.12 0.96
 5 10 0 6 1.44
 5 10 1 5.5 1.31
 5 10 2 9.22 1.67
 5 10 3 8.5 1.47
 5 11 0 135.82 4.42
 5 11 1 40.94 2.65
 5 11 2 15.15 1.98
 5 11 3 6.51 1.39
 5 12 0 8.87 1.82
 5 12 2 0.86 1.44
 5 12 3 33.45 2.5
 5 13 -1 1.01 1.57
 5 13 0 2.02 1.4
 5 13 1 1.4 1.4
 5 13 2 40.46 2.9
 5 13 3 9.62 1.94
 5 14 -2 1.51 1.57
 5 14 -1 3.92 1.92
 5 14 0 -0.71 1.4
 5 14 1 -0.29 1.43
 6 3 0 505.42 2.65
 6 4 0 323.62 3.06
 6 4 1 0.41 0.3
 6 5 1 149.06 2.39
 6 6 0 1.08 0.61
 6 8 1 7.02 0.99
 6 9 0 54.82 2.48
 6 9 1 30.72 1.84
 6 10 0 0.12 0.96
 6 10 1 0.05 0.73
 6 11 -1 0.01 1.27
 6 11 0 23.93 2.24
 6 11 1 4.47 1.09
 6 12 -1 5.85 1.72
 6 12 0 2.81 1.47
 6 12 1 4.4 1.27
 6 13 -2 7.2 1.99
 6 13 -1 0.2 1.25
 6 13 0 31.81 2.62
 6 14 -2 10.41 2.11
 6 14 -1 4.45 1.71
 7 4 -1 54.37 1.26
 7 12 -2 4.83 1.66
 7 13 -2 13.86 2.1
 -10 -4 14 8.01 1.83
 -10 -3 13 2.7 1.4
 -10 -3 14 40.04 2.95
 -10 -2 12 1.13 1.22
 -10 -2 14 0.27 1.22
 -9 -3 14 6.09 1.94
 -9 -3 15 0.71 1.61
 -9 -2 13 1.7 1.57
 -9 -2 14 1 1.65
 -9 -2 15 -0.39 1.6
 -9 -1 10 1.83 1.15
 -9 -1 11 2.17 1.15
 -9 -1 12 25.03 2.31
 -9 -1 13 0.74 1.46
 -9 -1 14 4.27 1.56
 -9 -1 15 8.37 2.23
 -9 0 8 26.34 1.37
 -9 0 10 133.26 3.49
 -9 0 11 0.01 0.95
 -9 0 12 5.58 1.35
 -9 0 13 0.7 1.22
 -9 0 14 12.62 2.06
 -9 0 15 -0.94 1.28
 -9 1 10 0.82 0.74
 -9 1 11 2.4 1.09
 -9 1 12 22.11 2.05
 -9 1 13 1.86 1.28
 -9 1 14 6.03 1.57
 -9 1 15 6.77 1.86
 -9 2 10 18.54 1.46
 -9 2 13 0.14 1.04
 -9 2 14 0.42 1.22
 -9 2 15 1.02 1.44
 -9 3 10 23.76 1.6
 -9 3 11 0.51 0.84
 -9 3 12 10.03 1.51
 -9 3 13 4 1.25
 -9 3 14 4.38 1.62
 -9 4 12 2.93 1.23
 -9 4 13 48.72 2.7
 -9 4 14 1.08 1.17
 -8 -4 15 7.38 2.13
 -8 -3 15 47.28 3.68
 -8 -2 13 11.97 2.05
 -8 -2 14 0.16 1.43
 -8 -1 11 1.86 1.18
 -8 -1 12 -0.12 1.17
 -8 -1 13 -1.77 1.2
 -8 -1 15 4.39 1.78
 -8 0 5 0.05 0.23
 -8 0 6 15.96 0.9
 -8 0 7 0.17 0.56
 -8 0 8 37.32 1.76
 -8 0 10 22.18 1.77
 -8 0 11 -0.17 1.07
 -8 0 12 1.87 1.3
 -8 0 13 0.94 1.45
 -8 0 14 5.93 1.85
 -8 0 15 0.88 1.52
 -8 1 6 6.12 0.58
 -8 1 7 147.96 2.61
 -8 1 8 221.84 3.69
 -8 1 10 0.03 0.83
 -8 1 11 1.5 0.97
 -8 1 12 -0.39 1.05
 -8 1 13 -0.79 1.3
 -8 1 14 1.9 1.72
 -8 2 6 100.73 1.6
 -8 2 7 3.69 0.59
 -8 2 8 41.47 1.67
 -8 2 10 5.1 1.1
 -8 2 11 8.54 1.49
 -8 2 12 27.24 2.28
 -8 2 13 15.48 1.98
 -8 2 14 -1.23 1.53
 -8 2 15 14.26 2.18
 -8 3 7 11.38 0.85
 -8 3 8 200.14 3.36
 -8 3 10 0.41 0.96
 -8 3 11 26.24 2.04
 -8 3 12 14.95 1.96
 -8 3 13 0.72 1.18
 -8 3 14 1.56 1.34
 -8 3 15 43.06 3.14
 -8 4 7 21.48 1.1
 -8 4 8 15.19 1.15
 -8 4 11 21.67 1.92
 -8 4 12 7.02 1.56
 -8 4 13 9.19 1.85
 -8 4 14 56.46 3.22
 -8 4 15 1.98 1.45
 -8 5 7 7.37 0.9
 -8 5 11 17.97 1.75
 -8 5 12 0.92 1.11
 -8 5 13 11.66 1.92
 -8 5 14 27.33 2.56
 -8 5 15 2.76 1.56
 -8 6 9 27.4 1.73
 -8 6 10 9.13 1.34
 -8 6 11 0.18 1.08
 -8 6 12 5.16 1.36
 -8 6 13 78.43 3.47
 -8 6 14 3.66 1.42
 -8 7 9 20.48 1.69
 -8 7 10 0.6 1.12
 -8 7 11 7.26 1.44
 -8 7 12 0.19 1.06
 -8 7 13 7.71 1.66
 -8 7 14 -1.1 1.21
 -8 8 11 32.29 2.37
 -8 8 12 3.31 1.52
 -7 -3 15 4.53 1.86
 -7 -2 14 9.28 2.11
 -7 -2 15 11.11 2.48
 -7 -1 12 19.59 2.37
 -7 -1 13 11.8 2.03
 -7 -1 14 35.36 2.99
 -7 -1 15 -0.45 1.53
 -7 0 4 5.07 0.39
 -7 0 10 58.74 2.66
 -7 0 11 0.86 1.13
 -7 0 12 0.25 1.4
 -7 0 13 0.2 1.35
 -7 0 14 0.47 1.66
 -7 0 15 -0.79 1.43
 -7 1 5 73.85 1.38
 -7 1 6 4.03 0.62
 -7 1 8 54.54 2.1
 -7 1 10 4.91 1.14
 -7 1 11 0.36 1.14
 -7 1 12 17.79 1.96
 -7 1 13 12.42 1.97
 -7 1 14 32.71 2.86
 -7 1 15 0.03 1.82
 -7 2 6 1.04 0.44
 -7 2 7 9.03 0.97
 -7 2 11 0 0.98
 -7 2 12 18.35 1.97
 -7 2 13 0.63 1.39
 -7 2 14 10.34 1.9
 -7 2 15 13.06 2.27
 -7 3 5 236.77 2.38
 -7 3 6 6.77 0.73
 -7 3 7 5.11 0.81
 -7 3 8 42.28 1.8
 -7 3 11 10.89 1.7
 -7 3 13 4.22 1.51
 -7 3 14 5.33 1.65
 -7 4 5 18.08 0.82
 -7 4 6 140.45 2.46
 -7 4 7 72.42 2.05
 -7 4 9 2.18 0.97
 -7 4 11 13.36 1.68
 -7 4 13 6.57 1.71
 -7 4 14 3.36 1.63
 -7 4 15 11.71 2.29
 -7 5 5 18.31 0.93
 -7 5 6 42.93 1.55
 -7 5 7 17.16 1.22
 -7 5 9 -0.17 0.78
 -7 5 10 0.32 0.88
 -7 5 11 31.7 2.31
 -7 5 13 9.9 1.81
 -7 5 14 0.16 1.43
 -7 5 15 8.09 2.06
 -7 6 6 2.58 0.72
 -7 6 8 42.04 2.04
 -7 6 9 0.67 0.83
 -7 6 10 -0.02 0.98
 -7 6 14 9.85 1.95
 -7 7 6 0.54 0.68
 -7 7 8 47.7 2.22
 -7 7 9 23.14 1.81
 -7 7 10 57 2.77
 -7 7 11 83.72 3.47
 -7 7 12 5.75 1.77
 -7 7 13 -0.55 1.22
 -7 7 14 7.96 1.79
 -7 8 7 22.81 1.62
 -7 8 8 4.38 1.14
 -7 8 9 9.19 1.42
 -7 8 10 6.52 1.42
 -7 8 11 -0.98 1.32
 -7 8 12 1.78 1.36
 -7 8 13 10.07 2.01
 -7 9 8 31.35 2.08
 -7 9 9 79.57 3.18
 -7 9 10 2.92 1.44
 -7 9 11 14.59 2.05
 -7 9 12 2.04 1.59
 -7 9 13 35.02 2.91
 -7 10 9 30.13 2.34
 -7 10 10 17.83 2.21
 -7 10 11 9.03 1.73
 -7 10 12 3.73 1.51
 -6 -3 15 1.58 1.77
 -6 -2 14 10.94 2.17
 -6 -2 15 60.1 4.11
 -6 -1 12 82.33 3.82
 -6 -1 13 9.34 2.14
 -6 -1 15 0.15 1.62
 -6 0 10 27.36 2.17
 -6 0 11 1.91 1.2
 -6 0 12 32.57 2.71
 -6 0 13 0.3 1.36
 -6 0 14 219.24 6.26
 -6 0 15 1.22 1.65
 -6 1 4 390.88 2.72
 -6 1 5 0.4 0.39
 -6 1 6 62.86 1.82
 -6 1 7 2.13 0.76
 -6 1 8 230.15 4.2
 -6 1 10 14.8 1.74
 -6 1 11 20.2 1.91
 -6 1 12 81.05 3.53
 -6 1 13 11.48 2.04
 -6 1 14 19.48 2.63
 -6 1 15 -0.24 1.49
 -6 2 4 6.17 0.43
 -6 2 5 29.78 1.06
 -6 2 6 411.64 4.32
 -6 2 7 11.35 1.13
 -6 2 8 0.25 0.75
 -6 2 10 74.02 2.96
 -6 2 11 17.8 1.97
 -6 2 12 32.75 2.6
 -6 2 14 17.49 2.6
 -6 3 4 77.22 1.35
 -6 3 5 45.6 1.3
 -6 3 7 6.39 1
 -6 3 10 43.45 2.37
 -6 3 12 61.75 3.28
 -6 3 14 11.99 2.17
 -6 3 15 3.02 1.7
 -6 4 4 122.44 1.88
 -6 4 5 27.88 1.17
 -6 4 9 22.2 1.73
 -6 4 11 17.46 1.89
 -6 4 12 19.35 2.18
 -6 4 13 12.74 1.96
 -6 4 14 -0.34 1.35
 -6 4 15 2.48 1.69
 -6 5 4 10.32 0.78
 -6 5 5 24.39 1.19
 -6 5 6 3.48 0.74
 -6 5 7 57.1 2.11
 -6 5 9 88.07 3.04
 -6 5 11 35.34 2.34
 -6 5 12 2.38 1.33
 -6 5 13 34.53 2.86
 -6 5 14 10.07 2.07
 -6 5 15 0.09 1.81
 -6 6 5 33.14 1.44
 -6 6 8 1.38 1.04
 -6 6 10 1.38 1.05
 -6 6 11 -0.46 1.04
 -6 6 12 0.62 1.47
 -6 6 13 31.37 2.75
 -6 6 14 14.72 2.31
 -6 7 5 -0.11 0.52
 -6 7 7 14.14 1.41
 -6 7 8 22.79 1.83
 -6 7 9 2.98 1.13
 -6 7 10 2.18 1.39
 -6 7 11 40.01 2.59
 -6 7 12 11.84 1.94
 -6 7 13 2.44 1.4
 -6 7 14 2.65 1.66
 -6 8 6 5.65 1.04
 -6 8 7 116.86 3.33
 -6 8 9 7.44 1.4
 -6 8 11 4.83 1.53
 -6 8 12 55.6 3.32
 -6 8 13 2.43 1.67
 -6 9 7 17.9 1.79
 -6 9 8 0.28 0.98
 -6 9 9 4.96 1.47
 -6 9 10 3.81 1.4
 -6 9 11 5.37 1.71
 -6 9 12 4.05 1.62
 -6 9 13 1.62 1.73
 -6 10 7 6.82 1.4
 -6 10 8 2.2 1.4
 -6 10 9 4.76 1.45
 -6 10 11 0.88 1.56
 -6 10 12 2.76 1.59
 -6 11 9 0.13 1.32
 -6 11 10 0.21 1.2
 -6 11 11 -1.38 1.14
 -5 -4 15 6.22 2.32
 -5 -2 14 25.88 3.03
 -5 -2 15 1.45 1.75
 -5 -1 12 190.65 5.55
 -5 -1 14 3.35 1.78
 -5 -1 15 11.05 2.6
 -5 0 10 344.41 6.23
 -5 0 11 0.73 1.16
 -5 0 13 -0.16 1.42
 -5 0 14 1.12 1.69
 -5 0 15 0.14 1.67
 -5 1 3 74.91 0.99
 -5 1 4 182.47 2.21
 -5 1 5 31.14 1.2
 -5 1 6 124.54 2.59
 -5 1 8 1.73 0.87
 -5 1 10 37.63 2.4
 -5 1 11 4.73 1.57
 -5 1 13 17.16 2.21
 -5 1 14 2.34 1.71
 -5 1 15 11.64 2.46
 -5 2 3 -0.01 0.18
 -5 2 4 162.49 2.05
 -5 2 5 96.35 1.96
 -5 2 6 0.52 0.55
 -5 2 8 1.61 0.87
 -5 2 9 2.51 0.96
 -5 2 13 0.49 1.34
 -5 2 14 24.78 2.85
 -5 2 15 0.98 1.81
 -5 3 4 105.59 1.79
 -5 3 5 4.14 0.63
 -5 3 6 59.65 1.89
 -5 3 7 47.5 1.85
 -5 3 10 0.6 0.99
 -5 3 11 12 1.83
 -5 3 12 -1.59 1.15
 -5 3 13 8.68 1.83
 -5 3 14 4.98 1.73
 -5 3 15 -1.07 1.42
 -5 4 3 198.34 2.34
 -5 4 4 15.89 0.88
 -5 4 5 14.2 1.01
 -5 4 6 92.74 2.36
 -5 4 7 205.45 3.75
 -5 4 9 -0.32 0.86
 -5 4 11 0.06 1.29
 -5 4 12 48.47 3.08
 -5 4 14 2.46 1.58
 -5 4 15 6.1 2.28
 -5 5 4 210.56 3.09
 -5 5 6 118.03 2.75
 -5 5 8 23.79 1.62
 -5 5 11 0.4 1.34
 -5 5 13 12.05 2.25
 -5 5 14 -1.36 1.41
 -5 6 4 46.9 1.63
 -5 6 5 372.8 4.79
 -5 6 6 84.07 2.57
 -5 6 8 1.84 0.93
 -5 6 9 91.33 3.28
 -5 6 10 0.67 1.05
 -5 6 12 0.21 1.32
 -5 6 14 0.96 1.82
 -5 7 4 466.64 5.48
 -5 7 7 0.62 1.01
 -5 7 8 -0.98 0.84
 -5 7 9 5.7 1.31
 -5 7 10 17.77 2.12
 -5 7 11 2.52 1.4
 -5 7 12 11.71 1.94
 -5 7 13 13.98 2.24
 -5 7 14 1.27 1.89
 -5 8 6 5.38 1.27
 -5 8 7 3.91 1.22
 -5 8 8 7.18 1.37
 -5 8 9 37.77 2.41
 -5 8 10 6.42 1.55
 -5 8 11 5.87 1.64
 -5 8 12 32.11 2.82
 -5 9 6 7.18 1.24
 -5 9 7 30.65 2.22
 -5 9 9 20 2.19
 -5 9 10 7.35 1.83
 -5 9 11 12.21 2.1
 -5 9 12 27.61 2.87
 -5 9 13 2.08 1.66
 -5 10 7 34.59 2.5
 -5 10 8 14.18 1.86
 -5 10 9 0.5 1.17
 -5 10 10 0.92 1.33
 -5 10 11 2.06 1.69
 -5 11 8 25.09 2.45
 -5 11 9 39.48 2.97
 -5 11 10 0.15 1.36
 -5 11 11 5.65 1.94
 -5 12 9 1.1 1.57
 -5 12 10 28.27 2.84
 -4 -3 15 8.59 2.26
 -4 -2 14 5.14 2.06
 -4 -2 15 4.17 1.97
 -4 -1 12 -0.37 1.31
 -4 -1 13 4.38 1.78
 -4 -1 14 -0.25 1.47
 -4 -1 15 4.81 2.22
 -4 0 10 58.31 2.9
 -4 0 12 23.47 2.3
 -4 0 13 1.24 1.44
 -4 0 14 71.01 3.99
 -4 0 15 -1.05 1.55
 -4 1 3 284.42 2.33
 -4 1 4 15.85 0.82
 -4 1 5 797.5 5.83
 -4 1 6 180.29 3.24
 -4 1 7 119.72 2.94
 -4 1 9 45.16 2.38
 -4 1 10 84.58 3.39
 -4 1 11 7.78 1.56
 -4 1 12 0.19 1.18
 -4 1 13 3.54 1.57
 -4 1 14 0.39 1.66
 -4 1 15 3.37 1.86
 -4 2 2 3.42 0.29
 -4 2 3 1048.23 4.52
 -4 2 4 85.65 1.7
 -4 2 5 168.27 2.69
 -4 2 6 239.81 3.71
 -4 2 7 1.07 0.76
 -4 2 9 4.18 1.19
 -4 2 10 1.98 1.06
 -4 2 12 26.47 2.61
 -4 2 13 33.82 3.09
 -4 2 15 2.69 1.82
 -4 3 2 0.52 0.28
 -4 3 3 14.04 0.71
 -4 3 4 293.19 3.15
 -4 3 5 463.88 4.57
 -4 3 6 18.06 1.16
 -4 3 7 212.32 3.88
 -4 3 9 204.86 4.54
 -4 3 10 27.38 2.16
 -4 3 11 2.96 1.41
 -4 3 14 3.48 1.79
 -4 3 15 7.02 2.27
 -4 4 3 0.89 0.41
 -4 4 4 59.62 1.64
 -4 4 5 79.16 2.02
 -4 4 7 271.74 4.54
 -4 4 9 4.91 1.15
 -4 4 10 7.14 1.36
 -4 4 11 1.28 1.17
 -4 4 14 8.47 1.97
 -4 4 15 3.24 1.74
 -4 5 3 22.25 1.15
 -4 5 4 34.06 1.44
 -4 5 5 27.32 1.38
 -4 5 6 0.82 0.71
 -4 5 11 31.32 2.37
 -4 5 13 4.8 1.87
 -4 6 3 5.67 0.84
 -4 6 4 10.22 1.12
 -4 6 5 17.79 1.36
 -4 6 10 1.27 1.16
 -4 6 11 3.67 1.41
 -4 6 12 14.5 2.11
 -4 6 13 9.96 2.17
 -4 7 4 124.24 3.01
 -4 7 8 0 1.02
 -4 7 11 86.83 3.9
 -4 7 12 0.58 1.4
 -4 7 13 55.95 3.67
 -4 7 14 4.05 1.94
 -4 8 7 39.22 2.38
 -4 8 8 8.85 1.68
 -4 8 9 20.5 2.11
 -4 8 11 2.7 1.51
 -4 8 12 10.22 2.11
 -4 8 13 4.22 2.1
 -4 9 5 109.61 3.44
 -4 9 6 71.13 3.01
 -4 9 7 8.74 1.56
 -4 9 8 54.9 2.89
 -4 9 11 6.72 1.83
 -4 9 12 28.29 2.96
 -4 10 6 8.2 1.62
 -4 10 8 16.73 2.25
 -4 10 9 9.71 1.82
 -4 10 11 33.16 3.01
 -4 10 12 -1.03 1.79
 -4 11 7 13.81 2.11
 -4 11 8 1.67 1.67
 -4 11 9 31.24 2.77
 -4 11 10 20.59 2.66
 -4 11 11 18.8 2.58
 -4 12 8 6.93 2
 -4 12 9 0.48 1.43
 -4 12 10 3.02 1.7
 -3 -3 14 16.51 2.83
 -3 -3 15 2.02 2.19
 -3 -2 14 1.41 1.72
 -3 -2 15 -0.68 1.66
 -3 -1 12 2.04 1.38
 -3 -1 13 20.14 2.5
 -3 -1 15 3.83 1.85
 -3 0 13 1.58 1.65
 -3 0 14 28.57 3.17
 -3 0 15 -1.2 1.58
 -3 1 2 98.05 1.09
 -3 1 3 548.04 3.54
 -3 1 6 0.8 0.61
 -3 1 10 0.8 1.13
 -3 1 11 86.82 3.68
 -3 1 12 2.38 1.36
 -3 1 13 19.83 2.33
 -3 1 14 35.61 3.22
 -3 1 15 2.55 2.09
 -3 2 2 59.58 1.01
 -3 2 3 3015.99 8.49
 -3 2 4 79.18 1.71
 -3 2 5 485.48 4.79
 -3 2 7 206.88 3.97
 -3 2 10 1.83 1.25
 -3 2 12 2.44 1.42
 -3 2 13 4.2 1.97
 -3 2 14 1.83 1.68
 -3 2 15 0.3 1.96
 -3 3 2 197.52 2.15
 -3 3 3 6.04 0.58
 -3 3 5 337.92 4.1
 -3 3 6 191.31 3.48
 -3 3 7 0.12 0.64
 -3 3 9 74.13 2.87
 -3 3 11 7.45 1.53
 -3 3 12 14.72 2.28
 -3 3 14 20.39 2.89
 -3 3 15 0.7 1.69
 -3 4 2 694.97 4.67
 -3 4 3 446.79 4.08
 -3 4 4 7.53 0.86
 -3 4 5 29.59 1.35
 -3 4 9 31.03 2.11
 -3 4 10 66.69 3.02
 -3 4 12 7.5 1.78
 -3 4 13 1.98 1.57
 -3 5 2 257.55 3.27
 -3 5 3 73.12 1.88
 -3 5 4 5.61 0.91
 -3 5 5 219.34 3.67
 -3 5 6 18.82 1.35
 -3 5 8 8.29 1.29
 -3 5 9 77.97 3.06
 -3 5 11 0.39 1.16
 -3 5 13 4.04 1.66
 -3 6 3 4.75 0.82
 -3 6 4 251.21 4
 -3 6 5 12.13 1.26
 -3 6 7 754.86 8.24
 -3 6 8 6.71 1.25
 -3 6 9 1.62 1.2
 -3 6 10 10.28 1.66
 -3 6 11 23.16 2.45
 -3 6 12 1.75 1.5
 -3 6 13 -1.41 1.29
 -3 6 14 0.46 1.53
 -3 7 4 6.34 1.01
 -3 7 7 0.86 1.02
 -3 7 9 16.2 1.99
 -3 7 10 13.1 2.07
 -3 7 11 25.02 2.37
 -3 7 12 4.33 1.72
 -3 7 13 -0.13 1.54
 -3 8 5 33.05 1.93
 -3 8 6 0.16 0.91
 -3 8 7 4.63 1.33
 -3 8 8 190.41 4.89
 -3 8 9 2.64 1.28
 -3 8 10 13.76 1.98
 -3 8 12 4.72 1.75
 -3 8 13 14.48 2.52
 -3 9 4 0.92 1.09
 -3 9 6 6.1 1.29
 -3 9 8 14.37 2.1
 -3 9 9 64.74 3.52
 -3 9 10 -1.66 1.21
 -3 9 11 0.86 1.77
 -3 9 12 0.34 1.59
 -3 10 5 80.57 3.26
 -3 10 6 115.22 3.91
 -3 10 7 37.77 2.74
 -3 10 8 -0.8 1.13
 -3 10 9 28.65 2.68
 -3 10 12 2.36 1.83
 -3 11 6 3.45 1.37
 -3 11 7 4.96 1.73
 -3 11 8 2.09 1.5
 -3 11 10 6.27 1.91
 -3 11 11 1.03 1.86
 -3 12 8 2.99 1.68
 -3 12 10 1.05 1.75
 -2 -4 14 20.53 2.79
 -2 -3 14 5.69 1.99
 -2 -2 13 8.89 2.27
 -2 -2 14 4.83 1.89
 -2 -2 15 6.71 2.07
 -2 -1 11 3.98 1.49
 -2 -1 13 1.21 1.66
 -2 -1 14 31.44 3.17
 -2 -1 15 2.15 1.83
 -2 0 9 -0.06 0.87
 -2 0 10 4.93 1.29
 -2 0 11 0.73 1.24
 -2 0 12 190.21 5.7
 -2 0 13 -0.06 1.45
 -2 0 14 47.34 3.69
 -2 0 15 0.41 1.71
 -2 1 2 937.06 3.79
 -2 1 4 354.83 3.65
 -2 1 5 48.89 1.66
 -2 1 6 7.82 0.95
 -2 1 7 65.59 2.38
 -2 1 9 36.77 2.27
 -2 1 10 44.07 2.51
 -2 1 11 3.14 1.5
 -2 1 12 26.54 2.45
 -2 1 13 1.38 1.57
 -2 1 14 31.2 3.18
 -2 1 15 2.1 2.05
 -2 2 1 158.19 1.48
 -2 2 2 545.08 3.22
 -2 2 5 1580.62 8.84
 -2 2 6 0.5 0.6
 -2 2 7 17.5 1.4
 -2 2 9 155.77 4.17
 -2 2 10 109.65 3.75
 -2 2 11 66.12 3.25
 -2 2 12 47.62 3.05
 -2 2 13 11.04 2.12
 -2 2 14 5.54 1.99
 -2 2 15 4.69 2.13
 -2 3 1 1007.59 4.69
 -2 3 3 166.82 2.41
 -2 3 4 147.61 2.59
 -2 3 5 202.73 3.33
 -2 3 7 24.37 1.71
 -2 3 9 6.22 1.22
 -2 3 10 2.38 1.19
 -2 3 11 5.66 1.5
 -2 3 13 21.26 2.52
 -2 3 14 6.49 1.88
 -2 4 1 7.88 0.77
 -2 4 2 154.44 2.4
 -2 4 3 1.41 0.57
 -2 4 4 310.19 3.87
 -2 4 5 2.07 0.66
 -2 4 6 16.84 1.29
 -2 4 8 30.32 2.02
 -2 4 9 2.57 1.05
 -2 4 10 69.17 3.19
 -2 4 11 2.69 1.6
 -2 4 12 -1.42 1.22
 -2 4 13 4.07 1.94
 -2 4 14 22.23 2.86
 -2 5 2 33.06 1.31
 -2 5 4 134.01 2.8
 -2 5 5 730.83 6.87
 -2 5 8 54.42 2.48
 -2 5 9 6.76 1.47
 -2 5 10 8.58 1.78
 -2 5 11 10.51 1.79
 -2 5 12 29.18 2.59
 -2 5 13 9.5 2.02
 -2 6 4 281.1 4.35
 -2 6 5 1.82 0.9
 -2 6 7 39.14 2.21
 -2 6 8 17.52 1.75
 -2 6 9 38.19 2.52
 -2 6 10 0.8 1.16
 -2 6 13 1.71 1.52
 -2 6 14 1.53 1.69
 -2 7 2 569.94 6.26
 -2 7 3 1.02 0.73
 -2 7 6 0.15 0.79
 -2 7 7 52.49 2.61
 -2 7 8 11.15 1.62
 -2 7 9 18.3 2.16
 -2 7 10 0.35 1.25
 -2 7 11 1.85 1.74
 -2 7 12 25.86 2.58
 -2 7 13 2.99 1.9
 -2 8 4 290.05 5.12
 -2 8 5 1.51 0.95
 -2 8 8 48.9 2.9
 -2 8 9 49.67 2.88
 -2 8 10 7.97 1.75
 -2 8 11 0.5 1.66
 -2 8 12 15.82 2.44
 -2 8 13 10.32 2.48
 -2 9 4 0.25 0.89
 -2 9 5 52.3 2.57
 -2 9 6 0.34 0.97
 -2 9 7 -0.6 0.99
 -2 9 8 10.08 1.72
 -2 9 9 10.63 1.88
 -2 9 10 51.57 3.31
 -2 9 11 29.29 2.95
 -2 9 12 5.03 2.13
 -2 10 5 31.24 2.23
 -2 10 6 4.07 1.42
 -2 10 8 71.69 3.55
 -2 10 9 17.64 2.47
 -2 10 10 32.67 2.95
 -2 10 11 15.4 2.57
 -2 11 6 7.2 1.64
 -2 11 7 1.64 1.37
 -2 11 8 -0.68 1.24
 -2 11 9 7.92 1.92
 -2 11 10 -0.37 1.46
 -2 12 7 35.13 2.83
 -2 12 8 8.83 2.11
 -2 12 9 6.43 2.05
 -1 -5 14 99.67 4.98
 -1 -4 13 18.31 2.71
 -1 -4 14 0.19 1.73
 -1 -3 13 9.06 2.41
 -1 -3 14 38.12 3.51
 -1 -2 13 23.2 2.8
 -1 -2 14 5.74 2.05
 -1 -1 10 90.88 3.67
 -1 -1 11 66.69 3.34
 -1 -1 12 6.62 1.9
 -1 -1 13 7.63 1.96
 -1 -1 14 2.78 1.92
 -1 0 10 3.21 1.27
 -1 0 11 -0.05 1.22
 -1 0 12 28.27 2.77
 -1 0 13 0.24 1.53
 -1 0 14 106.85 4.74
 -1 1 1 227.95 1.44
 -1 1 2 9823.71 13.35
 -1 1 3 4589.53 11.53
 -1 1 4 107.95 2.18
 -1 1 7 113.04 3.11
 -1 1 9 23.63 1.87
 -1 1 10 88.91 3.52
 -1 1 11 65.56 3.4
 -1 1 12 6.09 1.7
 -1 1 13 7.51 1.93
 -1 1 14 1.11 1.63
 -1 2 1 123.81 1.46
 -1 2 2 366.73 2.85
 -1 2 9 10.2 1.45
 -1 2 10 2.4 1.22
 -1 2 11 1.65 1.22
 -1 2 12 13.57 2.05
 -1 2 13 24.21 2.87
 -1 3 1 711.83 4.23
 -1 3 2 1212.93 5.91
 -1 3 3 884.67 5.64
 -1 3 4 380.13 4.21
 -1 3 8 144.52 3.8
 -1 3 9 153.14 4.27
 -1 3 10 65.86 3.21
 -1 3 11 24.76 2.25
 -1 3 12 100.52 4.29
 -1 3 13 9.62 2
 -1 3 14 37.13 3.08
 -1 4 1 334.29 3.4
 -1 4 2 42.69 1.42
 -1 4 3 1.05 0.55
 -1 4 4 306.47 4.02
 -1 4 6 39.74 1.84
 -1 4 9 3.39 1.32
 -1 4 10 54.47 2.88
 -1 4 11 29.15 2.55
 -1 4 12 9.03 2.14
 -1 4 13 20.01 2.73
 -1 4 14 0.89 1.72
 -1 5 1 704.74 5.64
 -1 5 2 20.82 1.23
 -1 5 3 27.93 1.37
 -1 5 4 344.46 4.61
 -1 5 5 78.81 2.46
 -1 5 7 100.76 3.15
 -1 5 9 2.13 1.21
 -1 5 10 23.7 2.28
 -1 5 11 10.48 1.97
 -1 5 12 2.6 1.65
 -1 5 13 4.26 1.65
 -1 5 14 91.61 4.68
 -1 6 2 78.14 2.2
 -1 6 3 492.52 5.62
 -1 6 4 140.32 3.23
 -1 6 7 10.2 1.41
 -1 6 8 47.36 2.51
 -1 6 10 2.04 1.24
 -1 6 11 10.02 2.11
 -1 6 13 38.86 3.34
 -1 7 3 -0.04 0.68
 -1 7 5 45.88 2.19
 -1 7 6 26.8 1.91
 -1 7 7 0.19 0.96
 -1 7 8 1.1 1
 -1 7 9 2.84 1.22
 -1 7 10 144.03 4.9
 -1 7 12 0.15 1.37
 -1 7 13 1.22 1.58
 -1 8 4 49.92 2.32
 -1 8 5 1.93 0.94
 -1 8 7 12.9 1.79
 -1 8 8 20.1 2.22
 -1 8 10 18.9 2.45
 -1 8 11 8.43 2.16
 -1 8 12 16.97 2.48
 -1 9 3 1.47 0.95
 -1 9 7 46.13 2.81
 -1 9 8 57.86 3.2
 -1 9 9 13.66 2.24
 -1 9 10 -1.78 1.55
 -1 9 11 0.7 1.62
 -1 9 12 7.26 2.31
 -1 10 4 10.32 1.55
 -1 10 5 7.6 1.48
 -1 10 6 6.6 1.63
 -1 10 7 4.53 1.47
 -1 10 8 98.45 4.16
 -1 10 9 7.39 2.06
 -1 10 10 34.81 3.31
 -1 10 11 1.26 1.69
 -1 11 5 80.39 3.76
 -1 11 7 28 2.71
 -1 11 8 24.66 2.9
 -1 11 9 4.21 1.74
 -1 12 7 1.3 1.66
 -1 12 8 9.61 2.19
 -1 12 9 34.41 3.03
 0 -5 13 -0.64 1.55
 0 -4 13 1.59 1.65
 0 -3 12 14.83 2.32
 0 -3 13 17.02 2.6
 0 -3 14 17.88 2.61
 0 -2 12 27.01 2.97
 0 -2 13 -0.31 1.58
 0 -2 14 0.58 1.57
 0 -1 9 2.14 1.09
 0 -1 10 20.23 2.24
 0 -1 11 132.37 4.63
 0 -1 13 -1.42 1.32
 0 -1 14 37.58 3.41
 0 0 7 0.46 0.75
 0 0 9 -0.91 0.79
 0 0 10 84.53 3.57
 0 0 11 1.23 1.32
 0 0 12 2.66 1.65
 0 0 13 0.59 1.48
 0 0 14 30.79 2.96
 0 1 0 0.12 0.15
 0 1 1 676.56 2.85
 0 1 2 2223.29 6.88
 0 1 3 3.05 0.53
 0 1 6 97.24 2.71
 0 1 7 17.37 1.46
 0 1 8 53.25 2.52
 0 1 10 19.27 1.89
 0 1 12 64.61 3.52
 0 1 13 0.35 1.57
 0 2 0 2012.48 5.78
 0 2 1 2195.53 6.44
 0 2 2 1689.74 6.55
 0 2 3 190.37 2.61
 0 2 6 150.26 3.27
 0 2 11 -0.4 1.2
 0 2 14 1.45 1.64
 0 3 2 1019.1 5.72
 0 3 3 191.37 2.81
 0 3 6 305.25 4.82
 0 3 8 -0.44 0.81
 0 3 10 -0.61 1.01
 0 3 11 46.48 3.13
 0 3 12 14.95 2.27
 0 3 14 14.51 2.48
 0 4 1 1381.36 7.15
 0 4 2 30.72 1.3
 0 4 8 38.83 2.3
 0 4 9 12.89 1.82
 0 4 12 114.85 4.52
 0 4 13 0.39 1.58
 0 5 1 1.75 0.59
 0 5 5 34.6 1.68
 0 5 8 -0.7 1.1
 0 5 9 1.03 1.08
 0 5 10 51.54 3.06
 0 5 11 10.3 2.05
 0 5 12 0.05 1.71
 0 5 13 -0.53 1.45
 0 6 1 120.95 2.74
 0 6 4 8.89 1.07
 0 6 6 141.47 3.7
 0 6 7 16.93 1.77
 0 6 9 -0.51 1.06
 0 6 11 1.96 1.57
 0 6 12 57.72 3.67
 0 7 2 120.21 3.03
 0 7 5 4.15 1.02
 0 7 8 4.92 1.34
 0 7 9 8.24 1.65
 0 7 11 0.99 1.46
 0 8 3 141.04 3.71
 0 8 4 0.73 0.97
 0 8 5 23.06 1.87
 0 8 6 2.53 1.15
 0 8 7 18.14 1.85
 0 8 9 6.41 1.79
 0 8 10 1.75 1.48
 0 8 11 -2.05 1.33
 0 8 12 -0.02 1.72
 0 9 3 106.68 3.49
 0 9 4 2.84 1.1
 0 9 5 27.48 2.22
 0 9 6 12.33 1.88
 0 9 9 8.03 1.97
 0 9 10 34.25 3.05
 0 9 11 11.89 2.42
 0 10 5 20.26 2.11
 0 10 6 6.93 1.69
 0 10 7 4.13 1.52
 0 10 10 -0.11 1.67
 0 11 5 17.99 2.13
 0 11 6 13.12 2.03
 0 11 7 2.68 1.59
 0 11 8 43.58 3.16
 0 11 9 23.47 2.76
 0 11 10 3.38 1.73
 0 12 7 0.81 1.65
 0 12 8 12.39 2.57
 1 -5 12 33.84 3.16
 1 -4 12 19.7 2.74
 1 -4 13 3.3 1.73
 1 -3 11 22.03 2.61
 1 -3 12 21.34 2.62
 1 -3 13 16.98 2.44
 1 -2 10 32.22 2.47
 1 -2 12 2.3 1.62
 1 -2 13 -0.56 1.4
 1 -1 8 49.23 2.42
 1 -1 9 1.28 1.13
 1 -1 10 9.9 1.89
 1 -1 12 2.55 1.57
 1 -1 13 -0.13 1.58
 1 0 6 224.35 4.07
 1 0 8 314.42 5.7
 1 0 9 0.56 1.09
 1 0 10 31.42 2.54
 1 0 11 1.26 1.42
 1 0 12 17.84 2.5
 1 0 13 0.31 1.59
 1 1 0 363.54 1.94
 1 1 1 16.84 0.58
 1 1 2 921.91 4.71
 1 1 3 0.86 0.51
 1 1 6 7.36 1.09
 1 1 9 1.72 1.12
 1 1 10 10.79 1.86
 1 1 12 2.25 1.73
 1 2 0 1227.36 4.78
 1 2 1 16.73 0.76
 1 2 2 661.14 4.36
 1 2 3 354.09 3.69
 1 2 5 254.55 3.93
 1 2 6 6.46 1.11
 1 2 8 0.05 0.91
 1 2 10 33.92 2.59
 1 2 11 25.82 2.59
 1 2 12 2.44 1.49
 1 2 13 0.61 1.59
 1 3 2 1708.18 7.77
 1 3 3 555.01 4.91
 1 3 5 10.98 1.07
 1 3 8 93.18 3.24
 1 3 9 7.94 1.52
 1 3 11 22.14 2.68
 1 3 12 25.31 2.76
 1 4 1 63.28 1.72
 1 4 2 285.13 3.62
 1 4 4 1037.77 7.81
 1 4 5 54.94 2.13
 1 4 8 0.51 0.94
 1 4 9 10.85 1.64
 1 4 10 16.09 1.93
 1 4 11 7.49 1.8
 1 4 12 21 2.51
 1 4 13 4.38 2
 1 5 4 100.38 2.74
 1 5 6 0.09 0.68
 1 5 7 66.12 2.82
 1 5 8 0.16 0.93
 1 5 9 39.14 2.64
 1 5 10 27.53 2.31
 1 5 11 0.64 1.32
 1 5 12 31.96 2.99
 1 5 13 -0.18 1.47
 1 6 3 60.23 2.15
 1 6 7 0.34 1.01
 1 6 8 13.44 1.81
 1 6 9 0.85 1.18
 1 6 10 -1.37 1.18
 1 6 12 0.84 1.56
 1 7 4 0.18 0.91
 1 7 5 16.01 1.64
 1 7 7 16.88 1.76
 1 7 8 6.42 1.53
 1 7 9 -0.24 1.22
 1 7 10 14.94 2.15
 1 7 11 4.03 1.79
 1 7 12 53.7 3.67
 1 8 2 36.92 2.07
 1 8 3 8.76 1.28
 1 8 5 33.03 2.15
 1 8 6 56.78 2.87
 1 8 8 13.21 1.9
 1 8 9 9.41 1.88
 1 8 10 12.15 2.16
 1 8 11 2.82 1.66
 1 9 4 2.06 1.18
 1 9 5 10.54 1.62
 1 9 6 0.52 1.04
 1 9 8 4.89 1.76
 1 9 9 3.49 1.7
 1 9 10 1 1.61
 1 10 4 0.1 0.96
 1 10 5 0.6 1.43
 1 10 6 89.81 3.83
 1 10 7 38.74 2.85
 1 10 8 34.83 3.05
 1 10 10 26.28 2.74
 1 11 5 10.89 1.87
 1 11 6 1.22 1.48
 1 11 7 -0.93 1.36
 1 12 7 5.89 1.89
 1 12 8 3.38 1.94
 2 -7 12 -1.61 1.29
 2 -5 11 44.61 3.15
 2 -5 12 52.46 3.6
 2 -4 11 31.57 2.62
 2 -4 12 -0.39 1.44
 2 -4 13 3.05 1.89
 2 -3 11 0.29 1.51
 2 -3 12 -0.3 1.57
 2 -3 13 5.66 1.98
 2 -2 8 44.73 2.45
 2 -2 9 -0.5 1.06
 2 -2 11 13.92 2.14
 2 -2 12 5.06 1.64
 2 -2 13 -0.4 1.58
 2 -1 8 32.22 2.15
 2 -1 9 38.06 2.4
 2 -1 10 5.81 1.45
 2 -1 11 4.27 1.59
 2 -1 12 -0.74 1.58
 2 -1 13 14.76 2.22
 2 0 2 2086.87 7.21
 2 0 3 0.53 0.46
 2 0 5 0.65 0.65
 2 0 8 1.41 1.06
 2 0 9 -0.16 0.98
 2 0 10 0.94 1.22
 2 0 11 -0.2 1.54
 2 0 12 -1.65 1.44
 2 0 13 1.03 1.81
 2 1 0 1848.1 4.83
 2 1 1 238.18 2.08
 2 1 3 681.76 5.02
 2 1 5 5.51 0.88
 2 1 6 460.95 5.89
 2 1 8 29.5 2.16
 2 1 9 41.09 2.59
 2 1 10 6.74 1.72
 2 1 11 2.64 1.41
 2 1 13 14.44 2.42
 2 2 0 101.3 1.51
 2 2 2 614.57 4.46
 2 2 5 110.63 2.77
 2 2 6 12.54 1.43
 2 2 8 45.12 2.49
 2 2 9 0.91 1.08
 2 2 10 -0.52 1.32
 2 2 11 11.61 2.01
 2 2 12 2.65 1.66
 2 2 13 -0.05 1.45
 2 3 2 962.58 6.15
 2 3 4 83.08 2.21
 2 3 5 262.4 4.27
 2 3 8 41.02 2.46
 2 3 9 27.06 2.14
 2 3 10 60.72 3.28
 2 3 11 2.58 1.48
 2 3 12 -0.37 1.31
 2 3 13 6.71 1.9
 2 4 0 1261.42 7.28
 2 4 4 8.23 1.11
 2 4 7 2.61 1.14
 2 4 8 -0.26 0.9
 2 4 9 12.53 1.89
 2 4 11 35 2.91
 2 5 2 17.67 1.3
 2 5 3 8.22 1
 2 5 6 1.8 1.01
 2 5 7 2.28 1.04
 2 5 8 0.23 1.12
 2 5 10 37.44 2.8
 2 5 11 44.87 3.11
 2 5 12 51.72 3.53
 2 6 1 196.11 3.67
 2 6 2 0.23 0.58
 2 6 5 87.57 2.98
 2 6 7 76.89 3.17
 2 6 8 0.64 1.11
 2 6 9 2.91 1.53
 2 6 10 11.35 1.95
 2 6 11 4.21 1.95
 2 6 12 4.47 1.84
 2 7 4 0.37 0.91
 2 7 5 7.19 1.33
 2 7 7 1.11 1.1
 2 7 8 0.59 1.19
 2 7 9 59.64 3.47
 2 8 2 8.97 1.4
 2 8 3 17.51 1.71
 2 8 4 3.91 1.31
 2 8 5 44.97 2.66
 2 8 6 47.41 2.75
 2 8 7 28.38 2.32
 2 8 10 52.66 3.47
 2 8 11 17.72 2.69
 2 9 3 -0.11 0.94
 2 9 5 128.4 4.23
 2 9 6 20.75 2.38
 2 9 8 32.93 2.94
 2 9 9 23.39 2.82
 2 10 4 3.46 1.44
 2 10 7 6.45 1.85
 2 10 8 17.32 2.34
 2 10 9 5.76 1.9
 2 11 5 0.07 1.43
 2 11 6 6.71 1.98
 3 -7 11 13.97 2.17
 3 -6 11 0.44 1.35
 3 -5 10 3.37 1.45
 3 -5 12 2.7 1.51
 3 -4 9 1.07 1.14
 3 -4 10 13.15 1.96
 3 -4 11 36.34 2.91
 3 -4 12 -0.15 1.31
 3 -3 8 7.96 1.4
 3 -3 10 0.53 1.22
 3 -3 11 2.48 1.38
 3 -3 12 2.89 1.48
 3 -2 8 34.98 2.17
 3 -2 9 2.2 1.33
 3 -2 10 8.7 1.68
 3 -2 11 37.45 2.88
 3 -2 12 0.83 1.37
 3 -1 4 12.87 1.08
 3 -1 5 1.97 0.77
 3 -1 6 53.13 2.14
 3 -1 9 2.99 1.24
 3 -1 10 0.04 1.19
 3 -1 11 1.07 1.41
 3 -1 12 -0.43 1.47
 3 0 0 4473.56 5.68
 3 0 1 0.33 0.25
 3 0 4 593.25 5.46
 3 0 5 -0.47 0.6
 3 0 6 18.88 1.56
 3 0 10 22.33 2.3
 3 0 11 0.39 1.35
 3 0 12 82.62 3.92
 3 1 0 1104.43 4.1
 3 1 2 19.41 0.87
 3 1 4 13.19 1.12
 3 1 5 1.45 0.83
 3 1 7 53.69 2.42
 3 1 8 64.49 2.85
 3 1 9 4.03 1.35
 3 1 10 -0.21 1.23
 3 1 12 -0.42 1.27
 3 2 0 76.89 1.45
 3 2 1 35.09 1.08
 3 2 4 2.57 0.73
 3 2 5 60.02 2.18
 3 2 7 192.74 4.34
 3 2 9 1.34 1.18
 3 2 10 7.23 1.59
 3 2 12 0.85 1.34
 3 3 0 830.79 5.28
 3 3 3 72.88 2.03
 3 3 7 4.42 1.27
 3 3 8 8.44 1.53
 3 3 9 50.56 2.88
 3 3 10 -0.09 1.46
 3 3 11 1.76 1.44
 3 4 2 1.74 0.6
 3 4 3 4.21 0.92
 3 4 4 21.45 1.38
 3 4 7 42.33 2.34
 3 4 8 58.38 2.77
 3 4 9 -0.33 1.14
 3 4 10 15.31 2.06
 3 4 11 34.18 2.89
 3 4 12 -1.11 1.37
 3 5 1 84.1 2.25
 3 5 2 6.7 1.02
 3 5 5 5.13 1.1
 3 5 6 46.19 2.28
 3 5 7 4.13 1.3
 3 5 9 -0.93 1.09
 3 5 10 1.18 1.36
 3 5 11 7.51 1.85
 3 5 12 3.58 1.73
 3 6 1 7.08 0.98
 3 6 2 30.38 1.74
 3 6 4 17.07 1.65
 3 6 5 30.43 2.08
 3 6 6 0.87 0.96
 3 6 8 6.99 1.47
 3 6 9 153.01 4.86
 3 6 10 38.92 3.08
 3 6 11 2.04 1.56
 3 7 3 197.63 4.36
 3 7 5 3.25 1.33
 3 7 6 1.1 1.12
 3 7 7 19.77 2.13
 3 7 8 77.63 3.6
 3 7 9 10.85 2.15
 3 7 10 4.4 1.71
 3 7 11 20.84 2.69
 3 8 2 19.68 1.88
 3 8 4 1.45 1.06
 3 8 5 3.54 1.23
 3 8 6 7.33 1.54
 3 8 7 6.8 1.69
 3 8 8 4.98 1.83
 3 8 9 40.12 2.95
 3 8 10 -1.09 1.36
 3 9 4 10.47 1.79
 3 9 5 97.06 3.86
 3 9 6 46.8 3.08
 3 9 8 2.2 1.52
 3 9 9 8.16 2.04
 3 10 4 11.42 1.92
 3 10 5 149.08 4.88
 3 10 6 11.38 1.96
 3 10 7 25.9 2.74
 3 10 8 -0.11 1.53
 3 11 6 -0.56 1.4
 3 11 7 1.89 1.89
 3 11 8 26.44 3.21
 4 -6 9 34.44 2.56
 4 -5 9 48.82 2.8
 4 -4 8 3.21 1.29
 4 -4 9 -0.63 1.26
 4 -4 10 0.07 1.21
 4 -3 7 15.27 1.56
 4 -3 8 4.76 1.23
 4 -3 9 1.75 1.39
 4 -3 10 1.34 1.21
 4 -2 8 0.51 1.03
 4 -2 9 1.54 1.1
 4 -2 10 63.02 3.13
 4 -2 11 20.99 2.3
 4 -1 1 29.65 0.7
 4 -1 2 93.49 1.61
 4 -1 4 27.11 1.38
 4 -1 5 337.07 4.68
 4 -1 7 20.32 1.74
 4 -1 8 76.34 2.97
 4 -1 9 43.49 2.61
 4 -1 11 0.64 1.19
 4 0 0 0.48 0.15
 4 0 1 -0.01 0.19
 4 0 2 174.56 2.21
 4 0 4 1086 7.37
 4 0 5 -0.27 0.75
 4 0 7 0.53 0.92
 4 0 9 -0.42 0.97
 4 0 10 25.11 2.37
 4 0 11 0.16 1.14
 4 1 0 247.24 2.1
 4 1 1 30.67 0.91
 4 1 3 1.77 0.53
 4 1 4 28.07 1.43
 4 1 5 316.19 4.56
 4 1 7 21.11 1.71
 4 1 8 77.52 3.03
 4 1 9 47.29 2.68
 4 1 10 32.81 2.5
 4 1 11 0.8 1.24
 4 1 12 13.01 2.14
 4 2 0 297.74 2.83
 4 2 3 48.62 1.64
 4 2 4 51.6 1.87
 4 2 5 41.42 1.81
 4 2 7 17.14 1.6
 4 2 8 0.44 1.09
 4 2 9 3.25 1.44
 4 2 10 68.51 3.27
 4 2 11 23.54 2.29
 4 2 12 6.6 1.79
 4 3 4 524.53 5.76
 4 3 6 101.67 3.05
 4 3 7 16.27 1.73
 4 3 8 3.83 1.41
 4 3 9 0.38 1.14
 4 3 11 1.57 1.37
 4 4 1 36.28 1.51
 4 4 2 1032.85 7.62
 4 4 3 201.85 3.68
 4 4 4 0.56 0.74
 4 4 6 4.24 1.24
 4 4 7 3.86 1.26
 4 4 8 2.66 1.36
 4 4 9 -0.23 1.14
 4 4 10 0.3 1.22
 4 4 11 24.26 2.49
 4 5 1 391.45 4.98
 4 5 2 10.01 1.24
 4 5 3 2.78 0.88
 4 5 5 78.39 2.84
 4 5 6 5.66 1.22
 4 5 7 3.17 1.28
 4 5 8 38.97 2.64
 4 5 11 -0.2 1.32
 4 6 1 1072.84 9.04
 4 6 4 0.21 0.87
 4 6 5 7.31 1.31
 4 6 8 6.1 1.63
 4 6 9 40.49 2.9
 4 6 10 -0.75 1.35
 4 7 2 0.98 0.98
 4 7 3 17.14 1.56
 4 7 4 2.81 1.13
 4 7 5 3.54 1.34
 4 7 6 5.4 1.55
 4 7 7 53.54 2.97
 4 7 8 8.12 1.82
 4 7 9 1.14 1.39
 4 7 10 11.56 2.23
 4 8 3 62.41 2.79
 4 8 4 7.13 1.52
 4 8 6 27.47 2.27
 4 8 8 4.23 1.65
 4 9 4 5.99 1.52
 4 9 5 1.66 1.27
 4 9 6 1.76 1.36
 4 9 7 -0.97 1.23
 4 9 9 7.78 2.11
 4 10 5 2.37 1.44
 4 10 6 15.08 2.33
 4 10 7 9.2 1.92
 4 10 8 105.03 4.59
 5 -5 7 61.31 2.63
 5 -4 7 16.14 1.64
 5 -3 4 4.06 0.75
 5 -3 5 7.96 1.03
 5 -3 7 14.76 1.51
 5 -3 8 83.47 3.05
 5 -2 1 0.5 0.2
 5 -2 3 339.83 3.61
 5 -2 4 44.6 1.6
 5 -2 5 38.2 1.69
 5 -2 7 11.32 1.4
 5 -2 8 26.06 1.97
 5 -1 1 110.35 1.18
 5 -1 3 3.48 0.56
 5 -1 4 336.84 4.07
 5 -1 7 1.53 0.82
 5 -1 8 188.13 4.34
 5 -1 9 1.35 1.12
 5 0 1 0.09 0.2
 5 0 3 -0.16 0.37
 5 0 4 93.26 2.22
 5 0 5 -0.17 0.59
 5 0 7 -0.57 0.93
 5 0 8 0.39 0.91
 5 0 9 0.1 1.01
 5 1 1 113.13 1.71
 5 1 3 2.53 0.61
 5 1 4 322.17 4.18
 5 1 5 16.11 1.32
 5 1 7 2.19 0.91
 5 1 8 184.98 4.42
 5 1 9 0.91 1.07
 5 2 2 601.07 4.98
 5 2 3 333.02 4.06
 5 2 4 45.65 1.73
 5 2 6 14.5 1.48
 5 2 8 23.03 2.01
 5 2 9 12.8 1.8
 5 2 10 12.34 1.75
 5 3 1 5.91 0.72
 5 3 2 39.06 1.55
 5 3 4 2.97 0.79
 5 3 6 26.13 1.82
 5 3 7 15.35 1.6
 5 3 9 20.22 2.06
 5 3 10 5.17 1.47
 5 4 1 219.57 3.5
 5 4 2 314.65 4.33
 5 4 5 9.33 1.36
 5 4 6 0 0.91
 5 4 7 15.71 1.89
 5 4 8 11.85 1.76
 5 4 9 10.94 1.67
 5 4 10 86.7 3.71
 5 5 1 3.47 0.91
 5 5 2 56.81 2.11
 5 5 6 18.26 1.9
 5 5 8 2.86 1.27
 5 5 9 8.3 1.8
 5 5 10 0.62 1.26
 5 6 4 23.61 1.86
 5 6 5 0.18 0.95
 5 6 7 12.23 1.72
 5 6 8 3.37 1.48
 5 6 9 0.04 1.34
 5 6 10 19.26 2.38
 5 7 3 53.59 2.49
 5 7 5 124.81 3.97
 5 7 7 79.51 3.55
 5 7 8 26.92 2.61
 5 7 9 0.53 1.54
 5 8 3 11.82 1.63
 5 8 4 0.41 1.2
 5 8 6 23.62 2.44
 5 8 8 0.6 1.57
 5 8 9 -0.14 1.63
 5 9 5 41.24 2.91
 5 9 6 9.95 1.89
 5 9 7 0.57 1.33
 5 9 8 2.77 1.7
 5 10 7 14.78 2.47
 6 -4 2 0.24 0.31
 6 -4 3 -0.34 0.35
 6 -3 3 13.88 0.78
 6 -2 4 10.44 0.81
 6 -2 5 28.49 1.39
 6 -1 3 23.33 0.96
 6 -1 4 26.99 1.18
 6 -1 5 2.56 0.64
 6 0 1 0.01 0.17
 6 0 3 0 0.41
 6 0 5 -0.35 0.45
 6 1 2 98.22 1.85
 6 1 3 24.49 1.13
 6 1 4 29.61 1.38
 6 1 5 3.43 0.8
 6 1 6 8.65 1.18
 6 1 7 43.84 2.19
 6 2 1 36.14 1.19
 6 2 2 14.67 0.94
 6 2 3 9 0.92
 6 2 4 8.98 1.08
 6 2 6 125.74 3.27
 6 2 7 9.42 1.33
 6 3 1 1.35 0.52
 6 3 2 39.59 1.52
 6 3 3 15.88 1.16
 6 3 5 6.83 1.05
 6 3 6 52.97 2.4
 6 3 7 0.44 1.07
 6 4 2 0.67 0.7
 6 4 6 12.8 1.6
 6 4 7 4.03 1.22
 6 5 4 21.82 1.72
 6 5 5 0.73 0.98
 6 5 6 1.14 0.98
 6 5 7 0.74 1.07
 6 5 8 134.24 4.25
 6 6 3 41.62 2.23
 6 6 4 18.3 1.74
 6 6 5 81.12 3.16
 6 6 6 16.33 1.98
 6 6 7 19.12 1.98
 6 7 4 131.63 3.92
 6 7 5 49.2 2.77
 6 7 6 1.19 1.14
 6 7 7 4.52 1.4
 6 7 8 2.91 1.52
 6 8 5 0.27 1.15
 6 8 6 22.49 2.34
 6 8 8 3.62 1.54
 6 9 7 -0.11 1.47
 7 1 2 39.73 1.12
 7 2 2 28.89 1.17
 7 2 3 3.32 0.62
 7 2 4 0.25 0.51
 7 3 3 26.16 1.37
 7 4 4 1.39 0.78
 7 4 5 37.82 2.04
 7 5 3 0.4 0.75
 7 5 4 13.82 1.49
 7 5 5 7.39 1.26
 7 6 4 3.93 1.15
 7 6 5 19.74 1.89
 7 7 5 0.57 1.09
 1 -3 -6 403.64 3.01
 1 -3 -5 310.1 2.34
 1 -3 -4 371.97 2.37
 1 -3 -2 1212.7 5.19
 1 -3 -1 699.84 4.44
 1 -2 -3 732.34 3.56
 1 -2 -2 366.97 2.54
 1 -2 -1 126.53 1.75
 1 -2 0 1215.41 5.96
 1 -1 -1 238.04 2.02
 1 -1 0 350.36 2.76
 1 -1 1 16.24 0.85
 1 1 1 15.65 0.57
 1 1 2 950.06 4.24
 1 2 1 16.39 0.54
 1 4 2 278.8 1.9
 2 -5 -6 389.48 2.55
 2 -5 -5 726.54 4.46
 2 -5 -4 135.6 2.27
 2 -5 -3 35.45 1.39
 2 -4 -8 30.27 0.97
 2 -4 -6 18.03 0.87
 2 -4 -5 3.81 0.57
 2 -4 -4 308.79 3.27
 2 -4 -3 0.73 0.62
 2 -4 -2 149.8 2.73
 2 -4 -1 7.6 0.99
 2 -3 -9 4.68 0.79
 2 -3 -8 2.17 0.68
 2 -3 -6 152.14 2.43
 2 -3 -5 200.08 2.65
 2 -3 -4 149.24 2.28
 2 -3 -3 169.53 2.55
 2 -3 -2 19.41 1.11
 2 -3 -1 1003.9 6.81
 2 -3 0 158.25 3.14
 2 -2 -4 318.97 3.37
 2 -2 -3 10.52 0.87
 2 -2 -2 557.12 4.44
 2 -2 -1 157.09 2.5
 2 -2 1 19.43 1.39
 2 -1 -2 930.31 5.42
 2 -1 -1 224.58 2.86
 2 -1 0 1864.98 8.31
 2 -1 1 246.03 3.41
 2 -1 2 35.02 1.61
 2 0 -1 0.12 0.48
 2 0 0 243.43 2.83
 2 0 1 -0.24 0.55
 2 0 2 2091.95 9.52
 2 1 0 1893.38 7.42
 2 1 2 32.49 1.27
 2 1 3 686.26 5.14
 2 2 1 19.75 0.92
 2 2 2 609.74 4.23
 2 2 3 320.01 3.22
 2 3 1 31.44 1.09
 2 3 2 942.45 4.83
 2 3 3 26.22 0.87
 2 4 2 346.07 2.88
 2 4 3 53.21 0.93
 2 5 2 17.07 0.76
 2 6 2 0.31 0.35
 3 -6 -7 713.69 4.53
 3 -6 -6 6.74 0.81
 3 -6 -5 12.44 1.15
 3 -6 -4 241.87 3.93
 3 -6 -3 4.53 1.08
 3 -5 -8 7.75 0.75
 3 -5 -7 76.1 1.85
 3 -5 -6 20.01 1.18
 3 -5 -5 212.23 3.4
 3 -5 -4 6.36 0.88
 3 -5 -3 71.34 2.29
 3 -5 -2 257.08 4.44
 3 -4 -8 379.66 4.35
 3 -4 -7 -0.13 0.53
 3 -4 -6 51.26 1.73
 3 -4 -5 31.03 1.43
 3 -4 -4 7.7 0.96
 3 -4 -3 442.03 5.15
 3 -4 -2 696.88 6.77
 3 -4 -1 607.23 6.64
 3 -3 -10 169.27 3.46
 3 -3 -9 74.4 2.31
 3 -3 -7 0.58 0.7
 3 -3 -6 182.03 3.18
 3 -3 -5 335.34 4.18
 3 -3 -3 5.68 1.01
 3 -3 -2 192.47 3.5
 3 -3 -1 93.7 2.58
 3 -3 0 837.43 7.77
 3 -2 -6 287.03 4.1
 3 -2 -5 479.23 5.11
 3 -2 -4 81.62 2.18
 3 -2 -3 3079.46 12.39
 3 -2 -1 64.7 2.19
 3 -1 -3 561.73 5.31
 3 -1 -2 99.91 2.38
 3 -1 -1 1799.7 9.59
 3 -1 0 1172.26 8.09
 3 -1 1 14.42 1.27
 3 0 -2 1289.83 7.86
 3 0 -1 -0.5 0.58
 3 0 0 4556.93 14.98
 3 0 1 0.47 0.82
 3 0 2 549.1 5.85
 3 1 -1 1856.41 9.29
 3 1 0 1161.02 7.4
 3 1 2 17.27 1.23
 3 2 0 81.65 2.12
 3 2 1 34.54 1.44
 3 2 2 1131.99 7.27
 3 3 0 852.49 6.28
 3 3 1 104.01 2.23
 3 3 2 59.14 1.67
 3 3 3 69.96 1.78
 3 4 1 632.8 5.28
 3 4 2 1.96 0.51
 3 4 3 3.2 0.52
 3 5 2 7.15 0.71
 3 5 3 262.22 2.71
 3 6 3 144.05 1.7
 3 8 2 17.92 1.02
 4 -7 -7 46.3 1.73
 4 -7 -5 1.24 0.95
 4 -7 -4 117.48 3.27
 4 -6 -8 12.48 1.09
 4 -6 -7 1.91 0.74
 4 -6 -6 1.45 0.78
 4 -6 -5 20.59 1.58
 4 -6 -4 10.12 1.43
 4 -6 -2 463.99 6.88
 4 -6 -1 0.63 1.23
 4 -5 -8 38.79 1.74
 4 -5 -6 0.87 0.76
 4 -5 -5 27.62 1.73
 4 -5 -4 39.69 2.05
 4 -5 -3 19.55 1.7
 4 -5 -2 253.05 4.95
 4 -5 0 -0.23 1.08
 4 -4 -9 6.07 1.07
 4 -4 -8 121.57 3
 4 -4 -7 268.38 4.38
 4 -4 -6 127.75 3.09
 4 -4 -5 82.04 2.59
 4 -4 -4 61.28 2.35
 4 -4 -3 0.48 0.79
 4 -4 -2 1.22 0.89
 4 -4 -1 9.46 1.41
 4 -4 0 2.66 1.14
 4 -3 -10 25.28 1.75
 4 -3 -9 203.41 4.14
 4 -3 -8 24.01 1.71
 4 -3 -7 215.85 4.1
 4 -3 -5 460.03 5.79
 4 -3 -4 297.95 4.69
 4 -3 -3 14.22 1.26
 4 -3 -1 930.69 8.81
 4 -2 -10 2.05 1.09
 4 -2 -9 4.54 1.08
 4 -2 -8 8.43 1.36
 4 -2 -7 -0.35 0.75
 4 -2 -6 250.87 4.43
 4 -2 -5 172.13 3.64
 4 -2 -4 83.8 2.52
 4 -2 -3 1019.2 8.42
 4 -2 2 2.22 1.18
 4 -1 -5 810.11 7.64
 4 -1 -3 298.07 4.59
 4 -1 -2 861.67 7.67
 4 -1 -1 37.06 1.81
 4 -1 0 242.31 4.34
 4 -1 2 92.52 2.99
 4 -1 3 2.74 1.11
 4 0 -4 340.45 4.98
 4 0 -3 0.39 0.81
 4 0 -2 659.16 6.64
 4 0 -1 0.17 0.83
 4 0 0 0.93 0.68
 4 0 3 -0.37 0.8
 4 1 -2 877.09 7.59
 4 1 -1 37.85 1.76
 4 1 0 251.47 4.14
 4 1 3 3.67 1.15
 4 2 -1 120.22 2.86
 4 2 3 50.49 2.09
 4 3 3 16.42 1.28
 4 3 4 530.11 5.5
 4 5 0 0.25 0.71
 4 5 2 10.38 1.04
 4 6 1 1023.95 7.93
 4 6 2 3.24 0.72
 4 6 3 15.51 0.92
 4 7 1 63.67 2.17
 4 7 2 1.51 0.58
 4 8 1 3.77 0.86
 4 9 1 11.98 1.2
 5 -7 -7 1.76 1.03
 5 -7 -5 2.66 1.21
 5 -6 -8 1.97 0.91
 5 -6 -7 81.66 2.87
 5 -6 -6 85.98 3.06
 5 -6 -5 351.31 6.04
 5 -6 -4 46.12 2.47
 5 -6 -3 21.4 2.16
 5 -5 -9 10.92 1.37
 5 -5 -7 7.23 1.24
 5 -5 -5 146.44 3.92
 5 -5 -3 12.97 1.75
 5 -4 -10 38.72 2.14
 5 -4 -9 0.49 0.88
 5 -4 -8 12.86 1.55
 5 -4 -6 91.43 3.05
 5 -4 -5 14.74 1.6
 5 -4 -4 17.21 1.76
 5 -4 -3 196.68 4.6
 5 -4 -2 2.58 1.11
 5 -4 -1 27.43 2.22
 5 -4 0 3.51 1.28
 5 -3 -10 -0.06 1
 5 -3 -9 23.38 1.89
 5 -3 -8 402.51 6.25
 5 -3 -7 49.55 2.45
 5 -3 -6 62.9 2.55
 5 -3 -4 101.74 3.19
 5 -3 -2 -0.15 1.08
 5 -3 1 6.29 1.46
 5 -2 -9 2.12 1.27
 5 -2 -8 0.65 1.11
 5 -2 -6 0.04 0.99
 5 -2 -4 164.48 3.91
 5 -2 0 15.86 1.59
 5 -2 1 1.46 1.18
 5 -2 2 594.31 8.57
 5 -1 -12 196.18 5.35
 5 -1 -8 0.8 1.08
 5 -1 -7 143.31 3.93
 5 -1 -5 31.92 1.97
 5 -1 -4 186.22 4.16
 5 -1 1 117.29 3.69
 5 -1 2 680.58 8.77
 5 -1 3 1.89 1.15
 5 0 -5 0.21 0.85
 5 0 1 -0.27 0.89
 5 0 2 47.61 2.55
 5 0 3 0.05 0.97
 5 1 1 114.24 3.35
 5 1 2 661.21 7.96
 5 1 3 2.43 1.03
 5 1 4 320.67 5.54
 5 2 0 15.94 1.59
 5 2 2 598.14 7.31
 5 2 3 335.41 5.61
 5 3 -2 0.54 0.82
 5 3 -1 337.7 5.38
 5 3 0 220.41 4.34
 5 3 1 4.46 1.12
 5 3 2 39.44 2.05
 5 3 3 16.32 1.5
 5 3 4 3.55 1
 5 4 -2 2.79 1.18
 5 4 -1 25.07 1.79
 5 4 1 229.17 4.34
 5 4 2 317.18 4.98
 5 4 3 70.97 2.42
 5 5 -1 326.98 5.55
 5 5 0 732.83 7.85
 5 5 1 2.97 0.96
 5 5 2 58.47 2.21
 5 5 3 72.74 2.26
 5 6 1 21.08 1.56
 5 6 2 14.64 1.27
 5 6 3 -0.26 0.54
 5 7 -1 196.02 4.54
 5 7 0 14.59 1.56
 5 7 1 -0.75 0.69
 5 7 2 1.2 0.68
 5 8 0 6.56 1.2
 5 8 1 1.4 0.86
 6 -8 -6 4.39 1.41
 6 -8 -5 7.73 1.68
 6 -8 -4 146.89 4.62
 6 -7 -4 140.05 4.6
 6 -7 -3 -0.23 1.53
 6 -7 -2 6.99 1.97
 6 -6 -2 55.3 3.33
 6 -6 -1 4.5 1.7
 6 -6 0 1.79 1.46
 6 -5 -6 2.55 1.52
 6 -5 -1 1.26 1.25
 6 -5 1 152.95 5
 6 -4 -7 24.08 2.06
 6 -4 -4 116.68 3.88
 6 -4 2 -0.13 1.12
 6 -3 -12 63.66 3.17
 6 -3 -11 2.44 1.36
 6 -3 -7 4.81 1.43
 6 -3 -5 49.3 2.69
 6 -3 -4 75.69 3.21
 6 -3 -3 282.55 5.92
 6 -3 -2 141.94 4.3
 6 -2 -12 30.61 2.55
 6 -2 -11 16.16 2.18
 6 -2 -10 72.03 3.37
 6 -2 -7 11.69 1.87
 6 -2 -4 6.29 1.32
 6 -2 -3 505.35 7.67
 6 -2 -1 544.82 8.22
 6 -2 3 7.29 1.63
 6 -1 -13 10.09 2.13
 6 -1 -12 82.45 3.87
 6 -1 -11 20.68 2.44
 6 -1 -10 12.82 1.91
 6 -1 -7 3.08 1.29
 6 -1 -5 1.15 1.08
 6 -1 -4 391.41 6.63
 6 -1 -1 74.55 3.16
 6 -1 0 4.64 1.51
 6 0 -14 220.76 6.46
 6 0 -6 194.79 4.84
 6 0 -5 -0.54 1.04
 6 0 -2 3.08 1.25
 6 0 -1 -1.26 0.82
 6 0 0 52.86 2.79
 6 0 1 0.82 1.33
 6 1 -5 0.21 1.21
 6 1 -3 755.71 9.05
 6 1 -2 5.15 1.31
 6 1 -1 71.06 3.05
 6 1 0 5.24 1.33
 6 1 1 177.74 4.61
 6 1 2 97.89 3.53
 6 2 -5 32.08 2.35
 6 2 -4 6.93 1.49
 6 2 -2 30.32 2.24
 6 2 1 39.18 2.42
 6 2 2 16.11 1.71
 6 2 3 8.57 1.63
 6 3 -4 78.9 3.21
 6 3 -3 301.62 5.94
 6 3 -1 99.35 3.32
 6 3 0 513.79 7.31
 6 3 1 1.47 1.03
 6 3 2 40.94 2.38
 6 3 3 14.95 1.71
 6 3 4 3.73 1.15
 6 4 -3 296.55 5.91
 6 4 -2 374.54 6.59
 6 4 1 2.02 1.2
 6 4 2 0.97 0.95
 6 4 3 0.17 0.91
 6 4 4 175.18 3.89
 6 5 -2 100.09 3.62
 6 5 -1 0.58 1.13
 6 5 0 6.62 1.3
 6 5 1 151.4 3.91
 6 5 2 3.01 0.97
 6 5 3 9.35 1.26
 6 6 -1 4.75 1.27
 6 6 0 -0.02 1.06
 6 6 1 39.63 2.19
 6 6 2 43.96 2.13
 6 7 0 52.76 2.59
 6 7 1 0.42 0.94
 6 8 -2 1.09 1.36
 6 9 -2 2.11 1.31
 6 10 -2 61.12 3.32
 6 10 -1 58.14 3.02
 6 11 -2 6.44 1.89
 7 -8 -8 4.89 1.48
 7 -8 -7 21.04 2.34
 7 -8 -6 51.81 3.18
 7 -8 -5 54 3.49
 7 -8 -3 2.17 1.9
 7 -7 -9 26.94 2.37
 7 -7 -7 6.19 1.61
 7 -7 -6 -0.4 1.49
 7 -7 -4 3.6 1.63
 7 -7 -3 -0.76 1.63
 7 -7 -2 227.98 6.64
 7 -7 -1 18.79 2.42
 7 -6 -9 -0.06 1.34
 7 -6 -8 39.36 2.8
 7 -6 -7 16.34 2.12
 7 -6 -6 4.55 1.52
 7 -6 -5 1.07 1.65
 7 -6 -4 43.91 3.19
 7 -6 -3 194.16 5.93
 7 -6 -2 17.75 2.46
 7 -6 -1 155.44 5.52
 7 -6 0 43.92 3.19
 7 -5 -10 1.37 1.17
 7 -5 -9 -0.18 1.42
 7 -5 -8 1.18 1.29
 7 -5 -6 44.02 3.06
 7 -5 -3 1.13 1.36
 7 -5 -1 28.23 2.6
 7 -4 -11 13.28 1.94
 7 -4 -10 99.3 3.97
 7 -4 -9 4.37 1.64
 7 -4 -8 63.8 3.19
 7 -4 -3 28.67 2.45
 7 -4 -2 47.29 3.22
 7 -4 0 86.51 4.08
 7 -4 2 19.74 2.51
 7 -3 -12 65.04 3.46
 7 -3 -11 10.84 1.85
 7 -3 -8 43.11 2.96
 7 -3 -1 108.59 4.27
 7 -3 1 5.49 1.69
 7 -3 2 48.89 3.49
 7 -2 -13 -1.02 1.34
 7 -2 -12 18.95 2.37
 7 -2 -11 -0.82 1.31
 7 -2 -10 60.26 3.42
 7 -2 -9 2.9 1.64
 7 -2 -8 4.21 1.71
 7 -2 0 41.57 2.84
 7 -2 1 12.86 2.11
 7 -1 -13 11.68 2.41
 7 -1 -11 0.76 1.73
 7 -1 -10 2.95 1.47
 7 -1 -8 52.8 3.24
 7 -1 1 4.96 1.83
 7 -1 2 44.7 3.16
 7 0 -14 -2.45 1.79
 7 0 -12 1.27 1.74
 7 0 -9 0.57 1.32
 7 0 -8 6.24 1.63
 7 0 2 18.92 2.26
 7 0 3 -0.64 1.61
 7 1 -14 35.4 3.45
 7 1 -10 4.21 1.64
 7 1 -9 8.05 1.85
 7 1 -8 50.42 3.06
 7 1 -7 55.95 3.25
 7 1 3 4.29 1.84
 7 2 -15 11.84 2.74
 7 2 -7 9.44 1.72
 7 2 3 4.75 1.65
 7 2 4 0.87 1.33
 7 3 -6 5.43 1.83
 7 5 -4 6.7 1.54
 7 6 -4 47.79 3.02
 7 6 -3 200.05 5.56
 7 7 -3 -0.22 1.28
 7 7 -2 212.28 5.6
 7 7 -1 14.1 1.89
 7 8 -3 1.99 1.4
 7 8 -2 0.94 1.54
 7 8 -1 1.01 1.25
 7 9 -3 153.26 5.22
 7 9 -2 24.34 2.52
 7 10 -3 52.27 3.41
 7 11 -3 24.63 2.78
 8 -9 -7 180.76 5.52
 8 -9 -6 64.69 3.7
 8 -8 -8 37.55 3.02
 8 -8 -7 5.65 1.88
 8 -8 -6 1.34 1.61
 8 -8 -4 60.85 4.11
 8 -8 -3 46.58 3.48
 8 -7 -9 22.36 2.54
 8 -7 -8 39.84 3.13
 8 -7 -7 72.49 3.97
 8 -7 -5 34.27 3.34
 8 -7 -4 71.92 4.17
 8 -7 -3 138.58 5.72
 8 -6 -10 8.59 2
 8 -6 -9 27.4 2.64
 8 -6 -8 16.02 2.26
 8 -6 -7 5.95 2.1
 8 -6 -6 6.42 2.02
 8 -6 -4 4.7 1.83
 8 -6 -3 -0.79 1.58
 8 -6 -2 9.37 2.28
 8 -6 -1 346.71 8.75
 8 -6 0 8.32 2.28
 8 -5 -11 16.77 2.44
 8 -5 -10 49.18 3.29
 8 -5 -9 10.05 2.04
 8 -5 -8 18.63 2.49
 8 -5 -7 6.58 1.92
 8 -5 -5 -0.89 1.29
 8 -5 -4 1.25 1.74
 8 -5 -3 75.03 4.05
 8 -5 -1 1.66 1.74
 8 -5 0 -0.14 1.59
 8 -5 1 42.77 3.67
 8 -4 -12 9.42 2.1
 8 -4 -11 20.94 2.72
 8 -4 -10 14.82 2.22
 8 -4 -9 8.22 1.88
 8 -4 -8 14.58 2.21
 8 -4 -7 22.34 2.44
 8 -4 -6 2.32 1.49
 8 -4 -5 0.51 1.38
 8 -4 -3 150.68 5.47
 8 -4 -2 15.69 2.34
 8 -3 -12 15.04 2.53
 8 -3 -10 1.95 1.58
 8 -3 -9 11.16 2.18
 8 -3 -8 201.35 5.97
 8 -3 -7 12.3 2.11
 8 -3 -6 -0.13 1.36
 8 -3 -3 172.85 5.67
 8 -3 -2 3.07 1.57
 8 -3 -1 27.47 2.68
 8 -3 0 113.78 4.93
 8 -3 1 12.3 2.67
 8 -2 -13 12.78 2.49
 8 -2 -12 26.48 2.85
 8 -2 -11 7.09 1.93
 8 -2 -10 4.57 1.79
 8 -2 -9 10.78 2.09
 8 -2 -8 42.02 3.1
 8 -2 -6 102.24 4.29
 8 -2 -4 4.92 1.59
 8 -2 -2 0.89 1.7
 8 -2 -1 17.04 2.31
 8 -2 0 1.96 1.77
 8 -2 1 4.53 1.75
 8 -2 2 41.97 3.49
 8 -1 -14 1.67 1.85
 8 -1 -13 -1.61 1.9
 8 -1 -12 -0.33 1.6
 8 -1 -11 0.71 1.7
 8 -1 -10 0.42 1.52
 8 -1 -7 146.92 5.19
 8 -1 -5 8.15 1.93
 8 -1 -4 7.8 1.71
 8 -1 -3 63.31 3.51
 8 -1 -1 140.96 5.13
 8 -1 0 -0.37 1.48
 8 -1 1 55.75 3.63
 8 -1 3 7.16 2.23
 8 0 -12 1.36 1.84
 8 0 -11 1.07 1.85
 8 0 -10 25.76 2.91
 8 0 -9 0.67 1.85
 8 0 -7 -0.01 1.24
 8 0 -6 15.4 2.33
 8 0 -5 1.06 1.54
 8 0 -4 7.22 1.66
 8 0 -1 -0.49 1.33
 8 0 1 1.21 1.58
 8 0 2 0.8 1.81
 8 1 -15 4.85 2.19
 8 1 -14 0.58 2.17
 8 1 -13 0.69 2.15
 8 1 -12 -1.71 1.55
 8 1 -11 0.18 1.6
 8 1 -10 0.73 1.57
 8 1 -9 102.31 4.62
 8 1 -8 220.07 6.31
 8 1 -6 7.08 1.72
 8 1 -5 8.45 1.72
 8 1 -4 7.37 1.68
 8 1 -2 0.42 1.3
 8 1 0 1.78 1.45
 8 1 3 6.99 2.14
 8 2 -15 16.7 3.3
 8 2 -13 14.28 2.77
 8 2 -11 8.41 2.66
 8 2 -10 4.99 1.95
 8 2 -8 42.07 3.32
 8 2 -7 6.12 1.72
 8 2 -6 102.24 4.3
 8 2 -5 2.79 1.42
 8 2 -4 4.07 1.6
 8 2 -3 41.16 2.92
 8 2 -2 0.74 1.27
 8 2 0 0.62 1.34
 8 2 1 5.8 1.75
 8 2 2 41.96 2.95
 8 2 3 214.57 5.95
 8 3 -9 12.13 2.42
 8 3 -8 190.24 6.13
 8 3 -7 10.02 2.23
 8 3 -6 0.94 1.51
 8 3 -4 23.96 2.68
 8 3 -3 166.25 5.35
 8 3 -2 3.34 1.51
 8 3 -1 28.41 2.65
 8 3 0 114.27 4.31
 8 3 1 13.29 1.96
 8 3 2 30.11 2.72
 8 3 3 46.95 3.04
 8 4 -7 17.51 2.46
 8 4 -6 1.17 1.46
 8 4 -5 0.01 1.49
 8 4 -4 137.25 5.04
 8 4 -3 142.86 4.97
 8 4 -2 15.5 2.13
 8 4 -1 81.04 3.7
 8 4 0 36.41 2.78
 8 4 1 13.43 1.96
 8 4 2 5.3 1.53
 8 4 3 -0.23 1.3
 8 5 -6 74.39 4.24
 8 5 -5 0.88 1.51
 8 5 -4 2.08 1.46
 8 5 -3 72.83 3.8
 8 5 -2 145.75 5.01
 8 5 -1 1.26 1.39
 8 5 0 -0.94 1.17
 8 5 1 40.27 2.76
 8 5 2 3.88 1.48
 8 6 -6 5.62 1.96
 8 6 -5 111.9 4.92
 8 6 -4 4.55 1.74
 8 6 -1 347.57 7.27
 8 6 0 8.06 1.89
 8 6 1 10 1.67
 8 7 -5 29.6 3.16
 8 7 -4 70.67 4.04
 8 7 -3 127.99 4.85
 8 7 -2 -1.03 1.57
 8 7 -1 8.24 1.73
 8 7 0 1.35 1.47
 8 8 -5 91.64 4.78
 8 8 -4 61.65 3.82
 8 8 -3 45.63 3.37
 8 8 -2 37.98 2.97
 8 8 -1 7.44 1.81
 8 9 -4 0.59 1.91
 8 9 -2 12.14 2.23
 8 10 -5 81.24 4.74
 8 10 -3 1.36 1.79
 8 11 -5 40.94 3.77
 8 11 -4 23.83 2.98
 8 12 -6 -0.23 1.92
 8 12 -5 1.47 2.17
 9 -9 -7 130.14 5.32
 9 -9 -6 3.48 1.94
 9 -8 -8 39.61 3.42
 9 -8 -7 -0.31 2.05
 9 -8 -6 24.81 3.06
 9 -8 -5 35.36 3.67
 9 -8 -4 13.06 2.58
 9 -8 -3 21.12 3.19
 9 -7 -8 18.17 2.59
 9 -7 -7 0.07 1.64
 9 -7 -3 7.47 2.67
 9 -7 -2 3.76 2.5
 9 -6 -10 14.48 2.63
 9 -6 -9 42.81 3.37
 9 -6 -8 2.84 1.89
 9 -6 -6 0.83 1.63
 9 -6 -3 48.58 4.11
 9 -6 -1 10.21 2.81
 9 -5 -11 124.81 5.02
 9 -5 -9 53.04 3.77
 9 -5 -8 2.1 1.73
 9 -5 -7 47.35 3.61
 9 -5 -6 37.24 3.45
 9 -5 -5 16.96 2.61
 9 -5 -4 2.87 1.93
 9 -5 -3 63.95 4.33
 9 -5 -1 0.69 2.05
 9 -5 0 22.66 3.55
 9 -4 -12 2.4 1.72
 9 -4 -11 1.25 1.67
 9 -4 -10 59.34 3.93
 9 -4 -9 0.84 1.66
 9 -4 -8 65.07 4.1
 9 -4 -7 23.63 2.71
 9 -4 -6 6.1 2.18
 9 -4 -5 15.78 2.54
 9 -4 -4 31.65 3.27
 9 -4 -3 86.03 4.5
 9 -4 -2 0.11 1.65
 9 -4 -1 2.3 2.08
 9 -4 1 88.48 5.11
 9 -3 -13 4.64 1.86
 9 -3 -12 8.62 2.45
 9 -3 -11 0.03 1.68
 9 -3 -10 20.43 2.96
 9 -3 -9 37.22 3.16
 9 -3 -8 1.27 1.68
 9 -3 -7 10.4 2.37
 9 -3 -6 2.35 1.71
 9 -3 -5 33.57 3.25
 9 -3 -4 11.55 2.43
 9 -3 -3 -0.39 1.84
 9 -3 -2 46.19 3.63
 9 -3 0 100.4 5.18
 9 -3 1 36.79 3.81
 9 -3 2 1.44 2.3
 9 -2 -13 1.5 1.77
 9 -2 -12 14.16 2.59
 9 -2 -11 91.55 4.69
 9 -2 -10 15.48 2.54
 9 -2 -9 42.47 3.63
 9 -2 -8 1.71 2.08
 9 -2 -7 82.72 4.26
 9 -2 -6 79.18 4.29
 9 -2 -5 47.4 3.5
 9 -2 -3 103.71 4.73
 9 -2 -2 29.01 3.05
 9 -2 -1 62.9 4.2
 9 -2 0 49.93 3.7
 9 -2 1 -0.01 1.7
 9 -2 2 -0.88 1.77
 9 -1 -14 5.78 2.49
 9 -1 -13 0.65 1.94
 9 -1 -12 24.12 3.39
 9 -1 -11 2.04 1.87
 9 -1 -10 3.05 1.9
 9 -1 -9 4.24 2.24
 9 -1 -7 -0.32 1.4
 9 -1 -6 258.03 7.18
 9 -1 -4 -0.12 1.51
 9 -1 -3 34.13 2.95
 9 -1 -2 7.55 2.02
 9 -1 -1 2.55 1.66
 9 -1 0 0.37 1.94
 9 -1 1 167.3 6.24
 9 0 -15 -1.39 1.74
 9 0 -14 13.02 2.73
 9 0 -13 1.64 2
 9 0 -12 4.33 2.1
 9 0 -11 0.57 2.05
 9 0 -9 1.89 1.74
 9 0 -7 0.84 1.6
 9 0 -5 -0.9 1.43
 9 0 -3 0.91 1.46
 9 0 -1 1.31 1.77
 9 0 0 8.01 2.35
 9 0 1 0.01 1.73
 9 0 2 -0.02 1.67
 9 0 3 -1.97 1.62
 9 1 -15 7.7 2.47
 9 1 -14 5.21 2.47
 9 1 -13 2.79 2.22
 9 1 -12 23.02 3.17
 9 1 -10 2.55 2.11
 9 1 -9 5.2 2
 9 1 -8 62.23 3.86
 9 1 -7 0.13 1.64
 9 1 -4 -0.62 1.36
 9 1 -3 37.07 3.21
 9 1 -2 5.78 1.96
 9 1 -1 2.89 2.02
 9 1 0 -0.89 1.53
 9 1 1 171.08 6.01
 9 1 3 3.33 1.89
 9 2 -15 -1.15 2.5
 9 2 -13 0.29 2.11
 9 2 -11 90.97 4.99
 9 2 -10 15.66 2.68
 9 2 -9 42.68 3.74
 9 2 -7 82.22 4.3
 9 2 -5 47.69 3.52
 9 2 -4 26.25 2.86
 9 2 -3 97.08 4.44
 9 2 -2 27.58 3.06
 9 2 -1 62.29 3.85
 9 2 0 47.11 3.43
 9 2 1 0.06 1.54
 9 2 3 12.09 2.22
 9 3 -15 -0.04 2.47
 9 3 -14 5.19 3.02
 9 3 -13 3.37 2.31
 9 3 -12 11.17 2.84
 9 3 -10 16.16 2.73
 9 3 -8 -0.17 1.77
 9 3 -7 12.04 2.33
 9 3 -6 3.67 1.91
 9 3 -5 31.98 3.04
 9 3 -3 0.42 1.48
 9 3 -2 51.82 3.56
 9 3 0 101.82 4.44
 9 3 1 39.95 3.24
 9 3 2 2.59 1.7
 9 3 3 39.95 3.15
 9 4 -14 -0.28 2.29
 9 4 -13 51.61 4.84
 9 4 -10 56.1 4.47
 9 4 -9 0.61 1.89
 9 4 -8 64.68 4.1
 9 4 -6 6.99 2.13
 9 4 -4 28.96 3
 9 4 -3 85.77 4.47
 9 4 -1 0.31 1.42
 9 4 1 89.88 4.16
 9 4 2 6.92 2.01
 9 5 -14 5.04 2.92
 9 5 -9 47.74 3.88
 9 5 -8 3.25 1.95
 9 5 -6 36.8 3.56
 9 5 -5 15.06 2.68
 9 5 -4 1.04 1.58
 9 5 -3 58.65 3.8
 9 5 -1 -0.17 1.42
 9 5 0 22.06 2.75
 9 5 1 9.68 1.93
 9 6 -7 1.22 1.89
 9 6 -6 1.58 1.76
 9 6 -5 210.42 6.81
 9 6 -3 43.26 3.49
 9 6 -2 9.39 2
 9 6 -1 8.77 1.93
 9 6 0 1.21 1.45
 9 7 -8 14.04 2.95
 9 7 -7 0.13 2.1
 9 7 -6 54.91 4.15
 9 7 -5 13.2 2.8
 9 7 -4 37.38 3.35
 9 7 -3 4.25 2.16
 9 7 -2 3.98 1.74
 9 8 -8 38.3 4.23
 9 8 -7 1.01 2.01
 9 8 -5 38.41 3.56
 9 9 -8 4.32 2.86
 9 9 -7 124.18 5.99
 9 9 -6 2.99 2.17
 9 9 -5 9.02 2.57
 9 9 -4 4.78 2.11
 9 9 -3 1.87 1.73
 9 10 -8 2.71 2.57
 9 10 -7 3.33 2.32
 9 10 -5 9.52 2.49
 9 10 -4 9.39 2.53
 9 11 -8 -1.21 2.22
 9 11 -7 0.53 2.28
 9 11 -6 17.19 2.96
 9 11 -5 5.85 2.35
 9 12 -6 16.03 2.97
 10 -9 -8 5.58 2.47
 10 -9 -7 2.39 2.01
 10 -9 -6 3.72 2.17
 10 -8 -9 39.36 3.71
 10 -8 -8 84.02 4.77
 10 -8 -7 7.2 2.47
 10 -8 -5 20.4 3.53
 10 -7 -10 4.2 2.29
 10 -7 -9 -0.13 1.74
 10 -7 -8 6.23 2.32
 10 -7 -7 88.61 5.14
 10 -7 -6 16.12 2.94
 10 -7 -4 0.85 2.07
 10 -7 -3 5.59 2.86
 10 -7 -2 43.32 4.32
 10 -6 -11 9.08 2.53
 10 -6 -10 6.55 2.16
 10 -6 -9 15.24 2.96
 10 -6 -6 1.7 2.01
 10 -6 -5 12.98 2.9
 10 -6 -4 13.44 2.85
 10 -6 -3 34.81 3.92
 10 -6 -1 8.02 2.66
 10 -5 -11 0.29 1.76
 10 -5 -10 39.15 3.78
 10 -5 -9 5.17 2.42
 10 -5 -7 64.02 4.39
 10 -5 -6 22.71 3.37
 10 -5 -4 11.99 2.94
 10 -5 -2 77.45 5.26
 10 -5 -1 43.43 4.24
 10 -5 0 15.41 3.23
 10 -4 -12 48.46 3.91
 10 -4 -11 10.78 2.5
 10 -4 -10 -0.69 1.9
 10 -4 -9 11.35 2.56
 10 -4 -8 13.16 2.6
 10 -4 -7 11.49 2.42
 10 -4 -6 0.66 2.2
 10 -4 -5 45.05 4.06
 10 -4 -4 0.92 1.88
 10 -4 -3 2.55 2.48
 10 -4 -2 42.24 4.26
 10 -4 -1 8.86 2.99
 10 -4 0 48.06 4.17
 10 -3 -13 2.31 2.01
 10 -3 -11 2.47 2.16
 10 -3 -10 54.78 4.13
 10 -3 -8 6.94 2.5
 10 -3 -7 1.09 1.82
 10 -3 -6 6.01 2.13
 10 -3 -5 30.65 3.15
 10 -3 -4 4.48 2.41
 10 -3 -2 287.87 8.52
 10 -3 -1 28.17 3.27
 10 -3 0 14.31 3.12
 10 -2 -14 2.11 2.19
 10 -2 -11 20.03 2.94
 10 -2 -10 12.13 2.65
 10 -2 -9 50.26 4.04
 10 -2 -8 87.21 4.88
 10 -2 -7 10.01 2.41
 10 -2 -5 2.01 2.03
 10 -2 -4 155.03 6.26
 10 -2 -2 30.04 3.23
 10 -2 -1 89.69 5.17
 10 -2 0 40.43 4.13
 10 -2 1 159.82 6.62
 10 -1 -14 1.83 2.02
 10 -1 -13 9.88 2.57
 10 -1 -12 16.97 2.92
 10 -1 -11 0.64 2.32
 10 -1 -10 8.52 2.76
 10 -1 -9 18.52 2.87
 10 -1 -8 72.34 4.63
 10 -1 -7 15.54 2.73
 10 -1 -5 35.9 3.56
 10 -1 -3 13.69 2.55
 10 -1 -2 91 5.05
 10 -1 -1 8.45 2.66
 10 -1 0 4.49 2.21
 10 -1 2 26.17 3.27
 10 0 -15 -1.12 1.93
 10 0 -14 2.03 2.17
 10 0 -13 0.68 2.48
 10 0 -12 -2.62 2.3
 10 0 -11 0.22 2.03
 10 0 -10 164.42 6.66
 10 0 -9 -0.23 1.77
 10 0 -8 384.78 9.4
 10 0 -7 0.85 1.69
 10 0 -6 25.78 3.08
 10 0 -5 -0.11 1.69
 10 0 -3 0.3 2
 10 0 -2 35.55 3.69
 10 0 -1 0.37 2.22
 10 0 0 136.98 5.87
 10 0 1 -1.33 1.71
 10 0 2 111.19 5.45
 10 1 -15 5.06 2.49
 10 1 -14 2.59 2.34
 10 1 -13 11.8 2.85
 10 1 -12 15.01 2.86
 10 1 -11 0.89 2.64
 10 1 -10 8.87 2.69
 10 1 -9 23.56 3.32
 10 1 -8 69.77 4.6
 10 1 -7 18.73 2.87
 10 1 -6 191.27 6.77
 10 1 -3 12.66 2.46
 10 1 -1 6.02 2.1
 10 1 0 6.54 2.29
 10 2 -14 3.15 2.48
 10 2 -12 -1.75 2.21
 10 2 -11 16.14 3.18
 10 2 -10 11.27 3.02
 10 2 -7 7.72 2.22
 10 2 -6 1.93 1.95
 10 2 -2 29.78 3.36
 10 2 0 48.23 3.84
 10 2 1 149.36 5.9
 10 2 2 3.63 1.99
 10 2 3 7.09 2.16
 10 3 -14 38.11 4.43
 10 3 -13 3.57 2.47
 10 3 -12 12.11 2.98
 10 3 -11 3.04 2.88
 10 3 -10 58.31 4.61
 10 3 -9 -1.02 2.01
 10 3 -8 8.68 2.77
 10 3 -7 0.52 1.81
 10 3 -5 22.42 3.2
 10 3 -4 4.62 2.06
 10 3 -3 20.21 2.87
 10 3 -2 264.95 7.57
 10 3 -1 29.66 3.36
 10 3 0 11.53 2.35
 10 3 1 -0.89 1.7
 10 3 2 3.25 1.91
 10 4 -14 7.21 2.86
 10 4 -13 3.52 3.13
 10 4 -12 44.86 4.6
 10 4 -10 2.7 2.53
 10 4 -9 8.23 2.55
 10 4 -8 14.8 2.79
 10 4 -7 10.44 2.47
 10 4 -6 0.69 1.89
 10 4 -5 40.54 3.54
 10 4 -4 0.05 2.11
 10 4 -3 1.41 2.12
 10 4 -2 35.85 3.51
 10 4 -1 7.21 2.42
 10 4 0 50.33 3.8
 10 4 1 4.93 1.9
 10 5 -13 3.17 2.64
 10 5 -12 -2.7 2.08
 10 5 -11 -0.17 2.68
 10 5 -10 39.5 4.33
 10 5 -9 4.35 2.36
 10 5 -8 43.55 4.18
 10 5 -7 67.83 4.44
 10 5 -6 19.35 2.95
 10 5 -4 12.24 2.66
 10 5 -2 77.44 4.5
 10 5 -1 42.09 3.53
 10 5 0 13.75 2.46
 10 6 -13 126.09 7.03
 10 6 -12 0.67 3.04
 10 6 -11 6.95 2.67
 10 6 -10 7.22 2.68
 10 6 -9 16.44 3.37
 10 6 -7 52.1 4.52
 10 6 -6 -1.69 1.94
 10 6 -5 12.97 2.94
 10 6 -4 12.3 2.56
 10 6 -3 35.62 3.51
 10 6 -2 28.74 3.28
 10 6 -1 7.44 2.2
 10 7 -11 5.83 2.69
 10 7 -10 6.24 2.71
 10 7 -8 3.58 2.51
 10 7 -7 90.44 5.5
 10 7 -5 32.07 3.74
 10 7 -4 -0.68 1.81
 10 7 -3 1.36 2.21
 10 7 -2 33.73 3.23
 10 8 -11 35.54 4.76
 10 8 -10 1.78 3.03
 10 8 -8 78.18 5.16
 10 8 -7 5.41 2.56
 10 8 -6 5.68 2.32
 10 8 -5 19.15 2.97
 10 8 -3 24.29 3.2
 10 8 -2 2.44 2
 10 9 -10 0.04 2.64
 10 9 -9 4.88 2.65
 10 9 -8 3.23 2.48
 10 9 -7 -2.09 2.55
 10 9 -6 2.68 2.32
 10 9 -5 -0.15 1.9
 10 9 -4 1.23 2.2
 10 10 -7 5.69 2.62
 10 10 -6 -1.49 1.93
 10 10 -5 1.58 2.14
 10 11 -6 2.66 2.3
 11 -9 -8 7.03 2.36
 11 -9 -7 16.76 3.11
 11 -8 -9 0.01 2.16
 11 -8 -8 57.42 4.51
 11 -8 -7 15.57 3.29
 11 -8 -5 1.62 2.42
 11 -8 -4 43.84 4.21
 11 -7 -10 69.13 4.59
 11 -7 -9 -0.56 2.18
 11 -7 -8 11.81 3.06
 11 -7 -7 69.21 4.72
 11 -7 -6 45.73 4.38
 11 -7 -5 11.49 2.97
 11 -7 -3 0.74 2.54
 11 -6 -11 9.52 2.62
 11 -6 -10 2.56 2.23
 11 -6 -7 1.82 2.31
 11 -6 -6 -0.65 2.04
 11 -6 -4 5.03 2.63
 11 -6 -3 24.59 3.78
 11 -6 -2 3.77 3.04
 11 -5 -12 2.65 2.35
 11 -5 -10 0.42 1.92
 11 -5 -9 0.17 2.19
 11 -5 -8 13.09 2.95
 11 -5 -7 -0.93 1.96
 11 -5 -6 0.66 2.22
 11 -5 -5 2.36 2.28
 11 -5 -4 1.64 2.29
 11 -5 -1 11.61 3.38
 11 -4 -12 57.84 4.48
 11 -4 -9 2.94 2.11
 11 -4 -8 0.87 2.13
 11 -4 -7 15.42 3
 11 -4 -6 3.36 2.54
 11 -4 -5 -0.51 2.52
 11 -4 -4 348.82 9.82
 11 -4 -2 9.77 2.82
 11 -4 -1 9.68 2.93
 11 -4 0 1.09 2.45
 11 -3 -12 0.43 2.04
 11 -3 -11 38.24 3.9
 11 -3 -10 1.49 2.08
 11 -3 -9 -1.64 2.01
 11 -3 -8 4.36 2.4
 11 -3 -5 -1.59 2.46
 11 -3 -3 9.66 3.09
 11 -3 -2 64.34 5.01
 11 -3 -1 93.32 5.5
 11 -3 1 78.1 5.2
 11 -2 -14 4.09 2.38
 11 -2 -12 46.54 4.4
 11 -2 -11 1.91 2.19
 11 -2 -10 0.15 2.16
 11 -2 -9 32.52 3.74
 11 -2 -8 1 2.04
 11 -2 -7 6.15 2.69
 11 -2 -5 3.16 2.63
 11 -2 -4 72.83 4.99
 11 -2 -3 51.72 4.41
 11 -2 -2 4.38 2.72
 11 -2 -1 75.63 5.04
 11 -2 0 75.41 5.31
 11 -1 -13 23.29 3.46
 11 -1 -12 1.6 2.16
 11 -1 -11 32.95 3.94
 11 -1 -9 7.92 2.56
 11 -1 -8 0.29 1.92
 11 -1 -7 4.5 2.68
 11 -1 -4 -0.03 2.05
 11 -1 -3 13.34 2.87
 11 -1 -2 9.76 2.87
 11 -1 -1 138.12 6.36
 11 -1 0 2.71 2.34
 11 0 -14 16.64 3.24
 11 0 -13 -3.55 1.86
 11 0 -12 3.1 2.43
 11 0 -10 21.39 3.54
 11 0 -9 -2.56 1.96
 11 0 -8 59.31 4.59
 11 0 -5 1.52 2.45
 11 0 -4 13.93 3.06
 11 0 -3 0.55 1.93
 11 0 -2 64.52 4.8
 11 0 -1 -1.79 2.42
 11 0 0 98.71 5.47
 11 0 1 -0.09 2.46
 11 0 2 -0.69 2.13
 11 1 -14 6.19 3.17
 11 1 -13 22.24 3.81
 11 1 -12 4.51 2.66
 11 1 -8 1.08 2.08
 11 1 -7 5.26 2.73
 11 1 -6 28.91 3.43
 11 1 -5 8.68 2.78
 11 1 -4 -0.55 2.35
 11 1 -3 12.4 2.65
 11 1 -1 137.62 6.23
 11 1 0 3.47 2.21
 11 1 1 1.45 2.09
 11 2 -14 1.31 3.05
 11 2 -13 4 2.75
 11 2 -12 47.44 4.7
 11 2 -11 4.24 2.97
 11 2 -10 -0.63 2.12
 11 2 -6 34.9 3.56
 11 2 -5 2.28 2.29
 11 2 -4 82.81 4.89
 11 2 -3 47.6 4.31
 11 2 -2 6.18 2.57
 11 2 -1 72.13 4.75
 11 2 0 72.88 4.67
 11 2 1 41.4 3.95
 11 2 2 -1.14 1.7
 11 3 -13 18.1 3.41
 11 3 -12 0.36 2.32
 11 3 -9 -2.74 1.9
 11 3 -8 1.41 2.36
 11 3 -6 71.1 4.99
 11 3 -5 -0.88 1.92
 11 3 -4 3.24 2.59
 11 3 -3 12.32 2.97
 11 3 -2 68.3 4.72
 11 3 -1 99.72 5.37
 11 3 0 100.13 5.23
 11 4 -13 -0.3 2.83
 11 4 -11 43.07 4.61
 11 4 -10 12.49 2.97
 11 4 -9 -0.41 2.14
 11 4 -8 -0.54 2.1
 11 4 -7 16.56 3.02
 11 4 -6 2.17 2.2
 11 4 -5 -0.72 1.96
 11 4 -4 325.49 9.06
 11 4 -3 35.1 3.9
 11 4 -2 5.42 2.19
 11 4 -1 8.36 2.32
 11 4 0 -0.59 2.14
 11 5 -11 14.11 3.13
 11 5 -10 0.34 2.54
 11 5 -9 0.91 2.15
 11 5 -8 14 3.37
 11 5 -7 0.27 2.15
 11 5 -6 1.1 2.66
 11 5 -5 1.74 2.46
 11 5 -4 -0.54 1.85
 11 5 -3 -0.36 1.88
 11 5 -2 30.98 3.58
 11 5 -1 14.25 2.64
 11 6 -12 14.25 3.32
 11 6 -9 11.9 3.18
 11 6 -8 66.21 4.84
 11 6 -7 1.19 2.29
 11 6 -6 0.94 2.18
 11 6 -5 35.33 3.9
 11 6 -4 8.46 2.61
 11 6 -2 3.59 2.05
 11 6 -1 17.5 2.83
 11 7 -11 2.5 2.84
 11 7 -10 67.99 5.17
 11 7 -8 11.27 2.97
 11 7 -7 69.6 5
 11 7 -6 44.16 4.3
 11 7 -5 12.12 2.84
 11 7 -4 -2.42 1.67
 11 7 -3 -1.08 1.85
 11 7 -2 2.89 2.3
 11 8 -9 0.04 2.44
 11 8 -8 54.72 5.05
 11 8 -7 11.47 3.13
 11 8 -6 11.88 2.91
 11 8 -5 2.84 2.25
 11 8 -4 44.33 4.04
 11 8 -3 30.02 3.44
 11 9 -8 3.89 2.77
 11 9 -7 9.16 2.81
 11 9 -6 20.21 3.49
 11 9 -5 69.53 4.7
 11 10 -6 15.32 3.09
 12 -8 -7 62.48 4.88
 12 -8 -6 0.87 2.73
 12 -7 -10 72.84 5.04
 12 -7 -9 48.63 4.57
 12 -7 -8 1.63 2.79
 12 -7 -7 44.64 4.4
 12 -7 -5 -1.43 2.29
 12 -7 -4 -1.12 2.81
 12 -7 -3 2.11 2.88
 12 -6 -11 20.65 3.47
 12 -6 -10 5.99 2.58
 12 -6 -9 38.45 4.14
 12 -6 -8 25.97 4.07
 12 -6 -6 -1.49 2.55
 12 -6 -5 -0.04 2.32
 12 -6 -4 8.36 3.47
 12 -6 -3 36.27 4.8
 12 -5 -12 -1.19 1.98
 12 -5 -11 17.58 3.29
 12 -5 -10 21.97 3.51
 12 -5 -9 12.05 3
 12 -5 -7 39.72 4.46
 12 -5 -5 6.56 2.89
 12 -5 -4 20.14 3.92
 12 -5 -3 0.9 2.49
 12 -5 -2 -0.44 2.56
 12 -5 -1 3.6 2.64
 12 -4 -12 1.25 2.52
 12 -4 -11 0.78 2.36
 12 -4 -10 13.41 2.97
 12 -4 -9 1.6 2.73
 12 -4 -8 22.63 3.77
 12 -4 -7 9.68 3.26
 12 -4 -6 12.89 3.21
 12 -4 -4 22.75 3.68
 12 -4 -3 31.33 4.55
 12 -4 -2 12.04 3.24
 12 -4 -1 9.77 3.19
 12 -3 -13 0.65 2.48
 12 -3 -12 6.22 2.57
 12 -3 -11 5.18 2.98
 12 -3 -9 18.44 3.24
 12 -3 -8 1.74 2.36
 12 -3 -7 10.96 3.2
 12 -3 -6 52.15 4.47
 12 -3 -5 5.26 2.66
 12 -3 -4 27.3 4.09
 12 -3 -3 4.76 2.73
 12 -3 -2 0.69 2.32
 12 -3 -1 23.85 3.7
 12 -3 0 3.78 3.11
 12 -2 -11 -0.22 2.28
 12 -2 -10 20.18 3.63
 12 -2 -9 -0.19 2.21
 12 -2 -7 12.41 3.51
 12 -2 -5 0.04 2.87
 12 -2 -4 3.29 2.44
 12 -2 -3 96.26 5.75
 12 -2 0 7.37 2.82
 12 -1 -13 11.01 2.99
 12 -1 -12 56.8 5.01
 12 -1 -11 -0.78 2.21
 12 -1 -10 5.3 3.18
 12 -1 -9 1.17 2.34
 12 -1 -8 0.54 2.67
 12 -1 -6 13.82 3.04
 12 -1 -5 1.18 2.41
 12 -1 -4 76.78 5.12
 12 -1 -3 20.78 3.43
 12 -1 0 1.43 2.37
 12 -1 1 2.12 2.27
 12 0 -13 -2.08 2.21
 12 0 -12 118.52 6.49
 12 0 -11 -0.55 2.76
 12 0 -10 13.82 3.21
 12 0 -9 1.69 2.49
 12 0 -8 1.89 2.37
 12 0 -7 -1.13 2.18
 12 0 -6 4.51 2.47
 12 0 -2 11.39 3.03
 12 0 0 80.73 5.37
 12 0 1 -1.82 2.14
 12 1 -13 13.34 3.2
 12 1 -12 53.97 5.15
 12 1 -11 1.11 2.85
 12 1 -10 4.08 2.58
 12 1 -9 1.16 2.54
 12 1 -7 0 2.26
 12 1 -6 12.45 2.95
 12 1 -5 0.89 2.56
 12 1 -4 83.02 5.55
 12 1 -3 22.52 3.54
 12 1 -2 91.92 5.73
 12 1 -1 26.99 3.83
 12 1 0 2.66 2.19
 12 1 1 3.06 2.34
 12 2 -12 2.23 2.8
 12 2 -11 1.65 2.85
 12 2 -10 21.23 3.62
 12 2 -9 3.92 2.55
 12 2 -8 37.89 4.31
 12 2 -5 -0.61 2.19
 12 2 -4 2.86 2.41
 12 2 -3 107.82 6.02
 12 2 -1 0.92 2.16
 12 2 0 7.97 2.92
 12 2 1 18.59 3.19
 12 3 -12 1.1 2.69
 12 3 -11 1.57 2.74
 12 3 -10 1.57 2.71
 12 3 -9 16.87 3.81
 12 3 -7 11.44 3.02
 12 3 -5 7.94 2.72
 12 3 -4 24.18 3.46
 12 3 -3 7.01 2.69
 12 3 -2 3.69 2.36
 12 3 -1 22.37 3.57
 12 3 0 1.59 2.45
 12 4 -12 -1.66 2.67
 12 4 -11 0.12 2.59
 12 4 -9 1.46 3.1
 12 4 -8 18.43 3.32
 12 4 -7 8.13 2.87
 12 4 -6 10.2 2.94
 12 4 -5 11.85 2.84
 12 4 -4 15.45 3.2
 12 4 -3 32.36 3.89
 12 4 -2 13.84 3.2
 12 4 -1 6.21 2.57
 12 5 -11 14.15 3.89
 12 5 -9 12.33 3.31
 12 5 -8 6.25 3
 12 5 -7 35.9 4.34
 12 5 -5 2.68 2.75
 12 5 -4 16.2 3.04
 12 5 -3 2.91 2.27
 12 5 -2 0.57 2.42
 12 6 -10 5.11 2.93
 12 6 -7 3.91 2.54
 12 6 -6 1.81 2.68
 12 6 -5 0.39 2.52
 12 6 -4 7.55 2.54
 12 6 -3 35.6 3.87
 12 7 -9 43.9 4.81
 12 7 -8 1.96 2.76
 12 7 -7 41.29 4.52
 12 7 -6 9.77 3.03
 12 7 -5 1.8 2.39
 12 8 -7 62.35 5.12
 12 8 -6 2.02 2.56
 12 8 -5 -1.43 2.46
 13 -5 -9 0.39 2.48
 13 -5 -7 5.93 2.98
 13 -5 -6 -0.53 2.54
 13 -4 -10 14.81 3.84
 13 -4 -9 12.42 3.2
 13 -4 -8 41.53 4.79
 13 -4 -6 33.73 4.65
 13 -4 -5 0.17 2.64
 13 -4 -4 5.98 3.17
 13 -4 -3 3.34 3.34
 13 -3 -10 7.01 3.15
 13 -3 -9 15.57 3.36
 13 -3 -8 48.98 5.1
 13 -3 -6 9.28 3.11
 13 -3 -5 19.7 3.84
 13 -3 -4 26.73 4.05
 13 -2 -11 -0.32 2.6
 13 -2 -10 -1.69 2.71
 13 -2 -9 20.1 3.69
 13 -2 -8 3.36 2.82
 13 -2 -7 33.75 4.48
 13 -2 -6 0.64 2.81
 13 -2 -5 2.81 3.26
 13 -2 -3 55.98 5.22
 13 -2 -2 3.43 2.96
 13 -1 -10 13.65 3.36
 13 -1 -9 18 3.62
 13 -1 -8 6.52 2.87
 13 -1 -7 7.09 3.04
 13 -1 -6 21.22 3.85
 13 -1 -4 16.07 3.58
 13 -1 -3 11.19 3.21
 13 0 -11 -0.63 2.69
 13 0 -10 15.11 3.73
 13 0 -9 4.79 3.34
 13 0 -8 26.91 3.94
 13 0 -7 1.86 2.91
 13 0 -6 106.03 6.4
 13 0 -5 1.21 2.63
 13 0 -4 65.21 5.53
 13 0 -3 -2.01 2.55
 13 0 -1 -0.34 2.39
 13 1 -11 3.12 3.05
 13 1 -10 17.22 3.66
 13 1 -9 19.3 3.73
 13 1 -7 5.75 2.9
 13 1 -6 22.27 3.76
 13 1 -4 13.1 3.44
 13 1 -2 4.74 2.67
 13 2 -11 2.11 2.86
 13 2 -10 1.3 2.84
 13 2 -9 22.59 3.96
 13 2 -5 3.98 2.68
 13 2 -4 0.56 2.48
 13 2 -1 42.86 4.47
 13 3 -10 4.37 3.02
 13 3 -9 19.98 3.72
 13 3 -8 43.34 4.92
 13 3 -7 1.32 2.73
 13 3 -5 16.47 3.55
 13 3 -4 24.14 3.92
 13 3 -3 6.19 2.69
 13 3 -2 9.73 2.93
 13 4 -9 6.67 3.12
 13 4 -8 44.42 4.94
 13 4 -6 43.73 4.43
 13 4 -5 -2.03 2.32
 13 4 -4 4.96 2.5
 13 4 -3 4.43 2.55
 13 4 -2 13.22 3.05
 13 5 -8 -1.51 2.45
 13 5 -7 4.15 2.75
 13 5 -6 2.01 3.09
 13 5 -5 135.79 6.84
 13 5 -4 4.14 2.46
 13 5 -3 10.79 2.87
 13 6 -6 2.59 3.09
 13 6 -5 2.55 2.85
 -13 5 8 2.21 1.96
 -13 6 8 -1.4 1.73
 -12 5 6 152.22 5.73
 -12 6 6 0.6 1.68
 -12 6 7 5.97 2.21
 -12 6 8 27.77 3.66
 -12 6 9 34.9 4.33
 -12 7 7 33.92 3.56
 -12 7 8 1.25 2.22
 -11 4 4 327.95 7.1
 -11 5 5 2.7 1.68
 -11 6 5 32.36 3.21
 -11 6 6 0.82 2.02
 -11 6 7 4.87 2.52
 -11 7 5 16.79 2.67
 -11 7 6 45.5 3.8
 -11 7 7 73.2 4.71
 -11 7 9 2.76 2.28
 -11 7 10 85.15 5.49
 -11 7 11 2.84 2.88
 -11 8 5 0.13 1.73
 -11 8 6 16.61 2.78
 -11 8 7 16.8 2.88
 -11 8 9 0.65 2.25
 -11 8 10 4.01 2.61
 -11 9 6 23.01 3.2
 -11 9 7 15.71 3.06
 -11 9 8 5.74 3.01
 -10 4 3 0.99 1.33
 -10 5 3 3.4 1.54
 -10 5 4 13.26 2.17
 -10 6 3 31.99 2.72
 -10 6 4 18.35 2.73
 -10 6 5 10.21 2.07
 -10 6 6 2.11 2.15
 -10 7 3 3.31 1.79
 -10 7 4 -0.82 1.43
 -10 7 5 40.23 3.6
 -10 7 6 14.07 2.54
 -10 7 7 96.77 5.34
 -10 7 8 3.91 2.61
 -10 7 10 1.99 2.55
 -10 7 11 4.46 3.13
 -10 7 12 9.58 3.16
 -10 8 4 27.1 3.02
 -10 8 5 17 2.78
 -10 8 6 2.55 2.14
 -10 8 7 7.12 2.6
 -10 8 8 80.44 5.26
 -10 8 9 38.53 4.29
 -10 8 10 1.29 2.8
 -10 9 4 2.46 1.8
 -10 9 5 0.42 1.87
 -10 9 6 1.84 2.31
 -10 9 7 2.59 2.43
 -10 9 8 6.56 2.76
 -10 9 9 2.1 2.55
 -10 9 10 -1.98 2.33
 -10 10 4 14.44 2.7
 -10 10 5 3.53 2.37
 -10 10 6 -1.14 1.91
 -10 10 7 2.35 2.87
 -10 10 8 -2.61 2.47
 -10 11 5 1.44 2.02
 -9 5 3 60.14 3.19
 -9 5 4 2.98 1.68
 -9 6 2 14.6 2.09
 -9 6 3 42.99 2.96
 -9 6 4 17.84 2.51
 -9 6 5 218.98 6.56
 -9 7 2 4.1 1.61
 -9 7 3 5.49 1.72
 -9 7 4 37.53 3.15
 -9 7 5 15.48 2.56
 -9 7 6 56.09 3.88
 -9 7 7 1.88 1.96
 -9 7 8 16.46 2.98
 -9 7 9 23.52 3.48
 -9 7 12 6.75 3.14
 -9 7 13 -2.06 2.45
 -9 8 2 23.42 2.6
 -9 8 4 11.74 2.49
 -9 8 6 23.52 3.31
 -9 8 7 2.15 2.06
 -9 8 8 39.95 4.26
 -9 8 9 80.17 5.43
 -9 8 10 47.96 4.37
 -9 8 11 14.31 3.2
 -9 8 12 8.23 3.09
 -9 9 2 39.14 3.17
 -9 9 3 2.17 1.81
 -9 9 4 7.03 2.36
 -9 9 5 15.38 2.97
 -9 9 6 3 2.47
 -9 9 7 122.07 6.13
 -9 9 8 7.53 3.04
 -9 9 9 12.03 3.24
 -9 9 10 -1.52 2.3
 -9 10 4 8.27 2.51
 -9 10 7 6.68 2.73
 -9 10 8 2.94 2.82
 -9 11 3 102.43 5.28
 -9 11 4 1.07 1.89
 -9 11 5 3.24 2.32
 -9 11 6 18.59 3.43
 -9 11 7 -0.14 2.19
 -9 11 8 0.5 2.42
 -9 12 4 20.94 3.39
 -9 12 5 44.96 4.21
 -8 3 1 28.13 1.74
 -8 4 1 78.82 2.8
 -8 4 2 15.42 1.9
 -8 5 1 2.85 1.17
 -8 5 3 67.02 3.25
 -8 6 2 11.32 1.83
 -8 6 4 6.24 1.78
 -8 6 5 117.62 4.86
 -8 7 1 9.33 1.63
 -8 7 2 1.4 1.55
 -8 7 3 137.71 4.95
 -8 7 4 75.23 3.99
 -8 7 5 28.65 3.18
 -8 7 6 43.64 3.51
 -8 7 7 77.28 4.51
 -8 7 8 32.24 3.86
 -8 7 11 5.96 2.62
 -8 7 12 0.14 2.38
 -8 7 13 6.78 2.84
 -8 8 1 11.12 2.04
 -8 8 2 37.17 3.09
 -8 8 4 59.53 3.99
 -8 8 6 1.44 1.9
 -8 8 7 6.51 2.36
 -8 8 8 43.01 3.87
 -8 8 9 32.44 3.93
 -8 8 10 20.39 3.34
 -8 8 11 33.45 3.81
 -8 8 13 20.75 4.02
 -8 9 1 1 1.51
 -8 9 2 11.74 2.29
 -8 9 3 1.2 1.6
 -8 9 4 -0.45 1.67
 -8 9 6 66.03 4.74
 -8 9 7 178.78 7.14
 -8 9 8 69.75 4.78
 -8 9 9 17.02 3.17
 -8 9 11 0.05 2.38
 -8 9 12 21.09 3.92
 -8 10 1 26.81 2.91
 -8 10 2 5.38 2
 -8 10 3 -1.31 1.7
 -8 10 4 42.23 3.93
 -8 10 5 86.08 5.16
 -8 10 6 20.43 3.56
 -8 10 7 2.08 2.56
 -8 10 8 3.04 2.38
 -8 10 9 20.89 3.6
 -8 10 10 1.87 3
 -8 10 11 -0.61 3.11
 -8 11 3 14.24 2.74
 -8 11 5 42.04 3.91
 -8 11 6 -1.7 2.03
 -8 11 7 117.21 6.47
 -8 11 8 3.71 2.47
 -8 11 9 3.48 2.62
 -8 12 3 2.49 2.47
 -8 12 4 3.52 2.22
 -8 12 5 4.26 2.82
 -8 12 6 1.15 2.33
 -8 12 7 0.96 2.34
 -7 2 0 39.62 1.55
 -7 3 0 35.84 1.62
 -7 4 0 84.4 2.59
 -7 4 1 54.33 2.39
 -7 5 -1 334.16 4.81
 -7 5 0 21.17 1.67
 -7 5 1 29.4 2.1
 -7 6 -1 85.2 2.85
 -7 6 0 41.92 2.38
 -7 6 3 195.35 5.4
 -7 6 4 47.39 2.98
 -7 6 14 9.26 3.01
 -7 7 1 16.24 2.09
 -7 7 3 0.09 1.26
 -7 7 4 2.11 1.5
 -7 7 5 3.49 1.7
 -7 7 6 0.54 1.61
 -7 7 7 6.57 2.29
 -7 7 8 50.35 4.01
 -7 7 9 25.58 3.31
 -7 7 10 59.66 4.35
 -7 7 11 81.58 5.35
 -7 7 12 5.53 2.82
 -7 7 14 6.82 2.62
 -7 8 1 -0.02 1.2
 -7 8 2 2.96 1.52
 -7 8 6 54.69 3.79
 -7 8 8 4.5 2.11
 -7 8 9 7.07 2.52
 -7 8 10 8.32 2.7
 -7 8 11 -1.79 2.15
 -7 8 12 1.1 2.71
 -7 8 13 12.32 3.18
 -7 9 0 89.18 4.11
 -7 9 1 37.05 3.11
 -7 9 2 25.51 2.95
 -7 9 3 147.74 5.64
 -7 9 4 -1.02 1.58
 -7 9 6 1.87 1.96
 -7 9 7 14.12 2.98
 -7 9 8 30 3.65
 -7 9 10 4.6 2.58
 -7 9 11 14.72 3.57
 -7 9 12 2.27 2.52
 -7 10 0 3.99 1.63
 -7 10 2 16.93 2.57
 -7 10 4 1.3 2.01
 -7 10 6 12.87 2.89
 -7 10 7 1.39 2.43
 -7 10 8 0.63 2.14
 -7 10 9 29.03 4.06
 -7 10 11 8.71 3.09
 -7 11 0 10.4 2.38
 -7 11 1 17.75 2.79
 -7 11 2 0.85 1.89
 -7 11 3 27.84 3.41
 -7 11 4 0.34 2.09
 -7 11 5 3.72 2.41
 -7 11 6 -1.1 2
 -7 11 7 5.17 2.58
 -7 11 9 55.53 4.96
 -7 12 1 11.28 2.55
 -7 12 5 26.62 3.64
 -7 12 6 13.18 3.22
 -7 12 7 1.26 2.31
 -7 12 8 -0.83 2.35
 -7 13 1 10.15 2.58
 -7 13 2 17.35 3.31
 -7 13 3 3.58 2.73
 -7 13 4 2.27 2.43
 -7 13 5 1.37 2.69
 -6 2 -1 38.11 1.17
 -6 3 -1 1.59 0.57
 -6 3 0 519.84 5.55
 -6 4 -2 0.37 0.45
 -6 4 -1 1.73 0.69
 -6 4 0 329.77 4.9
 -6 5 -2 3.61 0.82
 -6 5 0 6.25 1.16
 -6 5 1 2.08 1.09
 -6 5 2 100.83 3.47
 -6 5 15 1.57 2.58
 -6 6 -2 40.42 2.01
 -6 6 -1 41.08 2.19
 -6 6 0 2.31 1.04
 -6 6 13 34.29 3.77
 -6 6 14 16.15 3.23
 -6 7 -2 2.44 1.07
 -6 7 2 9.74 1.81
 -6 7 3 0.45 1.36
 -6 7 4 137.33 4.92
 -6 7 5 -0.66 1.25
 -6 7 6 3.78 1.9
 -6 7 7 13.16 2.3
 -6 7 8 24.57 2.9
 -6 7 9 1.68 1.88
 -6 7 10 3.68 2.13
 -6 7 12 15.08 3.07
 -6 7 13 2.81 2.28
 -6 7 14 1.91 2.25
 -6 8 -1 6.7 1.58
 -6 8 1 15.22 2.2
 -6 8 2 1.05 1.37
 -6 8 3 67.7 3.77
 -6 8 4 150.65 5.51
 -6 8 5 6.92 2.15
 -6 8 6 3.79 1.75
 -6 8 7 121.84 5.47
 -6 8 9 9.47 2.5
 -6 8 10 16.48 3.11
 -6 8 12 64.02 4.82
 -6 8 13 3.89 2.57
 -6 9 -2 21.63 2.45
 -6 9 -1 31.72 2.69
 -6 9 2 4.25 1.84
 -6 9 3 31.45 3.13
 -6 9 4 59.67 4.02
 -6 9 5 0.11 1.6
 -6 9 6 44.64 3.98
 -6 9 8 0.7 2.02
 -6 9 9 6.24 2.67
 -6 9 10 5.79 2.81
 -6 9 11 2.99 2.36
 -6 9 13 1.62 2.65
 -6 10 -1 -1.11 1.44
 -6 10 0 1.44 1.52
 -6 10 1 56.34 3.77
 -6 10 3 103.1 4.96
 -6 10 5 30.2 3.74
 -6 10 7 7.51 2.51
 -6 10 8 0.36 2.07
 -6 10 10 12.18 3.3
 -6 10 11 1.3 2.25
 -6 11 -1 3.06 1.86
 -6 11 2 6.83 2.48
 -6 11 3 7.53 2.61
 -6 11 5 2.17 2.42
 -6 11 7 32.54 3.78
 -6 11 8 3.74 2.34
 -6 11 9 -1.43 2.16
 -6 11 10 0.47 2.54
 -6 11 11 -1.3 2.68
 -6 12 1 6.38 2.23
 -6 12 3 -0.06 2.07
 -6 12 4 2.8 2.7
 -6 12 5 13.47 3.04
 -6 12 6 4.93 2.51
 -6 12 7 31.61 4.23
 -6 12 8 8.69 3.11
 -6 12 9 4.48 2.74
 -6 13 1 -1.18 2.26
 -6 13 2 10.11 3.14
 -6 13 3 28.12 3.75
 -6 13 4 2.26 2.37
 -6 13 5 4.47 2.95
 -6 13 7 18.22 3.57
 -6 14 1 3.83 2.57
 -6 14 2 9.82 3
 -6 14 3 4.04 2.7
 -5 1 -1 111.28 1.6
 -5 2 -1 0.8 0.42
 -5 3 -2 39.38 1.18
 -5 3 -1 5.96 0.79
 -5 4 -3 66.31 1.5
 -5 4 -2 316.1 3.96
 -5 4 -1 224.36 3.7
 -5 4 0 4.05 0.92
 -5 4 1 26.04 1.71
 -5 5 -3 73.71 2.14
 -5 5 -2 61.86 2.19
 -5 5 0 749.25 8.02
 -5 5 1 320.58 5.49
 -5 5 2 140.14 3.89
 -5 5 3 9.8 1.47
 -5 5 14 0.62 2.22
 -5 5 15 37.91 3.69
 -5 6 -3 0.26 0.79
 -5 6 -2 16.66 1.58
 -5 6 0 18.99 1.77
 -5 6 1 117.58 3.8
 -5 6 2 217.36 5.12
 -5 6 5 336.82 7.11
 -5 6 12 2.06 2.47
 -5 6 13 80.14 5.06
 -5 6 14 0.55 2.1
 -5 6 15 -0.57 2.13
 -5 7 -3 56.96 2.6
 -5 7 -2 2.53 1.07
 -5 7 3 29.64 2.42
 -5 7 4 462.41 8.57
 -5 7 5 3.07 1.79
 -5 7 7 2.04 1.56
 -5 7 9 3.48 2.07
 -5 7 10 18.03 2.78
 -5 7 11 1.85 2.01
 -5 7 14 1.04 2.07
 -5 8 -1 1.72 1.26
 -5 8 0 6.96 1.68
 -5 8 1 1.57 1.37
 -5 8 2 215.26 5.91
 -5 8 4 0.48 1.4
 -5 8 8 7.43 2.23
 -5 8 9 36.38 3.47
 -5 8 10 6.25 2.44
 -5 8 11 6.32 2.56
 -5 8 12 30.95 4.02
 -5 8 13 3.66 2.43
 -5 9 -3 6.34 1.58
 -5 9 -2 25.81 2.47
 -5 9 -1 1.7 1.44
 -5 9 0 40.33 3.1
 -5 9 1 191.44 5.92
 -5 9 2 8.95 2.13
 -5 9 3 2.12 1.9
 -5 9 4 34.81 3.06
 -5 9 5 65.35 4.19
 -5 9 6 6.95 2.43
 -5 9 7 28.25 3.33
 -5 9 8 -2.63 1.76
 -5 9 9 18.75 3.06
 -5 9 10 3.79 2.46
 -5 9 11 7.8 2.66
 -5 9 12 27.26 4
 -5 9 13 2.72 2.41
 -5 10 -3 10.83 2.14
 -5 10 -2 8.16 2.06
 -5 10 -1 7.67 1.99
 -5 10 0 3.78 1.73
 -5 10 1 1.83 1.77
 -5 10 2 2.07 1.64
 -5 10 3 -0.72 1.54
 -5 10 4 13.67 2.48
 -5 10 5 19.6 3.29
 -5 10 6 71.25 4.76
 -5 10 7 27.74 3.49
 -5 10 8 16.31 3.12
 -5 10 9 -0.53 1.98
 -5 10 10 0.11 2.21
 -5 10 11 1.79 2.27
 -5 10 12 32.92 4.09
 -5 11 -2 17.83 2.7
 -5 11 -1 43.73 3.7
 -5 11 0 133.45 5.74
 -5 11 2 15.75 2.83
 -5 11 3 223.7 7.5
 -5 11 4 77.01 4.9
 -5 11 5 1.5 1.99
 -5 11 6 1.44 2.23
 -5 11 7 97.72 5.58
 -5 11 8 21.66 3.47
 -5 11 9 42.61 4.38
 -5 11 10 0.83 2.27
 -5 12 -2 3.33 2.14
 -5 12 -1 8.39 2.43
 -5 12 1 69.5 4.75
 -5 12 2 -0.64 1.91
 -5 12 3 7.84 2.56
 -5 12 4 5.83 2.42
 -5 12 5 0.19 2.22
 -5 12 6 1.7 2.14
 -5 12 7 -0.26 2.57
 -5 12 8 13.56 3.12
 -5 12 9 0.16 2.5
 -5 13 -2 42.8 3.98
 -5 13 0 4.12 2.57
 -5 13 1 0.9 2.11
 -5 13 2 12.11 3.03
 -5 13 3 6.03 2.51
 -5 13 5 3.22 2.52
 -5 13 6 -0.68 2.37
 -5 13 7 6.31 2.77
 -5 13 8 -1.64 2.42
 -5 14 -1 0.32 2.45
 -5 14 1 6.86 2.81
 -5 14 2 1.92 2.36
 -5 14 3 8.14 2.94
 -5 14 4 2.14 2.69
 -4 1 -1 29.27 0.81
 -4 2 -2 1.85 0.31
 -4 3 -2 59.65 1.53
 -4 3 -1 53.6 1.63
 -4 3 0 233.12 3.5
 -4 4 -3 200.14 3.14
 -4 4 -2 994.52 7.25
 -4 4 0 3.13 0.85
 -4 4 1 11.46 1.33
 -4 5 -3 2.48 0.88
 -4 5 -2 9.34 1.22
 -4 5 0 0.77 0.9
 -4 5 1 498.53 6.66
 -4 5 2 257.77 5.04
 -4 5 3 22.09 1.81
 -4 5 13 4.1 2.14
 -4 5 14 3.57 2.16
 -4 6 -4 0.11 0.67
 -4 6 -3 14.89 1.51
 -4 6 -2 4.44 1.08
 -4 6 -1 1013.02 9.73
 -4 6 0 16.41 1.78
 -4 6 1 0.95 0.97
 -4 6 2 471.17 7.36
 -4 6 3 6.6 1.39
 -4 6 6 1.12 1.25
 -4 6 11 4.12 1.96
 -4 6 13 10.7 2.55
 -4 6 14 0.06 1.72
 -4 7 -4 1.42 1.12
 -4 7 -3 16.49 1.89
 -4 7 -2 0.71 1.12
 -4 7 -1 63.06 2.98
 -4 7 5 0.9 1.25
 -4 7 6 4.01 1.66
 -4 7 7 43.71 3.26
 -4 7 8 0.58 1.55
 -4 7 9 32.33 3.06
 -4 7 11 84.46 4.74
 -4 7 12 -1.51 1.71
 -4 7 13 55.97 4.3
 -4 8 1 116.2 4.26
 -4 8 3 7.62 1.83
 -4 8 4 -0.06 1.28
 -4 8 6 39.33 3.09
 -4 8 7 38.52 3.13
 -4 8 9 20.55 3.13
 -4 8 11 2.34 2.08
 -4 8 12 8.88 2.47
 -4 8 13 4.82 2.29
 -4 8 14 4.5 2.57
 -4 9 -4 4.1 1.59
 -4 9 -3 5.62 1.58
 -4 9 -2 47.44 3.16
 -4 9 -1 10.27 1.95
 -4 9 0 3.31 1.71
 -4 9 1 33.25 2.72
 -4 9 3 60.72 3.76
 -4 9 5 112 4.91
 -4 9 6 70.99 4.4
 -4 9 7 5.91 2.09
 -4 9 8 55.77 4.32
 -4 9 9 46.34 4.27
 -4 9 10 37.02 3.64
 -4 9 13 89.16 5.5
 -4 10 -4 15.01 2.36
 -4 10 -3 1.05 1.64
 -4 10 -2 94.29 4.48
 -4 10 0 35.47 3.02
 -4 10 2 42.12 3.51
 -4 10 3 25.39 3.11
 -4 10 6 5.44 2.12
 -4 10 7 35.63 3.51
 -4 10 8 15.38 3.19
 -4 10 9 5.68 2.61
 -4 10 10 5.52 2.53
 -4 10 11 35.39 4.42
 -4 11 -4 7.24 2.21
 -4 11 -3 3.96 1.89
 -4 11 -2 -0.95 1.89
 -4 11 0 5.49 2.2
 -4 11 1 14.1 2.57
 -4 11 3 3.97 2.39
 -4 11 4 33.39 3.54
 -4 11 7 10.35 2.68
 -4 11 8 0.88 2.17
 -4 11 9 33.77 4.15
 -4 11 10 21.56 3.64
 -4 11 11 14.9 3.28
 -4 12 -3 18.3 2.98
 -4 12 -2 44.4 3.93
 -4 12 -1 13.78 2.93
 -4 12 0 43.47 4.03
 -4 12 1 64.26 4.74
 -4 12 3 0.64 2.25
 -4 12 5 76.08 4.98
 -4 12 6 10.22 2.94
 -4 12 7 76.75 5.36
 -4 12 8 6.73 2.73
 -4 13 -3 4.56 2.43
 -4 13 -1 5.44 2.61
 -4 13 0 2.05 2.24
 -4 13 3 5.57 2.81
 -4 13 5 0.47 2.25
 -4 13 6 5.97 2.68
 -4 13 7 19.77 3.52
 -4 13 8 63.68 5.24
 -4 14 -3 2.2 2.16
 -4 14 -2 4.6 2.76
 -4 14 -1 3.77 2.47
 -4 14 0 4.8 2.89
 -4 14 1 7.07 2.94
 -4 14 2 30.66 4.33
 -4 14 3 1.2 2.9
 -4 14 5 2.32 2.83
 -4 14 6 71.9 5.41
 -3 1 -1 13.14 0.55
 -3 2 -2 1143.54 4.94
 -3 2 -1 34.14 1.1
 -3 3 -3 68.1 1.6
 -3 3 -2 60.73 1.61
 -3 3 -1 110.24 2.26
 -3 3 0 855.13 6.38
 -3 4 -3 4.37 0.8
 -3 4 -2 1.74 0.68
 -3 4 -1 634.77 6.05
 -3 4 0 30.38 1.65
 -3 4 1 626.77 6.56
 -3 4 2 678.64 7.17
 -3 4 13 -0.11 1.48
 -3 5 -4 195.79 3.74
 -3 5 -3 255.43 4.43
 -3 5 -2 6.49 1.05
 -3 5 -1 80.83 2.6
 -3 5 0 5.37 1.07
 -3 5 1 1.12 0.85
 -3 5 2 263.14 4.93
 -3 5 11 0.14 1.69
 -3 5 12 3.95 1.8
 -3 6 -4 17.12 1.61
 -3 6 -3 139.9 3.72
 -3 6 -2 28.66 1.88
 -3 6 -1 7.43 1.36
 -3 6 0 11.85 1.47
 -3 6 1 157.34 4.11
 -3 6 2 1.84 1.08
 -3 6 3 4.73 1.46
 -3 6 7 743.18 10.61
 -3 6 8 7.31 1.85
 -3 6 9 1.44 1.46
 -3 6 10 10.02 2.08
 -3 6 11 19.98 2.65
 -3 6 12 1.62 1.75
 -3 7 -4 340.82 6.3
 -3 7 -3 179.48 4.63
 -3 7 -2 0.02 1.1
 -3 7 0 48.94 2.6
 -3 7 1 49.56 2.67
 -3 7 5 94.86 3.91
 -3 7 6 122.57 4.65
 -3 7 7 -0.03 1.42
 -3 7 9 15.59 2.66
 -3 7 10 11.05 2.52
 -3 7 11 16.03 2.57
 -3 7 12 5.66 2.16
 -3 7 13 -0.76 1.7
 -3 8 2 128.58 4.66
 -3 8 3 453 8.54
 -3 8 4 36.5 2.84
 -3 8 6 -0.55 1.28
 -3 8 8 184.76 6.36
 -3 8 9 4.47 1.95
 -3 8 10 14.66 2.89
 -3 8 11 75.94 4.53
 -3 8 12 6.21 2.24
 -3 8 13 16.97 2.84
 -3 9 -4 10.58 1.9
 -3 9 -3 16.24 2.25
 -3 9 -2 42.13 3.16
 -3 9 0 1.02 1.45
 -3 9 1 22.82 2.52
 -3 9 2 43.42 3.04
 -3 9 5 64.47 4.05
 -3 9 8 14.51 2.96
 -3 9 9 65.48 4.46
 -3 9 10 -1.63 2
 -3 9 12 -1.44 2.21
 -3 10 -2 29.12 2.89
 -3 10 -1 52.17 3.46
 -3 10 0 42.47 3.43
 -3 10 1 9.85 2.04
 -3 10 2 36.17 3.14
 -3 10 3 186.96 6.24
 -3 10 4 99.06 4.88
 -3 10 5 74.92 4.35
 -3 10 6 119.77 5.57
 -3 10 7 38.15 3.81
 -3 10 8 -1.28 1.93
 -3 10 11 36.1 3.99
 -3 10 12 4.35 2.29
 -3 11 -4 74.98 4.29
 -3 11 -2 2.14 1.9
 -3 11 0 26.62 2.99
 -3 11 1 62.4 4.25
 -3 11 2 5.73 2.02
 -3 11 4 9.49 2.65
 -3 11 5 0.43 2.01
 -3 11 6 1.13 1.88
 -3 11 7 6.39 2.53
 -3 11 8 2.48 2.26
 -3 11 9 33.01 4
 -3 11 10 6.37 2.77
 -3 11 11 1.81 2.25
 -3 12 -4 87.14 4.99
 -3 12 -3 14.95 2.94
 -3 12 -2 1.13 2.19
 -3 12 -1 227.93 7.75
 -3 12 0 48.11 4.15
 -3 12 1 49.13 4.23
 -3 12 2 4.05 2.2
 -3 12 3 0.31 1.9
 -3 12 4 11.34 2.74
 -3 12 5 33.3 4.02
 -3 12 7 28.56 3.84
 -3 12 8 1.73 2.38
 -3 12 9 14.79 3.36
 -3 12 10 1.25 2.23
 -3 13 -4 2.73 2.16
 -3 13 -1 0.64 2.53
 -3 13 0 12.55 3.01
 -3 13 1 1.61 2.26
 -3 13 2 26.85 4
 -3 13 3 2.57 2.27
 -3 13 4 0.48 2.35
 -3 13 5 47.2 4.38
 -3 13 6 25.99 3.9
 -3 13 7 0.65 2.34
 -3 13 8 0 2.55
 -3 14 -4 20.23 3.25
 -3 14 -2 27.36 3.79
 -3 14 -1 56.87 5
 -3 14 0 7.63 3.01
 -3 14 1 -2.27 2.11
 -3 14 2 0.65 2.38
 -3 14 3 6.16 2.91
 -3 14 4 24.04 4.08
 -3 14 5 55.11 4.88
 -3 14 6 -2.52 2.18
 -3 15 -1 14.23 3.47
 -3 15 0 70.76 5.44
 -3 15 1 30.76 4.44
 -3 15 2 2.77 2.64
 -3 15 3 1.28 3.05
 -2 2 -2 600.89 3.86
 -2 2 0 98.48 1.85
 -2 3 -3 25.59 1.19
 -2 3 -2 952.11 6.26
 -2 3 -1 30.58 1.31
 -2 3 1 1025.21 7.07
 -2 4 -3 49.65 1.86
 -2 4 -2 357.67 4.62
 -2 4 -1 464.44 5.16
 -2 4 0 1234.38 8.62
 -2 4 1 7.35 1.07
 -2 5 -4 304.32 4.94
 -2 5 -3 8.52 1.21
 -2 5 -1 409.84 5.65
 -2 5 0 563.37 6.66
 -2 5 1 60.52 2.44
 -2 5 5 722.88 8.82
 -2 5 6 392.64 6.92
 -2 5 10 8.6 1.99
 -2 5 11 11.21 2.13
 -2 5 12 29.46 2.82
 -2 6 -4 17.98 1.8
 -2 6 -3 41.75 2.31
 -2 6 -1 199.27 4.45
 -2 6 0 27.49 2
 -2 6 1 95.86 3.2
 -2 6 8 14.27 2.09
 -2 6 10 0.24 1.33
 -2 6 11 8.32 1.96
 -2 6 12 19.28 2.67
 -2 7 -4 0.86 1.1
 -2 7 -2 44.5 2.58
 -2 7 -1 160.37 4.39
 -2 7 0 25.74 2.12
 -2 7 1 112.42 3.88
 -2 7 2 552.72 8.33
 -2 7 6 0.14 1.25
 -2 7 9 19.34 2.54
 -2 7 10 0.17 1.63
 -2 7 11 0.12 1.56
 -2 7 12 18.97 2.81
 -2 8 4 312.2 7.07
 -2 8 5 0.54 1.34
 -2 8 6 7.46 1.96
 -2 8 7 66.35 3.96
 -2 8 9 46.92 3.48
 -2 8 10 8.59 2.22
 -2 8 11 -1.99 1.53
 -2 9 -5 126.72 4.7
 -2 9 -4 15.88 2.24
 -2 9 -3 -0.8 1.33
 -2 9 -2 8.61 2.01
 -2 9 -1 1.67 1.55
 -2 9 2 12.07 2.1
 -2 9 4 0.99 1.76
 -2 9 7 -1.24 1.91
 -2 9 9 9.53 2.37
 -2 9 10 50.27 3.96
 -2 9 12 6.89 2.39
 -2 10 -5 98.64 4.52
 -2 10 -4 2.96 1.73
 -2 10 -3 26.62 3.27
 -2 10 -2 1.52 1.85
 -2 10 -1 108.59 4.74
 -2 10 0 36.57 3.08
 -2 10 3 5.54 1.96
 -2 10 4 6.95 1.97
 -2 10 5 30.86 3.13
 -2 10 7 55.05 3.98
 -2 10 8 69.16 4.42
 -2 10 9 17.41 3.16
 -2 10 10 31.35 3.9
 -2 10 11 17.45 2.97
 -2 11 -5 0.82 1.82
 -2 11 -4 0.65 1.74
 -2 11 -2 15.68 2.72
 -2 11 -1 55.98 4.06
 -2 11 0 29.67 3.33
 -2 11 1 1.82 1.89
 -2 11 2 -1.14 1.6
 -2 11 4 40.26 3.5
 -2 11 5 1.26 1.9
 -2 11 6 5.13 2.29
 -2 11 7 0.48 2.38
 -2 11 8 -0.94 2.03
 -2 11 9 9.62 2.73
 -2 11 10 -0.71 2.27
 -2 11 11 55.66 4.47
 -2 12 -3 1.63 2.05
 -2 12 -2 2.27 2.11
 -2 12 -1 62.82 4.66
 -2 12 0 0.58 2.1
 -2 12 1 2.23 1.95
 -2 12 2 16.3 2.98
 -2 12 3 2.56 1.99
 -2 12 4 2.6 2.1
 -2 12 5 0.15 2.29
 -2 12 6 10.91 2.95
 -2 12 7 34.21 4.23
 -2 12 9 5.86 2.46
 -2 12 10 -0.35 2.09
 -2 13 -4 11.11 2.99
 -2 13 -3 276.26 8.94
 -2 13 -2 -1.9 2.39
 -2 13 -1 20.28 3.46
 -2 13 1 4.49 2.41
 -2 13 3 2.77 2.24
 -2 13 5 22.13 3.54
 -2 13 6 2.2 2.47
 -2 13 7 2.63 2.41
 -2 13 8 -0.62 2.25
 -2 14 -4 14.67 3.27
 -2 14 -3 1.1 2.64
 -2 14 -2 124.46 6.65
 -2 14 0 9.08 3.31
 -2 14 1 19.45 3.83
 -2 14 2 1.5 2.47
 -2 14 4 16.22 3.6
 -2 14 5 27.32 4.1
 -2 14 6 -0.37 2.34
 -2 15 -2 3.23 2.6
 -2 15 -1 4.26 2.78
 -2 15 0 2.69 2.81
 -2 15 1 75.36 5.87
 -2 15 2 3.03 2.8
 -1 2 -2 649.44 4.42
 -1 2 -1 18.12 0.86
 -1 2 0 1241.61 5.89
 -1 3 -3 545.55 5.12
 -1 3 -2 1730.99 8.75
 -1 3 -1 176.2 2.85
 -1 3 0 118.74 2.4
 -1 3 1 709.42 5.75
 -1 3 2 1190.11 7.74
 -1 3 11 25.25 2.22
 -1 4 -3 345.8 4.83
 -1 4 -2 275.93 4.16
 -1 4 -1 66.43 2.12
 -1 4 0 4.21 0.92
 -1 4 1 337.56 4.63
 -1 4 2 40.03 1.79
 -1 4 5 54.52 2.32
 -1 4 8 149.06 4.28
 -1 4 10 56.24 3.02
 -1 4 11 27.74 2.43
 -1 5 -4 97.55 3.02
 -1 5 -3 91.27 2.87
 -1 5 -2 382.3 5.59
 -1 5 -1 148.84 3.47
 -1 5 0 73.1 2.48
 -1 5 4 339.81 5.73
 -1 5 5 84.48 3.12
 -1 5 9 4.69 1.38
 -1 5 11 10.66 1.89
 -1 6 -4 2.7 1.13
 -1 6 -3 60.65 2.76
 -1 6 -2 1.04 0.96
 -1 6 -1 576.67 7.43
 -1 6 0 87.69 3.07
 -1 6 3 487.03 7.28
 -1 6 4 137.1 4.02
 -1 6 5 219.11 5.26
 -1 6 8 48.67 3.12
 -1 6 9 129.53 4.69
 -1 6 10 1.97 1.55
 -1 6 11 9.52 1.93
 -1 7 -4 0.72 1.32
 -1 7 -3 367.59 6.96
 -1 7 -1 296.78 6.01
 -1 7 0 138.85 4.2
 -1 7 1 0.71 0.97
 -1 7 2 293.8 6.06
 -1 7 6 25.25 2.31
 -1 7 7 -0.5 1.49
 -1 7 8 0.38 1.33
 -1 7 9 0.85 1.57
 -1 7 10 137.97 5.16
 -1 7 11 -0.65 1.61
 -1 8 -5 32.51 2.61
 -1 8 5 1.32 1.37
 -1 8 6 92.66 4.16
 -1 8 7 12.41 2.31
 -1 8 8 20.99 2.75
 -1 8 9 54.6 3.78
 -1 8 10 19.58 2.72
 -1 8 11 6.86 1.9
 -1 9 -5 10.62 2.2
 -1 9 -4 0.31 1.64
 -1 9 -3 16.77 2.31
 -1 9 -2 2.97 1.59
 -1 9 0 162.69 5.36
 -1 9 1 12.51 1.99
 -1 9 2 139.76 5.07
 -1 9 3 2.63 1.66
 -1 9 5 43.52 3.46
 -1 9 6 224.72 6.72
 -1 9 7 46.97 3.36
 -1 9 8 58.31 3.94
 -1 9 9 12.39 2.4
 -1 9 10 -1.28 1.6
 -1 9 11 1.42 1.72
 -1 10 -5 -0.53 1.79
 -1 10 -4 -0.37 1.46
 -1 10 -3 3.71 1.84
 -1 10 -2 134.84 5.45
 -1 10 -1 85.79 4.31
 -1 10 0 83.18 4.38
 -1 10 1 34.28 3.12
 -1 10 2 0.54 1.47
 -1 10 3 -0.49 1.61
 -1 10 4 9.23 2.24
 -1 10 5 5.43 1.93
 -1 10 6 10.76 2.35
 -1 10 7 3.79 2.04
 -1 10 8 90.57 5.01
 -1 10 9 10.66 2.46
 -1 11 -5 10.88 2.51
 -1 11 -4 -2.01 1.74
 -1 11 -3 39.39 3.51
 -1 11 -2 34.08 3.37
 -1 11 -1 7.24 2.27
 -1 11 0 1.61 1.81
 -1 11 1 29.73 3.34
 -1 11 2 53.33 4
 -1 11 3 23.4 3.03
 -1 11 5 68.41 4.59
 -1 11 7 34.05 3.87
 -1 11 8 24.29 3.47
 -1 11 9 4.52 2.32
 -1 12 -4 1.81 2.07
 -1 12 -1 16.93 2.93
 -1 12 0 91.38 5.14
 -1 12 1 13.14 2.7
 -1 12 2 7.71 2.39
 -1 12 3 60.13 4.54
 -1 12 4 0.09 2
 -1 12 5 71.16 5.05
 -1 12 6 -1.67 1.87
 -1 12 7 1.22 2.38
 -1 12 8 13.26 3.23
 -1 12 9 33.01 4.03
 -1 12 10 -0.22 2.31
 -1 13 -4 20.33 3.54
 -1 13 -3 8.95 2.71
 -1 13 -2 -0.32 2.35
 -1 13 -1 -0.7 2.44
 -1 13 0 60.03 4.71
 -1 13 1 3.15 2.3
 -1 13 6 5.15 2.85
 -1 13 7 1.37 2.48
 -1 13 8 3.33 2.87
 -1 14 -3 3.26 2.51
 -1 14 -2 2.48 2.59
 -1 14 -1 58.85 5.22
 -1 14 0 50.38 4.68
 -1 14 2 48.28 4.78
 -1 14 3 21.91 3.79
 -1 14 4 9.85 3.04
 -1 14 5 6.73 2.8
 -1 14 6 1.96 2.61
 -1 15 -3 31.22 4.65
 -1 15 -2 2.87 3.16
 -1 15 -1 15.93 3.5
 -1 15 0 6.38 3
 -1 15 1 43.91 5.03
 -1 15 2 9.15 3.25
 -1 15 3 12.5 3.48
 -1 15 4 0.26 2.54
 0 1 -1 685.17 3.41
 0 1 0 0.05 0.27
 0 2 -2 1663.46 7.58
 0 2 -1 2208.35 8.08
 0 2 0 2072.63 7.47
 0 2 1 2239.38 8.03
 0 2 2 1670.54 7.42
 0 2 10 45.47 2.23
 0 3 -3 191.08 3.34
 0 3 -2 1012.52 7.11
 0 3 -1 102.6 2.27
 0 3 0 -0.13 0.56
 0 3 1 104.42 2.22
 0 3 2 1026.41 7
 0 3 3 193.89 3.25
 0 3 4 -0.1 0.58
 0 3 8 -0.17 0.82
 0 3 9 17.84 1.68
 0 3 10 -0.08 0.81
 0 4 -3 0.43 0.75
 0 4 -1 1402.5 9.25
 0 4 0 412.96 5.07
 0 4 1 1405.39 9.17
 0 4 2 29.77 1.58
 0 4 5 53.66 2.28
 0 4 6 118.8 3.35
 0 4 7 66.15 2.73
 0 5 -4 38.05 2.06
 0 5 -3 414.54 6.2
 0 5 -2 5.47 1.14
 0 5 -1 2.19 0.87
 0 5 4 37.33 2.02
 0 5 5 36.71 2.19
 0 5 6 441.59 6.81
 0 5 7 304.42 5.89
 0 5 10 49.85 2.81
 0 6 -3 427.63 6.87
 0 6 -1 124.37 3.57
 0 6 2 118.76 3.52
 0 6 3 412.41 6.54
 0 6 4 9.94 1.54
 0 6 5 489.56 7.53
 0 6 9 0.05 1.22
 0 6 10 4.07 1.53
 0 7 -3 52.42 3.04
 0 7 -2 122.68 4.03
 0 7 -1 11.14 1.72
 0 7 1 12.62 1.62
 0 7 2 122.59 3.99
 0 7 3 49.93 2.83
 0 7 8 3.78 1.71
 0 7 9 7 1.78
 0 8 -5 24.7 2.47
 0 8 4 1.33 1.29
 0 8 5 21.47 2.59
 0 8 6 2.65 1.72
 0 8 7 17.41 2.4
 0 8 8 87.78 4.13
 0 8 9 5.38 1.74
 0 9 -4 2.46 1.87
 0 9 -3 99.03 4.54
 0 9 -2 5.49 1.76
 0 9 -1 6.14 1.67
 0 9 0 0.07 1.27
 0 9 1 9.23 1.83
 0 9 2 3.2 1.75
 0 9 3 104.31 4.4
 0 9 4 1.21 1.46
 0 9 5 32.53 3.09
 0 9 6 13.61 2.41
 0 9 7 108.2 4.92
 0 9 8 38.65 3.15
 0 9 9 6.95 1.98
 0 9 10 32.7 3.1
 0 10 -5 18.08 2.59
 0 10 -4 158.5 5.96
 0 10 -3 28.97 3.04
 0 10 -2 16.62 2.51
 0 10 -1 47.43 3.58
 0 10 0 -1.7 1.29
 0 10 1 48.58 3.51
 0 10 2 17.13 2.55
 0 10 4 152.69 5.82
 0 10 5 17.73 2.68
 0 10 6 5.89 2.34
 0 10 7 6.86 2.3
 0 10 8 14.28 2.57
 0 11 -5 14.83 3.03
 0 11 -4 11.37 2.53
 0 11 -3 82.61 4.9
 0 11 -2 -0.88 1.84
 0 11 0 -0.71 1.53
 0 11 2 0.61 1.6
 0 11 3 82.48 4.73
 0 11 4 11.47 2.5
 0 11 5 17.45 2.75
 0 11 6 10.53 2.62
 0 11 7 3.35 2.19
 0 11 9 16.97 2.92
 0 12 -3 88.46 5.18
 0 12 -2 34.7 4.27
 0 12 -1 2.13 2.02
 0 12 0 215.6 7.74
 0 12 1 1.57 2.45
 0 12 3 88.99 5.11
 0 12 5 5.7 2.58
 0 12 6 -0.28 1.89
 0 12 7 -0.94 1.86
 0 12 8 12.3 2.96
 0 12 9 22.22 3.4
 0 13 -4 5.03 2.35
 0 13 -3 12.91 3.06
 0 13 -2 28.34 3.75
 0 13 -1 47.82 4.66
 0 13 0 -0.76 2.12
 0 13 1 53.88 4.83
 0 13 2 30.96 3.98
 0 13 3 9.86 2.91
 0 13 4 6.03 2.61
 0 13 5 14.49 3.09
 0 13 6 17.24 3.63
 0 13 7 9.01 3.09
 0 13 8 3.58 2.4
 0 14 -4 13.91 3.17
 0 14 -3 -0.92 2.12
 0 14 -2 33.94 4.33
 0 14 -1 7.3 2.99
 0 14 0 0.29 2.39
 0 14 1 5.71 3.04
 0 14 3 -0.33 2.79
 0 14 4 19.23 3.89
 0 14 5 -1.69 2.51
 0 14 6 19.6 3.55
 0 15 -3 7.96 3.14
 0 15 -2 -1.91 2.34
 0 15 -1 0.32 2.94
 0 15 0 -2.11 2.3
 0 15 1 -1.02 2.86
 0 15 2 1.69 3.02
 1 1 0 363.14 2.56
 1 1 1 16.6 0.61
 1 1 2 925.47 3.95
 1 2 0 1221.33 6.11
 1 2 1 17.31 0.92
 1 2 2 660.46 4.52
 1 2 3 354.51 3.55
 1 2 4 673.69 5.19
 1 2 7 87.04 2.32
 1 2 8 -0.34 0.54
 1 3 -2 1230.56 8.24
 1 3 -1 700.25 5.97
 1 3 0 120.17 2.45
 1 3 1 180.43 2.91
 1 3 2 1729.39 8.86
 1 3 3 550.01 5.24
 1 3 6 98.86 2.62
 1 3 7 6.84 1.09
 1 3 8 90.13 2.68
 1 4 -3 1.49 0.88
 1 4 -2 39.25 1.92
 1 4 -1 332.41 4.78
 1 4 0 5.77 1.11
 1 4 2 288.58 4.31
 1 4 5 53.76 2.17
 1 4 6 46.31 2.09
 1 4 7 236.75 4.56
 1 4 9 11.88 1.37
 1 5 -4 331.88 5.8
 1 5 -3 25.99 1.94
 1 5 3 89.29 2.86
 1 5 5 10.81 1.38
 1 5 6 -0.28 0.85
 1 5 7 64.71 2.78
 1 5 8 1.76 1.11
 1 6 -4 133.29 4.11
 1 6 -3 495.94 7.57
 1 6 1 601.87 7.76
 1 6 2 -0.31 0.87
 1 6 3 58.83 2.7
 1 6 4 3.32 1.15
 1 6 5 74.9 3.08
 1 6 6 34.48 2.38
 1 6 9 0.18 0.99
 1 7 -3 -0.82 1.09
 1 7 -2 295.86 6.32
 1 7 -1 1.26 1.01
 1 7 0 133.37 4.15
 1 7 2 227.57 5.34
 1 7 7 17.42 2.04
 1 7 9 -0.91 1.26
 1 8 -4 44.2 3.2
 1 8 4 119.07 4.35
 1 8 5 33.37 2.66
 1 8 6 55.24 3.33
 1 8 8 15.36 2.42
 1 9 -5 45.92 3.33
 1 9 -4 36.51 3.11
 1 9 -3 2.99 1.65
 1 9 -1 11.82 2.15
 1 9 0 149.21 5.28
 1 9 3 16.58 2.28
 1 9 4 1.93 1.57
 1 9 6 -0.65 1.43
 1 9 7 20.35 2.45
 1 9 8 4.17 1.68
 1 9 9 3.34 1.98
 1 10 -5 9.11 2.24
 1 10 -3 0.05 1.5
 1 10 -2 -0.08 1.78
 1 10 -1 35.23 3.37
 1 10 0 86.19 4.39
 1 10 1 87.57 4.57
 1 10 3 5.75 1.95
 1 10 5 2.7 2.08
 1 10 6 94.63 4.75
 1 10 7 33.06 3.38
 1 10 8 29.69 3.24
 1 11 -2 57.72 4.07
 1 11 -1 23.41 3.27
 1 11 0 3.78 1.98
 1 11 1 5.63 2.07
 1 11 2 34.68 3.31
 1 11 3 42.54 3.57
 1 11 4 -0.02 1.92
 1 11 5 6.46 2.16
 1 11 6 0.09 2.13
 1 11 7 1.06 1.88
 1 11 8 10.09 2.6
 1 12 -4 2.22 2.16
 1 12 -1 11.1 2.91
 1 12 0 83.18 5.28
 1 12 1 19.08 3.05
 1 12 2 -2.27 1.89
 1 12 3 1.43 2.11
 1 12 4 -0.64 2.04
 1 12 5 116.6 5.77
 1 12 6 4.36 2.29
 1 12 7 7.94 2.47
 1 12 8 6.87 2.34
 1 13 -4 -2 2.26
 1 13 -3 69.38 5.34
 1 13 -1 -0.07 2.39
 1 13 0 65.03 4.86
 1 13 2 1.61 2.79
 1 13 3 11.06 2.89
 1 13 4 26.06 3.83
 1 13 5 7.76 2.79
 1 13 6 44.6 4.33
 1 13 7 8.38 2.89
 1 14 -3 19.82 3.78
 1 14 -1 0.92 2.45
 1 14 2 2.75 2.82
 1 14 3 4.96 2.73
 1 14 4 -0.71 2.21
 1 14 5 15.34 3.58
 1 14 6 20.77 3.95
 1 15 -2 5.34 3.1
 1 15 0 5.62 2.95
 1 15 2 1.59 3.05
 1 15 3 36.47 4.79
 2 0 6 123.66 1.37
 2 1 1 244.81 2.09
 2 1 2 32.06 0.77
 2 1 4 87.23 1.28
 2 1 5 6.88 0.51
 2 1 6 449.59 3.32
 2 2 -1 154.46 2.62
 2 2 0 100.97 2.05
 2 2 1 19.15 1.01
 2 2 2 622.74 4.35
 2 2 3 321.35 3.17
 2 2 4 56.15 1.42
 2 2 5 115.01 2.05
 2 2 7 8.91 0.74
 2 3 -2 19.92 1.56
 2 3 -1 1012.85 7.59
 2 3 0 159.45 3.05
 2 3 1 31.55 1.47
 2 3 2 940.54 6.6
 2 3 7 107.99 2.45
 2 4 -1 7.08 1.23
 2 4 0 1235.1 9.14
 2 4 1 476.03 5.54
 2 4 7 2.47 0.78
 2 5 4 304.79 5.12
 2 5 5 29.29 1.85
 2 5 6 0.92 0.84
 2 5 7 2.95 0.96
 2 6 -4 267.72 5.85
 2 6 -3 39.09 2.46
 2 6 -1 96.16 3.36
 2 6 0 26.48 1.87
 2 6 1 196.77 4.64
 2 6 2 -0.52 0.86
 2 6 3 41.58 2.27
 2 6 6 28.85 2.1
 2 6 7 70.63 2.94
 2 7 -1 112.19 3.98
 2 7 1 168.67 4.68
 2 7 2 46.31 2.75
 2 7 3 68.63 3.17
 2 7 7 2.02 1.17
 2 7 8 0.65 1.05
 2 8 -4 298.64 7.09
 2 8 -3 92.97 4.09
 2 8 4 4.51 1.49
 2 8 5 46.31 3.04
 2 8 6 45.83 3.03
 2 8 7 26.55 2.46
 2 8 8 -0.27 1.46
 2 9 -4 0.12 1.43
 2 9 -3 4.17 1.71
 2 9 -2 11.71 2.07
 2 9 -1 808.6 12.17
 2 9 0 9.98 2.06
 2 9 1 1.12 1.43
 2 9 2 6.65 1.77
 2 9 4 14.97 2.49
 2 9 5 126.63 4.88
 2 9 6 18.13 2.4
 2 9 7 106.47 4.61
 2 10 -2 44.19 3.59
 2 10 0 38.66 3.23
 2 10 2 -0.15 1.51
 2 10 3 22.9 3.03
 2 10 4 4.16 1.89
 2 10 5 101.61 4.94
 2 10 6 49.2 3.7
 2 10 7 8.3 2.32
 2 11 -3 264.46 8.17
 2 11 -2 -0.94 1.76
 2 11 -1 1.73 1.87
 2 11 0 26.37 3.07
 2 11 1 51.98 4.07
 2 11 2 12.69 2.66
 2 11 4 2.61 1.92
 2 11 5 1.99 2.2
 2 11 6 7.7 2.53
 2 11 7 260.5 7.77
 2 12 -4 3.75 2.27
 2 12 -3 2.34 2.09
 2 12 1 61.21 4.79
 2 12 2 2.47 2.15
 2 12 3 0.55 2.43
 2 12 4 5.9 2.63
 2 12 6 3.6 2.47
 2 12 7 2.27 2.07
 2 13 -3 2.5 2.57
 2 13 -1 4.62 2.95
 2 13 0 -1.53 2.08
 2 13 1 25.56 3.81
 2 13 2 3.37 2.69
 2 13 3 270.63 9.11
 2 13 5 -1.89 1.92
 2 13 6 48.44 4.52
 2 14 -2 1.46 2.86
 2 14 -1 16.73 3.43
 2 14 0 9.97 3.46
 2 14 1 19.75 3.99
 2 14 2 130.45 6.87
 2 14 3 1.07 2.37
 2 14 4 12.56 3.24
 2 14 5 22.69 3.8
 2 15 -2 2.26 2.87
 2 15 -1 77.19 5.93
 2 15 0 1.9 2.6
 2 15 2 2.43 2.71
 3 2 2 1122.65 5.84
 3 2 3 52.67 1.24
 3 2 4 1.88 0.37
 3 3 -1 98.71 2.58
 3 3 0 859.78 6.98
 3 3 1 105.77 2.47
 3 3 2 57.69 1.76
 3 3 3 73.83 1.91
 3 4 4 21.53 1.37
 3 4 5 17.07 1.22
 3 4 6 31.64 1.48
 3 5 1 79.97 2.83
 3 5 2 7.57 1.27
 3 5 3 260.34 4.73
 3 5 5 4.35 1.04
 3 5 6 45.91 2.05
 3 6 -3 4.44 1.3
 3 6 -2 1.8 1.17
 3 6 0 11.78 1.67
 3 6 2 29.53 2.02
 3 6 3 143.07 3.95
 3 6 4 18.36 1.83
 3 6 5 29.81 2.06
 3 6 6 2.09 0.95
 3 7 0 47.04 2.92
 3 7 1 69.02 3.25
 3 7 2 -0.36 1.13
 3 8 -2 127.72 4.8
 3 8 3 60.51 3.26
 3 8 4 0.23 1.26
 3 8 5 2.24 1.38
 3 8 6 5.12 1.67
 3 9 -4 1.18 1.59
 3 9 -3 14.02 2.23
 3 9 -1 22.64 2.78
 3 9 0 1.44 1.78
 3 9 1 49.91 3.33
 3 9 2 39.07 3.02
 3 10 -4 96.67 4.93
 3 10 -3 183.73 6.48
 3 10 2 27.87 3.16
 3 10 3 2.77 2.12
 3 10 4 12.88 2.37
 3 10 6 7.97 2.11
 3 11 -3 14.12 2.69
 3 11 -2 9.29 2.67
 3 11 -1 66.43 4.56
 3 11 1 1.26 1.86
 3 11 2 -0.7 2.03
 3 11 3 166.89 6.55
 3 11 4 72.55 4.46
 3 11 5 1.06 1.77
 3 11 6 -1.12 1.84
 3 12 -3 3.03 2.22
 3 12 -1 46.42 4.4
 3 12 0 50.59 4.23
 3 12 1 232.87 8.09
 3 12 2 0.33 2.19
 3 12 3 15.28 2.95
 3 12 5 75.22 4.97
 3 12 6 14.5 2.81
 3 13 -3 3.51 2.66
 3 13 -2 30.97 4.23
 3 13 -1 0.35 2.23
 3 13 0 13.84 3.09
 3 13 1 1.11 2.3
 3 13 3 84.32 5.41
 3 13 4 2.21 2.35
 3 13 5 -1.27 1.95
 3 14 -2 -0.26 2.43
 3 14 -1 0.72 2.41
 3 14 0 7.76 2.75
 3 14 2 27.27 4.08
 3 15 -1 30.73 4.39
 3 15 0 74.61 5.99
 4 4 2 996.86 8.2
 4 4 3 201.38 3.61
 4 4 4 1.16 0.63
 4 4 5 0 0.41
 4 5 -1 496.85 7.11
 4 5 0 -0.11 0.85
 4 5 1 388.08 6.04
 4 5 2 10.63 1.34
 4 5 3 3.44 0.94
 4 5 4 27.92 1.68
 4 5 5 72.45 2.37
 4 6 -2 465.12 7.79
 4 6 -1 1.75 1.17
 4 6 0 17.11 1.94
 4 6 1 1038.65 10.86
 4 6 2 4.19 1.24
 4 6 4 -0.76 0.83
 4 6 5 7.93 1.31
 4 8 -2 137.26 4.95
 4 8 -1 125.71 4.8
 4 8 0 3.9 1.52
 4 8 1 3.1 1.53
 4 8 2 193.43 5.68
 4 8 3 64.06 3.51
 4 8 4 6.55 1.7
 4 9 -3 62.32 3.84
 4 9 -2 36.17 3.24
 4 9 -1 31.8 2.86
 4 9 1 10.88 2.34
 4 9 2 47.01 3.25
 4 9 5 4.75 1.84
 4 10 -2 43.29 3.56
 4 10 -1 8.63 2.2
 4 10 0 34.21 3.22
 4 10 1 7.89 2.3
 4 10 3 0.69 1.77
 4 10 4 14.52 2.56
 4 11 -2 32.16 3.65
 4 11 0 5.84 2.19
 4 11 1 48.96 4.17
 4 11 2 2.39 2.33
 4 11 3 4.77 2.13
 4 11 4 9.33 2.33
 4 11 5 -0.33 1.8
 4 12 -2 0.52 2.16
 4 12 -1 62.92 4.88
 4 12 1 13.69 2.84
 4 12 2 44.93 4.12
 4 12 3 18.18 3.23
 4 12 4 63.76 4.59
 4 13 -1 70.35 5
 4 13 0 0.76 2.29
 4 13 2 28 3.75
 4 13 3 1.25 2.52
 4 13 4 -1.12 1.88
 4 14 -1 4.67 2.81
 4 14 0 6.1 2.74
 4 14 1 4.88 2.63
 4 14 2 4.56 2.61
 4 14 3 2.09 2.26
 5 6 1 18.72 1.9
 5 6 2 16.82 1.72
 5 6 3 -0.62 0.79
 5 8 -1 0.16 1.38
 5 8 0 9.67 1.89
 5 8 1 1.16 1.43
 5 8 2 39.28 2.84
 5 8 3 11.95 1.87
 5 8 4 0.97 1.29
 5 9 -1 196.06 6.42
 5 9 1 2.1 1.83
 5 9 3 6.66 1.94
 5 9 4 73.19 3.72
 5 10 -1 0.17 1.77
 5 10 0 4.72 1.86
 5 10 1 4.61 1.98
 5 10 2 7.61 2.09
 5 10 3 11.26 2.26
 5 10 4 2.2 1.59
 5 11 0 127.3 5.92
 5 11 1 42.68 3.94
 5 11 2 14.59 2.67
 5 11 3 6.38 2.1
 5 12 0 8.85 2.79
 5 12 1 7.72 2.58
 5 12 2 3.13 2.19
 5 12 3 35.75 3.67
 5 13 2 35.21 3.99
 -3 5 8 7.64 0.76
 -3 6 8 6.03 0.93
 -3 7 8 30.18 1.72
 -3 8 8 180.3 4.23
 -3 15 5 20.45 3.86
 -2 3 6 152.18 1.79
 -2 4 7 652.95 4.13
 -2 5 7 61.33 1.8
 -2 6 7 36.96 1.77
 -2 6 8 15.61 1.14
 -2 7 8 7.41 1.1
 -2 8 7 60.31 2.79
 -2 10 7 54.11 3.29
 -2 11 7 1.57 1.67
 -2 12 6 7.49 2.28
 -2 13 6 4.37 2.38
 -2 14 5 18.69 3.47
 -2 14 6 -0.49 2.03
 -2 15 4 38.89 4.59
 -2 15 5 21.84 3.85
 -1 2 4 374.87 2.56
 -1 3 5 320.81 3.06
 -1 4 5 52.33 1.62
 -1 5 6 1.64 0.78
 -1 5 7 100.54 2.26
 -1 6 6 24.71 1.69
 -1 6 7 11.77 1.23
 -1 7 6 23.4 1.91
 -1 7 7 0.43 0.93
 -1 8 7 14.81 1.82
 -1 9 6 215.72 5.55
 -1 10 6 9.81 2.04
 -1 10 7 2.52 1.54
 -1 11 5 78.93 4.36
 -1 11 7 30.28 3.03
 -1 12 5 61.95 4.35
 -1 12 6 0.97 1.99
 -1 13 4 -0.48 2.17
 -1 13 5 44.44 4.21
 -1 13 6 7.89 2.62
 -1 14 3 17.52 3.68
 -1 14 5 9.87 2.83
 -1 14 6 0.97 2.19
 -1 15 3 6.42 3.26
 -1 15 4 1.92 2.77
 -1 15 5 28.07 3.97
 0 1 2 2166.69 5.28
 0 1 3 2.75 0.36
 0 1 4 9.45 0.56
 0 2 3 186.73 2.25
 0 2 4 543.95 3.63
 0 2 5 62.09 1.26
 0 3 3 194.27 2.86
 0 3 4 0.42 0.58
 0 3 5 357.93 3.55
 0 3 6 299.15 3.06
 0 3 7 4.53 0.53
 0 5 6 441.74 5.26
 0 5 7 291.24 3.96
 0 6 4 10.66 1.44
 0 6 5 487.93 6.53
 0 6 6 137.87 3.47
 0 6 7 17.84 1.46
 0 7 4 317.21 5.83
 0 7 6 6.74 1.43
 0 7 7 37.76 2.11
 0 9 4 4.09 1.57
 0 9 5 32.98 2.69
 0 9 7 104.96 3.95
 0 10 4 154.57 5.41
 0 10 5 15.47 2.47
 0 10 6 5.54 1.91
 0 10 7 6.47 1.94
 0 11 4 9.71 2.51
 0 11 5 15.52 2.57
 0 11 6 10.3 2.29
 0 11 7 1.89 1.77
 0 12 3 93.74 5.22
 0 12 4 32.94 3.76
 0 12 5 0.84 2.01
 0 12 6 0.8 1.96
 0 13 3 11.27 3.18
 0 13 5 11.54 2.77
 0 14 1 4.73 2.9
 0 14 2 35.35 4.21
 0 14 3 0.47 2.34
 0 14 4 13.29 3.3
 0 14 5 1.94 2.3
 0 15 0 -2.54 2.44
 0 15 1 -0.04 2.76
 0 15 2 3.24 3.23
 0 15 3 12.29 3.74
 0 15 4 20.62 3.7
 1 0 0 0.2 0.34
 1 0 2 352.96 3
 1 1 2 949.42 5
 1 1 3 1.38 0.6
 1 1 4 31.3 1.2
 1 2 0 1219.41 6.31
 1 2 2 653.96 4.9
 1 2 3 354.25 3.66
 1 2 4 649.23 4.92
 1 2 5 263.25 3.25
 1 3 1 174.54 3.04
 1 3 2 1748.21 9.11
 1 3 3 550.82 5.23
 1 3 4 576.76 5.28
 1 3 7 6.91 0.86
 1 4 2 282.13 4.26
 1 4 6 48.02 1.83
 1 4 7 235.75 3.56
 1 5 4 99.18 2.97
 1 5 5 11.76 1.38
 1 5 7 62.51 2.12
 1 6 3 59.29 2.57
 1 6 4 3.15 1.31
 1 6 6 34.11 2.06
 1 6 7 -0.4 0.73
 1 7 3 375.65 6.65
 1 7 4 -0.5 1.07
 1 7 5 14.49 1.92
 1 7 6 62.5 2.85
 1 7 7 15.56 1.68
 1 9 2 5.45 1.68
 1 9 4 2.12 1.53
 1 9 5 11.64 1.96
 1 9 6 -0.38 1.34
 1 9 7 17.43 2.15
 1 10 2 121.95 4.99
 1 10 3 5.99 2.13
 1 10 4 -1.05 1.6
 1 10 5 1.7 1.65
 1 10 6 91.38 4.28
 1 10 7 36.6 3.02
 1 11 2 33.98 3.59
 1 11 3 41.51 3.76
 1 11 4 0.03 1.75
 1 11 5 7.01 2.37
 1 11 6 2.01 2.12
 1 12 1 14.6 3.03
 1 12 2 -1.54 2.14
 1 12 3 3.26 2.16
 1 12 4 1.92 2.33
 1 12 5 118.48 5.6
 1 12 6 4.3 2.12
 1 13 -8 0.76 2.38
 1 13 0 59.54 4.81
 1 13 1 -1.04 2.65
 1 13 2 1.41 2.42
 1 13 3 6.53 2.69
 1 13 5 5.5 2.84
 1 13 6 44.96 4.04
 1 14 -6 2.01 2.65
 1 14 -2 44.61 4.97
 1 14 -1 2.33 2.62
 1 14 0 58.33 5.33
 1 14 1 61.02 5.21
 1 14 2 0.17 3.04
 1 14 3 5.09 2.78
 1 14 4 1.2 2.74
 1 14 5 15.29 3.22
 1 15 -3 10.93 3.88
 1 15 -1 47.72 5.33
 1 15 0 8.53 3.33
 1 15 1 13.66 3.67
 1 15 2 3.53 2.77
 1 15 3 39.44 4.56
 2 0 -4 974.81 3.56
 2 0 -3 1.17 0.35
 2 0 -2 130.81 1.8
 2 0 -1 0.18 0.5
 2 0 0 251.2 2.88
 2 0 2 2100.5 9.39
 2 1 -6 7.22 0.49
 2 1 -5 48.67 1.11
 2 1 -4 371.34 3.12
 2 1 -3 550.22 3.92
 2 1 -2 942.87 5.33
 2 1 -1 221.66 2.71
 2 1 0 1891.38 8.14
 2 1 2 33.76 1.47
 2 1 3 701.22 5.8
 2 2 -7 17.66 0.95
 2 2 -6 0.25 0.5
 2 2 -5 1592.57 7.71
 2 2 -4 317.08 3.57
 2 2 -3 12.09 1.11
 2 2 -2 542.58 4.75
 2 2 -1 156.7 2.76
 2 2 1 19.67 1.25
 2 2 2 614.98 5.53
 2 2 3 330.28 4.2
 2 3 -9 4.68 0.74
 2 3 -8 2.81 0.76
 2 3 -2 19.4 1.34
 2 3 -1 1008.73 7.53
 2 3 0 162.22 3.37
 2 3 2 948.51 7.55
 2 3 5 259.51 4.15
 2 3 6 26.8 1.6
 2 4 -9 1.94 0.81
 2 4 0 1246.82 9.37
 2 4 4 11.29 1.38
 2 4 5 33.21 1.85
 2 4 6 173.45 3.65
 2 5 2 15.75 1.69
 2 5 3 7.88 1.37
 2 5 4 311.54 5.37
 2 5 5 27.58 1.96
 2 5 7 2.54 0.93
 2 6 0 26.99 2.15
 2 6 1 198.44 4.65
 2 6 2 0.21 1.07
 2 6 3 44.47 2.61
 2 6 6 27.52 2.07
 2 6 7 72.94 2.77
 2 7 0 24.49 2.38
 2 7 1 169.13 4.77
 2 7 2 45.67 2.92
 2 8 6 48.22 2.94
 2 8 7 27.12 2.34
 2 9 2 8.85 2.22
 2 9 3 -0.52 1.5
 2 9 4 15.61 2.6
 2 9 5 126.29 4.8
 2 9 7 103.7 4.06
 2 10 -9 17.63 2.84
 2 10 1 110.16 5.03
 2 10 2 -0.63 1.54
 2 10 3 23.2 2.94
 2 10 4 2.3 1.86
 2 10 5 95.48 4.52
 2 11 -9 6.6 2.62
 2 11 -8 -2.8 2.28
 2 11 -1 4.28 2.2
 2 11 1 54.64 4.31
 2 11 2 13.19 2.6
 2 11 3 155.32 6.11
 2 11 6 5.66 2.03
 2 12 -9 6.36 2.98
 2 12 -8 5.67 2.76
 2 12 -3 0.09 2.25
 2 12 -2 17.81 3.46
 2 12 -1 0.75 2.17
 2 12 0 4.31 2.43
 2 12 1 69.16 4.76
 2 12 3 1.81 2.18
 2 12 4 3.15 2.3
 2 12 5 119.43 5.59
 2 12 6 4.27 2.06
 2 13 -7 3.03 2.63
 2 13 -6 6.95 2.97
 2 13 -3 2.91 2.89
 2 13 -2 158.64 7.28
 2 13 -1 6.65 2.74
 2 13 0 -1.1 2.14
 2 13 1 24.34 4.04
 2 13 2 -0.05 2.86
 2 13 3 272.53 8.7
 2 13 4 8.79 2.89
 2 13 5 1.66 2.36
 2 14 -7 6.46 3.48
 2 14 -6 1.26 3.23
 2 14 -2 0 2.88
 2 14 -1 17.85 3.53
 2 14 0 7.7 3
 2 14 1 20.06 3.94
 2 14 2 129.06 6.81
 2 14 3 2.05 2.57
 2 14 4 11.52 3.12
 2 14 5 24.94 3.81
 2 15 -3 1.55 3.1
 2 15 -2 3.52 3.03
 2 15 -1 76.89 6.11
 2 15 0 1.98 3.01
 2 15 1 1.22 3.49
 2 15 2 2.96 3.22
 3 0 -5 1.01 0.46
 3 0 -4 232.29 2.74
 3 0 -3 0.37 0.58
 3 0 -2 1288.46 7.14
 3 0 -1 -0.2 0.65
 3 0 0 4548.32 14.94
 3 0 1 0.67 0.84
 3 0 2 541.72 5.85
 3 1 -6 0.55 0.41
 3 1 -5 8 0.81
 3 1 -4 99.15 2.06
 3 1 -3 544.35 4.72
 3 1 -2 102.32 2.47
 3 1 -1 1842.19 9.32
 3 1 0 1126.58 7.62
 3 1 2 16.54 1.31
 3 1 4 13.96 1.51
 3 2 -8 0.66 0.43
 3 2 -7 198.28 2.76
 3 2 -5 477.97 4.81
 3 2 -3 3049.71 12.45
 3 2 -1 64.79 2.14
 3 2 0 80.28 2.41
 3 2 1 35.51 1.83
 3 2 4 1.12 0.88
 3 2 5 60.13 2.44
 3 3 -8 8.65 1.03
 3 3 -7 0.03 0.76
 3 3 -5 340.13 4.68
 3 3 -4 506.98 5.7
 3 3 -2 192.35 3.87
 3 3 -1 103.52 2.94
 3 3 0 877.1 7.92
 3 3 3 67.78 2.51
 3 3 4 300.22 4.97
 3 3 5 223.64 4.45
 3 4 -9 31.51 1.7
 3 4 -8 383.17 5.34
 3 4 -5 31.11 1.94
 3 4 -4 8.37 1.25
 3 4 -3 451.36 6.12
 3 4 -2 702.73 7.54
 3 4 3 4.38 1.16
 3 4 4 21.69 1.91
 3 4 5 16.53 1.62
 3 4 7 42.13 2.23
 3 5 -9 75.24 2.74
 3 5 -7 71.08 2.85
 3 5 -6 21.42 1.94
 3 5 -5 217.86 4.66
 3 5 -4 6.4 1.32
 3 5 -2 257.03 5.13
 3 5 1 81.2 3.03
 3 5 2 6.8 1.5
 3 5 3 260.6 5.35
 3 5 4 204.93 4.71
 3 5 5 4.6 1.37
 3 5 6 42.97 2.42
 3 5 7 3.76 1.18
 3 6 -7 702.5 9.09
 3 6 -5 13.64 1.99
 3 6 -4 248.59 5.39
 3 6 -3 3.81 1.46
 3 6 -2 1.05 1.35
 3 6 0 11.26 1.68
 3 6 1 6.17 1.68
 3 6 2 31.01 2.41
 3 7 -10 14.83 2.06
 3 7 -9 13.17 2.03
 3 7 5 4.74 1.52
 3 7 6 -0.44 1.46
 3 7 7 20.93 2.17
 3 8 -10 15.66 2.38
 3 8 -9 1.6 1.46
 3 8 -8 197.81 5.82
 3 8 -7 2.98 1.65
 3 8 -5 30.01 2.85
 3 8 -2 130.77 4.72
 3 8 0 71.7 3.85
 3 8 3 59.77 3.59
 3 8 4 0.4 1.41
 3 8 6 8.08 1.92
 3 8 7 5.74 1.69
 3 9 -10 -0.34 1.77
 3 9 -9 62.64 3.9
 3 9 -8 12.86 2.32
 3 9 -6 4.76 2.21
 3 9 -5 60.97 3.91
 3 9 -4 0.08 1.59
 3 9 -3 15.79 2.42
 3 9 -1 23.72 2.8
 3 9 0 -0.52 1.83
 3 9 3 13.84 2.58
 3 9 4 10.93 2.39
 3 9 5 90.09 4.31
 3 9 6 48.59 3.31
 3 10 -10 30.42 3.35
 3 10 -8 1.93 2.13
 3 10 -7 36.19 3.71
 3 10 -4 100.28 5.04
 3 10 -2 38.2 3.51
 3 10 -1 9.02 2.24
 3 10 0 48.96 3.73
 3 10 1 46.35 3.55
 3 10 3 2.94 1.92
 3 10 5 142.05 5.5
 3 10 6 9.29 2.27
 3 11 -9 29.19 3.52
 3 11 -8 1.99 2.23
 3 11 -7 8.85 2.92
 3 11 -6 4.29 2.35
 3 11 -5 -0.32 2.32
 3 11 -4 8.93 2.48
 3 11 -3 15.05 2.87
 3 11 -2 8.39 2.45
 3 11 -1 62.85 4.35
 3 11 1 0.83 2.45
 3 11 2 -0.48 1.89
 3 11 4 66.09 4.49
 3 11 6 -0.7 1.7
 3 12 -9 11.64 3.01
 3 12 -8 0.82 2.49
 3 12 -7 29 3.74
 3 12 -6 3.06 2.77
 3 12 -4 11.29 3.35
 3 12 -3 0.73 2.41
 3 12 -2 2.04 2.78
 3 12 2 0.48 2.35
 3 12 3 18.09 3.46
 3 12 4 81.08 4.86
 3 13 -9 28.82 3.9
 3 13 -7 0.52 2.41
 3 13 -6 27.87 3.95
 3 13 -5 45.33 4.39
 3 13 -4 1.92 2.72
 3 13 -3 2.39 2.53
 3 13 -1 1.88 2.5
 3 13 0 11.68 3.14
 3 13 1 -1.11 2.53
 3 13 2 8.51 2.93
 3 13 4 2.51 2.45
 3 13 5 0.24 2.45
 3 14 -7 39.68 4.61
 3 14 -6 -0.85 2.68
 3 14 -5 53.84 4.82
 3 14 -4 27.34 4.26
 3 14 -3 5.57 2.98
 3 14 -2 3.11 2.81
 3 14 0 6.35 3.13
 3 14 1 56.22 5.25
 3 14 2 24.26 4.05
 3 14 3 4.69 2.91
 3 14 4 17.87 3.26
 3 15 -2 1.64 3.02
 3 15 -1 27.12 4.6
 3 15 0 71.58 6.05
 4 0 -6 375.74 3.74
 4 0 -5 0.23 0.56
 4 0 -3 -0.21 0.75
 4 0 -2 672.08 6.32
 4 0 -1 0.25 0.96
 4 1 -8 75.94 1.4
 4 1 -7 112.52 2.07
 4 1 -6 176.11 2.81
 4 1 -5 805.98 6.22
 4 1 -3 290.45 4.16
 4 1 -2 860.16 7.28
 4 1 0 250.85 4.41
 4 1 2 93.55 2.96
 4 1 3 3.76 1.36
 4 1 4 28.12 1.97
 4 2 -9 5.04 0.57
 4 2 -8 8.48 0.88
 4 2 -7 0.1 0.6
 4 2 -6 246.72 3.77
 4 2 -4 83.53 2.46
 4 2 -3 1049.28 8.27
 4 2 -2 2.87 0.95
 4 2 4 51.88 2.6
 4 2 5 41.41 2.41
 4 3 -9 188.97 3.07
 4 3 -6 17.93 1.52
 4 3 -5 467.46 5.93
 4 3 -4 289.27 4.75
 4 3 -3 14.09 1.41
 4 3 1 53.24 2.41
 4 3 2 61.83 2.7
 4 3 3 18.03 1.71
 4 3 4 509.78 7.18
 4 4 -9 6.55 1.11
 4 4 -8 123 3.24
 4 4 -7 271.6 4.87
 4 4 -6 129.88 3.54
 4 4 -5 79.41 2.85
 4 4 -4 58.31 2.54
 4 4 -2 1.56 0.96
 4 4 1 33.75 2.28
 4 4 2 975.17 10.02
 4 4 3 197.7 4.75
 4 4 4 2.22 1.36
 4 5 -9 72.57 2.83
 4 5 -8 39.46 2.34
 4 5 -7 16.1 1.77
 4 5 -6 1.47 1.13
 4 5 -5 26.23 2.18
 4 5 0 1.44 1.2
 4 5 1 399.25 6.86
 4 5 2 8.72 1.75
 4 6 -4 8.42 1.67
 4 6 -3 5.25 1.56
 4 6 5 8.63 1.75
 4 6 6 18.96 2.25
 4 6 7 71.78 3.36
 4 7 -10 176.87 4.96
 4 7 -9 35.14 2.79
 4 7 -8 0.04 1.33
 4 7 -7 43.87 2.99
 4 7 -6 2.94 1.72
 4 7 1 60.74 3.5
 4 7 2 1.24 1.38
 4 7 3 15.72 2.19
 4 7 4 3.09 1.74
 4 7 5 5.64 1.94
 4 7 6 4.31 1.91
 4 7 7 51.12 3.13
 4 8 -10 23.94 2.63
 4 8 -7 33.6 3.09
 4 8 -6 43.04 3.28
 4 8 -5 3.89 1.8
 4 8 -4 -0.22 1.69
 4 8 -3 7.68 1.97
 4 8 -1 123.34 4.77
 4 8 1 3.55 1.86
 4 8 3 62.61 3.76
 4 8 4 4.31 1.8
 4 8 5 92.16 4.18
 4 8 6 25.68 2.82
 4 9 -10 36.76 3.3
 4 9 -9 48.7 3.68
 4 9 -7 7.19 2.18
 4 9 -6 67.07 4.14
 4 9 -3 61.61 4.07
 4 9 -2 37.06 3.26
 4 9 -1 37.25 3.52
 4 9 1 12.53 2.56
 4 9 2 42.17 3.62
 4 9 5 2.64 1.78
 4 9 6 2.16 1.85
 4 10 -10 5.6 2.32
 4 10 -9 5.75 2.51
 4 10 -8 14.26 2.7
 4 10 -7 33.45 3.67
 4 10 -6 8.52 2.39
 4 10 -4 35.42 3.76
 4 10 -2 38.59 3.69
 4 10 -1 7.83 2.66
 4 10 0 35.27 3.52
 4 10 2 89.65 4.71
 4 10 4 17.06 2.76
 4 10 5 1.42 2.25
 4 11 -10 20.07 3.08
 4 11 -7 13.57 3.11
 4 11 -5 38.07 3.97
 4 11 -4 28.98 3.81
 4 11 -3 1.95 2.21
 4 11 -2 34.05 3.63
 4 11 -1 10.79 2.69
 4 11 0 4.34 2.67
 4 11 2 1.82 2.21
 4 11 3 4.1 2.3
 4 11 4 7.53 2.75
 4 12 -8 4.78 2.9
 4 12 -7 76.14 5.39
 4 12 -6 10.7 3.01
 4 12 -5 69.16 4.87
 4 12 -4 10.05 3.31
 4 12 -3 3.61 2.79
 4 12 -2 1.15 2.35
 4 12 1 16.74 3.22
 4 12 2 41.42 4.42
 4 12 5 5.19 2.53
 4 13 -9 63.68 5.12
 4 13 -8 57.47 4.9
 4 13 -7 17.85 3.41
 4 13 -6 0.6 2.92
 4 13 -4 4.44 2.83
 4 13 -3 4.97 2.76
 4 13 -2 4.07 2.75
 4 13 -1 68.87 5.25
 4 13 0 0.43 2.49
 4 13 2 24.57 3.73
 4 13 3 6.09 2.76
 4 13 4 -0.94 2.25
 4 13 5 48.68 4.21
 4 14 -5 -0.52 2.76
 4 14 -4 2.57 3.38
 4 14 -3 1.01 3.03
 4 14 -2 28.84 4.69
 4 14 -1 6.29 3.38
 4 14 0 3.19 3.32
 4 14 1 2.62 2.87
 4 14 3 -0.25 2.54
 5 0 -6 301.61 4.17
 5 0 -4 41.93 2.02
 5 0 -3 0.12 0.83
 5 0 -2 111.25 3.09
 5 0 1 0.2 1.02
 5 1 -8 1.96 0.68
 5 1 -7 142.43 2.9
 5 1 -6 122.44 2.82
 5 1 -4 183.37 3.71
 5 1 -3 75.22 2.63
 5 1 1 116.89 3.61
 5 1 2 673.79 8.44
 5 1 3 3.01 1.35
 5 2 -9 1.68 0.67
 5 2 -8 0.94 0.79
 5 2 -7 137.52 3.06
 5 2 -6 0.49 0.8
 5 2 -5 95.64 2.79
 5 2 -3 -0.26 0.78
 5 2 -2 20 1.61
 5 2 0 17.8 1.79
 5 2 1 0.01 1.23
 5 2 2 585.61 8.01
 5 3 -9 22.27 1.47
 5 3 -8 419.35 5.51
 5 3 -7 50.44 2.25
 5 3 -6 56.42 2.37
 5 3 -5 3.46 1.22
 5 3 -4 101.49 3.18
 5 3 -3 62.16 2.62
 5 3 0 228.91 4.98
 5 3 1 5.55 1.52
 5 3 2 36.35 2.32
 5 4 -9 0.71 0.98
 5 4 -8 10.87 1.56
 5 4 -7 201.7 4.47
 5 4 -6 96.33 3.26
 5 4 -5 11.97 1.6
 5 4 -4 14.79 1.89
 5 4 -3 194.38 4.63
 5 4 -2 1.78 1.25
 5 4 -1 27.9 2.26
 5 4 6 -0.36 1.56
 5 5 -10 105.76 3.24
 5 5 -9 9.13 1.45
 5 5 -8 22.97 2.07
 5 5 -7 8.4 1.55
 5 5 -5 147.92 4.43
 5 5 -3 10.06 1.86
 5 5 5 37.6 2.76
 5 5 7 56.14 3.28
 5 6 3 -0.64 1.64
 5 6 4 28.07 2.68
 5 6 5 0.93 1.51
 5 6 6 40.94 3.08
 5 7 -10 19.61 2.26
 5 7 -8 -0.28 1.66
 5 7 -7 2.7 1.59
 5 7 -6 8.61 2.08
 5 7 -5 4.02 1.74
 5 7 -3 29.9 2.57
 5 7 0 15.63 2.33
 5 7 1 0.48 1.8
 5 7 2 2.6 1.86
 5 7 3 59.06 3.67
 5 7 4 59.79 3.65
 5 7 6 87.13 4.15
 5 8 -9 32.72 3.01
 5 8 -8 6.34 1.91
 5 8 -7 2.5 1.78
 5 8 -6 3.83 1.9
 5 8 -5 7.47 2.31
 5 8 -4 -0.14 1.59
 5 8 -3 20.54 2.76
 5 8 -1 1.04 1.64
 5 8 0 5.92 1.9
 5 8 1 1.48 2.02
 5 8 3 9.41 2.18
 5 8 4 -0.69 1.58
 5 8 5 23.58 2.9
 5 8 6 21.21 2.68
 5 9 -10 6.96 2.31
 5 9 -9 16.45 2.61
 5 9 -8 -1.22 1.66
 5 9 -7 30.94 3.13
 5 9 -6 11.07 2.62
 5 9 -5 71.27 4.33
 5 9 -4 34.48 3.48
 5 9 -3 1.51 1.79
 5 9 -2 8.56 2.34
 5 9 -1 196.7 6.54
 5 9 0 38.88 3.46
 5 9 1 1.41 1.81
 5 9 2 24.56 2.92
 5 9 3 6.21 2.43
 5 9 5 42.16 3.57
 5 9 6 10.86 2.33
 5 10 -10 -0.09 1.79
 5 10 -9 -1.12 2.26
 5 10 -8 18.35 2.87
 5 10 -7 31.76 3.31
 5 10 -6 70.5 4.72
 5 10 -5 13.22 2.8
 5 10 -4 15 3
 5 10 -2 1.06 2.18
 5 10 -1 -0.95 2.19
 5 10 0 4.35 2.38
 5 10 2 7.88 2.44
 5 10 3 10.79 2.72
 5 11 -9 43.67 4.08
 5 11 -7 104.79 5.78
 5 11 -6 0.89 2.27
 5 11 -5 0.51 2.18
 5 11 -4 77.96 5.16
 5 11 -3 213.48 7.55
 5 11 -2 12.4 3.27
 5 11 -1 24.05 3.75
 5 11 0 130 6.21
 5 11 2 16.91 3.16
 5 11 3 8.24 2.75
 5 11 4 5.5 2.64
 5 11 5 84.77 4.96
 5 12 -8 10.96 3.03
 5 12 -7 2.54 2.57
 5 12 -6 2.55 2.75
 5 12 -5 0.95 2.46
 5 12 -4 6.25 3.21
 5 12 -3 6.23 3.24
 5 12 -2 0.22 2.3
 5 12 -1 67.42 5.01
 5 12 1 7.29 3.19
 5 12 2 0.78 2.25
 5 12 4 25.87 3.53
 5 12 5 -0.12 2.16
 5 13 -8 -2.02 2.41
 5 13 -7 3.03 2.84
 5 13 -6 1.78 2.78
 5 13 -4 24.71 4.36
 5 13 -3 5.3 3.36
 5 13 -2 11.82 3.24
 5 13 -1 2.57 2.75
 5 13 0 2.34 2.85
 5 13 1 -0.87 2.35
 5 13 3 10.91 3.14
 5 13 4 17.22 3.64
 5 14 -3 9.47 3.42
 5 14 -2 -0.44 2.74
 5 14 -1 7.65 3.34
 5 14 1 1.44 2.71
 6 0 -7 -0.03 1.02
 6 0 -6 206.5 4.14
 6 0 -5 0.27 0.97
 6 0 -4 276.01 5.1
 6 0 -3 0.25 1.02
 6 0 -2 3.96 1.24
 6 0 0 55.46 2.77
 6 1 -8 237.67 4.05
 6 1 -7 3.98 1.09
 6 1 -5 1.04 1.14
 6 1 -3 742.35 8.53
 6 1 -2 5.01 1.24
 6 1 0 5.08 1.64
 6 2 -7 11.22 1.52
 6 2 -6 394.48 5.94
 6 2 -4 6.89 1.42
 6 2 -3 515 7.31
 6 2 -2 30.72 2.25
 6 2 3 10.51 1.87
 6 2 4 9.38 1.96
 6 3 -9 61.11 2.37
 6 3 -8 126.94 3.44
 6 3 -7 6.09 1.25
 6 3 -6 86.71 3.18
 6 3 -5 48.33 2.58
 6 3 -4 75.3 3.21
 6 3 -3 290.84 5.83
 6 3 4 3.32 1.77
 6 3 5 7.66 2.01
 6 4 -9 18.25 1.79
 6 4 -7 24.98 2.11
 6 4 -6 61.63 2.96
 6 4 1 1.4 1.51
 6 4 2 -0.55 1.34
 6 4 3 0.25 1.49
 6 4 4 181.44 5.55
 6 5 -1 2.27 1.63
 6 5 0 5.94 1.86
 6 5 2 4.4 1.78
 6 5 3 10.99 2.01
 6 5 4 24.93 2.59
 6 5 5 0.69 1.97
 6 6 -10 0.07 1.24
 6 6 -9 40.29 2.76
 6 6 -8 0.58 1.58
 6 6 -7 49.71 3.17
 6 6 -6 152.5 4.98
 6 6 -5 34.3 2.67
 6 6 -4 0.8 1.37
 6 6 -3 58 3.48
 6 6 -1 6.39 1.82
 6 6 0 0.1 1.41
 6 6 1 39.78 3.19
 6 6 2 44.69 3.42
 6 6 3 41.33 3.3
 6 6 4 17.25 2.56
 6 6 6 13.78 2.35
 6 7 -9 2.59 1.77
 6 7 -8 26.56 2.75
 6 7 -7 12.96 2.42
 6 7 -6 2.54 1.67
 6 7 -5 0.75 1.93
 6 7 -4 135.28 5.14
 6 7 -2 7.84 1.96
 6 7 -1 92.87 4.45
 6 7 0 53.69 3.65
 6 7 1 -0.26 1.57
 6 7 2 1.55 1.74
 6 7 3 61.6 3.99
 6 7 4 129.75 5.26
 6 7 5 50.45 3.74
 6 7 6 1.73 1.89
 6 8 -10 16.48 2.39
 6 8 -9 5.96 2.24
 6 8 -7 109.84 4.93
 6 8 -6 4.75 2.33
 6 8 -4 148.54 5.73
 6 8 -2 -1.18 1.48
 6 8 -1 15.97 2.85
 6 8 0 140.63 5.67
 6 8 2 125.9 5.49
 6 8 5 1.24 1.88
 6 9 -10 2.21 2.16
 6 9 -8 -0.31 2.17
 6 9 -7 19.71 3.11
 6 9 -6 46.8 4.06
 6 9 -5 0.1 1.85
 6 9 -3 35.28 3.29
 6 9 -1 5.46 2.21
 6 9 1 30.08 3.41
 6 9 2 15.14 2.78
 6 9 4 4.4 2.12
 6 10 -10 8.29 2.54
 6 10 -9 4 2.64
 6 10 -8 1.57 2.14
 6 10 -7 7.99 2.65
 6 10 -6 214.34 7.3
 6 10 -4 14.12 2.88
 6 10 -3 108.69 5.79
 6 10 -2 67.88 4.66
 6 10 0 0.89 2.16
 6 10 2 142.96 6.24
 6 10 3 5.53 2.41
 6 10 4 24.22 3.57
 6 11 -10 -1.18 2.26
 6 11 -8 1.64 2.22
 6 11 -6 1.87 2.43
 6 11 -5 -0.18 2.39
 6 11 -4 1.2 2.3
 6 11 -2 3.24 2.44
 6 11 -1 1.79 2.46
 6 11 0 24.5 3.74
 6 11 1 5.6 2.69
 6 11 3 5.29 2.75
 6 11 4 3.67 2.34
 6 12 -10 35.56 4.07
 6 12 -9 2.91 2.49
 6 12 -8 12.22 3.51
 6 12 -7 34.53 4.33
 6 12 -6 6.15 3.22
 6 12 -5 10.66 3.23
 6 12 -4 5.33 3.25
 6 12 -3 2.33 2.94
 6 12 -2 5.01 2.89
 6 12 -1 7.58 3.11
 6 12 0 2.74 2.62
 6 12 1 4.69 2.75
 6 12 2 15.26 3.35
 6 12 3 67.86 5.02
 6 12 4 3.2 2.9
 6 13 -8 -1.79 2.7
 6 13 -7 18.44 4.1
 6 13 -6 3.79 3.12
 6 13 -5 5.71 3.59
 6 13 -4 0.6 2.72
 6 13 -2 12.78 3.21
 6 13 -1 1.4 2.7
 6 13 1 40.12 4.58
 6 13 2 15.82 3.74
 7 0 -6 1204.13 11.01
 7 0 -5 -0.81 1.13
 7 0 -4 5.3 1.45
 7 0 0 252.1 6.23
 7 1 -8 51.54 2.43
 7 1 -7 54.37 2.59
 7 1 -5 75.59 3.23
 7 1 0 2.25 1.62
 7 2 -9 3.65 1.16
 7 2 -8 3.6 1.16
 7 2 -7 9.82 1.59
 7 2 -6 0.18 1.15
 7 2 1 12.31 2.17
 7 2 2 29.23 2.93
 7 2 3 1.73 1.7
 7 3 -10 11.08 1.46
 7 3 -9 11.76 1.62
 7 3 -1 106.29 4.18
 7 3 0 36.19 2.88
 7 3 3 26 2.91
 7 3 4 2.09 1.84
 7 4 -3 27.47 2.56
 7 4 -2 45.08 2.95
 7 4 -1 56.36 3.46
 7 4 1 2.02 1.66
 7 4 2 18.7 2.69
 7 4 3 101.19 4.65
 7 4 4 1.07 2.06
 7 4 5 37.4 3.53
 7 5 -10 0.43 1.24
 7 5 -9 1.41 1.36
 7 5 -7 18.15 2.22
 7 5 -6 41.04 3.06
 7 5 -5 17.6 2.3
 7 5 -4 5.31 1.94
 7 5 -3 1.07 1.46
 7 5 0 20.75 2.59
 7 5 1 358.82 8.04
 7 5 2 63.38 4.02
 7 5 3 0.64 1.74
 7 5 4 14.23 2.84
 7 5 5 7.33 2.27
 7 6 -10 -0.82 1.4
 7 6 -9 1.63 1.61
 7 6 -8 39.51 3.06
 7 6 -7 13.58 2.24
 7 6 -6 4.04 1.72
 7 6 -5 0.59 1.6
 7 6 -4 49.93 3.42
 7 6 -3 200.78 6.12
 7 6 -1 162.07 5.55
 7 6 0 42.29 3.3
 7 6 1 86.84 4.55
 7 6 2 58.08 3.8
 7 6 4 4.7 2.07
 7 6 5 18 3
 7 6 6 36.2 3.54
 7 7 -10 58.08 3.45
 7 7 -9 21.59 2.63
 7 7 -7 5.71 2.26
 7 7 -6 -0.81 1.59
 7 7 -5 3.89 2.1
 7 7 -4 1.71 2.12
 7 7 -2 222.73 6.66
 7 7 -1 14.74 2.65
 7 7 0 0.02 1.75
 7 7 1 114.94 5.34
 7 7 2 82.31 4.76
 7 7 3 0.2 2.36
 7 7 4 10.02 2.62
 7 7 5 -0.88 2.32
 7 7 6 8.53 2.62
 7 8 -10 5.27 1.98
 7 8 -9 6.48 2.14
 7 8 -8 2.66 1.99
 7 8 -6 49.62 3.84
 7 8 -4 15.64 2.91
 7 8 -3 1.32 1.84
 7 8 -2 2.49 1.98
 7 8 -1 2.05 2.12
 7 8 0 3.88 2.14
 7 8 1 39.13 3.94
 7 8 2 25.56 3.19
 7 8 4 -1.41 1.87
 7 8 5 2.31 2.24
 7 9 -10 1.85 2.11
 7 9 -9 74.95 4.6
 7 9 -8 29.19 3.48
 7 9 -7 16.16 2.85
 7 9 -6 0.3 2.01
 7 9 -5 35.02 3.81
 7 9 -4 1.95 2.21
 7 9 -3 143.68 6.22
 7 9 -1 38.99 3.83
 7 9 1 7.41 2.57
 7 9 2 3.95 2.79
 7 9 3 3.94 2.79
 7 9 4 6.38 2.61
 7 9 5 18.9 3.21
 7 10 -8 1.33 2.09
 7 10 -7 2.06 2.57
 7 10 -6 8.92 2.88
 7 10 -4 0.8 2.73
 7 10 -2 18.75 3.37
 7 10 1 9.02 2.92
 7 10 2 21.48 3.51
 7 10 3 7.33 2.91
 7 10 4 0.89 2.25
 7 10 5 2.75 2.27
 7 11 -10 2.23 2.23
 7 11 -8 3.36 2.55
 7 11 -7 6.47 2.76
 7 11 -6 -0.3 2.36
 7 11 -5 -0.42 2.63
 7 11 -4 -2.1 2.25
 7 11 -3 29.28 4.36
 7 11 -2 1.36 2.6
 7 11 -1 21.33 3.95
 7 11 0 14.57 3.22
 7 11 1 70.66 5.16
 7 11 2 21.03 3.7
 7 11 3 9.39 3.27
 7 11 4 0.5 2.33
 7 12 -8 1.35 2.43
 7 12 -7 -0.67 2.6
 7 12 -6 14.37 3.41
 7 12 -4 4.75 3.17
 7 12 -3 26.62 4.27
 7 12 -2 4.02 3.05
 7 12 -1 7.31 3.51
 7 12 0 3.66 2.77
 7 12 1 -0.96 2.54
 7 12 2 -1.05 2.72
 7 13 -6 12.26 3.49
 7 13 -5 1.09 2.95
 7 13 -3 1.87 2.75
 7 13 -1 9.3 3.29
 8 0 -4 4.68 1.57
 8 0 -3 0.03 1.73
 8 0 -2 13.34 2.46
 8 1 -4 8.64 2.01
 8 1 -2 0.09 1.62
 8 1 0 -0.63 1.89
 8 2 -5 2.16 1.37
 8 2 -4 6.78 1.87
 8 2 -2 2.39 1.53
 8 2 0 1.55 1.68
 8 2 1 4.45 1.82
 8 2 2 42.4 3.71
 8 3 -8 196.15 5.1
 8 3 -7 10.07 1.95
 8 3 -6 1.45 1.67
 8 3 -4 22.96 2.41
 8 3 -3 171.02 5.32
 8 3 -2 4.02 1.84
 8 3 -1 31.05 2.98
 8 3 0 113.89 4.93
 8 3 1 11.32 2.66
 8 3 3 46.82 3.83
 8 4 -10 13.58 1.92
 8 4 -9 4.65 1.66
 8 4 -6 0.92 1.47
 8 4 -5 1 1.7
 8 4 -4 133.43 4.85
 8 4 -2 14.84 2.28
 8 4 -1 75.19 4.12
 8 4 0 36.73 3.18
 8 4 1 16.78 2.63
 8 4 4 7.59 2.54
 8 5 -10 48.77 2.99
 8 5 -9 10.62 2.07
 8 5 -8 14.1 2.32
 8 5 -7 5.41 1.96
 8 5 -6 70.24 3.71
 8 5 -5 0.69 1.55
 8 5 -4 2.05 1.71
 8 5 -3 73.86 4.21
 8 5 -2 145.17 5.46
 8 5 -1 3.84 2.19
 8 5 0 -1.66 1.82
 8 5 1 43.44 3.8
 8 5 2 3.02 2.08
 8 5 3 61.23 4.41
 8 5 4 10.67 2.71
 8 6 -10 8.84 1.97
 8 6 -9 29.42 2.99
 8 6 -8 15.37 2.46
 8 6 -7 3.06 1.79
 8 6 -6 4.67 2.2
 8 6 -5 111.6 4.84
 8 6 -4 6.2 2.04
 8 6 -3 -0.75 1.58
 8 6 -1 335.51 8.4
 8 6 0 8.13 2.41
 8 6 1 7.35 2.55
 8 6 2 -0.1 1.94
 8 6 3 -2.24 1.87
 8 6 4 24.73 3.54
 8 6 5 29.37 3.66
 8 7 -10 -0.71 1.94
 8 7 -8 38.69 3.4
 8 7 -6 43.77 3.67
 8 7 -5 32.34 3.44
 8 7 -4 72.46 4.37
 8 7 -3 138.57 5.86
 8 7 -2 -2.32 2.05
 8 7 -1 7.94 2.31
 8 7 0 3.21 2.55
 8 7 1 43.86 4.01
 8 7 2 4.19 2.65
 8 7 3 9.63 3.13
 8 7 5 40.48 3.93
 8 8 -9 27.96 3.31
 8 8 -8 39.22 3.82
 8 8 -6 0.15 1.99
 8 8 -5 98.19 5.17
 8 8 -4 62.15 4.36
 8 8 0 1 2.68
 8 8 1 15.55 3.24
 8 8 2 -0.47 2.18
 8 8 3 3.53 2.65
 8 8 4 24.03 3.39
 8 8 5 3.24 2.43
 8 9 -10 -0.74 1.82
 8 9 -9 20.07 3.09
 8 9 -8 70.51 4.62
 8 9 -7 170.74 6.76
 8 9 -6 60.48 4.65
 8 9 -5 19.42 3.21
 8 9 -4 -0.12 2.26
 8 9 -2 14.89 3
 8 9 -1 1.91 2.48
 8 9 2 20.77 3.68
 8 9 3 3.29 2.61
 8 9 4 4.94 2.69
 8 10 -10 -1.42 1.9
 8 10 -9 19.49 3.22
 8 10 -8 0.59 2.19
 8 10 -7 0.42 2.47
 8 10 -6 16.21 3.51
 8 10 -5 79.11 5.27
 8 10 -4 40.05 4.31
 8 10 -3 -0.32 2.26
 8 10 -2 6.59 2.78
 8 10 -1 25.43 3.73
 8 10 0 82.29 5.41
 8 10 1 2.17 2.58
 8 10 3 58.16 4.93
 8 11 -10 1.11 2.16
 8 11 -9 3.13 2.71
 8 11 -8 5.12 3
 8 11 -7 115.08 6.1
 8 11 -5 30.25 4.25
 8 11 -4 22.16 3.9
 8 11 -3 15.42 3.63
 8 11 -2 7.1 3.27
 8 11 0 20.39 3.91
 8 11 1 6.77 3.23
 8 11 2 34.24 4.35
 8 12 -8 0.98 2.94
 8 12 -7 -0.17 2.44
 8 12 -6 -1.93 2.46
 8 12 -5 3.61 3.02
 8 12 -3 2.84 3.33
 8 12 -2 0.93 2.82
 8 12 -1 125.47 6.98
 9 1 -7 1.55 1.53
 9 1 -6 262.96 6.53
 9 1 -5 1.79 1.58
 9 1 -4 1.63 1.7
 9 1 -3 34.55 2.92
 9 1 -2 6.87 2.26
 9 1 -1 2.76 1.88
 9 2 -9 39.1 2.8
 9 2 -8 0.49 1.65
 9 2 -6 82.03 4.03
 9 2 -5 43.52 3.34
 9 2 -4 23.99 2.61
 9 2 -3 102.91 4.56
 9 2 -1 62.06 4.05
 9 2 1 -1.14 2.19
 9 3 -10 20.14 2.31
 9 3 -8 -0.02 1.72
 9 3 -7 14.33 2.21
 9 3 -6 1.99 1.93
 9 3 -5 32.16 3.27
 9 3 -4 11.58 2.28
 9 3 -3 2.13 1.76
 9 3 -2 46.7 3.66
 9 3 -1 42.16 3.54
 9 3 0 100.04 5.12
 9 3 1 35.21 3.72
 9 4 -10 57.3 3.29
 9 4 -9 -0.35 1.66
 9 4 -8 64.71 3.8
 9 4 -7 19.43 2.64
 9 4 -3 84.44 4.37
 9 4 -1 0.35 1.72
 9 4 0 64.17 4.52
 9 4 1 84.76 5.07
 9 4 2 8.3 2.58
 9 5 -10 28.95 2.83
 9 5 -9 47.76 3.37
 9 5 -8 2.55 1.71
 9 5 -7 45.18 3.46
 9 5 -6 39.96 3.35
 9 5 -5 14.5 2.46
 9 5 -4 2.75 1.92
 9 5 -3 60.67 4.2
 9 5 -2 17.99 2.75
 9 5 -1 -0.65 1.98
 9 5 1 9.09 2.6
 9 5 2 39.42 4.24
 9 6 -10 14.09 2.45
 9 6 -9 42.2 3.37
 9 6 -8 3.91 2.34
 9 6 -7 1.41 2.02
 9 6 -6 2.18 2.31
 9 6 -5 212.41 6.77
 9 6 -4 17.8 2.82
 9 6 -2 10.95 2.51
 9 6 -1 10.8 2.94
 9 6 0 0.66 2.21
 9 6 2 4.1 2.74
 9 6 3 4.09 2.94
 9 6 4 23.48 3.51
 9 7 -10 21.16 2.72
 9 7 -9 24.84 3.02
 9 7 -8 13.47 2.91
 9 7 -7 0.88 1.9
 9 7 -6 60.3 4.26
 9 7 -5 11.48 2.79
 9 7 -4 37.8 3.91
 9 7 -3 4.73 2.36
 9 7 -2 1.86 2.58
 9 7 1 -0.88 2.44
 9 7 2 20.72 3.42
 9 7 3 18.87 3.38
 9 7 4 8.29 3.24
 9 7 5 0.29 2.83
 9 8 -10 45.39 3.83
 9 8 -9 79.64 4.77
 9 8 -8 39.01 3.91
 9 8 -7 2.66 2.37
 9 8 -6 24.17 3.43
 9 8 -5 32.04 3.94
 9 8 -4 10.95 3
 9 8 -3 22.26 3.41
 9 8 -2 18.32 3.52
 9 8 -1 9.26 2.86
 9 8 0 1.3 2.86
 9 8 1 15.62 3.39
 9 8 2 8.58 2.87
 9 8 3 53.43 4.7
 9 8 4 117.87 6.14
 9 9 -10 -1.62 2.22
 9 9 -9 16.6 3.13
 9 9 -8 7.36 2.78
 9 9 -7 126.22 6.1
 9 9 -5 13.03 3.03
 9 9 -4 7.49 2.74
 9 9 -3 -0.01 2.41
 9 9 -2 38.26 4.13
 9 9 -1 3.87 2.98
 9 9 0 9.51 2.91
 9 9 1 29.68 4.04
 9 9 2 23.68 4.05
 9 9 3 52.95 4.92
 9 10 -10 2.18 2.45
 9 10 -9 25.05 3.72
 9 10 -8 4.56 2.92
 9 10 -7 3.56 2.73
 9 10 -6 25.26 3.88
 9 10 -5 11.32 3.11
 9 10 -4 6.2 2.83
 9 10 -3 3.61 2.77
 9 10 -2 62.78 5.01
 9 10 -1 9.03 3.15
 9 10 0 38.29 4.32
 9 10 1 -0.19 2.58
 9 11 -9 5.9 2.67
 9 11 -8 0.23 2.29
 9 11 -7 0.56 3.03
 9 11 -4 0.69 2.69
 9 11 -3 91.3 6.26
 9 11 -2 38.1 4.93
 9 11 -1 1.71 3.22
 10 1 -6 182.07 6.1
 10 1 -5 30.27 3.25
 10 1 -4 58.69 4.06
 10 1 -3 11.19 2.51
 10 2 -8 85 4.16
 10 2 -6 3.42 1.83
 10 2 -5 2.41 1.9
 10 2 -4 150.15 5.93
 10 2 -2 32.02 3.68
 10 3 -10 57.1 3.44
 10 3 -9 -1.66 1.5
 10 3 -8 9.64 2.19
 10 3 -7 1.58 2
 10 3 -6 4.75 2.01
 10 3 -5 22.16 3.03
 10 3 -3 22.36 3.09
 10 3 -2 285.58 8.27
 10 3 -1 30.92 4.11
 10 3 0 14.62 3.06
 10 3 1 0.56 2.49
 10 4 -10 0.07 1.87
 10 4 -9 9.25 2.14
 10 4 -8 15.17 2.6
 10 4 -7 13.49 2.59
 10 4 -6 -1.73 1.66
 10 4 -5 46.26 3.84
 10 4 -4 1.33 1.92
 10 4 -3 2.67 2.21
 10 4 -1 7.58 2.63
 10 4 0 48.12 4.48
 10 4 1 6.51 2.95
 10 5 -10 36.79 3.23
 10 5 -9 1.4 1.93
 10 5 -6 19.88 3.14
 10 5 -4 10.81 2.96
 10 5 -2 76.59 5.06
 10 5 -1 43.12 4.22
 10 5 0 12.25 3.23
 10 5 1 9.85 3.12
 10 5 2 2.57 2.85
 10 6 -10 8.43 2.28
 10 6 -9 13.26 2.64
 10 6 -8 22.09 3.04
 10 6 -7 54.82 4.28
 10 6 -5 11.34 2.97
 10 6 -4 17.36 3.39
 10 6 -3 35.29 3.72
 10 6 -2 28.42 3.83
 10 6 -1 6.55 2.74
 10 6 0 19.5 3.78
 10 6 1 39.72 4.49
 10 6 2 2.82 2.59
 10 6 3 2.54 2.68
 10 7 -10 3.98 2.16
 10 7 -9 1.27 2.17
 10 7 -8 2.47 2.21
 10 7 -6 12.82 3.23
 10 7 -5 40.17 4.18
 10 7 -4 -1.01 2.16
 10 7 -3 2.77 2.94
 10 7 -2 38.82 4.48
 10 7 -1 4.79 2.99
 10 7 0 2.07 2.71
 10 7 1 1.37 2.78
 10 7 2 107.52 6.13
 10 7 3 4.67 3.14
 10 8 -10 4.45 2.42
 10 8 -9 34.56 3.76
 10 8 -8 79.02 4.91
 10 8 -7 4.98 3.02
 10 8 -6 2.2 2.91
 10 8 -5 18.82 3.36
 10 8 -4 24.55 3.73
 10 8 -3 25.09 4.03
 10 8 -2 -2.02 2.83
 10 8 -1 1.27 2.72
 10 8 0 -2.17 2.74
 10 8 1 7.23 3.39
 10 8 2 4.69 2.73
 10 9 -10 1.21 2.19
 10 9 -9 0.92 2.31
 10 9 -8 4.25 2.69
 10 9 -7 0.86 2.41
 10 9 -6 5.08 2.53
 10 9 -5 0.39 2.81
 10 9 -4 -0.55 2.77
 10 9 -3 1.96 2.58
 10 9 -2 -1.67 2.36
 10 9 -1 41.76 4.79
 10 9 0 41.53 4.53
 10 10 -9 6.47 2.75
 10 10 -8 -1.95 2.31
 10 10 -7 3.86 2.74
 10 10 -6 -0.89 2.46
 10 10 -5 0.93 3.23
 10 10 -3 9.72 3.17
 11 2 -8 3.04 2.45
 11 2 -7 4.3 2.54
 11 2 -6 36.95 3.49
 11 2 -5 1.64 2.2
 11 2 -4 70.21 5.08
 11 2 -3 42 4.55
 11 3 -10 0.8 1.9
 11 3 -9 0.44 2.06
 11 3 -8 3.73 2.17
 11 3 -7 40 3.59
 11 3 -4 6.21 3.02
 11 3 -2 72.63 5.23
 11 3 -1 94.31 5.81
 11 4 -10 10.02 2.58
 11 4 -9 0.62 2.07
 11 4 -8 1.71 2.16
 11 4 -7 19.15 3.04
 11 4 -6 6.39 2.43
 11 4 -5 0.26 2.15
 11 4 -4 339.6 9.26
 11 4 -3 34.47 4.07
 11 4 -2 7.23 2.77
 11 4 -1 4.98 2.71
 11 4 0 0.59 2.82
 11 5 -10 1.34 2.19
 11 5 -9 0.59 2.2
 11 5 -8 14.34 2.88
 11 5 -7 -0.03 2.63
 11 5 -6 2.66 2.74
 11 5 -4 -1.76 2.27
 11 5 -2 31.15 3.96
 11 5 -1 16.6 3.33
 11 5 0 0.56 3.12
 11 5 1 6.46 3.23
 11 6 -10 1.71 2
 11 6 -9 12.21 2.86
 11 6 -7 1.66 2.8
 11 6 -6 0.93 2.8
 11 6 -5 33.39 3.95
 11 6 -4 9.04 2.9
 11 6 -3 19.79 3.78
 11 6 -2 0.51 2.51
 11 6 0 8.19 3.03
 11 6 1 10.03 3.2
 11 7 -10 80.67 4.79
 11 7 -9 1.54 2.56
 11 7 -8 10.87 3.15
 11 7 -7 72.79 4.93
 11 7 -6 46.28 4.48
 11 7 -5 12.76 3.26
 11 7 -4 2.29 2.74
 11 7 -2 0.44 2.58
 11 7 0 6.26 3.04
 11 8 -10 5.61 2.44
 11 8 -9 -0.13 2.34
 11 8 -8 67.88 5.08
 11 8 -7 17.83 3.35
 11 8 -6 16.55 3.43
 11 8 -5 2.97 2.75
 11 8 -4 49.2 4.75
 11 8 -3 38.33 4.67
 11 8 -2 -0.82 2.48
 11 9 -9 7.59 3.16
 11 9 -8 4.05 2.84
 11 9 -7 12.99 3.64
 11 9 -6 20.51 3.88
 11 9 -5 77.79 5.82
 11 9 -4 53.86 5.26
 11 9 -3 1.76 2.78
 12 3 -8 -1.6 2.06
 12 3 -7 11.19 3.02
 12 3 -6 52.53 4.36
 12 3 -5 5.91 2.94
 12 3 -4 22.65 3.61
 12 4 -10 10.39 2.88
 12 4 -9 6.76 2.82
 12 4 -8 16.88 3.25
 12 4 -7 11.19 3.33
 12 4 -5 11.49 3
 12 4 -4 18.88 3.65
 12 4 -3 26.87 3.86
 12 4 -2 11.4 3.7
 12 5 -10 17.2 2.97
 12 5 -9 11.88 2.84
 12 5 -8 6.13 2.68
 12 5 -7 39.07 4.45
 12 5 -6 147.36 6.89
 12 5 -5 7.03 2.82
 12 5 -4 18.77 3.5
 12 5 -3 -0.31 2.58
 12 5 -2 0.8 2.78
 12 5 -1 3.77 3.04
 12 6 -10 2.09 2.46
 12 6 -9 28.02 3.62
 12 6 -8 25.99 3.64
 12 6 -7 5.88 3.16
 12 6 -6 -0.01 2.6
 12 6 -5 0.2 2.66
 12 6 -4 5.25 3.03
 12 6 -3 42.59 4.89
 12 6 -2 30.5 4.76
 12 7 -10 72.77 4.88
 12 7 -8 -1.42 2.77
 12 7 -7 39.02 4.56
 12 7 -6 8.33 3.45
 12 7 -5 -3.27 2.41
 12 7 -4 1.58 2.76
 13 4 -8 37.15 4.57
 13 4 -7 18.56 3.58
 13 4 -6 41.01 4.72
 13 4 -5 -1.38 3.32
 13 5 -10 0.35 2.31
 13 5 -9 -0.72 2.76
 13 5 -8 -1.09 2.95
 13 5 -7 5.43 2.94
 13 5 -6 0.93 2.81
 13 5 -5 140.1 7.23
 0 -6 1 122.68 1.85
 0 -6 2 120.81 2.29
 0 -6 3 417.22 4.82
 0 -6 4 9.02 1.06
 0 -5 0 0.01 0.16
 0 -5 1 1.78 0.37
 0 -5 2 6.54 0.73
 0 -5 3 400.15 4.56
 0 -4 0 393.9 2.05
 0 -4 1 1375.09 5.54
 0 -4 2 28.75 1.09
 0 -4 3 1.34 0.58
 0 -4 4 458.75 5.44
 0 -3 1 98.31 1.43
 0 -3 2 1005.54 5.63
 0 -3 3 192.33 3.02
 0 -3 4 0.19 0.59
 0 -3 5 354.54 5.17
 0 -2 1 2152.51 5.89
 0 -2 2 1665.84 6.88
 0 -2 3 193.46 2.93
 0 -2 4 571.07 5.65
 0 -1 1 690.61 3.03
 0 -1 2 2185.45 7.37
 0 -1 3 2.72 0.58
 0 -1 4 9.76 0.96
 0 0 1 -0.01 0.25
 0 0 2 1024.8 4.77
 0 0 3 0.78 0.46
 0 0 4 18.6 1.27
 1 -9 2 3.91 0.78
 1 -8 -1 15.1 0.5
 1 -8 0 42.47 1.15
 1 -8 1 426.42 4.25
 1 -8 2 38.6 1.59
 1 -8 3 9.73 1.18
 1 -8 4 110.94 3.28
 1 -7 -3 0.15 0.16
 1 -7 -2 296.33 1.8
 1 -7 -1 1.08 0.28
 1 -7 0 136.78 2.05
 1 -7 1 307.02 3.6
 1 -7 2 231.24 3.62
 1 -7 3 370.5 5.08
 1 -7 4 0.2 0.77
 1 -7 6 62.11 2.88
 1 -6 -2 76.02 1.09
 1 -6 -1 13.83 0.58
 1 -6 0 84.64 1.58
 1 -6 1 578.13 4.75
 1 -6 2 0.09 0.6
 1 -6 3 63.11 2.16
 1 -6 4 3.2 1
 1 -6 6 36.33 2.43
 1 -5 -1 677.17 3.48
 1 -5 0 73.44 1.41
 1 -5 1 151.25 2.37
 1 -5 2 380.65 4.33
 1 -5 4 96.31 2.77
 1 -4 -1 338.86 2.36
 1 -4 0 4.89 0.58
 1 -4 1 64.68 1.55
 1 -4 2 281.97 3.56
 1 -4 3 356.04 4.57
 1 -4 4 1014.59 8.53
 1 -4 7 238.86 5.51
 1 -3 1 169.76 2.26
 1 -3 2 1716.14 8.27
 1 -3 3 560.37 5.55
 1 -3 4 585.37 6.32
 1 -3 5 11.01 1.33
 1 -3 7 6.51 1.28
 1 -2 0 1215.64 4.36
 1 -2 1 17.78 0.75
 1 -2 2 666.28 4.91
 1 -2 6 7.02 1.15
 1 -1 0 359.22 2.15
 1 -1 1 16.02 0.7
 1 -1 2 970.32 5.66
 1 -1 3 1.07 0.63
 1 -1 6 7.37 1.19
 1 0 1 0.2 0.32
 1 0 2 358.03 3.26
 1 0 3 1.3 0.64
 1 0 4 208.13 3.44
 1 0 6 223.38 4.48
 1 1 1 16.79 0.64
 1 1 2 942.11 5.02
 1 1 3 1.38 0.55
 1 1 4 31.39 1.44
 1 1 6 6.41 1.19
 1 2 1 16.13 0.5
 1 2 2 664.56 3.99
 1 2 3 356.24 3.6
 1 2 5 261.62 4.1
 1 3 2 1729.2 5.85
 1 3 3 545.8 4.22
 2 -10 1 105.46 2.51
 2 -10 2 0.33 0.69
 2 -10 4 3.01 1.22
 2 -9 -1 771.19 5.09
 2 -9 0 6.97 0.81
 2 -9 1 0.83 0.63
 2 -9 2 6.92 1.01
 2 -9 4 20.13 1.86
 2 -8 -4 299.38 2.69
 2 -8 -3 89.87 1.51
 2 -8 -2 140.55 2.03
 2 -8 -1 100.06 1.95
 2 -8 0 85.69 2.05
 2 -8 2 6.99 0.99
 2 -8 3 17.62 1.43
 2 -8 5 47.43 2.58
 2 -8 6 41.33 2.81
 2 -7 -3 0.28 0.34
 2 -7 -2 578.15 4.14
 2 -7 -1 109.74 2.03
 2 -7 0 24.46 1.18
 2 -7 1 164.49 3.11
 2 -7 2 46.58 1.91
 2 -7 5 7.83 1.35
 2 -7 6 18.27 1.99
 2 -6 -2 31.17 1.03
 2 -6 0 28.04 1.21
 2 -6 1 197.42 3.24
 2 -6 2 0.19 0.69
 2 -6 3 42.04 1.98
 2 -6 5 82.49 3.24
 2 -6 7 73.82 3.65
 2 -6 8 -0.04 1.2
 2 -5 -1 58.52 1.41
 2 -5 0 566.83 4.67
 2 -5 1 398.2 4.39
 2 -5 2 16.53 1.2
 2 -5 3 8.7 1.08
 2 -5 4 310.8 5.38
 2 -5 6 -0.05 0.95
 2 -5 7 0.94 1.06
 2 -5 8 1.32 1.3
 2 -4 -1 7.04 0.58
 2 -4 0 1230.44 6.55
 2 -4 1 482.7 4.67
 2 -4 2 348.91 4.44
 2 -4 3 49.93 1.96
 2 -4 4 10.63 1.25
 2 -4 6 181.98 4.78
 2 -4 7 1.72 1.08
 2 -4 8 -0.48 1.04
 2 -3 0 154.18 2.23
 2 -3 1 31.5 1.26
 2 -3 2 924.2 6.85
 2 -3 3 26.18 1.43
 2 -3 4 82.89 2.71
 2 -3 7 113.48 4.04
 2 -3 8 40.07 2.81
 2 -2 0 101.38 1.75
 2 -2 1 20.42 1.07
 2 -2 5 111.25 3.33
 2 -2 7 9.31 1.71
 2 -2 8 44.88 2.86
 2 -1 0 1904.79 6.74
 2 -1 3 707.02 6.29
 2 -1 5 6.71 1.07
 2 -1 7 270.86 5.78
 2 0 0 237.38 2.26
 2 0 2 2090.77 9.11
 2 0 3 0.4 0.68
 2 0 5 1.07 0.74
 2 0 7 0.87 0.92
 2 0 8 0.65 1.18
 2 1 1 244.42 2.56
 2 1 2 32.54 1.19
 2 1 3 698.05 5.86
 2 1 5 5.46 1
 2 2 1 20.07 0.79
 2 2 3 321.09 3.81
 2 2 5 115.85 3
 2 2 6 12.42 1.49
 2 3 1 31.61 0.88
 2 3 2 919.26 5.19
 2 3 5 263.3 4.37
 2 3 6 28.4 1.71
 2 4 1 466.06 2.68
 2 4 2 358.95 3.03
 2 4 3 50.09 1.41
 3 -11 3 164 4.27
 3 -11 4 66.3 3.04
 3 -10 0 44.77 1.84
 3 -10 1 43.98 2.02
 3 -10 3 4.07 1.17
 3 -10 5 148.78 4.76
 3 -9 -2 41.73 1.45
 3 -9 -1 23.21 1.26
 3 -9 0 0.59 0.59
 3 -9 1 54.48 2.22
 3 -9 3 15.83 1.68
 3 -9 4 9.55 1.68
 3 -9 6 50.84 3.21
 3 -8 -4 35.13 1.27
 3 -8 -3 450.09 4.33
 3 -8 -2 124.24 2.46
 3 -8 -1 78.07 2.1
 3 -8 0 72.61 2.23
 3 -8 1 0 0.73
 3 -8 4 1.26 1.05
 3 -8 5 2.83 1.25
 3 -8 6 5.35 1.59
 3 -8 7 7.06 1.97
 3 -7 -3 74.36 1.8
 3 -7 -1 50.17 1.72
 3 -7 0 49.9 1.87
 3 -7 5 4.14 1.3
 3 -7 6 1.12 1.18
 3 -7 7 19.5 2.5
 3 -7 8 77.25 4.08
 3 -6 -2 2.69 0.59
 3 -6 -1 152.84 2.74
 3 -6 0 11.79 1.12
 3 -6 2 31.69 1.84
 3 -6 5 28.1 2.34
 3 -6 6 0.19 1.07
 3 -6 8 6.94 1.98
 3 -5 -1 -0.02 0.46
 3 -5 0 5.17 0.75
 3 -5 2 7.38 1.06
 3 -5 3 258.24 4.9
 3 -5 7 3.44 1.39
 3 -5 8 0.88 1.37
 3 -4 -1 617.59 5.03
 3 -4 0 27.23 1.25
 3 -4 1 637.51 6.09
 3 -4 2 1.87 0.71
 3 -4 3 3.43 0.92
 3 -4 5 15.91 1.68
 3 -4 6 32.2 2.31
 3 -4 7 44.53 2.87
 3 -4 8 58.77 3.51
 3 -3 -1 103.26 2.12
 3 -3 0 868.33 6.2
 3 -3 1 107.68 2.45
 3 -3 2 58.58 2.05
 3 -3 3 70.93 2.5
 3 -3 6 15.43 1.83
 3 -3 7 3.35 1.36
 3 -3 8 10.07 1.82
 3 -3 9 45.2 3.25
 3 -2 0 78.62 1.85
 3 -2 6 10.3 1.57
 3 -2 8 37.11 2.78
 3 -2 9 0.62 1.31
 3 -1 0 1176.08 6.57
 3 -1 1 14.62 1.01
 3 -1 4 13.37 1.45
 3 -1 6 50.57 2.7
 3 -1 7 54.76 3.04
 3 0 0 4529.46 12.25
 3 0 1 -0.26 0.5
 3 0 2 524.11 5.24
 3 0 4 583.03 6.84
 3 0 5 0.71 0.88
 3 0 7 -0.26 1.04
 3 0 8 56.44 3.27
 3 1 0 1138 5.92
 3 1 2 16.66 1
 3 1 4 12.05 1.23
 3 1 5 1.35 0.94
 3 1 7 53.74 2.88
 3 1 8 61.64 3.18
 3 2 1 32.6 1.19
 3 2 4 1.58 0.77
 3 2 7 189.62 4.88
 3 3 0 836.23 4.62
 3 3 1 104.93 1.88
 3 3 4 308.27 4.57
 3 3 5 228.09 4.41
 3 3 7 4.24 1.16
 3 4 0 29.89 0.89
 3 4 1 631.26 4.22
 3 4 4 22.3 1.41
 3 4 5 16.49 1.38
 3 5 0 4.6 0.4
 3 5 1 82.06 1.4
 3 5 4 206.29 3.39
 3 5 5 5.84 0.88
 3 6 0 11.32 0.38
 3 6 1 6.92 0.34
 3 6 2 33.26 0.88
 4 -11 2 1.18 1.09
 4 -11 3 2.85 1.26
 4 -11 4 8.45 1.61
 4 -11 5 -0.57 1.12
 4 -10 -2 41.78 1.72
 4 -10 -1 11.87 1.18
 4 -10 1 4.85 1.13
 4 -10 2 93.85 3.4
 4 -10 5 3.06 1.45
 4 -10 6 13.03 2.27
 4 -9 -5 106.68 2.39
 4 -9 -4 245.46 3.66
 4 -9 -3 65.12 2.04
 4 -9 -2 37.81 1.72
 4 -9 -1 31.69 1.69
 4 -9 2 46.22 2.52
 4 -9 3 3.79 1.24
 4 -9 4 2.96 1.28
 4 -9 5 3.28 1.46
 4 -9 7 -0.02 1.43
 4 -8 -4 -0.13 0.6
 4 -8 -3 10.01 0.97
 4 -8 -2 141.48 3.04
 4 -8 -1 120.39 2.98
 4 -8 0 4.82 1
 4 -8 2 193.37 4.56
 4 -8 3 64.67 2.98
 4 -8 4 4.79 1.54
 4 -8 5 90.22 3.9
 4 -8 6 25.32 2.56
 4 -8 7 52.61 3.68
 4 -8 8 7.35 2.07
 4 -7 -3 14.76 1.09
 4 -7 -1 13.61 1.21
 4 -7 0 179.21 3.81
 4 -7 4 1.79 1.37
 4 -7 5 4.58 1.43
 4 -7 6 5.22 1.68
 4 -7 8 6.96 2.06
 4 -6 -2 471.54 5.22
 4 -6 -1 1.57 0.68
 4 -6 0 17.15 1.46
 4 -6 4 -0.69 0.92
 4 -6 5 9.83 1.73
 4 -6 6 18.02 2.35
 4 -6 7 73.82 3.9
 4 -6 8 1.48 1.84
 4 -6 9 38.08 3.49
 4 -5 -2 257.61 3.73
 4 -5 -1 499.52 5.49
 4 -5 0 0.35 0.65
 4 -5 1 393.36 5.58
 4 -5 4 29.26 2.23
 4 -5 5 77.73 3.42
 4 -5 6 6.03 1.6
 4 -5 7 2.06 1.37
 4 -5 9 50.76 3.9
 4 -4 -1 11.4 0.94
 4 -4 0 3.23 0.77
 4 -4 1 36.19 1.75
 4 -4 2 992.58 9.15
 4 -4 4 1.14 0.95
 4 -4 5 -0.68 1.13
 4 -4 7 2.94 1.51
 4 -4 9 -1.89 1.35
 4 -3 -1 941.85 6.93
 4 -3 0 243.64 3.84
 4 -3 1 54.19 2.03
 4 -3 2 59.78 2.35
 4 -3 6 97.91 3.93
 4 -3 7 16.23 2.19
 4 -3 9 1.38 1.76
 4 -2 7 16.51 2.11
 4 -2 9 2.83 1.99
 4 -1 3 2.56 0.84
 4 -1 5 333.32 6.35
 4 -1 6 8.81 1.6
 4 -1 7 19.95 2.49
 4 -1 8 76.26 4.02
 4 -1 9 45.35 3.31
 4 0 0 0.93 0.51
 4 0 3 -0.09 0.66
 4 0 7 -0.09 1.1
 4 0 8 10.32 1.99
 4 0 9 -1.3 1.25
 4 1 0 253.89 3.38
 4 1 2 93.71 2.48
 4 1 3 2.71 0.82
 4 1 4 28.87 1.91
 4 1 6 7.19 1.49
 4 1 7 23.19 2.16
 4 2 2 2.33 0.76
 4 2 3 47.9 1.96
 4 2 4 54.7 2.3
 4 2 6 192.3 4.86
 4 2 7 18.13 1.86
 4 2 8 0.15 1.14
 4 3 2 59.38 1.94
 4 3 3 17.37 1.26
 4 3 4 516.58 6.45
 4 3 7 15.69 1.95
 4 4 2 993.46 7.09
 4 4 3 201.68 3.6
 4 4 4 1.29 0.76
 4 4 5 0.73 0.77
 4 4 7 2.14 1.08
 4 5 2 9.62 0.85
 4 5 3 2.26 0.64
 4 5 4 27.1 1.53
 4 6 2 3.46 0.53
 4 6 3 14.17 0.94
 4 6 4 -0.22 0.53
 4 7 -1 11.41 0.49
 4 7 1 60.35 0.87
 5 -11 1 40.8 2.48
 5 -11 2 14.66 1.81
 5 -11 3 7.64 1.82
 5 -11 4 5 1.64
 5 -11 5 82.34 4.1
 5 -10 -1 1.45 0.87
 5 -10 0 6.24 1.23
 5 -10 1 7.35 1.42
 5 -10 2 6.58 1.56
 5 -10 4 1.12 1.34
 5 -10 5 1.84 1.63
 5 -10 7 14.91 2.58
 5 -9 0 37.78 2.14
 5 -9 1 1.4 1.04
 5 -9 2 22.4 2
 5 -9 4 74.24 3.66
 5 -9 6 12.36 2.38
 5 -8 -5 10.62 1.24
 5 -8 -4 0.62 0.64
 5 -8 -3 23.18 1.54
 5 -8 0 8.29 1.26
 5 -8 1 1.55 1.1
 5 -8 2 39.02 2.42
 5 -8 3 11.91 1.79
 5 -8 4 -0.43 1.26
 5 -8 5 22.11 2.71
 5 -8 8 -0.58 1.59
 5 -7 -4 468.92 5.72
 5 -7 -3 29.3 1.74
 5 -7 -2 76.35 2.56
 5 -7 1 0.45 0.99
 5 -7 3 56.4 3.03
 5 -7 4 55.82 3.18
 5 -7 6 85.19 4.28
 5 -7 7 80.64 4.49
 5 -7 8 26.65 2.99
 5 -6 -3 23.52 1.52
 5 -6 -2 229.21 4.18
 5 -6 -1 120.32 3.22
 5 -6 2 18.05 1.7
 5 -6 3 -0.66 0.9
 5 -6 4 26.26 2.38
 5 -6 5 0.35 1.4
 5 -6 7 13.3 2.32
 5 -5 -2 144.82 3.22
 5 -5 -1 322.59 4.98
 5 -5 3 71.87 3.2
 5 -5 4 12.79 1.82
 5 -5 6 16.84 2.38
 5 -5 7 59.71 3.95
 5 -5 8 3.95 1.85
 5 -4 -2 3.49 0.81
 5 -4 -1 27.7 1.6
 5 -4 0 2.78 0.84
 5 -4 3 70.49 3.07
 5 -4 4 4.41 1.3
 5 -4 5 9.81 1.79
 5 -4 8 13.52 2.49
 5 -4 9 9.45 2.32
 5 -3 -1 350.63 4.85
 5 -3 0 232.74 4.2
 5 -3 1 6.32 1.23
 5 -3 3 16.21 1.63
 5 -3 4 3.96 1.3
 5 -3 6 26.34 2.4
 5 -3 7 16.14 2.3
 5 -3 8 80.26 4.31
 5 -3 9 21.18 3.18
 5 -2 4 47.94 2.6
 5 -2 5 39.27 2.6
 5 -2 6 15.73 2.25
 5 -2 7 11.51 2.08
 5 -2 8 25.94 2.79
 5 -2 9 14.32 2.74
 5 -1 1 110.85 2.99
 5 -1 4 338.78 6.33
 5 -1 5 15.92 1.87
 5 -1 6 23.56 2.34
 5 -1 7 2.86 1.43
 5 -1 8 183.58 6.07
 5 -1 9 0.43 1.66
 5 0 4 93.53 3.31
 5 0 5 -0.65 1.15
 5 0 6 235.45 6.03
 5 0 7 1.14 1.31
 5 0 8 0.44 1.42
 5 0 9 -0.37 1.46
 5 1 0 173.13 3.28
 5 1 1 115.43 2.86
 5 1 2 687.22 7.4
 5 1 5 15.82 1.9
 5 1 7 1.07 1.26
 5 1 8 191.14 6.03
 5 1 9 0.35 1.75
 5 2 0 16.78 1.14
 5 2 1 0.72 0.65
 5 2 2 579.75 6.59
 5 2 3 331.55 5.44
 5 2 5 39.31 2.48
 5 2 6 13.03 1.86
 5 2 7 10.34 1.88
 5 2 8 23.59 2.65
 5 3 0 228.13 3.55
 5 3 1 5.29 0.87
 5 3 2 37.5 1.85
 5 3 3 17.67 1.42
 5 3 5 8.81 1.53
 5 3 7 15.13 1.99
 5 3 8 78.53 3.8
 5 4 0 3.38 0.68
 5 4 1 227.55 3.69
 5 4 2 317.79 4.57
 5 4 3 65.99 2.37
 5 4 5 7.13 1.25
 5 4 6 0.29 0.95
 5 5 -1 328.74 3.74
 5 5 0 734.67 5.77
 5 5 1 3.93 0.77
 5 5 2 63.26 2.03
 5 5 3 72.21 2.35
 5 5 4 14.54 1.45
 5 5 6 17.48 1.79
 5 6 0 18.9 0.99
 5 6 1 19.34 1.05
 5 6 2 16.03 1.04
 5 6 3 -0.03 0.5
 5 6 4 24.62 1.49
 5 7 -2 74.04 1.6
 5 7 -1 189.54 2.42
 5 7 0 14.02 0.73
 5 7 1 0.03 0.27
 6 -11 0 23.01 2.11
 6 -11 1 6.53 1.51
 6 -11 2 1.95 1.28
 6 -11 3 4.03 1.64
 6 -11 5 1.49 1.59
 6 -10 -3 108.35 3.32
 6 -10 -2 66 2.81
 6 -10 -1 54.12 2.7
 6 -10 0 -0.03 0.96
 6 -10 1 0.35 1.25
 6 -10 2 134.29 4.64
 6 -10 3 3.69 1.64
 6 -10 4 27.58 2.89
 6 -10 5 4.47 1.91
 6 -10 6 2.01 1.86
 6 -9 -6 46.29 2.15
 6 -9 -5 -0.11 0.7
 6 -9 -4 58.05 2.46
 6 -9 -3 34.15 2.1
 6 -9 -2 3.51 1.11
 6 -9 -1 5.72 1.32
 6 -9 0 52.23 2.7
 6 -9 1 33 2.36
 6 -9 2 19.77 2.45
 6 -9 3 50.56 3.38
 6 -9 5 99.54 4.76
 6 -9 6 30.17 3.48
 6 -9 7 0.16 1.93
 6 -8 -5 8.53 1.16
 6 -8 -4 146.1 3.66
 6 -8 -3 68.88 2.7
 6 -8 -2 0.39 1
 6 -8 -1 16.02 1.82
 6 -8 1 7.05 1.47
 6 -8 3 75.56 3.7
 6 -8 5 0.58 1.61
 6 -8 6 22.93 2.94
 6 -8 7 12.95 2.53
 6 -7 -2 8.09 1.35
 6 -7 -1 91.63 3.21
 6 -7 0 53.49 2.71
 6 -7 1 -0.03 0.96
 6 -7 2 2.35 1.3
 6 -7 3 63.45 3.4
 6 -7 4 125.24 4.82
 6 -7 7 7.75 2.17
 6 -7 8 2.42 2.03
 6 -6 -1 5.59 1.18
 6 -6 0 -0.44 1.02
 6 -6 1 39.18 2.36
 6 -6 2 44.37 2.66
 6 -6 3 39.32 2.83
 6 -6 4 17.45 2.26
 6 -6 5 78.54 4.11
 6 -6 6 15.6 2.68
 6 -6 7 18.8 2.97
 6 -6 8 7.59 2.27
 6 -5 0 6.29 1.26
 6 -5 1 154.9 4.29
 6 -5 2 4.73 1.33
 6 -5 5 0.35 1.4
 6 -5 7 3.07 1.73
 6 -5 8 131.77 5.87
 6 -5 9 0.97 2.04
 6 -4 1 -0.16 0.9
 6 -4 2 0.8 0.96
 6 -4 3 0.89 1.22
 6 -4 4 181.37 5.42
 6 -4 5 21.73 2.37
 6 -4 7 4.6 1.85
 6 -4 8 28.17 3.06
 6 -3 -2 143.24 3.38
 6 -3 2 42.23 2.51
 6 -3 3 15.82 1.83
 6 -3 4 3.14 1.33
 6 -3 5 8.22 1.78
 6 -3 6 51.29 3.54
 6 -3 7 1.24 1.84
 6 -3 8 10.9 2.5
 6 -3 9 47.38 4.06
 6 -2 -1 550.99 6.66
 6 -2 2 15.81 1.75
 6 -2 3 8.99 1.56
 6 -2 4 10.2 1.73
 6 -2 5 31.18 2.68
 6 -2 6 126.55 4.91
 6 -2 7 11.04 2.36
 6 -2 8 10.14 2.46
 6 -2 9 4.59 2.12
 6 -1 -1 78.22 2.5
 6 -1 0 5.99 1.01
 6 -1 3 24.26 1.97
 6 -1 4 30.32 2.37
 6 -1 5 2.93 1.52
 6 -1 6 11.3 2.02
 6 -1 7 47.67 3.51
 6 -1 9 -0.31 1.62
 6 0 -1 -0.37 0.57
 6 0 0 57.34 2.26
 6 0 3 0.32 0.91
 6 0 4 10.6 1.61
 6 0 5 -0.68 1.13
 6 0 7 2.01 1.69
 6 0 8 15.98 2.61
 6 0 9 3.09 1.86
 6 1 -1 74.76 2.35
 6 1 0 4.31 0.92
 6 1 1 171.28 3.88
 6 1 3 24.38 1.89
 6 1 4 28.32 2.14
 6 1 5 1.81 1.22
 6 1 6 9.18 1.82
 6 1 7 49.46 3.37
 6 1 8 0.42 1.42
 6 1 9 -1.08 1.43
 6 2 -1 553.67 6.05
 6 2 0 15.63 1.38
 6 2 1 38.06 1.91
 6 2 4 8.41 1.56
 6 2 5 32.9 2.38
 6 2 7 8.17 2
 6 2 8 8.4 1.96
 6 3 0 534.95 6.12
 6 3 1 1.53 0.85
 6 3 4 3.7 1.13
 6 3 5 6.93 1.59
 6 3 6 47.75 2.96
 6 3 7 -1.17 0.99
 6 3 8 12.39 2.18
 6 4 -1 179.04 3.33
 6 4 0 329.58 4.69
 6 4 1 1.22 0.84
 6 4 2 0.67 0.78
 6 4 4 178.4 4.45
 6 4 5 24.41 2.09
 6 4 6 17.03 2.12
 6 4 7 3.27 1.41
 6 5 -1 0.36 0.57
 6 5 1 148.54 3.21
 6 5 2 3.55 0.84
 6 5 4 23.53 1.84
 6 5 5 0.97 0.95
 6 5 6 0.91 1.03
 6 6 -2 49.42 1.64
 6 6 -1 6.33 0.78
 6 6 0 1.51 0.6
 6 6 1 37.93 1.61
 6 6 3 38.07 1.86
 6 7 -2 8.31 0.8
 6 7 -1 85.77 1.97
 6 7 0 54.33 1.62
 7 -11 -1 26.92 2.33
 7 -11 0 15.12 2.08
 7 -11 1 76.07 3.74
 7 -11 2 23.14 2.56
 7 -11 3 9.14 1.98
 7 -11 4 1.35 1.73
 7 -10 -5 213.71 4.75
 7 -10 -4 1.12 1.06
 7 -10 -1 23.04 2.11
 7 -10 0 3.71 1.61
 7 -10 1 9.6 1.84
 7 -10 3 6.53 2.03
 7 -10 4 0.93 1.53
 7 -10 5 10.97 2.29
 7 -9 -7 17.82 1.65
 7 -9 -6 0.85 0.88
 7 -9 -5 36.26 2.14
 7 -9 -4 0.75 0.94
 7 -9 -2 25.18 2.18
 7 -9 -1 35.62 2.43
 7 -9 1 10.78 1.95
 7 -9 3 7.1 1.83
 7 -9 5 17.39 2.69
 7 -8 -6 51.83 2.53
 7 -8 -4 18.61 1.86
 7 -8 -3 -0.12 0.95
 7 -8 -2 0.71 1.01
 7 -8 -1 0.87 1.23
 7 -8 0 4.95 1.36
 7 -8 1 41.92 2.84
 7 -8 2 27.15 2.56
 7 -8 3 204.42 6.21
 7 -8 4 -0.75 1.79
 7 -8 5 3.35 1.75
 7 -8 6 14.15 2.83
 7 -7 -5 3.29 1.18
 7 -7 -4 2.8 1.13
 7 -7 -3 -0.47 0.95
 7 -7 -1 16.44 2.02
 7 -7 0 0.99 1.15
 7 -7 1 115.11 4.33
 7 -7 2 81.65 3.79
 7 -7 3 1.41 1.42
 7 -7 4 12.3 2.26
 7 -7 5 -0.29 1.58
 7 -7 6 6.5 2.25
 7 -7 7 24.3 3.26
 7 -6 -4 47.83 2.35
 7 -6 -3 202.1 4.63
 7 -6 -2 19.22 1.9
 7 -6 -1 155.5 4.42
 7 -6 0 42.51 2.57
 7 -6 1 92.31 3.84
 7 -6 2 61.9 3.42
 7 -6 3 53.64 3.43
 7 -6 4 7.4 1.94
 7 -6 5 16.36 2.61
 7 -6 6 38.06 3.53
 7 -6 7 43.12 3.87
 7 -5 -3 0.65 0.82
 7 -5 -2 118.46 3.64
 7 -5 3 -0.71 1.17
 7 -5 4 11.54 2.07
 7 -5 6 -0.42 1.69
 7 -5 8 8.61 2.44
 7 -4 -3 26.11 1.77
 7 -4 -2 45.23 2.36
 7 -4 -1 59.21 2.76
 7 -4 1 3.54 1.17
 7 -4 2 21.44 2.12
 7 -4 4 2.63 1.42
 7 -4 6 38.89 3.5
 7 -4 7 -0.13 1.76
 7 -3 -1 106.8 3.46
 7 -3 1 6.54 1.41
 7 -3 2 49.54 2.74
 7 -3 3 24.5 2.23
 7 -3 4 2.15 1.36
 7 -3 6 56.29 4
 7 -3 7 2.41 1.88
 7 -2 1 13.65 1.65
 7 -2 3 3.43 1.23
 7 -2 4 2.39 1.31
 7 -2 5 19.55 2.48
 7 -2 6 45.43 3.6
 7 -2 7 -0.99 1.88
 7 -2 8 2.95 2.09
 7 -1 0 1.66 0.91
 7 -1 1 6.41 1.29
 7 -1 3 3.89 1.26
 7 -1 4 1.36 1.22
 7 -1 5 53.17 3.36
 7 -1 6 42.37 3.45
 7 -1 7 13.52 2.36
 7 -1 8 4.41 1.99
 7 -1 9 8.04 2.36
 7 0 1 0.25 0.82
 7 0 2 17.44 1.78
 7 0 5 -0.81 1.41
 7 0 6 47.07 3.41
 7 0 7 -0.82 1.76
 7 0 9 1.73 1.92
 7 1 1 5.53 1.21
 7 1 2 41.29 2.43
 7 1 3 4.56 1.34
 7 1 4 2.3 1.29
 7 1 5 53.9 3.4
 7 1 6 36.45 3.15
 7 1 7 13.55 2.32
 7 1 8 4.45 1.86
 7 2 3 3.15 1.18
 7 2 4 1.62 1.22
 7 2 6 42.4 3
 7 2 8 4.83 1.72
 7 3 -2 158.21 3.52
 7 3 3 24.41 2.04
 7 3 4 0.18 1.01
 7 3 5 11.74 1.91
 7 3 6 56.99 3.41
 7 3 7 1.88 1.48
 7 3 8 2.98 1.78
 7 4 -1 54.93 2.15
 7 4 2 18.39 1.74
 7 4 3 103.64 3.52
 7 4 4 0.99 1.02
 7 4 5 39.73 2.75
 7 4 6 35.01 2.77
 7 4 7 1.03 1.31
 7 5 -2 109.81 2.84
 7 5 -1 29.34 1.64
 7 5 0 24.95 1.65
 7 5 3 -0.45 0.76
 7 5 5 6.13 1.49
 7 6 -1 159.27 3.33
 7 6 0 42.44 1.88
 7 6 3 55 2.46
 7 7 -3 -0.29 0.48
 7 7 -2 222.23 3.61
 7 7 -1 16.32 1.14
 8 -11 -1 1.03 1.39
 8 -11 0 22.64 2.69
 8 -11 1 7.89 2.04
 8 -11 2 40.43 3.3
 8 -10 -6 20.33 1.95
 8 -10 -5 81.2 3.36
 8 -10 -3 -0.13 1.09
 8 -10 -2 5.09 1.46
 8 -10 -1 24.53 2.52
 8 -10 0 86.74 4.07
 8 -10 1 2.27 1.53
 8 -10 2 13.32 2.41
 8 -10 3 55.17 3.81
 8 -9 -8 74.15 3.12
 8 -9 -7 178.12 4.68
 8 -9 -6 63.94 3.05
 8 -9 -5 23.87 2.18
 8 -9 -4 1.77 1.18
 8 -9 -3 0.36 1.09
 8 -9 -2 15.07 1.94
 8 -9 -1 0.94 1.25
 8 -9 0 85.21 4.11
 8 -9 1 61.8 3.72
 8 -9 3 2.95 1.96
 8 -8 -7 7.33 1.59
 8 -8 -6 0.6 1.04
 8 -8 -4 65.65 3.15
 8 -8 -2 38.82 2.8
 8 -8 -1 12.16 1.93
 8 -8 0 -0.02 1.22
 8 -8 1 16.87 2.31
 8 -8 2 3.16 1.86
 8 -8 3 1.11 1.65
 8 -8 4 26.94 3.25
 8 -8 5 1.22 2.18
 8 -7 -5 31.5 2.28
 8 -7 -4 77.24 3.34
 8 -7 -3 138.13 4.34
 8 -7 -2 0.54 1.19
 8 -7 -1 9.44 1.71
 8 -7 0 1.65 1.57
 8 -7 1 39.24 3.08
 8 -7 2 6.95 1.88
 8 -7 3 9.77 2.22
 8 -7 4 -0.65 1.72
 8 -7 5 40.45 3.86
 8 -6 -5 116.4 3.76
 8 -6 -4 6.97 1.48
 8 -6 -3 -0.38 1
 8 -6 -2 9.63 1.65
 8 -6 -1 343.62 7
 8 -6 0 6.94 1.85
 8 -6 1 10.54 1.87
 8 -6 2 1.33 1.46
 8 -6 4 23.71 3.07
 8 -6 6 1.26 1.98
 8 -5 -4 -0.37 0.88
 8 -5 -3 69.33 3.04
 8 -5 -1 3.07 1.23
 8 -5 0 -0.13 1.04
 8 -5 1 39.06 2.84
 8 -5 2 4.44 1.71
 8 -5 4 10.83 2.23
 8 -5 5 48.08 3.71
 8 -5 6 27.44 3.21
 8 -4 -3 149.01 4.21
 8 -4 -2 17.29 1.94
 8 -4 -1 80.3 3.45
 8 -4 0 41.21 2.66
 8 -4 1 20.05 2.16
 8 -4 2 6.8 1.72
 8 -4 3 1.53 1.56
 8 -4 4 7.62 2.03
 8 -4 5 9.17 2.31
 8 -4 7 29.2 3.47
 8 -3 -3 163.5 4.33
 8 -3 0 115.15 4.04
 8 -3 3 48.32 3.26
 8 -3 5 62.26 3.99
 8 -3 6 9.7 2.52
 8 -3 7 13.67 2.82
 8 -2 -2 1.97 1.03
 8 -2 0 1.2 1.03
 8 -2 1 4.9 1.37
 8 -2 2 39.15 2.91
 8 -2 3 215.61 6.19
 8 -2 4 1.07 1.48
 8 -2 5 -0.65 1.49
 8 -2 6 3.22 1.91
 8 -1 -2 -0.33 0.81
 8 -1 0 0.52 0.96
 8 -1 2 104.29 4.05
 8 -1 3 5.53 1.67
 8 -1 4 59.22 3.56
 8 -1 5 8.33 2.04
 8 -1 6 47.15 3.8
 8 -1 7 8.69 2.36
 8 0 -2 13.33 1.6
 8 0 -1 0.63 0.92
 8 0 1 0.68 1.1
 8 0 2 0.69 1.14
 8 0 4 215.89 6.25
 8 0 6 7.82 2.09
 8 0 7 0.45 1.79
 8 0 8 27.92 3.48
 8 1 -2 -0.5 0.78
 8 1 -1 137.43 3.89
 8 1 0 -0.75 0.99
 8 1 1 55.24 2.9
 8 1 2 108.65 4.04
 8 1 3 3.63 1.38
 8 1 4 62.58 3.6
 8 1 5 6.33 1.9
 8 1 6 50.98 3.59
 8 1 7 8.92 2.41
 8 1 8 6.25 2.02
 8 2 -2 2.42 1.08
 8 2 -1 16.41 1.66
 8 2 0 2.48 1.1
 8 2 1 3.99 1.31
 8 2 2 40.79 2.68
 8 2 3 211.65 5.65
 8 2 5 -0.63 1.23
 8 2 6 3.06 1.68
 8 2 7 2.57 1.74
 8 2 8 -0.2 1.5
 8 3 -2 2.27 0.87
 8 3 -1 28.91 2.06
 8 3 2 24.85 2.21
 8 3 3 46.43 2.92
 8 3 4 13.97 2.01
 8 3 5 57.84 3.43
 8 3 6 10.07 1.93
 8 3 7 14.12 2.29
 8 4 -1 77.3 2.86
 8 4 0 32.81 2.13
 8 4 1 16.9 1.78
 8 4 2 6.4 1.33
 8 4 3 1.1 1.09
 8 4 4 3.9 1.37
 8 4 5 5.51 1.49
 8 4 6 54.02 3.29
 8 5 1 43.39 2.25
 8 5 2 4.53 1.28
 8 5 3 60.46 2.92
 8 5 4 10.06 1.76
 8 6 1 11.86 1.48
 9 -11 0 10 2.03
 9 -10 -6 29.7 2.44
 9 -10 -5 9.57 1.81
 9 -10 -4 6.13 1.75
 9 -10 -3 1.23 1.33
 9 -10 -2 56.9 3.38
 9 -10 -1 5.55 1.79
 9 -10 0 41.96 3.34
 9 -10 1 0.37 1.5
 9 -9 -9 13.64 1.96
 9 -9 -8 3.56 1.3
 9 -9 -7 131.84 4.44
 9 -9 -6 4.76 1.5
 9 -9 -5 12.45 1.85
 9 -9 -4 8.62 1.88
 9 -9 -3 0.57 1.25
 9 -9 -2 37.6 3.03
 9 -9 -1 2.11 1.58
 9 -9 0 11.46 2.16
 9 -9 1 27.75 3.1
 9 -9 2 20.37 2.69
 9 -8 -8 45.36 2.91
 9 -8 -7 1.13 1.38
 9 -8 -6 25.16 2.35
 9 -8 -5 36.21 2.72
 9 -8 -4 14.1 2.04
 9 -8 -2 21.72 2.68
 9 -8 -1 6.55 2.01
 9 -8 0 2.25 1.69
 9 -8 1 16.92 2.52
 9 -8 3 54.25 4.13
 9 -7 -7 1.2 1.24
 9 -7 -6 63.22 3.22
 9 -7 -4 33.74 2.49
 9 -7 -3 4.1 1.4
 9 -7 -2 0.37 1.23
 9 -7 -1 19.14 2.4
 9 -7 0 63.2 3.81
 9 -7 1 1.61 1.71
 9 -7 2 22.46 2.93
 9 -7 3 15.75 2.59
 9 -7 4 8.84 2.36
 9 -6 -6 1.66 1.35
 9 -6 -4 19.34 2.32
 9 -6 -2 16.07 2.14
 9 -6 -1 10.16 2
 9 -6 0 1.03 1.52
 9 -6 2 3.86 1.79
 9 -6 3 1.1 1.62
 9 -6 4 26.95 3.18
 9 -6 5 79.74 4.92
 9 -5 -5 17.19 1.83
 9 -5 -4 3.82 1.31
 9 -5 -3 60.83 3.22
 9 -5 -2 24.89 2.41
 9 -5 -1 2.44 1.39
 9 -5 0 18.45 2.42
 9 -5 1 9.54 1.95
 9 -5 2 42 3.23
 9 -5 4 92.05 5.07
 9 -4 -4 31.95 2.41
 9 -4 -2 2.11 1.18
 9 -4 -1 2.28 1.25
 9 -4 0 65.82 3.66
 9 -4 2 6.13 2.13
 9 -4 3 55.38 3.7
 9 -4 4 35.06 3.33
 9 -4 5 -0.3 1.75
 9 -3 -4 8.28 1.45
 9 -3 -3 1.28 1.03
 9 -3 -1 39.59 2.67
 9 -3 1 37.25 2.96
 9 -3 2 1.61 1.71
 9 -3 3 36.44 3.1
 9 -3 4 45.71 3.76
 9 -3 5 1.9 2.22
 9 -3 6 13.24 2.81
 9 -2 -2 27.06 2.29
 9 -2 -1 64.06 3.3
 9 -2 2 0.38 1.42
 9 -2 3 11.39 2.29
 9 -2 4 6.59 1.97
 9 -2 5 13.96 2.69
 9 -2 6 64.79 4.55
 9 -1 -3 35.03 2.32
 9 -1 -1 3.34 1.38
 9 -1 0 0.96 1.13
 9 -1 3 2.47 1.62
 9 -1 4 28.73 2.86
 9 -1 5 -0.93 1.67
 9 -1 6 6.46 2.1
 9 0 -3 -0.59 0.82
 9 0 -1 0.36 1.03
 9 0 0 6.06 1.53
 9 0 1 0.65 1.17
 9 0 2 1.84 1.44
 9 0 3 0.97 1.56
 9 0 4 12.73 2.34
 9 0 6 5.14 2.07
 9 1 -3 35.03 2.3
 9 1 -2 5.38 1.3
 9 1 -1 0.78 1.02
 9 1 0 1.71 1.17
 9 1 2 106.69 4.27
 9 1 5 -0.52 1.46
 9 1 6 3.92 2.04
 9 2 -3 103.38 3.56
 9 2 -2 28.01 2.19
 9 2 -1 56.05 2.92
 9 2 0 52.18 2.96
 9 2 1 -1.27 1.2
 9 2 2 0.62 1.24
 9 2 3 10.34 1.99
 9 2 4 4.34 1.95
 9 2 5 16.06 2.54
 9 2 6 66.66 4.05
 9 3 -3 1.12 0.91
 9 3 -2 53.26 2.73
 9 3 -1 41.22 2.5
 9 3 0 100.06 3.68
 9 3 1 36.34 2.48
 9 3 2 1.63 1.26
 9 3 5 1.74 1.68
 9 3 6 14.01 2.2
 9 4 -3 86.54 3.15
 9 4 -2 1.61 0.98
 9 4 -1 -0.18 1.14
 9 4 0 67.96 2.99
 9 4 1 87 3.54
 9 4 2 6.59 1.63
 9 4 3 56.43 3.09
 9 4 5 1.97 1.5
 9 5 -3 59.54 2.66
 9 5 -2 22.11 1.84
 9 5 -1 0.48 0.93
 9 5 0 21.63 1.82
 9 5 1 7.85 1.54
 9 5 2 38.11 2.53
 9 5 3 22.58 2.27
 9 6 -4 21.12 1.74
 9 6 -3 45.38 2.29
 9 6 -2 15.34 1.58
 9 6 -1 8.61 1.27
 9 6 0 0.5 0.86
 9 7 -4 29.98 1.84
 9 7 -3 2.75 0.92
 10 -10 -6 -1.43 1.05
 10 -10 -5 1.86 1.48
 10 -10 -4 18.06 2.49
 10 -10 -3 7.46 1.88
 10 -10 -2 64.75 3.78
 10 -10 -1 91.63 4.44
 10 -9 -9 3.83 1.5
 10 -9 -8 4.25 1.51
 10 -9 -7 0.24 1.15
 10 -9 -6 4.12 1.51
 10 -9 -5 -0.49 1.13
 10 -9 -4 -0.23 1.27
 10 -9 -3 1.47 1.55
 10 -9 -2 0.39 1.42
 10 -9 0 36.08 3.34
 10 -8 -9 37.13 2.86
 10 -8 -8 79.19 3.8
 10 -8 -7 5.1 1.73
 10 -8 -6 3.28 1.52
 10 -8 -5 21.41 2.63
 10 -8 -4 28.5 2.62
 10 -8 -3 23.43 2.81
 10 -8 -2 -0.7 1.31
 10 -8 -1 -0.16 1.46
 10 -8 0 -0.43 1.53
 10 -8 1 6.26 2.11
 10 -7 -8 5.38 1.74
 10 -7 -7 94.36 4.07
 10 -7 -6 13.33 2.18
 10 -7 -5 39.04 2.92
 10 -7 -4 -0.21 1.38
 10 -7 -3 6.29 1.77
 10 -7 -2 38.9 3.02
 10 -7 -1 3.65 1.77
 10 -7 0 0.4 1.9
 10 -7 1 -0.9 1.63
 10 -7 2 107.84 5.21
 10 -6 -7 52.46 3.26
 10 -6 -6 0.19 1.23
 10 -6 -5 7.56 1.82
 10 -6 -4 14.12 2.08
 10 -6 -3 34.02 2.79
 10 -6 -2 27.47 2.68
 10 -6 -1 5.87 1.83
 10 -6 1 38.67 3.28
 10 -6 3 2.3 2.02
 10 -5 -6 24.73 2.42
 10 -5 -4 13.78 2.12
 10 -5 -3 3.66 1.63
 10 -5 -2 80.52 4.11
 10 -5 -1 41.99 3.18
 10 -5 2 3.64 1.8
 10 -5 3 1.44 1.88
 10 -4 -5 43.91 2.86
 10 -4 -4 0.45 1.21
 10 -4 -3 2.05 1.36
 10 -4 -2 41.71 3.18
 10 -4 -1 7.91 1.88
 10 -4 0 51.51 3.55
 10 -4 1 3.63 1.95
 10 -4 2 109.43 5.09
 10 -4 3 43.16 3.54
 10 -3 -4 3.1 1.28
 10 -3 -3 20.47 2.16
 10 -3 -2 282.43 6.86
 10 -3 -1 25.38 2.75
 10 -3 0 12.91 2.26
 10 -3 1 -0.24 1.54
 10 -3 2 4.72 1.92
 10 -3 3 57.01 3.88
 10 -3 4 21.62 3.12
 10 -2 -4 157.56 4.85
 10 -2 -3 9.18 1.75
 10 -2 -2 29.4 2.52
 10 -2 -1 89.36 4.07
 10 -2 2 2.82 1.69
 10 -2 3 7.77 2.38
 10 -2 4 6 2.13
 10 -1 -3 12.65 1.98
 10 -1 -2 93.98 4.03
 10 -1 -1 7.92 1.87
 10 -1 0 7.43 1.82
 10 -1 2 24.63 2.68
 10 -1 3 3.91 1.96
 10 -1 4 7.19 2.16
 10 -1 5 2.61 1.98
 10 0 -4 34.67 2.39
 10 0 -3 -0.75 1.02
 10 0 -1 0.53 1.18
 10 0 0 140.25 4.95
 10 0 1 0.3 1.4
 10 0 2 114.1 4.79
 10 0 3 1.81 1.68
 10 0 4 17.48 2.77
 10 0 5 2.74 1.85
 10 1 -4 55.91 3.01
 10 1 -2 95.83 3.92
 10 1 -1 6.01 1.56
 10 1 0 5.61 1.78
 10 1 1 22.92 2.64
 10 1 3 3.12 1.86
 10 1 4 5.9 2.02
 10 2 -4 152.86 4.58
 10 2 -3 7.18 1.56
 10 2 -2 33.04 2.47
 10 2 -1 88.47 3.82
 10 2 1 152.58 5.2
 10 2 2 4.36 1.71
 10 2 3 10.54 2.07
 10 2 4 6.1 2.06
 10 2 5 31.39 3.23
 10 3 -4 2.61 1.14
 10 3 -3 24.51 2.26
 10 3 -2 275.61 6.09
 10 3 -1 30.14 2.37
 10 3 0 12.29 2.03
 10 3 1 0.8 1.28
 10 3 2 5.03 1.78
 10 3 3 55.17 3.52
 10 3 4 24.07 2.9
 10 3 5 -0.65 1.72
 10 4 -4 0.47 1
 10 4 -3 1.77 1.14
 10 4 -1 5.95 1.52
 10 4 0 51.11 3.04
 10 4 1 6.5 1.64
 10 4 2 102.88 4.14
 10 4 3 41.12 3.02
 10 5 -4 16.52 1.9
 10 5 -3 3.81 1.2
 10 5 -2 78.39 3.25
 10 5 -1 41.92 2.64
 10 5 0 10.87 1.71
 10 5 1 7.8 1.64
 10 6 -5 7.38 1.5
 10 6 -4 17.97 1.9
 10 6 -3 28.86 2.07
 10 6 -2 28.61 2.14
 10 7 -5 30.61 2.09
 11 -9 -9 5.2 1.62
 11 -9 -8 6.62 1.66
 11 -9 -7 14.32 2.38
 11 -9 -6 22.48 2.78
 11 -9 -4 59.26 3.64
 11 -9 -3 1.6 1.63
 11 -9 -2 2.64 1.82
 11 -8 -10 5.15 1.84
 11 -8 -9 1.83 1.57
 11 -8 -7 15.49 2.25
 11 -8 -5 2.18 1.54
 11 -8 -4 49.15 3.57
 11 -8 -3 39.04 3.41
 11 -8 -2 -0.6 1.44
 11 -8 -1 0.32 1.71
 11 -7 -9 0.67 1.6
 11 -7 -8 9.71 1.9
 11 -7 -7 74.69 4.01
 11 -7 -6 50.29 3.45
 11 -7 -5 12.06 2.35
 11 -7 -4 -0.82 1.36
 11 -7 -3 -0.28 1.55
 11 -7 -2 2.5 1.7
 11 -7 -1 8.42 2.38
 11 -7 0 6.22 2.16
 11 -6 -7 4.73 1.67
 11 -6 -6 -0.67 1.3
 11 -6 -4 7.63 1.94
 11 -6 -3 23.73 2.95
 11 -6 -2 4.41 1.84
 11 -6 -1 20 2.7
 11 -6 0 9.79 2.29
 11 -6 1 7.87 2.7
 11 -5 -7 1.5 1.47
 11 -5 -6 0.91 1.49
 11 -5 -5 0.62 1.44
 11 -5 -4 1.23 1.54
 11 -5 -3 1.15 1.5
 11 -5 -1 15.77 2.53
 11 -5 0 1.93 1.69
 11 -5 1 8.31 2.29
 11 -5 2 109.75 5.53
 11 -4 -6 3.52 1.46
 11 -4 -5 0.04 1.49
 11 -4 -4 342.64 7.83
 11 -4 -3 34.15 2.95
 11 -4 -2 9.52 2.1
 11 -4 -1 5.49 1.94
 11 -4 0 0.1 1.66
 11 -4 1 8.22 2.26
 11 -4 2 -0.17 1.77
 11 -3 -6 82.74 3.94
 11 -3 -5 1.68 1.45
 11 -3 -4 4.89 1.71
 11 -3 -3 10.56 2.13
 11 -3 -2 72.02 4.08
 11 -3 1 79.7 4.56
 11 -2 -6 39.86 2.83
 11 -2 -5 1.99 1.45
 11 -2 -4 81.93 3.92
 11 -2 -3 47.27 3.17
 11 -2 -2 6.68 1.95
 11 -2 0 73.86 4.28
 11 -2 1 41.43 3.58
 11 -2 2 -0.53 1.51
 11 -2 3 3.22 1.98
 11 -1 -5 9.48 2
 11 -1 -4 0.67 1.3
 11 -1 -3 13.16 2.04
 11 -1 -2 10.66 2.21
 11 -1 -1 137.87 5.25
 11 -1 0 3.75 1.75
 11 -1 1 -0.82 1.46
 11 -1 2 79.53 4.54
 11 -1 3 45.27 3.72
 11 0 -5 -1.04 1.13
 11 0 -3 -0.31 1.6
 11 0 -2 64.64 3.66
 11 0 -1 1.1 1.5
 11 0 0 103.99 4.77
 11 0 1 -0.11 1.56
 11 0 2 0.21 1.54
 11 0 3 1.64 2.01
 11 1 -5 10.7 1.88
 11 1 -4 2.2 1.38
 11 1 -2 8.58 1.87
 11 1 -1 143.93 5.16
 11 1 0 3.07 1.57
 11 1 1 0.53 1.42
 11 1 2 82.62 4.45
 11 2 -5 -0.55 1.12
 11 2 -4 76.07 3.57
 11 2 -3 44.43 2.93
 11 2 -2 7.75 1.78
 11 2 -1 79.45 3.92
 11 2 1 40.97 3.13
 11 2 2 1.2 1.57
 11 2 3 1.09 1.83
 11 3 -5 1.01 1.18
 11 3 -4 4.55 1.6
 11 3 -3 9.75 1.84
 11 3 -2 71.02 3.56
 11 3 -1 97.97 4.14
 11 3 0 101.86 4.37
 11 3 1 75.65 3.97
 11 3 2 33.01 3.02
 11 3 3 1.4 1.56
 11 4 -5 1.55 1.23
 11 4 -4 330 6.9
 11 4 -3 33.64 2.53
 11 4 -2 6.51 1.76
 11 4 -1 6.46 1.52
 11 4 0 0.87 1.37
 11 4 1 9.47 1.87
 11 5 -5 -0.09 1.27
 11 5 -4 0.02 1.13
 11 5 -3 0.71 1.18
 11 5 -2 31.8 2.45
 11 5 -1 12.56 1.91
 11 6 -6 0.38 1.04
 11 6 -5 32.73 2.29
 11 6 -4 5.28 1.38
 12 -8 -7 60.85 3.84
 12 -8 -6 1.38 1.57
 12 -8 -5 2.18 1.93
 12 -7 -9 49.83 3.42
 12 -7 -8 0 1.42
 12 -7 -7 42.59 3.45
 12 -7 -6 9.19 2.2
 12 -7 -5 -1.26 1.51
 12 -7 -4 0.67 1.77
 12 -7 -3 0.82 1.79
 12 -6 -8 27.11 2.69
 12 -6 -7 8.12 2.27
 12 -6 -6 -0.65 1.56
 12 -6 -5 2 1.94
 12 -6 -4 9.07 2.16
 12 -6 -2 34.17 3.49
 12 -5 -8 10.83 2.07
 12 -5 -7 38.11 3.08
 12 -5 -6 152.55 5.57
 12 -5 -5 5.37 1.78
 12 -5 -4 20.31 2.85
 12 -5 -3 1.45 1.68
 12 -5 -2 -2.06 1.85
 12 -5 -1 0.88 1.79
 12 -4 -8 14.44 2.25
 12 -4 -7 9.48 2.26
 12 -4 -6 12.14 2.42
 12 -4 -3 34.24 3.07
 12 -4 -2 11.68 2.33
 12 -4 -1 7.6 2.34
 12 -4 0 16.02 3.02
 12 -3 -7 9.55 2.23
 12 -3 -6 55.77 3.69
 12 -3 -5 7.66 2.02
 12 -3 -4 28.22 2.92
 12 -3 -3 6.66 2.26
 12 -3 -2 1.99 2
 12 -3 -1 23.8 3.15
 12 -3 0 4.34 2.14
 12 -2 -7 13.47 2.19
 12 -2 -6 17.17 2.39
 12 -2 -5 -0.52 1.46
 12 -2 -4 1.47 1.73
 12 -2 -3 103.35 4.88
 12 -2 -2 64.75 4.12
 12 -2 -1 -0.39 1.95
 12 -2 0 5.92 2.18
 12 -2 1 14.64 2.73
 12 -1 -6 12.93 2.15
 12 -1 -5 1.47 1.57
 12 -1 -2 94.77 4.63
 12 -1 -1 29.36 3.01
 12 -1 0 0.92 1.79
 12 -1 1 2.07 2.1
 12 0 -6 5.45 1.71
 12 0 -5 -1.2 1.24
 12 0 -3 2.76 1.68
 12 0 -2 11.84 2.41
 12 0 -1 -0.73 1.44
 12 0 1 -0.24 1.59
 12 1 -6 14.84 2.17
 12 1 -5 1.35 1.48
 12 1 -4 83.39 4.02
 12 1 -2 92.9 4.52
 12 1 -1 28.25 2.95
 12 1 0 0.2 1.55
 12 1 1 0.84 1.65
 12 2 -6 14.53 2.12
 12 2 -5 1.17 1.4
 12 2 -4 2 1.44
 12 2 -3 106.57 4.55
 12 2 -2 56.62 3.64
 12 2 -1 0.27 1.44
 12 2 0 5.09 1.79
 12 2 1 14.46 2.46
 12 3 -6 56.75 3.45
 12 3 -3 5.57 1.86
 12 3 -2 3.31 1.56
 12 3 -1 23.88 2.72
 12 3 0 1.34 1.52
 12 3 1 17.1 2.38
 12 4 -5 10.04 1.92
 12 4 -3 27.42 2.61
 12 4 -2 11.04 1.96
 12 4 -1 4.61 1.55
 12 4 0 18.26 2.46
 12 5 -7 33.98 2.69
 12 5 -6 151.08 4.79
 12 5 -5 5.47 1.69
 12 5 -4 20.54 2.3
 12 5 -3 -0.57 1.21
 12 6 -7 4.12 1.36
 12 6 -6 0.7 1.14
 13 -5 -8 -1.45 1.44
 13 -5 -7 4.57 2.25
 13 -5 -6 -0.02 1.65
 13 -5 -5 146.84 6
 13 -4 -9 9.55 2.21
 13 -4 -8 36.04 3.29
 13 -4 -7 18.22 2.76
 13 -4 -6 43.99 3.62
 13 -4 -4 10.44 2.32
 13 -3 -9 17.9 2.73
 13 -3 -7 1.56 1.96
 13 -3 -6 12.19 2.47
 13 -3 -5 14.1 2.35
 13 -3 -3 6.83 2.14
 13 -2 -7 37.81 3.21
 13 -2 -6 0.67 1.65
 13 -2 -5 1.32 2.04
 13 -2 -4 1.26 1.67
 13 -2 -3 55.91 3.98
 13 -2 -2 3.34 2.25
 13 -1 -8 6.92 1.88
 13 -1 -7 3.12 1.64
 13 -1 -6 24.54 3.06
 13 -1 -5 36.97 3.33
 13 -1 -4 15.61 2.69
 13 -1 -3 10.51 2.28
 13 -1 -2 5.15 2.03
 13 0 -7 0.34 1.59
 13 0 -6 109.16 4.95
 13 0 -5 1.11 1.59
 13 0 -4 66.82 3.96
 13 0 -3 -2.21 1.38
 13 0 -2 2.49 1.7
 13 1 -7 3.9 1.65
 13 1 -6 19.05 2.78
 13 1 -5 32.88 2.92
 13 1 -4 16.03 2.44
 13 1 -3 14.91 2.43
 13 1 -2 2.93 1.7
 13 1 -1 4.43 2.07
 13 2 -6 -0.86 1.68
 13 2 -5 0.93 1.64
 13 2 -4 -0.11 1.47
 13 2 -3 53.98 3.72
 13 2 -2 4.43 1.79
 13 2 -1 41.6 3.5
 13 3 -8 49.59 3.45
 13 3 -7 1.1 1.69
 13 3 -6 10.78 2.08
 13 3 -5 15.31 2.33
 13 3 -3 7.74 2.01
 13 4 -8 37.93 3
 13 4 -7 14.27 2.38
 13 4 -6 40.79 3.15
 13 4 -5 -0.91 1.27
 13 4 -4 6.07 1.69
 13 4 -3 3.25 1.59
 13 4 -2 11.67 2.09
 13 5 -8 2.79 1.48
 13 5 -7 5.51 1.56
 13 5 -6 -0.77 1.14
 13 5 -5 141.35 4.94
 -5 11 -4 6.41 2.59
 -5 12 10 27.61 4.07
 -5 13 -2 41.87 4.45
 -5 14 -1 1.13 2.92
 -5 14 0 -1.3 2.66
 -4 9 -5 2.83 1.61
 -4 11 -4 9.2 2.57
 -4 11 10 21.28 3.25
 -4 12 -4 69.73 4.65
 -4 12 9 -1.99 2.4
 -4 12 10 2.33 2.63
 -4 13 -2 26.7 3.72
 -4 13 -1 9.57 3.04
 -4 13 7 23.08 4.04
 -4 13 8 60.15 5.36
 -4 13 9 57.75 5.15
 -4 14 -1 4.21 3.1
 -4 14 1 3.89 2.97
 -4 14 3 0.47 2.68
 -4 14 4 1.47 3.11
 -4 14 5 -0.6 2.68
 -4 14 6 67.25 5.87
 -3 5 -6 41.86 1.79
 -3 6 -6 0.5 0.87
 -3 7 -6 -0.89 0.94
 -3 8 10 14.24 2.23
 -3 9 -5 92.02 4.05
 -3 9 10 -0.31 1.71
 -3 10 -4 10.1 2.39
 -3 10 10 34.08 3.53
 -3 11 -5 3.13 2.07
 -3 11 -4 71.68 4.44
 -3 11 -3 170.39 6.31
 -3 11 9 36.37 3.89
 -3 11 10 5.47 2.69
 -3 12 -5 77.86 4.76
 -3 12 -4 87.42 5.11
 -3 12 -2 2.26 2.21
 -3 12 6 2.08 2.51
 -3 12 7 28.68 4.09
 -3 12 8 -1.52 2.12
 -3 12 9 15.71 3.34
 -3 13 -4 0.51 2.68
 -3 13 -3 91 5.62
 -3 13 -2 9.29 3.25
 -3 13 -1 0.16 3
 -3 13 0 16.51 3.35
 -3 13 2 31.21 4.19
 -3 13 4 1.38 2.72
 -3 13 5 51.12 5.08
 -3 13 7 0.08 2.43
 -3 13 9 40.76 4.79
 -3 14 -4 16.16 3.23
 -3 14 -3 6.43 2.87
 -3 14 -2 22.12 3.85
 -3 14 0 8.17 3.2
 -3 14 1 -3.03 2.36
 -3 14 2 -2.31 3.03
 -3 14 3 2.52 3.43
 -3 14 4 36.79 4.42
 -3 14 5 47.75 4.79
 -3 14 6 0.18 3.05
 -3 15 0 62.05 5.97
 -3 15 1 31.44 4.87
 -3 15 2 1.8 3.21
 -2 4 -6 170.11 2.59
 -2 5 -6 1.14 0.74
 -2 6 -6 30.06 1.78
 -2 6 9 38.73 2.44
 -2 7 -6 19.11 1.84
 -2 7 9 16.01 2.17
 -2 8 9 48.99 3.29
 -2 9 -6 16.15 2.11
 -2 9 -4 18.11 2.41
 -2 9 8 12.57 2.69
 -2 9 9 8.86 2.16
 -2 10 -6 48.39 3.4
 -2 10 -5 95.26 4.54
 -2 10 -4 4.52 1.89
 -2 10 7 54.71 3.98
 -2 10 8 72.34 4.47
 -2 11 -6 5.98 2.15
 -2 11 -5 0.79 1.85
 -2 11 -4 3.06 2.04
 -2 11 -3 154.82 6.12
 -2 11 -2 13.32 2.61
 -2 11 -1 52.96 3.93
 -2 11 5 -0.93 2.09
 -2 11 6 6.5 2.63
 -2 11 8 -1.93 1.93
 -2 11 9 9.4 2.46
 -2 12 -5 125.57 5.68
 -2 12 -4 3.27 2.29
 -2 12 -3 2.92 2.19
 -2 12 -2 3.18 2.53
 -2 12 -1 62.64 4.82
 -2 12 0 0.78 2.14
 -2 12 1 3.13 2.68
 -2 12 2 20.41 3.4
 -2 12 3 2.97 2.81
 -2 12 4 2.85 2.62
 -2 12 5 4.28 2.83
 -2 12 6 11.55 3.53
 -2 12 7 34.65 4.01
 -2 12 8 9.4 2.76
 -2 13 -5 0.86 2.19
 -2 13 -4 8.94 2.84
 -2 13 -3 261.36 8.53
 -2 13 -2 1.26 2.65
 -2 13 -1 25.18 3.77
 -2 13 0 0.04 2.69
 -2 13 1 8.17 2.85
 -2 13 2 159.55 7.27
 -2 13 3 3.16 2.61
 -2 13 6 3.28 2.9
 -2 13 7 4 2.72
 -2 13 8 -0.61 2.3
 -2 13 9 2.38 2.77
 -2 14 -3 0.95 2.73
 -2 14 -2 130.69 6.71
 -2 14 -1 23.03 4.15
 -2 14 0 7.35 3.19
 -2 14 1 20.72 4.08
 -2 14 2 -1.14 2.54
 -2 14 3 41.2 5.36
 -2 14 4 14.85 3.61
 -2 14 5 20.5 4.06
 -2 14 6 1.86 2.83
 -2 14 7 6.13 3.26
 -2 15 -1 2.73 3.09
 -2 15 1 78.18 5.98
 -2 15 3 0.36 3.03
 -1 2 8 5.76 0.5
 -1 3 -5 10.51 0.79
 -1 3 8 137.71 2.53
 -1 4 -6 43.68 1.44
 -1 4 8 144.22 3.15
 -1 5 -6 0.3 0.69
 -1 5 -5 10.04 1.28
 -1 5 8 158.88 3.79
 -1 6 -7 0.97 0.79
 -1 6 -6 32.77 1.92
 -1 6 -5 73.73 2.73
 -1 6 8 45.88 2.54
 -1 6 9 121.95 3.64
 -1 7 -6 62.47 2.77
 -1 7 -5 16.65 1.97
 -1 7 -4 0.64 1.17
 -1 8 6 85.78 3.93
 -1 8 7 13.77 2.36
 -1 8 8 20.82 2.45
 -1 8 9 56.93 3.34
 -1 9 -6 -1.2 1.51
 -1 9 -4 0.69 1.75
 -1 9 8 56.39 3.72
 -1 10 -6 91.11 4.32
 -1 10 -5 2.51 1.69
 -1 10 -4 0.82 1.59
 -1 10 -3 7.5 2.1
 -1 10 -2 134.85 5.44
 -1 10 2 1.02 1.7
 -1 10 3 1.54 2.22
 -1 10 4 11.06 2.48
 -1 10 5 6.02 2.57
 -1 10 6 10.77 2.37
 -1 11 -6 1.21 1.9
 -1 11 -4 1.57 2.26
 -1 11 -3 39.47 3.8
 -1 11 -2 33.08 3.6
 -1 11 -1 8.53 2.77
 -1 11 0 4.25 2.41
 -1 11 1 28.65 3.04
 -1 11 2 51.94 3.84
 -1 11 4 22.3 3.25
 -1 11 7 35.49 4.29
 -1 11 9 2.67 2.41
 -1 12 -6 6.34 2.52
 -1 12 -4 2.55 2.33
 -1 12 -3 1.98 2.61
 -1 12 -2 -0.56 2.05
 -1 12 -1 20.29 3.47
 -1 12 1 15.16 2.98
 -1 12 3 59.12 4.84
 -1 12 4 2.23 2.69
 -1 12 6 -0.45 2.44
 -1 12 7 -1.55 2.11
 -1 13 -5 7.16 3.09
 -1 13 -4 25.64 3.6
 -1 13 -3 9.06 3
 -1 13 -2 3.02 2.7
 -1 13 -1 2.02 2.7
 -1 13 0 60.29 5.08
 -1 13 1 3.66 2.77
 -1 13 3 68.84 5.49
 -1 13 4 1.38 2.85
 -1 13 5 40.43 4.52
 -1 13 6 3.85 2.81
 -1 13 7 1.54 2.75
 -1 13 8 5.44 2.69
 -1 14 -5 15.51 3.31
 -1 14 -3 2.85 2.87
 -1 14 -2 -2.19 2.42
 -1 14 1 1.27 2.89
 -1 14 2 46.6 5.15
 -1 14 3 21.22 4.02
 -1 14 4 7.54 3.29
 -1 14 5 11.35 3.39
 -1 14 6 0.25 2.64
 -1 14 7 13.18 3.92
 -1 15 -3 30.89 4.72
 -1 15 -2 4.91 3.48
 -1 15 -1 17.63 3.86
 -1 15 0 5.19 3.21
 -1 15 1 47.35 5.52
 -1 15 3 10.6 3.57
 0 1 4 9.19 0.55
 0 2 -4 542.7 3.44
 0 2 5 61.07 1.48
 0 2 6 150.33 2.1
 0 3 -6 296.17 2.62
 0 3 -5 359.25 3.52
 0 3 -4 0.26 0.58
 0 3 -3 194.28 2.91
 0 3 5 353.87 4.19
 0 4 -7 63.9 1.45
 0 4 -4 450.17 5.03
 0 4 -3 1.53 0.77
 0 4 6 116.94 2.92
 0 4 7 65.11 2.2
 0 4 8 37.81 1.6
 0 5 -7 293.81 4.02
 0 5 -6 449.02 5.49
 0 5 -4 38.41 1.99
 0 5 6 458.37 6.38
 0 5 7 299.1 5.17
 0 5 8 0.27 0.81
 0 6 -7 14.17 1.43
 0 6 -6 140.92 3.59
 0 6 -5 493.91 6.75
 0 6 -4 8.21 1.38
 0 6 -3 415.13 6.36
 0 6 -2 117.94 3.47
 0 6 5 485.74 7.32
 0 6 6 143.04 4.08
 0 6 7 16.04 1.9
 0 6 8 111.47 3.52
 0 7 -7 36.06 2.19
 0 7 -5 4.41 1.29
 0 7 -4 322.6 6.2
 0 7 -3 52.07 2.8
 0 7 -2 120.47 3.9
 0 8 6 4.6 1.63
 0 8 7 18.13 2.35
 0 9 -7 111.15 4.21
 0 9 -6 13.98 2.12
 0 9 -5 29.25 2.77
 0 9 -4 1.23 1.59
 0 9 -3 106.68 4.57
 0 9 -2 3.77 1.67
 0 9 0 -0.74 1.39
 0 9 3 99.13 4.5
 0 9 4 2.51 1.93
 0 9 5 29.1 3.07
 0 9 6 13.01 2.52
 0 9 7 100.45 4.68
 0 10 -7 4.97 1.95
 0 10 -6 4.6 1.8
 0 10 -5 18.7 2.84
 0 10 -4 156.11 5.69
 0 10 -3 23.86 2.91
 0 10 -2 16.71 2.72
 0 10 -1 50.32 3.52
 0 10 1 50.58 3.49
 0 10 2 17.51 2.71
 0 10 4 153.38 5.98
 0 10 6 4.16 2.36
 0 10 8 15.8 2.75
 0 11 -7 1.57 1.94
 0 11 -6 9.15 2.65
 0 11 -3 81.46 4.69
 0 11 -2 1 1.92
 0 11 -1 6.1 2.35
 0 11 0 -0.51 1.82
 0 11 1 8.87 2.73
 0 11 2 0.56 1.87
 0 11 3 74.83 4.88
 0 11 5 16.46 2.91
 0 11 8 42.43 3.94
 0 12 -6 1.58 2.21
 0 12 -5 3.21 2.46
 0 12 -2 28.39 3.81
 0 12 -1 0.35 2.23
 0 12 0 211.89 7.78
 0 12 1 0.5 2.17
 0 12 3 89.13 5.46
 0 12 4 31.45 4.28
 0 12 5 3.35 2.61
 0 12 6 1.25 2.59
 0 12 8 13.99 3.01
 0 13 -6 16.02 3.21
 0 13 -5 14.02 3.41
 0 13 -3 10.09 2.98
 0 13 -2 28.79 3.91
 0 13 -1 44.91 4.34
 0 13 1 51.34 4.51
 0 13 2 25.58 3.84
 0 13 3 6.61 2.98
 0 13 4 5.43 2.87
 0 13 5 15.17 3.52
 0 13 7 5.8 2.78
 0 13 8 5.12 2.93
 0 14 -6 19.63 3.51
 0 14 -5 0.55 2.4
 0 14 -4 15.05 3.26
 0 14 -3 -0.72 2.74
 0 14 -2 37.3 4.32
 0 14 0 -0.05 2.55
 0 14 3 0.96 3.32
 0 14 5 2.58 3.03
 0 14 6 21.17 4.23
 0 15 -4 12.36 3.44
 0 15 -3 9.75 3.8
 0 15 -2 2.01 3.13
 0 15 -1 -1.94 3.35
 0 15 0 1.16 2.88
 0 15 1 0.79 3.58
 0 15 2 -1.68 2.84
 0 15 3 11.21 4.11
 1 0 0 0.06 0.33
 1 0 1 0.45 0.37
 1 1 -4 105.99 1.51
 1 1 -3 4570.14 9.68
 1 1 -2 9899.02 14.33
 1 1 -1 231.68 2.28
 1 1 0 352.29 2.77
 1 1 1 16.24 0.84
 1 1 2 941.55 4.55
 1 1 3 0.86 0.42
 1 1 4 32.1 0.85
 1 2 -5 395.2 3.32
 1 2 -3 739.68 4.94
 1 2 -2 376.96 3.6
 1 2 -1 124.02 2.19
 1 2 0 1222.93 6.49
 1 2 2 661.46 4.93
 1 2 3 358.76 3.69
 1 2 4 655.13 4.79
 1 2 5 259.93 2.9
 1 2 6 5.95 0.59
 1 3 -7 0.26 0.42
 1 3 -6 413.47 3.94
 1 3 -5 322.77 3.75
 1 3 -4 368.44 4.16
 1 3 -3 896.65 6.51
 1 3 -2 1215.19 7.55
 1 3 -1 690.66 5.81
 1 3 0 119.68 2.65
 1 3 1 177.29 3.13
 1 3 2 1728.66 9.38
 1 3 3 544.32 5.37
 1 3 4 588.1 5.58
 1 4 -7 18.94 1.19
 1 4 -5 52.16 1.91
 1 4 -3 1.44 0.88
 1 4 -1 326.02 4.71
 1 4 1 65.56 2.28
 1 4 2 281.17 4.43
 1 4 5 54.15 2.17
 1 4 6 46.54 1.98
 1 4 7 236.24 3.82
 1 5 -8 154.62 2.88
 1 5 -7 97.98 2.66
 1 5 -6 1.36 0.89
 1 5 -5 79.48 2.66
 1 5 -4 331.32 5.24
 1 5 -2 20.36 1.75
 1 5 -1 693.43 7.54
 1 5 3 93.76 3.07
 1 5 5 10.11 1.42
 1 5 6 -0.02 1.05
 1 5 7 62.03 2.46
 1 5 8 1.19 0.78
 1 6 -8 47.29 2.06
 1 6 -7 13.15 1.59
 1 6 -6 25.66 1.95
 1 6 -5 208.58 4.62
 1 6 -4 132.98 3.83
 1 6 -3 494.44 7.14
 1 6 -1 14.71 1.77
 1 6 2 0.38 1.11
 1 6 3 57.88 2.9
 1 6 4 3.67 1.31
 1 6 5 74.43 3.17
 1 6 6 33.71 2.37
 1 6 7 -0.25 1.1
 1 6 8 15.15 1.63
 1 7 -8 0.2 0.96
 1 7 -7 0.68 1.13
 1 7 -6 25.77 2.17
 1 7 -4 10.83 1.73
 1 7 -3 -0.09 1.26
 1 7 -2 302.99 6.17
 1 7 -1 1.12 1.44
 1 7 0 134.01 4.3
 1 7 1 305.19 6.33
 1 7 2 218.92 5.48
 1 8 4 112.93 4.51
 1 8 6 55.89 3.47
 1 8 7 38.04 2.98
 1 8 8 11.8 1.97
 1 9 -8 60.12 3.33
 1 9 -7 43.42 3.02
 1 9 -5 40.43 2.98
 1 9 -4 35.9 3.15
 1 9 -3 4.09 1.76
 1 9 -2 132.76 5.09
 1 9 0 166.81 5.63
 1 9 1 121.23 5.01
 1 9 2 3.25 1.78
 1 9 3 15.79 2.68
 1 9 4 0.9 1.87
 1 9 5 10.8 2.29
 1 9 6 -0.63 1.69
 1 9 7 17.51 2.72
 1 10 -6 9.29 2.18
 1 10 -3 -1.26 1.6
 1 10 -2 1.82 1.87
 1 10 2 134.86 5.46
 1 10 4 1.39 1.84
 1 10 5 1.45 1.99
 1 10 6 86.89 4.82
 1 10 7 36.03 3.48
 1 10 8 33.66 3.33
 1 11 -7 31.63 3.3
 1 11 -6 158.89 6.08
 1 11 -4 20.66 3.28
 1 11 -3 22.73 3.06
 1 11 -2 55.72 4.21
 1 11 -1 25.83 3
 1 11 0 1.04 2.39
 1 11 1 4.77 2.59
 1 11 2 30.92 3.33
 1 11 4 1.52 2.31
 1 11 6 0.76 2.31
 1 11 7 -0.7 1.98
 1 12 -7 -0.26 1.84
 1 12 -6 -0.58 2.29
 1 12 -5 73.41 4.89
 1 12 -4 4.44 2.49
 1 12 -3 55.99 4.32
 1 12 -2 6.43 2.76
 1 12 -1 11.41 2.85
 1 12 0 90.03 5.52
 1 12 1 16.11 3.36
 1 12 2 0.29 2.25
 1 12 3 0.27 2.19
 1 12 4 -0.5 2.62
 1 12 6 4.85 2.72
 1 13 -7 1.99 2.45
 1 13 -6 5.11 2.78
 1 13 -5 42.33 4.24
 1 13 -4 -2.47 2.39
 1 13 -3 74.62 5.25
 1 13 -2 21.78 4.03
 1 13 -1 0.75 3.01
 1 13 0 56.69 4.7
 1 13 1 -2.56 2.16
 1 13 2 4.23 3.05
 1 13 3 9.74 3.11
 1 13 4 24.51 3.96
 1 13 5 6.83 2.98
 1 13 6 49.91 4.87
 1 13 7 10.26 3.28
 1 14 -6 1.92 2.85
 1 14 -5 9.06 3.08
 1 14 -4 8.94 3.61
 1 14 -1 -0.53 2.47
 1 14 1 57.1 5.5
 1 14 2 1.45 2.81
 1 14 3 5.2 3.33
 1 14 4 -1.03 2.56
 1 14 6 22.63 4
 1 15 -4 2.38 2.79
 1 15 -3 10.89 3.52
 1 15 -2 9.49 3.89
 1 15 1 20.07 4.15
 1 15 2 2.65 3.28
 1 15 3 31.98 4.76
 2 1 -4 356.08 3.72
 2 1 -3 546.45 4.51
 2 1 -2 952.1 5.9
 2 1 -1 220.2 2.96
 2 1 0 1875.43 8.13
 2 1 1 242.88 3.02
 2 1 2 33.38 1.32
 2 1 3 686.61 4.76
 2 1 4 86.3 1.67
 2 2 -6 0.42 0.58
 2 2 -5 1603.99 8.24
 2 2 -4 313.5 3.79
 2 2 -3 12.33 1.06
 2 2 -2 549.76 5.02
 2 2 -1 157.14 2.79
 2 2 0 101.18 2.24
 2 2 2 605.5 5.29
 2 2 3 319.63 3.86
 2 2 4 59.12 1.7
 2 2 5 113.84 2.17
 2 3 -7 25.42 1.33
 2 3 -6 150.59 2.92
 2 3 -4 149.16 3.05
 2 3 -3 163.91 3.24
 2 3 -2 19.27 1.45
 2 3 -1 1021.81 7.78
 2 3 0 160.09 3.42
 2 3 1 29.79 1.6
 2 3 2 956.9 7.6
 2 3 6 27.76 1.36
 2 3 7 103.97 1.96
 2 4 -8 30.78 1.48
 2 4 -7 666.01 6.43
 2 4 -6 16.44 1.43
 2 4 -4 316.53 4.87
 2 4 -3 1.1 0.9
 2 4 -1 7.32 1.19
 2 4 4 10.9 1.48
 2 4 5 32.91 1.86
 2 4 6 176.04 3.6
 2 4 7 3.16 0.82
 2 5 -8 56.18 2.21
 2 5 -7 62.33 2.4
 2 5 -5 730.41 7.97
 2 5 -4 126.79 3.5
 2 5 -3 35.62 2.19
 2 5 -2 34.3 2.2
 2 5 2 18.97 1.89
 2 5 3 9.2 1.49
 2 5 4 314.26 5.59
 2 5 5 27.15 2.05
 2 5 6 0.91 0.98
 2 5 7 1.82 0.95
 2 6 -8 16.35 1.7
 2 6 -6 10.31 1.71
 2 6 -5 2.27 1.21
 2 6 -4 265.92 5.57
 2 6 -3 39.77 2.51
 2 6 -2 31.35 2.17
 2 6 1 197.27 4.91
 2 6 2 -0.43 1.04
 2 6 3 41.17 2.57
 2 6 4 18.81 2.07
 2 6 5 87.88 3.45
 2 6 6 30.18 2.29
 2 6 7 77.25 3.02
 2 7 -8 8.1 1.57
 2 7 -4 188.96 5.15
 2 7 -2 559.22 8.71
 2 8 2 8.25 2.1
 2 8 5 37.86 3.21
 2 8 6 45 3.26
 2 8 7 28.25 2.77
 2 9 -6 1 1.8
 2 9 -5 54.19 3.66
 2 9 -4 0.33 1.66
 2 9 -3 2.71 1.72
 2 9 -2 12.82 2.31
 2 9 0 8.56 2.07
 2 9 1 -0.57 1.47
 2 9 3 1.5 2.08
 2 9 4 20.9 2.85
 2 9 6 18.79 2.68
 2 10 -7 53.25 3.66
 2 10 -6 5.01 2.31
 2 10 -5 33.15 3.13
 2 10 -4 7.99 2.17
 2 10 -3 4.13 2
 2 10 -2 52.82 4.02
 2 10 -1 35.7 3.63
 2 10 0 41.39 3.41
 2 10 1 109.73 5.26
 2 10 2 0.52 1.76
 2 10 3 26.26 3.45
 2 10 4 3.56 2.46
 2 10 5 94.72 4.97
 2 10 6 47.71 3.98
 2 11 -7 1.97 2.32
 2 11 -6 6.65 2.39
 2 11 -5 0.42 1.88
 2 11 -4 39.68 3.84
 2 11 -3 264.76 8.01
 2 11 -2 1.86 2.13
 2 11 -1 3.7 2.09
 2 11 0 27.88 3.78
 2 11 1 55.17 4.43
 2 11 2 16.05 3.36
 2 11 3 153 6.47
 2 11 4 2.62 2.56
 2 11 5 1.15 2.09
 2 11 6 7.54 2.7
 2 11 7 261.33 7.79
 2 12 -7 35.7 3.89
 2 12 -5 1.66 2.25
 2 12 -4 2.75 2.78
 2 12 -3 1.19 2.45
 2 12 -2 17.83 3.39
 2 12 -1 4.75 2.86
 2 12 0 2.92 2.26
 2 12 1 64.44 5.03
 2 12 3 3.85 2.82
 2 12 4 3.9 2.56
 2 12 7 1.07 2.14
 2 13 -6 7.25 2.73
 2 13 -4 8.48 3.06
 2 13 -3 1.86 3.12
 2 13 -1 6.42 3.22
 2 13 0 1.2 2.51
 2 13 1 25.53 4.13
 2 13 3 280.32 9.38
 2 13 4 10.31 3.14
 2 13 5 0.09 2.6
 2 13 6 48.14 4.57
 2 14 -7 5.91 2.87
 2 14 -6 2.98 3.03
 2 14 -4 15.99 3.63
 2 14 -2 1.2 2.9
 2 14 -1 20.04 4.25
 2 14 0 6.71 3.22
 2 14 1 17.51 3.99
 2 14 2 118.06 6.67
 2 15 -4 26.93 4.66
 2 15 -3 2.23 3.28
 2 15 -1 79.9 6.27
 2 15 0 1.12 3.56
 2 15 1 -0.91 3.39
 2 15 2 2.23 3.17
 3 1 -4 100.72 2.54
 3 1 -3 562.29 5.59
 3 1 -2 99.06 2.5
 3 1 -1 1806.91 9.59
 3 1 0 1140.8 7.69
 3 1 2 18.06 1.26
 3 1 3 46.6 1.63
 3 2 -6 282.02 4.19
 3 2 -5 478.62 5.44
 3 2 -3 3038.23 13.41
 3 2 -2 58.92 2.15
 3 2 -1 62.5 2.24
 3 2 2 1123.42 8.12
 3 3 -7 0.14 0.77
 3 3 -6 180.81 3.63
 3 3 -5 335.25 4.94
 3 3 -4 506.24 6.11
 3 3 -3 6.54 1.17
 3 3 -2 193.79 3.95
 3 3 -1 97.4 2.8
 3 3 0 857.11 7.79
 3 3 4 296.98 4.65
 3 3 5 223.8 3.92
 3 3 6 14.06 1.15
 3 4 -8 383.23 5.39
 3 4 -7 0.75 1.03
 3 4 -6 51.63 2.35
 3 4 -5 29.89 1.97
 3 4 -4 7.28 1.25
 3 4 -3 434.48 6.11
 3 4 2 2.16 1.16
 3 4 3 4.11 1.27
 3 4 4 20.39 1.73
 3 4 5 18.1 1.62
 3 4 6 33.35 1.83
 3 5 -9 73.35 2.58
 3 5 -8 6.66 1.28
 3 5 -7 73.2 2.88
 3 5 -4 6.76 1.41
 3 5 -3 72.82 2.99
 3 5 1 81.38 3.18
 3 5 3 262.93 5.49
 3 5 6 42.71 2.29
 3 6 -9 2.28 1.06
 3 6 -8 8.2 1.56
 3 6 -7 727.01 9.01
 3 6 -6 5.74 1.61
 3 6 -5 11.34 1.79
 3 6 -3 5.84 1.48
 3 6 -2 1.78 1.21
 3 6 0 13.8 1.85
 3 6 3 136.01 4.37
 3 6 6 1.4 1.34
 3 7 6 -0.22 1.43
 3 8 -9 3.11 1.64
 3 8 -8 192.32 5.42
 3 8 -7 4.48 1.66
 3 8 -6 -0.95 1.38
 3 8 -5 29.09 2.83
 3 8 -3 461.41 8.92
 3 8 -2 127.76 4.74
 3 8 -1 83.01 4.11
 3 8 1 -0.39 1.51
 3 8 3 62.3 3.64
 3 8 4 0.94 1.92
 3 8 7 8.3 1.91
 3 9 -9 62.46 3.54
 3 9 -8 17.08 2.46
 3 9 -7 34.94 3.17
 3 9 -6 3.02 1.89
 3 9 -4 0.99 1.71
 3 9 -3 14.9 2.62
 3 9 -2 45.35 3.29
 3 9 1 56.87 3.91
 3 9 2 41.76 3.39
 3 9 3 14.44 2.72
 3 9 5 94.85 4.65
 3 9 6 49.69 3.69
 3 9 7 97.17 4.49
 3 10 -8 -0.17 1.68
 3 10 -6 119.66 5.32
 3 10 -5 81.64 4.48
 3 10 -4 94.89 5.02
 3 10 -3 190.68 6.65
 3 10 -1 9.2 2.25
 3 10 0 49.35 4.01
 3 10 1 47.35 3.94
 3 10 3 2.51 2.09
 3 10 4 12.11 2.69
 3 10 6 6.9 2.33
 3 11 -7 5.76 2.37
 3 11 -6 2.11 2.56
 3 11 -4 7.54 2.53
 3 11 -3 12.74 3.14
 3 11 -2 7.39 2.65
 3 11 1 1.19 2.11
 3 11 2 0.9 2.11
 3 11 5 2.77 2.79
 3 11 6 0.17 2.02
 3 12 -8 2.44 2.24
 3 12 -6 1.94 2.4
 3 12 -4 12.52 3.23
 3 12 -3 3.29 2.74
 3 12 -1 49.35 4.26
 3 12 0 43.26 4.15
 3 12 1 221.23 8.25
 3 12 2 2.56 2.71
 3 12 4 81.64 5.49
 3 12 5 80.78 5.42
 3 12 6 15.1 3.34
 3 13 -8 1.71 2.33
 3 13 -6 26.12 4.16
 3 13 -5 47.34 4.66
 3 13 -4 -1.37 2.74
 3 13 -3 1.02 2.57
 3 13 -1 1.79 3.21
 3 13 0 13.3 3.74
 3 13 1 3.27 2.75
 3 13 2 7.85 3.15
 3 13 4 0.37 2.54
 3 13 5 -0.98 2.97
 3 13 6 34.06 4.36
 3 14 -7 41.57 4.6
 3 14 -5 51.31 5.18
 3 14 -4 31.53 4.58
 3 14 -3 3.11 2.86
 3 14 -2 2.52 3
 3 14 -1 -0.18 2.91
 3 14 0 8.71 3.36
 3 14 1 58.97 5.72
 3 14 3 5.23 3.22
 3 14 4 14.83 3.92
 3 15 -3 0.42 3.04
 3 15 -1 32.39 4.89
 3 15 0 71.69 6.21
 4 1 -4 17.34 1.58
 4 1 -3 290.68 4.66
 4 1 -2 876.22 7.9
 4 1 -1 39.08 2.04
 4 1 0 251.26 4.26
 4 2 -6 240.28 4.52
 4 2 -3 1064.21 9.1
 4 2 -1 119.4 3.19
 4 2 4 52.82 2.16
 4 3 -7 222.89 4.55
 4 3 -6 19.21 1.77
 4 3 -5 452.77 6.38
 4 3 -4 298.56 5.23
 4 3 -3 15.06 1.64
 4 3 2 60.15 2.56
 4 3 3 18.12 1.75
 4 3 4 521.74 6.56
 4 3 5 36.93 1.94
 4 4 -5 79.02 3.08
 4 4 -3 0.89 0.95
 4 4 2 1015.69 10.16
 4 4 3 199.32 4.61
 4 4 4 0.86 1.15
 4 4 5 -0.12 0.94
 4 4 6 3.17 0.97
 4 5 -9 71.25 2.9
 4 5 -8 39.86 2.43
 4 5 -5 28.12 2.38
 4 5 -4 37.74 2.58
 4 5 -1 499.06 7.65
 4 5 1 389.47 6.88
 4 5 3 1.59 1.48
 4 5 5 75.22 3.15
 4 5 6 5.56 1.28
 4 6 -3 4.63 1.56
 4 7 -8 -0.29 1.28
 4 7 -7 45.93 3.08
 4 7 2 2.37 1.57
 4 7 4 0.56 1.49
 4 7 5 2.99 1.78
 4 7 6 5.65 1.9
 4 8 -9 23.15 2.57
 4 8 -8 11.01 2.17
 4 8 -7 35.8 3.09
 4 8 -6 36.04 3.2
 4 8 -5 3.49 1.82
 4 8 -4 0.38 1.52
 4 8 -3 9.64 2.07
 4 8 -2 144.28 5.26
 4 8 0 6.9 1.94
 4 8 3 63.89 4.02
 4 8 4 5.96 2.18
 4 8 5 94.35 4.41
 4 8 6 24.7 2.75
 4 9 -9 46.54 3.43
 4 9 -8 51.17 3.64
 4 9 -7 7.24 2.04
 4 9 -6 66.28 4.16
 4 9 -5 111.45 5.17
 4 9 -4 235.38 7.01
 4 9 -2 37.67 3.47
 4 9 -1 34.32 3.45
 4 9 0 3.69 2.33
 4 9 3 2.23 2.12
 4 9 4 3.74 2.14
 4 9 5 3.62 2.09
 4 9 6 3.96 2
 4 10 -9 7.49 2.43
 4 10 -8 18.81 3.09
 4 10 -7 29.8 3.45
 4 10 -6 5.35 2.17
 4 10 -5 87.51 4.85
 4 10 -4 34.71 3.3
 4 10 -3 21.13 3.24
 4 10 -1 10.23 2.59
 4 10 1 6.44 2.41
 4 10 4 14.39 2.73
 4 10 5 3.76 2.28
 4 10 6 15.16 2.81
 4 11 -9 30.53 3.5
 4 11 -8 -0.27 1.98
 4 11 -7 15.75 2.99
 4 11 -6 58.15 4.22
 4 11 -4 36.08 4.22
 4 11 -3 4.65 2.41
 4 11 -2 37.26 3.84
 4 11 -1 13.01 2.9
 4 11 2 2.15 2.36
 4 11 3 5.17 2.76
 4 11 4 8.97 2.74
 4 11 5 0.11 2.12
 4 11 6 9.94 2.57
 4 12 -8 3.75 2.54
 4 12 -7 76.34 5.25
 4 12 -6 10.97 3.33
 4 12 -5 70.89 4.93
 4 12 -4 11.25 3.03
 4 12 -3 4.52 2.64
 4 12 -2 1.16 2.47
 4 12 -1 60.95 5.21
 4 12 0 44.82 4.66
 4 12 1 13.61 3.53
 4 12 3 19.27 3.59
 4 12 4 70.33 5.24
 4 12 5 5.17 3.14
 4 13 -8 58.67 4.74
 4 13 -7 18.23 3.58
 4 13 -6 0.95 2.84
 4 13 -5 3.36 2.72
 4 13 -4 2.05 2.79
 4 13 -2 2.05 2.75
 4 13 -1 75.23 5.7
 4 13 0 1.53 2.7
 4 13 1 10.02 3.65
 4 13 2 29.78 4.37
 4 13 3 3.67 3
 4 13 5 48.83 4.87
 4 14 -7 50.63 5.16
 4 14 -6 64.46 5.57
 4 14 -5 0.56 2.71
 4 14 -3 2.47 3.15
 4 14 -2 29.94 4.73
 4 14 -1 6.63 3.42
 4 14 0 5.98 3.62
 4 14 1 1.94 2.93
 4 14 2 2.23 3.04
 5 2 -5 100.11 3.4
 5 2 -4 160.44 4.13
 5 2 1 -0.2 1
 5 2 2 581.22 7.43
 5 3 -6 59.36 2.88
 5 3 -5 2.93 1.28
 5 3 -4 105.41 3.49
 5 3 -1 350.88 6.2
 5 3 0 223.6 4.92
 5 3 2 39.5 2.42
 5 3 4 3.66 1.36
 5 4 -7 195.42 4.91
 5 4 -6 89.77 3.52
 5 4 -4 15.5 1.88
 5 4 1 223.78 5.33
 5 4 2 322.78 6.28
 5 4 3 66.83 3.14
 5 4 4 4.67 1.32
 5 4 5 6.89 1.34
 5 6 -10 0.68 1.48
 5 6 3 1.11 1.43
 5 6 4 25.66 2.66
 5 6 5 -0.76 1.45
 5 7 -10 16.38 2.35
 5 7 -9 4.79 1.68
 5 7 -8 0.11 1.72
 5 7 -7 -0.18 1.58
 5 7 -6 5.37 1.84
 5 7 -5 4.06 1.73
 5 7 -4 485.27 9.2
 5 7 -3 27.87 2.88
 5 7 -1 201.82 6.13
 5 7 0 14.46 2.3
 5 7 2 3.71 1.81
 5 7 3 55.75 3.55
 5 7 4 57.63 3.64
 5 7 5 120.28 4.71
 5 8 -10 6.83 1.93
 5 8 -9 34.97 3.09
 5 8 -7 3.23 1.84
 5 8 -6 5.31 2.09
 5 8 -5 7.46 2.03
 5 8 -4 -0.42 1.52
 5 8 -3 26.58 2.97
 5 8 -2 213.25 6.47
 5 8 -1 1.7 1.76
 5 8 0 8.77 2.47
 5 8 2 36.17 3.43
 5 8 3 11.47 2.41
 5 8 4 -0.92 1.53
 5 8 5 25.02 2.98
 5 9 -9 19.04 2.75
 5 9 -8 0.29 1.89
 5 9 -7 31.7 3.47
 5 9 -6 6.91 2.38
 5 9 -5 73.43 4.38
 5 9 -4 33.91 3.31
 5 9 -1 191.46 6.55
 5 9 1 0.74 2.23
 5 9 4 71.11 4.53
 5 10 -9 2.21 2.37
 5 10 -8 14.04 2.86
 5 10 -7 32.88 3.84
 5 10 -6 63.56 4.6
 5 10 -5 21.51 3.31
 5 10 -4 12.3 3.08
 5 10 -3 2.08 2.35
 5 10 -1 1.12 2.14
 5 10 0 7.8 2.54
 5 10 1 8.28 2.58
 5 10 2 6.93 2.65
 5 10 3 8.74 2.61
 5 10 4 1.35 2.49
 5 10 5 0.4 2.12
 5 11 -9 37 3.86
 5 11 -7 101.81 5.67
 5 11 -6 0.7 2.72
 5 11 -5 4.37 2.48
 5 11 -4 80.2 5.4
 5 11 -3 225.76 8.07
 5 11 -2 13.28 2.99
 5 11 0 135.7 6.56
 5 11 1 45.55 4.46
 5 11 2 16.37 3.48
 5 11 4 6.87 2.91
 5 12 -9 -0.07 2.16
 5 12 -8 15.67 3.27
 5 12 -5 0.68 2.93
 5 12 -4 6.67 2.86
 5 12 0 7.86 3.07
 5 12 1 7.96 3.38
 5 12 2 0.19 2.48
 5 12 3 28.22 3.97
 5 12 5 -1.53 2.29
 5 13 -8 1.96 2.68
 5 13 -7 6.54 2.86
 5 13 -6 1.79 3.07
 5 13 -5 -0.08 2.77
 5 13 -4 28.7 4.14
 5 13 -3 9.76 3.17
 5 13 -2 12.87 3.75
 5 13 -1 0.03 2.85
 5 13 0 0.28 3.17
 5 13 1 1.88 3.2
 5 13 2 43.82 4.79
 5 13 4 13.43 3.45
 5 14 -6 -4.04 2.96
 5 14 -5 9 3.89
 5 14 -4 3.25 2.93
 5 14 -3 8.57 3.34
 5 14 -2 -1.43 3.25
 5 14 0 0.93 3.02
 6 2 -5 30.69 2.31
 6 2 -4 7.12 1.53
 6 2 -2 31.26 2.48
 6 2 -1 543.66 8.06
 6 3 -4 72.51 3.46
 6 3 -1 95.12 3.66
 6 3 0 521.42 8.21
 6 3 1 1.68 1.47
 6 5 -9 90.14 4.01
 6 5 -8 176.82 5.34
 6 5 -7 58.95 3.44
 6 5 -6 3.62 1.84
 6 5 2 5.64 1.78
 6 5 4 22.53 2.42
 6 5 5 0.55 1.44
 6 6 -10 0.08 1.46
 6 6 -9 44.49 3.25
 6 6 -6 148.2 5.2
 6 6 -4 0.1 1.54
 6 6 -2 51.23 3.44
 6 6 -1 7.48 2.19
 6 6 0 0.01 1.65
 6 6 1 41.13 3.09
 6 6 2 40.94 3.24
 6 6 3 38.96 3.2
 6 6 4 16.16 2.45
 6 6 5 78.91 3.79
 6 7 -10 2.82 1.79
 6 7 -9 1.78 1.75
 6 7 -7 14.33 2.51
 6 7 -6 1.43 1.74
 6 7 -4 140.41 5.33
 6 7 -2 8.68 2.32
 6 7 1 0.93 1.63
 6 7 2 1.82 1.84
 6 7 3 62.83 3.88
 6 7 4 130.21 5.15
 6 8 -10 13.73 2.57
 6 8 -9 8 2.19
 6 8 -8 23.3 2.93
 6 8 -6 6.41 2.2
 6 8 -5 6.55 2.42
 6 8 -4 142.45 5.6
 6 8 -3 68.62 4.11
 6 8 -2 -0.34 1.8
 6 8 -1 11.57 2.43
 6 8 2 124.35 5.39
 6 8 4 112.15 5.13
 6 8 5 0.09 2.11
 6 9 -10 3.26 2.04
 6 9 -9 5.07 2.28
 6 9 -8 0.59 1.99
 6 9 -7 20 3.03
 6 9 -6 46.14 4.05
 6 9 -5 0.87 2.06
 6 9 -4 59.94 4.32
 6 9 -3 35.71 3.62
 6 9 -1 6.87 2.52
 6 9 0 56.55 4.49
 6 9 1 32.25 3.78
 6 9 2 21.55 3.44
 6 9 3 53.42 4.21
 6 9 4 9.84 2.9
 6 10 -10 8.22 2.74
 6 10 -9 3.68 2.26
 6 10 -8 1.85 2.24
 6 10 -7 6.39 2.57
 6 10 -6 223.55 7.84
 6 10 -4 12.99 2.89
 6 10 -3 103.42 5.7
 6 10 -2 70.14 4.82
 6 10 -1 56.61 4.34
 6 10 1 0.3 2.19
 6 10 3 4.76 2.59
 6 10 4 24.79 3.5
 6 11 -9 2.66 2.46
 6 11 -6 2.13 2.49
 6 11 -5 -0.12 2.38
 6 11 -4 -1.05 2.22
 6 11 -3 6.81 2.66
 6 11 1 5.4 3.08
 6 11 2 4.26 3.04
 6 11 3 2.61 2.78
 6 11 4 1.26 2.77
 6 12 -9 2.35 2.44
 6 12 -8 8.09 3.11
 6 12 -7 27.74 4.28
 6 12 -6 4.03 2.71
 6 12 -3 -0.99 2.46
 6 12 -2 3.78 2.79
 6 12 -1 4.81 2.88
 6 12 0 2.12 2.87
 6 12 1 4.54 2.96
 6 12 2 13.76 3.77
 6 12 3 70.5 5.38
 6 12 4 6.89 3.34
 6 13 -8 -1.67 2.63
 6 13 -6 3.95 3.48
 6 13 -5 5.87 3.04
 6 13 -4 1.68 3.25
 6 13 -1 0.08 2.95
 6 13 1 37.12 5.06
 6 13 2 20.8 3.89
 7 4 -7 72.11 3.8
 7 4 -4 14.73 2.15
 7 4 -3 27.55 2.78
 7 4 -2 45.12 3.29
 7 4 0 82.76 4.03
 7 4 1 2.95 1.91
 7 4 2 19.9 2.7
 7 5 -8 0.42 1.57
 7 5 -7 17.19 2.54
 7 5 -6 43.24 3.32
 7 5 -5 16.7 2.37
 7 5 -4 4.07 1.71
 7 5 -3 0.99 1.64
 7 5 -2 119.19 4.86
 7 5 1 351.55 7.76
 7 5 2 69.57 3.91
 7 6 -9 0.57 1.73
 7 6 -7 13.69 2.38
 7 6 -6 3.73 2.16
 7 6 -5 1.62 1.74
 7 6 -4 45.19 3.7
 7 6 -2 19.08 2.83
 7 6 0 41.01 3.55
 7 6 3 51 3.6
 7 6 4 5.93 2.19
 7 7 -10 62.03 4.18
 7 7 -9 26.13 3.02
 7 7 -8 51.13 3.91
 7 7 -7 6.37 2.27
 7 7 -6 0.2 1.73
 7 7 -5 5.67 2.15
 7 7 -4 3.02 1.93
 7 7 -3 -0.24 1.65
 7 7 -2 218.14 6.91
 7 7 -1 14.6 2.9
 7 7 0 1.61 2.1
 7 7 1 115.17 5.4
 7 7 3 -1.13 1.67
 7 7 4 12.39 2.4
 7 8 -10 6.49 2.31
 7 8 -8 2.18 2.05
 7 8 -7 20.72 3.04
 7 8 -6 51.54 4.29
 7 8 -5 59.24 4.15
 7 8 -3 2.33 2.13
 7 8 -2 3.35 2.1
 7 8 0 6.27 2.74
 7 8 1 41.59 3.93
 7 8 2 24.73 3.52
 7 8 3 194.99 6.82
 7 8 4 0.4 1.97
 7 9 -10 1.03 2.17
 7 9 -9 79.48 5
 7 9 -8 27.32 3.56
 7 9 -7 16.6 3.32
 7 9 -6 3.72 2.37
 7 9 -5 35.39 4.14
 7 9 -4 1.3 2.38
 7 9 -3 153.46 6.66
 7 9 -2 22.74 3.43
 7 9 -1 35.47 3.87
 7 9 1 7.99 2.9
 7 9 2 5.05 2.61
 7 9 3 6.23 2.85
 7 9 4 4.52 2.36
 7 10 -10 19.4 3.34
 7 10 -9 26.5 3.79
 7 10 -8 0.29 2.26
 7 10 -7 -1.21 2.32
 7 10 -6 12.01 3.16
 7 10 -5 211.9 8.01
 7 10 -4 -1.21 2.7
 7 10 -3 52.44 4.45
 7 10 -2 15.78 3.22
 7 10 -1 20.63 3.75
 7 10 0 2.36 2.59
 7 10 1 7.42 2.98
 7 10 2 23.26 3.75
 7 10 3 7.77 2.93
 7 10 4 -0.49 2.14
 7 11 -10 0.67 2.62
 7 11 -9 49.66 4.66
 7 11 -8 6.96 3.02
 7 11 -7 4.42 3.02
 7 11 -6 1.62 3.1
 7 11 -5 3.66 2.81
 7 11 -4 2.81 2.68
 7 11 -3 27.03 4.38
 7 11 -2 -1.02 2.85
 7 11 -1 22.89 3.82
 7 11 0 18.62 3.74
 7 11 2 25.76 3.98
 7 11 4 1.41 2.32
 7 12 -9 94.46 5.91
 7 12 -8 -1.33 2.51
 7 12 -7 0.97 3.3
 7 12 -6 12.85 3.91
 7 12 -5 22.26 3.91
 7 12 -4 4.28 2.94
 7 12 -1 8 3.26
 7 12 0 4.54 3.06
 7 12 1 -0.08 2.75
 7 12 2 1.1 2.73
 7 13 -6 12.37 3.71
 7 13 -5 2.71 3.63
 7 13 -4 4.68 3.77
 7 13 -3 0.76 3
 7 13 -2 14.43 3.61
 8 4 -6 0.04 1.84
 8 4 -5 -0.68 1.54
 8 4 -4 135.83 5.38
 8 4 -1 76.95 4.34
 8 4 0 31.05 3.14
 8 5 -7 6.53 2.22
 8 5 -5 0.04 1.7
 8 5 -4 1.18 1.82
 8 5 -3 70.88 4.1
 8 5 -2 150.48 5.8
 8 5 -1 3.37 1.95
 8 5 0 0.86 2.04
 8 5 1 42.65 3.55
 8 5 2 2.49 1.99
 8 6 -9 29.03 3.36
 8 6 -8 16.49 2.73
 8 6 -6 3.77 2.2
 8 6 -5 113.86 5.24
 8 6 -4 4.02 1.97
 8 6 -2 11.22 2.43
 8 6 -1 326.65 8.43
 8 6 0 6.88 2.33
 8 6 1 11.72 2.66
 8 6 2 1.55 1.94
 8 6 3 0.6 2.22
 8 7 -9 19.45 3.22
 8 7 -8 38.51 3.66
 8 7 -7 73.21 4.77
 8 7 -6 41.08 4.04
 8 7 -4 71.58 4.8
 8 7 -3 130.11 5.7
 8 7 -2 -0.24 2.04
 8 7 -1 5.6 2.34
 8 7 1 42.7 3.98
 8 7 2 5.19 2.31
 8 7 3 5.87 2.39
 8 8 -10 24.52 3.63
 8 8 -8 39.82 3.97
 8 8 -7 2.06 2.56
 8 8 -6 0.36 2.62
 8 8 -5 102.12 5.57
 8 8 -1 6.48 2.57
 8 8 0 0.1 2.3
 8 8 1 14.68 3.06
 8 8 2 0.09 2.53
 8 8 3 3.67 2.31
 8 9 -10 -0.08 2.31
 8 9 -9 18.72 3.3
 8 9 -8 68.76 4.99
 8 9 -7 171.64 7.17
 8 9 -5 22.95 3.86
 8 9 -3 -1.86 2.75
 8 9 -1 1.56 2.9
 8 9 0 90.2 5.69
 8 9 1 60.69 4.98
 8 9 2 21.43 3.42
 8 9 3 1.91 2.23
 8 10 -10 -0.24 2.5
 8 10 -8 1.05 2.4
 8 10 -7 -0.5 2.79
 8 10 -4 47.04 4.79
 8 10 -3 1.01 3.18
 8 10 -2 6.17 3.1
 8 10 -1 27.53 4.38
 8 10 0 88.73 6.04
 8 10 1 4.04 2.94
 8 10 2 14.85 3.55
 8 10 3 53.17 4.66
 8 11 -10 -2.64 2.73
 8 11 -9 6.57 2.81
 8 11 -6 -2.09 2.65
 8 11 -5 31.8 4.32
 8 11 -4 22.03 4.01
 8 11 -3 13.72 3.6
 8 11 -1 1.3 2.78
 8 11 0 18.42 3.61
 8 11 1 4.85 3.4
 8 11 2 34.7 4.27
 8 12 -6 0.43 2.93
 8 12 -5 5.74 3.3
 8 12 -3 0.06 2.85
 8 12 -2 0.82 2.93
 8 12 -1 131.97 7.39
 8 12 0 4.62 3.11
 9 5 -5 12.94 2.66
 9 5 -4 2.5 2.5
 9 5 -3 54.63 4.4
 9 5 -2 18.77 2.95
 9 5 -1 0.89 1.96
 9 6 -7 0.59 2.5
 9 6 -5 210.4 7.4
 9 6 -4 18.03 3.13
 9 6 -3 44.62 4.22
 9 6 -2 14.06 2.93
 9 6 -1 8.8 2.62
 9 6 0 0.99 2.69
 9 6 1 61.15 4.37
 9 7 -8 17.33 3.2
 9 7 -7 2.98 2.44
 9 7 -5 15.08 3.18
 9 7 -4 33.58 3.97
 9 7 -3 7.13 2.76
 9 7 -2 1.49 2.39
 9 7 -1 19.29 3.4
 9 7 0 59.28 4.55
 9 7 1 0.17 2.25
 9 8 -9 82.22 5.61
 9 8 -7 -0.16 2.35
 9 8 -6 21.39 3.54
 9 8 -4 14.51 3.36
 9 8 -3 23.5 3.71
 9 8 -2 21.77 3.57
 9 8 -1 6.78 2.69
 9 8 1 13.24 3.09
 9 8 2 9.05 3.17
 9 9 -10 0.52 2.36
 9 9 -9 13.96 3.35
 9 9 -8 3.75 2.78
 9 9 -7 126.63 6.65
 9 9 -6 5.08 3.03
 9 9 -5 12.59 3.35
 9 9 -4 4.92 2.85
 9 9 -3 3.07 2.77
 9 9 -1 3.99 3.33
 9 9 0 9.24 3.07
 9 9 1 34.17 4.16
 9 9 2 21.74 3.55
 9 10 -10 4.22 3.16
 9 10 -9 28.22 4.33
 9 10 -8 0.5 2.65
 9 10 -7 5.24 3.01
 9 10 -5 13.37 3.87
 9 10 -4 4.06 2.87
 9 10 -3 2.82 2.9
 9 10 -2 61.9 5.61
 9 10 -1 4.65 3.29
 9 10 1 0.2 2.52
 9 10 2 23.47 4
 9 11 -8 -2.4 2.84
 9 11 -7 -1.36 2.98
 9 11 -6 20.2 3.83
 9 11 -5 5.63 3.19
 9 11 -4 -0.29 3.51
 9 11 -3 105.79 6.92
 9 11 -2 40.76 4.94
 9 11 -1 5.7 3.18
 10 6 -5 6.54 2.93
 10 6 -4 10.48 3.34
 10 6 -3 29.65 3.97
 10 7 -7 91.93 5.94
 10 7 -6 10.6 3.15
 10 7 -5 31.17 4.17
 10 7 -4 -0.54 2.31
 10 7 -2 36.85 4.07
 10 7 -1 1.9 2.75
 10 8 -8 84.76 5.76
 10 8 -7 6.31 2.97
 10 8 -5 19.75 3.97
 10 8 -3 26.92 4.22
 10 8 -2 1.23 2.62
 10 8 -1 -0.61 2.51
 10 8 0 -0.13 2.44
 10 9 -9 1.55 3.31
 10 9 -8 3.09 3.05
 10 9 -5 -1.25 2.72
 10 9 -4 -1.77 3.17
 10 9 -3 -0.52 2.8
 10 9 -2 -0.94 3.1
 10 9 -1 43.33 5.03
 10 9 1 11.91 3.62
 10 10 -8 -1.32 2.8
 10 10 -7 1.45 3.58
 10 10 -6 1.26 3.2
 10 10 -5 3.52 3.42
 10 10 -4 19.07 4.18
 10 10 -3 9.02 3.87
 10 10 -1 88.83 6.43
 11 9 -6 18.68 4.06
 11 9 -5 74.15 6.14
 11 9 -4 51.83 5.47
 11 9 -3 -1.54 2.94

_iucr_refine_fcf_details
;
data_fk_03443_intdb_v128
_computing_structure_refinement   'olex2.refine 1.5-alpha (Bourhis et al., 2015)'
_shelx_refln_list_code            4
loop_
  _space_group_symop_id
  _space_group_symop_operation_xyz
  1  x,y,z
  2  -x,y+1/2,-z+1/2
  3  -x,-y,-z
  4  x,-y-1/2,z-1/2

_space_group_crystal_system       monoclinic
_space_group_IT_number            14
_space_group_name_H-M_alt         'P 1 21/c 1'
_space_group_name_Hall            '-P 2ybc'
_symmetry_space_group_name_H-M    'P 1 21/c 1'
_symmetry_space_group_name_Hall   '-P 2ybc'
_symmetry_Int_Tables_number       14
_cell_length_a                    7.858(4)
_cell_length_b                    8.735(5)
_cell_length_c                    9.001(5)
_cell_angle_alpha                 90
_cell_angle_beta                  115.57(4)
_cell_angle_gamma                 90
_cell_volume                      557.2(6)
loop_
  _refln_index_h
  _refln_index_k
  _refln_index_l
  _refln_F_squared_calc
  _refln_F_squared_meas
  _refln_F_squared_sigma
  _refln_F_squared_weight
  _refln_observed_status
-14 0 6 92.844 92.244 4.750 1.579 o
-14 1 6 10.771 4.845 1.509 30.276 o
-13 0 2 5.150 3.293 1.128 58.145 o
-13 0 4 63.252 69.134 2.188 3.640 o
-13 0 6 95.959 106.782 5.008 1.399 o
-13 0 8 29.065 29.751 2.924 7.042 o
-13 0 10 20.254 16.972 2.496 10.954 o
-13 1 1 3.094 4.642 1.630 34.822 o
-13 1 2 4.432 4.270 0.827 86.514 o
-13 1 3 14.266 13.468 0.997 32.147 o
-13 1 4 15.574 15.388 1.141 26.864 o
-13 1 5 31.889 37.113 1.428 10.321 o
-13 1 6 22.183 22.943 1.227 17.756 o
-13 1 7 7.485 4.766 0.848 66.344 o
-13 1 8 7.394 6.836 1.330 38.872 o
-13 1 9 23.842 19.726 1.810 13.748 o
-13 1 10 17.484 16.171 1.661 18.461 o
-13 1 11 4.629 3.342 2.069 22.474 o
-13 2 1 42.027 44.929 2.942 5.125 o
-13 2 2 5.142 3.994 0.849 80.503 o
-13 2 3 50.616 54.862 1.532 5.579 o
-13 2 4 0.067 0.579 0.743 187.307 o
-13 2 5 2.624 1.954 0.748 127.364 o
-13 2 6 0.478 -0.010 0.744 183.669 o
-13 2 7 35.148 37.304 1.842 8.500 o
-13 2 8 7.061 5.296 1.344 40.118 o
-13 2 9 22.635 21.862 1.847 13.562 o
-13 2 10 1.107 0.963 1.182 71.334 o
-13 2 11 3.587 2.234 1.586 37.277 o
-13 3 2 7.683 8.785 1.619 28.593 o
-13 3 3 7.253 6.685 0.866 62.110 o
-13 3 4 31.809 28.538 1.648 10.761 o
-13 3 5 17.635 16.612 1.067 25.128 o
-13 3 6 11.528 11.902 1.130 34.499 o
-13 3 7 0.234 0.826 0.882 131.088 o
-13 3 8 45.361 49.402 1.879 6.079 o
-13 3 9 19.366 18.044 1.326 20.217 o
-13 3 10 6.880 7.589 1.443 35.094 o
-13 3 11 1.598 2.850 2.509 16.584 o
-13 4 2 15.209 13.032 1.840 18.443 o
-13 4 3 4.820 3.980 1.070 62.380 o
-13 4 4 8.742 7.667 0.837 56.222 o
-13 4 5 0.622 -0.069 0.827 148.286 o
-13 4 6 42.146 41.491 1.551 7.525 o
-13 4 7 19.600 19.169 1.289 20.044 o
-13 4 8 36.628 40.928 1.599 8.444 o
-13 4 9 12.629 10.626 1.163 33.021 o
-13 4 10 15.632 16.583 2.791 10.197 o
-13 4 11 19.671 14.892 3.299 7.601 o
-13 5 3 13.906 12.877 1.980 17.485 o
-13 5 4 2.352 4.420 2.626 14.899 o
-13 5 5 145.581 149.844 2.738 0.952 o
-13 5 6 0.219 -0.294 0.765 180.283 o
-13 5 7 6.546 5.943 0.895 64.647 o
-13 5 8 0.931 0.205 0.768 162.266 o
-13 5 9 0.339 -0.708 1.318 61.506 o
-13 5 10 2.141 0.246 1.672 36.465 o
-13 6 5 4.888 2.722 3.042 11.067 o
-13 6 6 0.010 2.765 3.299 9.863 o
-13 6 8 0.287 -1.495 1.847 31.578 o
-12 0 2 12.332 11.339 1.338 29.064 o
-12 0 4 60.755 57.321 2.457 3.943 o
-12 0 6 4.332 5.621 1.161 54.946 o
-12 0 8 1.787 1.138 1.632 38.056 o
-12 0 10 12.346 12.094 2.770 11.210 o
-12 0 12 106.237 126.522 6.928 0.953 o
-12 1 1 27.843 29.235 1.367 12.961 o
-12 1 2 89.195 96.813 1.781 2.237 o
-12 1 3 21.473 21.659 1.258 18.322 o
-12 1 4 77.983 83.491 1.640 2.843 o
-12 1 5 1.750 1.674 0.692 158.466 o
-12 1 6 14.484 14.275 0.921 32.630 o
-12 1 7 0.011 1.050 0.904 126.412 o
-12 1 8 0.471 -0.516 1.060 93.488 o
-12 1 9 2.203 0.659 1.227 63.511 o
-12 1 10 1.627 3.903 1.507 42.310 o
-12 1 11 1.473 -0.037 1.148 75.723 o
-12 1 12 50.944 58.769 2.467 4.515 o
-12 1 13 13.906 12.457 1.381 26.080 o
-12 2 1 2.094 0.575 0.692 162.460 o
-12 2 2 59.487 63.778 1.472 4.439 o
-12 2 3 102.321 109.997 1.852 1.779 o
-12 2 4 3.268 2.399 0.640 139.260 o
-12 2 5 1.363 0.820 0.631 202.428 o
-12 2 6 17.037 14.865 1.092 26.308 o
-12 2 7 12.404 13.176 1.285 29.053 o
-12 2 8 36.449 33.095 2.271 7.580 o
-12 2 9 1.452 1.741 0.993 92.713 o
-12 2 10 18.828 20.098 1.736 16.164 o
-12 2 11 0.990 0.222 0.869 129.096 o
-12 2 12 3.335 3.868 1.229 55.509 o
-12 2 13 39.033 36.248 4.270 3.799 o
-12 3 1 25.593 25.130 1.171 15.697 o
-12 3 2 2.488 2.891 0.765 119.526 o
-12 3 3 8.042 6.787 0.784 63.469 o
-12 3 4 29.512 25.969 1.122 13.965 o
-12 3 5 6.219 6.890 0.812 69.909 o
-12 3 6 51.443 56.800 1.398 5.504 o
-12 3 7 10.872 11.659 1.059 37.628 o
-12 3 8 0.378 0.743 0.958 111.248 o
-12 3 9 18.143 18.847 1.188 22.260 o
-12 3 10 0.609 1.451 0.869 126.434 o
-12 3 11 3.233 3.083 0.998 77.785 o
-12 3 12 3.051 3.906 1.182 59.694 o
-12 3 13 0.101 -0.002 1.301 63.702 o
-12 4 1 7.429 6.948 0.839 62.456 o
-12 4 2 13.230 12.204 0.928 36.239 o
-12 4 3 30.552 32.522 1.230 11.976 o
-12 4 4 22.069 20.218 1.504 16.497 o
-12 4 5 11.407 12.205 1.009 37.527 o
-12 4 6 12.943 13.109 1.379 26.736 o
-12 4 7 10.379 10.325 1.269 33.720 o
-12 4 8 19.816 19.666 1.083 21.655 o
-12 4 9 4.010 3.779 1.049 67.571 o
-12 4 10 15.618 14.132 1.293 25.137 o
-12 4 11 0.219 -0.554 0.902 130.485 o
-12 4 12 0.305 -0.052 1.184 76.099 o
-12 5 1 1.261 1.317 0.862 121.315 o
-12 5 2 0.024 -0.001 0.788 173.896 o
-12 5 3 0.208 0.745 0.657 227.984 o
-12 5 4 20.610 21.143 1.070 20.591 o
-12 5 5 7.051 6.278 0.903 61.379 o
-12 5 6 145.585 160.210 2.462 0.925 o
-12 5 7 37.978 38.751 1.460 8.681 o
-12 5 8 9.687 9.343 0.958 45.801 o
-12 5 9 11.098 12.063 0.997 38.569 o
-12 5 10 22.613 17.473 1.185 19.512 o
-12 5 11 15.087 15.607 1.777 18.593 o
-12 5 12 0.847 0.315 1.489 47.239 o
-12 6 1 24.574 21.368 2.201 11.095 o
-12 6 2 29.104 32.257 1.623 11.077 o
-12 6 3 40.413 42.439 1.902 7.115 o
-12 6 4 7.246 8.154 1.248 41.115 o
-12 6 5 0.922 0.882 0.948 108.059 o
-12 6 6 0.326 0.451 0.672 219.687 o
-12 6 7 6.189 7.034 0.786 71.568 o
-12 6 8 25.599 27.974 1.363 14.074 o
-12 6 9 36.069 35.757 1.705 8.807 o
-12 6 10 4.243 3.904 0.862 84.999 o
-12 6 11 18.825 21.904 1.876 14.698 o
-12 7 2 24.783 28.823 3.042 7.218 o
-12 7 3 0.810 0.995 1.277 62.594 o
-12 7 4 1.923 0.362 1.068 83.013 o
-12 7 5 0.046 -0.721 0.853 148.093 o
-12 7 6 13.756 10.546 1.253 29.654 o
-12 7 7 39.095 42.136 1.441 8.180 o
-12 7 8 0.183 -0.202 0.689 221.612 o
-12 7 9 43.094 47.986 1.689 6.702 o
-12 7 10 69.331 77.719 3.743 2.479 o
-12 8 5 1.764 0.633 1.927 27.965 o
-12 8 6 0.844 1.019 0.910 116.217 o
-12 8 7 62.490 65.876 2.775 3.424 o
-12 8 8 28.838 30.776 2.904 7.065 o
-11 0 2 57.547 67.177 2.129 4.062 o
-11 0 4 20.454 19.214 1.444 18.085 o
-11 0 6 45.258 40.959 1.994 6.427 o
-11 0 8 62.857 63.709 3.291 3.144 o
-11 0 10 21.203 23.892 1.758 14.282 o
-11 0 12 3.200 3.823 1.336 48.968 o
-11 0 14 15.441 16.568 2.002 15.904 o
-11 1 1 138.792 146.801 2.163 1.044 o
-11 1 2 12.459 10.984 0.807 41.959 o
-11 1 3 13.893 13.205 0.877 35.291 o
-11 1 4 1.260 0.808 0.559 245.435 o
-11 1 5 10.845 8.958 0.777 49.763 o
-11 1 6 30.373 29.691 1.287 12.313 o
-11 1 7 4.256 4.537 0.877 81.283 o
-11 1 8 0.813 0.430 0.646 218.500 o
-11 1 9 11.741 8.688 1.034 39.489 o
-11 1 10 152.149 145.156 2.328 0.938 o
-11 1 11 36.059 38.791 1.497 8.990 o
-11 1 12 4.465 3.169 0.927 78.676 o
-11 1 13 28.600 26.849 1.459 12.719 o
-11 1 14 5.833 4.779 1.053 58.722 o
-11 2 1 74.507 80.380 1.724 3.023 o
-11 2 2 8.763 7.207 0.755 61.140 o
-11 2 3 50.020 50.094 1.236 6.179 o
-11 2 4 75.461 81.960 1.518 3.006 o
-11 2 5 1.986 2.031 0.548 200.509 o
-11 2 6 34.261 39.505 1.273 9.819 o
-11 2 7 6.733 5.468 0.723 77.850 o
-11 2 8 1.529 1.519 0.679 169.079 o
-11 2 9 31.583 34.132 1.556 10.402 o
-11 2 10 0.004 -0.762 0.798 169.921 o
-11 2 11 2.865 2.595 0.889 95.683 o
-11 2 12 43.622 50.101 2.050 6.008 o
-11 2 13 3.245 3.174 1.354 48.451 o
-11 2 14 2.990 2.810 1.181 61.686 o
-11 3 1 97.141 101.790 1.893 1.965 o
-11 3 2 68.677 71.697 1.383 3.624 o
-11 3 3 11.799 11.552 0.875 40.992 o
-11 3 4 6.858 5.206 0.715 78.498 o
-11 3 5 0.404 0.206 0.593 277.719 o
-11 3 6 82.062 81.598 1.632 2.727 o
-11 3 7 40.559 40.945 2.027 6.974 o
-11 3 8 1.853 2.615 0.735 136.439 o
-11 3 9 0.000 -0.490 0.638 266.016 o
-11 3 10 1.577 1.806 0.796 130.712 o
-11 3 11 40.639 44.184 1.882 6.997 o
-11 3 12 0.614 0.435 0.941 114.142 o
-11 3 13 22.536 23.281 1.934 12.837 o
-11 3 14 7.207 5.284 2.893 11.677 o
-11 4 1 7.576 7.575 0.736 66.690 o
-11 4 2 8.350 8.223 0.778 59.580 o
-11 4 3 35.238 37.337 1.221 9.964 o
-11 4 4 327.469 354.379 3.467 0.208 o
-11 4 5 0.309 -0.241 0.469 445.449 o
-11 4 6 4.909 4.791 0.640 103.028 o
-11 4 7 18.889 19.793 1.147 21.724 o
-11 4 8 0.308 0.828 0.729 185.081 o
-11 4 9 1.193 1.205 0.699 172.460 o
-11 4 10 13.172 11.895 1.048 33.898 o
-11 4 11 42.180 46.779 1.967 6.489 o
-11 4 12 63.303 61.746 2.531 3.634 o
-11 4 13 1.213 1.418 1.305 58.472 o
-11 5 1 15.614 15.807 0.912 30.074 o
-11 5 2 33.072 33.605 1.406 10.534 o
-11 5 3 0.007 0.255 0.652 249.205 o
-11 5 4 0.321 0.232 0.597 278.231 o
-11 5 5 1.462 1.389 0.533 239.005 o
-11 5 6 0.064 0.336 0.678 227.236 o
-11 5 7 0.719 0.204 0.625 239.447 o
-11 5 8 19.534 15.897 1.349 20.603 o
-11 5 9 1.680 1.240 0.809 129.668 o
-11 5 10 1.676 1.761 0.751 141.380 o
-11 5 11 15.140 15.042 1.438 23.041 o
-11 5 12 0.699 0.741 1.671 37.727 o
-11 5 13 0.008 0.203 1.681 38.229 o
-11 6 1 21.009 20.568 1.304 18.558 o
-11 6 2 3.702 3.095 0.834 95.318 o
-11 6 3 20.523 23.843 1.621 15.510 o
-11 6 4 7.154 7.004 0.762 68.464 o
-11 6 5 34.737 35.765 1.381 9.902 o
-11 6 6 0.814 0.842 0.576 253.857 o
-11 6 7 4.122 3.423 0.751 102.211 o
-11 6 8 77.204 77.437 2.140 2.847 o
-11 6 9 13.238 13.579 1.157 30.365 o
-11 6 10 1.344 1.782 0.983 94.898 o
-11 6 11 8.921 9.260 1.350 34.179 o
-11 6 12 14.759 16.303 1.862 17.648 o
-11 7 1 6.387 7.088 1.287 42.066 o
-11 7 2 0.262 0.245 0.794 164.189 o
-11 7 3 0.260 0.355 0.777 170.334 o
-11 7 4 0.067 -0.300 0.847 149.880 o
-11 7 5 14.838 15.225 1.112 28.235 o
-11 7 6 45.357 49.696 1.472 6.565 o
-11 7 7 71.238 76.626 1.682 3.266 o
-11 7 8 14.299 12.218 0.996 33.032 o
-11 7 9 1.583 0.744 0.731 157.946 o
-11 7 10 74.282 83.039 2.668 2.673 o
-11 7 11 4.327 3.135 1.337 47.301 o
-11 8 1 0.034 -0.055 0.928 125.352 o
-11 8 2 0.001 -0.234 0.806 166.978 o
-11 8 3 35.573 34.128 2.825 6.368 o
-11 8 4 43.211 49.505 1.824 6.402 o
-11 8 5 1.367 1.242 0.785 140.544 o
-11 8 6 15.376 15.216 1.483 22.184 o
-11 8 7 17.784 16.506 1.119 24.393 o
-11 8 8 60.787 65.328 2.859 3.464 o
-11 8 9 0.416 0.714 0.740 178.821 o
-11 8 10 4.414 4.799 0.972 70.466 o
-11 9 2 2.064 2.818 1.943 26.725 o
-11 9 3 2.318 0.916 1.097 76.132 o
-11 9 4 57.035 59.358 2.071 4.396 o
-11 9 5 73.825 76.669 2.330 2.925 o
-11 9 6 24.622 22.666 1.452 15.104 o
-11 9 7 15.119 14.544 0.995 30.243 o
-11 9 8 5.785 5.466 0.953 64.667 o
-11 9 9 8.174 6.363 1.296 39.237 o
-11 10 6 19.017 16.354 3.299 7.594 o
-10 0 2 38.840 36.384 1.932 7.745 o
-10 0 4 29.997 34.194 1.405 11.314 o
-10 0 6 21.966 26.863 1.560 14.673 o
-10 0 8 402.593 416.487 4.462 0.143 o
-10 0 10 162.835 166.721 7.120 0.598 o
-10 0 12 0.026 -1.091 1.361 58.443 o
-10 0 14 3.200 2.304 1.154 64.143 o
-10 1 1 8.013 8.197 0.667 67.017 o
-10 1 2 97.955 100.241 1.717 1.987 o
-10 1 3 15.442 13.774 0.836 33.021 o
-10 1 4 62.013 58.667 1.375 4.492 o
-10 1 5 35.327 34.498 1.113 10.559 o
-10 1 6 185.493 192.433 2.864 0.616 o
-10 1 7 19.624 20.831 0.929 22.737 o
-10 1 8 71.204 72.680 1.528 3.415 o
-10 1 9 23.352 22.656 0.960 18.929 o
-10 1 10 10.624 8.455 0.737 52.729 o
-10 1 11 0.596 1.313 0.672 197.903 o
-10 1 12 16.462 15.731 1.198 24.977 o
-10 1 13 16.701 13.604 1.134 26.715 o
-10 1 14 4.721 2.634 1.090 63.551 o
-10 1 15 4.920 6.252 1.699 30.058 o
-10 2 1 87.731 94.360 1.688 2.327 o
-10 2 2 34.254 32.664 1.061 11.261 o
-10 2 3 13.406 9.070 0.765 43.089 o
-10 2 4 161.263 163.153 1.851 0.830 o
-10 2 5 4.124 3.623 0.535 136.699 o
-10 2 6 0.794 1.667 0.483 301.461 o
-10 2 7 11.423 10.948 0.757 45.963 o
-10 2 8 89.949 90.826 1.598 2.329 o
-10 2 9 54.020 54.724 1.229 5.468 o
-10 2 10 13.841 11.630 1.002 34.082 o
-10 2 11 19.857 22.625 1.137 20.037 o
-10 2 12 0.000 0.118 0.710 213.087 o
-10 2 13 14.576 14.278 1.397 24.412 o
-10 2 14 2.013 1.416 0.852 115.069 o
-10 3 1 28.124 29.285 0.980 14.400 o
-10 3 2 277.826 297.144 3.239 0.286 o
-10 3 3 22.292 23.314 0.873 19.999 o
-10 3 4 3.240 2.988 0.469 176.691 o
-10 3 5 26.428 28.359 1.000 15.326 o
-10 3 6 4.541 4.621 0.565 118.401 o
-10 3 7 0.174 1.779 0.755 166.564 o
-10 3 8 9.022 8.428 0.772 56.907 o
-10 3 9 0.118 -1.204 0.615 280.103 o
-10 3 10 58.427 60.133 1.917 4.379 o
-10 3 11 1.537 1.209 0.850 121.800 o
-10 3 12 13.785 12.811 1.549 23.277 o
-10 3 13 3.187 2.945 0.953 83.745 o
-10 3 14 35.653 42.132 2.621 6.359 o
-10 4 1 7.501 6.928 0.664 73.261 o
-10 4 2 40.557 40.872 1.255 8.339 o
-10 4 3 1.513 1.923 0.485 251.935 o
-10 4 4 1.161 0.739 0.460 328.897 o
-10 4 5 45.945 45.077 1.071 7.264 o
-10 4 6 0.157 -0.216 0.520 383.938 o
-10 4 7 12.037 12.216 0.943 38.051 o
-10 4 8 17.149 15.067 1.041 26.788 o
-10 4 9 9.365 10.248 0.984 44.515 o
-10 4 10 0.011 0.580 0.652 242.223 o
-10 4 11 8.975 10.365 1.221 37.198 o
-10 4 12 45.793 51.468 2.109 5.634 o
-10 4 13 4.041 4.345 1.392 43.868 o
-10 4 14 9.888 8.261 1.306 34.835 o
-10 5 1 40.864 45.314 1.411 7.642 o
-10 5 2 81.451 83.897 1.540 2.728 o
-10 5 3 5.930 4.337 0.635 96.182 o
-10 5 4 14.097 15.062 0.812 34.582 o
-10 5 5 183.489 177.622 2.655 0.659 o
-10 5 6 24.709 23.761 1.080 17.026 o
-10 5 7 63.634 71.601 1.761 3.764 o
-10 5 8 42.930 45.453 1.663 6.935 o
-10 5 9 4.560 3.761 0.822 88.021 o
-10 5 10 42.484 40.185 1.521 7.624 o
-10 5 11 1.184 1.576 1.052 85.993 o
-10 5 12 0.341 -1.651 1.222 71.372 o
-10 5 13 2.629 2.375 1.396 47.980 o
-10 6 1 6.821 6.732 0.724 73.544 o
-10 6 2 29.666 29.602 1.240 12.744 o
-10 6 3 33.440 34.411 1.019 11.346 o
-10 6 4 15.014 16.329 0.837 31.705 o
-10 6 5 9.379 9.977 0.716 55.189 o
-10 6 6 0.199 0.471 0.715 199.188 o
-10 6 7 51.690 56.885 1.628 5.288 o
-10 6 8 22.191 21.437 1.359 17.203 o
-10 6 9 18.151 16.707 1.112 24.049 o
-10 6 10 8.520 7.342 0.884 55.227 o
-10 6 11 10.210 8.875 1.106 39.996 o
-10 6 12 5.142 3.225 1.409 42.134 o
-10 6 13 123.560 136.008 3.683 1.132 o
-10 7 1 2.604 2.773 0.776 116.737 o
-10 7 2 38.574 39.654 1.594 8.213 o
-10 7 3 5.712 3.903 0.745 87.885 o
-10 7 4 0.109 -0.727 0.552 346.631 o
-10 7 5 36.793 35.437 1.918 8.190 o
-10 7 6 14.714 14.239 1.029 30.401 o
-10 7 7 87.813 97.545 1.899 2.244 o
-10 7 8 5.895 4.581 0.762 82.522 o
-10 7 9 1.104 0.694 0.804 142.834 o
-10 7 10 5.941 4.947 0.842 73.941 o
-10 7 11 7.815 6.291 1.296 39.883 o
-10 7 12 10.551 9.827 1.694 24.294 o
-10 7 13 1.107 2.882 3.032 11.538 o
-10 8 1 0.199 0.221 0.752 183.894 o
-10 8 2 0.013 0.024 0.703 218.670 o
-10 8 3 24.869 24.080 1.278 15.712 o
-10 8 4 27.781 28.601 1.295 13.408 o
-10 8 5 19.021 20.347 1.171 21.173 o
-10 8 6 3.879 3.806 0.864 87.522 o
-10 8 7 7.376 7.298 0.736 68.302 o
-10 8 8 81.843 84.255 1.515 2.712 o
-10 8 9 33.159 39.462 1.451 9.662 o
-10 8 10 0.998 2.012 0.986 96.040 o
-10 8 11 35.258 38.109 2.418 7.063 o
-10 8 12 0.045 -2.199 2.904 12.850 o
-10 9 1 43.475 47.425 1.683 6.697 o
-10 9 2 0.011 -0.979 0.783 176.433 o
-10 9 3 0.127 -0.193 0.968 114.512 o
-10 9 4 0.446 0.908 0.680 204.059 o
-10 9 5 0.035 -0.235 0.657 249.338 o
-10 9 6 5.071 4.332 0.833 81.596 o
-10 9 7 0.887 0.601 0.745 167.964 o
-10 9 8 3.863 4.428 0.698 107.622 o
-10 9 9 3.049 2.718 0.716 123.643 o
-10 9 10 0.389 0.209 1.117 84.281 o
-10 10 1 84.950 96.871 3.900 1.867 o
-10 10 2 64.577 67.965 2.498 3.435 o
-10 10 3 7.747 8.363 1.170 43.001 o
-10 10 4 20.942 17.254 1.366 19.071 o
-10 10 5 2.273 1.545 0.769 129.891 o
-10 10 6 0.043 -1.057 0.686 228.894 o
-10 10 7 4.229 3.927 1.148 58.626 o
-10 10 8 0.172 -1.041 0.891 134.228 o
-10 10 9 5.046 7.333 1.692 29.676 o
-10 11 5 2.277 2.677 1.461 44.663 o
-10 11 6 6.377 4.281 1.638 31.405 o
-10 11 7 9.780 9.341 2.744 12.058 o
-9 0 2 50.230 52.225 1.836 5.464 o
-9 0 4 453.221 482.529 8.031 0.107 o
-9 0 6 146.803 133.986 2.140 1.031 o
-9 0 8 32.632 28.425 1.367 11.512 o
-9 0 10 139.703 138.930 3.667 0.985 o
-9 0 12 6.335 6.026 0.982 59.496 o
-9 0 14 11.071 13.067 1.336 29.547 o
-9 1 1 4.252 2.732 0.485 152.434 o
-9 1 2 6.682 6.755 0.604 83.396 o
-9 1 3 34.486 37.297 0.890 10.872 o
-9 1 4 0.115 0.305 0.378 665.728 o
-9 1 5 3.875 2.934 0.359 187.172 o
-9 1 6 278.439 272.080 2.340 0.306 o
-9 1 7 0.264 0.082 0.440 501.643 o
-9 1 8 67.861 63.553 1.185 3.986 o
-9 1 9 4.242 4.635 0.613 114.843 o
-9 1 10 1.073 1.580 0.450 312.176 o
-9 1 11 2.201 2.186 0.552 190.401 o
-9 1 12 27.467 25.217 1.188 14.718 o
-9 1 13 1.622 1.172 0.634 188.308 o
-9 1 14 4.673 5.308 0.776 86.919 o
-9 1 15 9.424 8.376 1.007 45.740 o
-9 2 1 58.810 64.148 1.153 4.636 o
-9 2 2 29.404 29.970 0.893 13.993 o
-9 2 3 105.730 105.635 1.361 1.801 o
-9 2 4 28.037 26.417 0.958 15.193 o
-9 2 5 53.434 47.758 1.165 5.965 o
-9 2 6 82.588 81.751 1.157 2.798 o
-9 2 7 84.629 87.464 1.712 2.522 o
-9 2 8 0.308 0.419 0.433 478.535 o
-9 2 9 40.984 41.748 1.025 8.512 o
-9 2 10 17.756 18.525 0.800 27.090 o
-9 2 11 103.049 97.217 1.768 1.902 o
-9 2 12 19.911 15.569 1.308 20.880 o
-9 2 13 0.746 0.525 0.614 238.538 o
-9 2 14 1.399 1.139 0.762 147.746 o
-9 2 15 0.046 0.162 0.882 137.717 o
-9 3 1 35.742 42.065 1.045 9.609 o
-9 3 2 55.626 53.131 1.080 5.479 o
-9 3 3 1.309 1.098 0.398 357.487 o
-9 3 4 10.844 9.843 0.639 53.097 o
-9 3 5 33.471 34.248 0.926 11.581 o
-9 3 6 1.732 2.631 0.591 182.927 o
-9 3 7 11.131 12.706 0.612 48.386 o
-9 3 8 0.665 0.561 0.456 386.746 o
-9 3 9 40.653 41.657 1.033 8.578 o
-9 3 10 23.501 22.582 0.988 18.673 o
-9 3 11 0.182 0.596 0.506 371.009 o
-9 3 12 10.671 10.710 0.873 44.607 o
-9 3 13 6.164 4.181 0.805 78.067 o
-9 3 14 6.282 5.770 1.042 56.330 o
-9 3 15 2.524 0.442 1.440 47.303 o
-9 4 1 0.411 0.426 0.435 458.270 o
-9 4 2 1.895 1.501 0.451 262.237 o
-9 4 3 86.430 90.704 1.323 2.481 o
-9 4 4 31.509 31.396 1.020 12.492 o
-9 4 5 19.726 16.476 0.978 24.178 o
-9 4 6 10.473 8.448 0.609 58.151 o
-9 4 7 22.755 23.113 1.065 18.483 o
-9 4 8 65.327 68.900 1.708 3.768 o
-9 4 9 0.207 0.629 0.555 311.790 o
-9 4 10 62.853 61.517 1.513 4.255 o
-9 4 11 0.806 2.006 0.822 132.868 o
-9 4 12 2.554 2.715 0.819 109.490 o
-9 4 13 51.010 52.566 1.826 5.381 o
-9 4 14 1.304 0.951 0.927 108.701 o
-9 5 1 0.793 0.964 0.463 347.360 o
-9 5 2 24.521 23.449 0.834 18.613 o
-9 5 3 61.115 63.262 1.064 4.525 o
-9 5 4 2.525 2.152 0.495 201.846 o
-9 5 5 17.491 16.751 0.801 28.501 o
-9 5 6 35.886 40.402 1.328 9.218 o
-9 5 7 53.108 49.621 1.434 5.678 o
-9 5 8 2.673 2.756 0.630 148.877 o
-9 5 9 52.157 51.796 1.119 5.912 o
-9 5 10 28.211 31.291 1.505 11.926 o
-9 5 11 121.103 128.450 3.951 1.166 o
-9 5 12 1.086 0.755 1.170 73.108 o
-9 5 13 6.735 6.743 1.590 31.259 o
-9 5 14 4.379 4.005 1.773 29.333 o
-9 6 1 11.459 9.828 0.605 52.105 o
-9 6 2 13.351 14.101 0.743 38.163 o
-9 6 3 48.750 48.110 1.119 6.578 o
-9 6 4 23.111 20.400 0.882 20.418 o
-9 6 5 217.141 221.052 2.180 0.476 o
-9 6 6 2.624 1.266 0.550 192.130 o
-9 6 7 0.017 0.216 0.549 348.311 o
-9 6 8 4.081 3.457 0.646 118.939 o
-9 6 9 37.382 41.505 1.314 8.807 o
-9 6 10 15.015 14.496 0.877 32.424 o
-9 6 11 6.975 5.698 1.545 32.891 o
-9 6 12 1.025 -0.302 1.320 59.543 o
-9 6 13 0.135 -1.488 1.154 80.799 o
-9 7 1 24.585 21.110 1.088 17.817 o
-9 7 2 3.001 1.583 0.515 188.959 o
-9 7 3 5.117 4.971 0.532 113.495 o
-9 7 4 33.357 34.863 0.996 11.356 o
-9 7 5 16.111 15.360 0.953 29.097 o
-9 7 6 67.525 62.860 1.386 3.955 o
-9 7 7 0.191 1.233 0.556 292.437 o
-9 7 8 17.963 18.087 0.905 25.940 o
-9 7 9 29.513 28.415 1.282 12.853 o
-9 7 10 26.363 21.597 1.783 12.753 o
-9 7 11 110.687 117.534 3.854 1.345 o
-9 7 12 8.798 9.459 1.608 27.570 o
-9 7 13 2.039 -0.033 1.825 31.040 o
-9 8 1 6.080 6.828 0.864 66.928 o
-9 8 2 22.516 23.542 1.127 18.077 o
-9 8 3 27.025 24.342 1.207 15.020 o
-9 8 4 14.055 13.828 0.997 32.195 o
-9 8 5 36.221 37.461 1.213 9.724 o
-9 8 6 27.414 27.168 1.053 14.909 o
-9 8 7 0.382 1.104 0.615 240.938 o
-9 8 8 40.685 43.849 1.164 8.170 o
-9 8 9 79.777 86.365 1.808 2.683 o
-9 8 10 47.850 49.910 1.491 6.211 o
-9 8 11 17.402 16.073 1.711 18.015 o
-9 8 12 9.163 8.535 2.332 16.002 o
-9 9 1 2.214 2.913 0.792 117.189 o
-9 9 2 41.160 40.969 1.436 7.923 o
-9 9 3 2.493 2.164 0.654 150.982 o
-9 9 4 9.072 7.266 0.809 57.120 o
-9 9 5 13.815 12.907 0.907 35.074 o
-9 9 6 2.736 3.860 0.708 121.895 o
-9 9 7 124.955 133.953 1.913 1.259 o
-9 9 8 7.523 6.617 0.755 68.074 o
-9 9 9 17.616 14.871 0.950 27.602 o
-9 9 10 0.178 0.120 0.730 196.847 o
-9 9 11 2.338 3.039 1.106 70.453 o
-9 9 12 0.752 1.708 2.925 12.486 o
-9 10 1 7.337 7.750 0.903 57.589 o
-9 10 2 58.923 64.540 2.125 4.061 o
-9 10 3 1.047 1.676 0.756 150.846 o
-9 10 4 9.225 7.934 0.854 53.306 o
-9 10 5 12.694 11.950 0.964 36.571 o
-9 10 6 25.436 26.552 2.107 10.740 o
-9 10 7 4.634 4.625 0.799 87.053 o
-9 10 8 1.351 3.041 0.721 144.870 o
-9 10 9 25.496 26.478 1.587 13.254 o
-9 10 10 1.399 1.349 0.795 136.521 o
-9 11 1 3.722 3.344 1.395 45.163 o
-9 11 2 41.909 42.211 2.363 6.151 o
-9 11 3 97.862 104.348 3.539 1.658 o
-9 11 4 0.058 -0.291 0.924 126.239 o
-9 11 5 2.793 4.186 1.068 70.043 o
-9 11 6 19.838 20.431 1.203 20.240 o
-9 11 7 0.570 0.384 0.770 166.474 o
-9 11 8 0.000 0.091 0.682 231.024 o
-9 11 9 9.545 7.622 1.709 25.541 o
-9 12 4 18.394 20.941 1.874 15.048 o
-9 12 5 38.380 42.746 4.905 3.087 o
-9 12 6 21.041 20.614 2.882 8.700 o
-8 0 2 18.497 11.976 0.648 32.343 o
-8 0 4 6.970 6.243 0.563 86.294 o
-8 0 6 20.745 17.080 0.646 25.911 o
-8 0 8 37.099 37.800 1.064 9.764 o
-8 0 10 22.567 25.140 1.087 17.824 o
-8 0 12 2.357 1.361 0.855 111.275 o
-8 0 14 7.676 6.690 1.369 37.125 o
-8 1 1 150.967 145.770 1.622 0.967 o
-8 1 2 0.061 -0.000 0.373 754.157 o
-8 1 3 82.267 68.070 0.815 3.155 o
-8 1 4 8.960 9.276 0.401 71.588 o
-8 1 5 6.230 7.418 0.424 98.384 o
-8 1 6 8.220 6.609 0.409 85.339 o
-8 1 7 159.284 157.046 1.839 0.862 o
-8 1 8 242.926 228.063 2.707 0.402 o
-8 1 9 108.504 109.892 1.883 1.664 o
-8 1 10 0.273 0.724 0.474 396.954 o
-8 1 11 1.108 1.224 0.473 303.323 o
-8 1 12 0.005 -0.210 0.555 351.394 o
-8 1 13 0.001 -0.433 0.597 303.798 o
-8 1 14 3.964 2.152 0.965 80.097 o
-8 1 15 4.072 5.408 1.031 65.641 o
-8 2 1 15.809 17.904 0.733 30.853 o
-8 2 2 0.743 1.502 0.367 434.114 o
-8 2 3 41.427 41.608 1.027 8.434 o
-8 2 4 4.864 5.481 0.364 134.622 o
-8 2 5 1.956 2.704 0.373 267.250 o
-8 2 6 113.292 105.889 1.046 1.678 o
-8 2 7 4.242 4.752 0.358 154.508 o
-8 2 8 43.786 41.791 0.695 8.314 o
-8 2 9 12.976 10.856 0.628 45.360 o
-8 2 10 4.911 4.820 0.547 114.992 o
-8 2 11 9.663 8.268 0.741 56.223 o
-8 2 12 28.372 29.359 1.290 13.062 o
-8 2 13 14.185 14.909 0.914 32.729 o
-8 2 14 0.091 -0.442 0.766 182.809 o
-8 2 15 15.215 15.530 1.585 20.849 o
-8 3 1 33.764 30.823 0.814 12.322 o
-8 3 2 3.625 2.843 0.419 181.179 o
-8 3 3 183.935 168.849 2.678 0.676 o
-8 3 4 32.160 26.071 0.854 13.770 o
-8 3 5 105.203 95.804 1.435 1.907 o
-8 3 6 0.489 0.686 0.287 744.321 o
-8 3 7 10.271 11.418 0.436 58.544 o
-8 3 8 207.307 211.404 1.940 0.520 o
-8 3 9 11.380 11.757 0.616 48.957 o
-8 3 10 1.320 0.895 0.480 294.823 o
-8 3 11 25.191 26.026 1.131 15.889 o
-8 3 12 16.817 16.396 1.037 26.469 o
-8 3 13 0.036 0.642 0.993 107.098 o
-8 3 14 1.165 2.053 1.163 71.122 o
-8 3 15 44.632 46.801 2.092 6.020 o
-8 4 1 83.315 84.417 0.947 2.751 o
-8 4 2 17.128 15.676 0.645 31.631 o
-8 4 3 147.415 157.547 1.681 0.948 o
-8 4 4 150.527 142.583 1.718 0.981 o
-8 4 5 3.398 1.358 0.369 230.654 o
-8 4 6 2.566 1.596 0.336 282.206 o
-8 4 7 22.323 21.419 0.710 21.762 o
-8 4 8 17.305 16.550 0.783 29.082 o
-8 4 9 7.193 7.008 0.558 82.164 o
-8 4 10 16.455 16.531 0.739 30.830 o
-8 4 11 22.020 22.149 1.040 19.462 o
-8 4 12 10.298 9.213 0.866 47.746 o
-8 4 13 7.891 9.998 1.263 37.876 o
-8 4 14 51.126 54.810 6.581 1.789 o
-8 4 15 1.440 4.651 2.882 12.582 o
-8 5 1 2.927 2.801 0.453 192.895 o
-8 5 2 159.165 159.599 1.436 0.863 o
-8 5 3 72.649 74.779 1.061 3.417 o
-8 5 4 1.833 1.355 0.416 291.818 o
-8 5 5 1.010 0.671 0.456 348.426 o
-8 5 6 76.685 74.014 1.188 3.208 o
-8 5 7 10.424 7.292 0.513 64.679 o
-8 5 8 17.899 17.878 0.894 26.255 o
-8 5 9 13.429 12.168 0.992 34.509 o
-8 5 10 51.781 52.191 1.531 5.598 o
-8 5 11 16.978 18.086 0.873 27.436 o
-8 5 12 0.019 0.721 0.705 206.269 o
-8 5 13 11.384 11.492 1.516 26.337 o
-8 5 14 30.002 29.267 1.973 9.945 o
-8 5 15 2.069 2.946 1.665 35.419 o
-8 6 1 336.766 355.593 3.407 0.201 o
-8 6 2 8.747 10.663 0.580 61.924 o
-8 6 3 0.013 -0.205 0.367 799.307 o
-8 6 4 7.078 5.624 0.496 93.228 o
-8 6 5 120.286 119.332 1.483 1.435 o
-8 6 6 4.128 4.687 0.527 129.566 o
-8 6 7 6.297 5.155 0.757 78.638 o
-8 6 8 17.065 15.793 0.856 28.957 o
-8 6 9 26.873 28.619 0.917 15.388 o
-8 6 10 9.074 8.754 0.627 62.711 o
-8 6 11 1.088 0.471 0.679 192.463 o
-8 6 12 6.740 6.781 0.935 59.629 o
-8 6 13 72.960 83.115 2.825 2.658 o
-8 6 14 3.566 3.023 1.149 62.093 o
-8 7 1 10.653 8.594 0.596 57.621 o
-8 7 2 0.038 0.010 0.431 573.041 o
-8 7 3 127.878 140.655 1.554 1.206 o
-8 7 4 73.624 77.069 1.268 3.261 o
-8 7 5 34.130 32.727 0.843 11.801 o
-8 7 6 42.438 43.858 1.121 7.905 o
-8 7 7 72.046 78.645 1.548 3.222 o
-8 7 8 35.313 37.986 1.036 10.253 o
-8 7 9 20.852 22.478 1.091 19.764 o
-8 7 10 0.014 -0.674 0.523 394.498 o
-8 7 11 7.132 6.956 0.810 65.537 o
-8 7 12 0.923 1.015 0.663 197.357 o
-8 7 13 7.692 7.227 0.975 53.437 o
-8 7 14 0.001 -1.174 1.292 64.955 o
-8 8 1 9.994 10.655 0.749 50.770 o
-8 8 2 40.273 39.712 0.914 9.033 o
-8 8 3 53.794 49.955 1.082 5.854 o
-8 8 4 62.530 65.693 1.047 4.331 o
-8 8 5 107.074 102.568 1.600 1.784 o
-8 8 6 0.427 0.434 0.465 408.915 o
-8 8 7 5.587 5.747 0.654 91.108 o
-8 8 8 39.309 42.864 1.141 8.569 o
-8 8 9 33.097 34.263 1.623 9.819 o
-8 8 10 21.978 23.307 1.173 18.154 o
-8 8 11 27.769 34.233 1.749 10.704 o
-8 8 12 2.808 1.876 0.839 107.464 o
-8 8 13 18.671 20.811 1.972 14.230 o
-8 9 1 0.562 0.181 0.314 732.390 o
-8 9 2 14.889 14.638 0.814 33.583 o
-8 9 3 0.073 -0.062 0.504 417.354 o
-8 9 4 1.323 0.723 0.509 277.927 o
-8 9 5 23.506 24.533 1.052 17.665 o
-8 9 6 65.315 69.035 1.551 3.833 o
-8 9 7 167.738 184.979 2.388 0.721 o
-8 9 8 69.907 76.599 1.417 3.416 o
-8 9 9 19.830 20.640 1.151 20.643 o
-8 9 10 0.119 -0.458 0.671 236.144 o
-8 9 11 2.475 1.010 0.959 93.634 o
-8 9 12 18.642 22.712 2.112 12.968 o
-8 10 1 27.398 28.705 1.420 12.984 o
-8 10 2 5.481 5.833 0.598 97.425 o
-8 10 3 0.224 0.514 0.551 318.793 o
-8 10 4 45.112 45.424 1.387 7.000 o
-8 10 5 83.448 89.257 1.561 2.561 o
-8 10 6 20.330 20.102 1.169 20.322 o
-8 10 7 0.580 0.367 0.750 174.678 o
-8 10 8 1.703 2.892 0.788 124.172 o
-8 10 9 20.446 20.325 1.633 16.233 o
-8 10 10 0.000 -0.282 0.726 205.674 o
-8 10 11 1.459 1.136 1.029 89.084 o
-8 11 1 0.511 0.538 0.849 138.979 o
-8 11 2 8.520 7.325 0.970 51.069 o
-8 11 3 14.147 13.874 1.158 29.050 o
-8 11 4 25.856 23.137 1.355 15.028 o
-8 11 5 40.086 40.708 1.555 7.926 o
-8 11 6 0.023 -1.014 0.617 283.780 o
-8 11 7 110.360 124.186 2.364 1.475 o
-8 11 8 4.876 4.040 0.855 81.328 o
-8 11 9 4.645 4.697 0.918 74.593 o
-8 11 10 0.061 -0.508 0.901 132.642 o
-8 12 1 132.121 136.534 3.544 1.065 o
-8 12 2 0.412 1.041 0.788 156.688 o
-8 12 3 2.586 2.733 0.945 89.175 o
-8 12 4 6.174 4.162 1.100 55.554 o
-8 12 5 2.909 4.275 0.859 93.347 o
-8 12 6 1.388 0.181 0.806 142.021 o
-8 12 7 0.460 -0.364 0.853 142.196 o
-8 12 8 1.429 0.867 1.125 76.824 o
-8 13 4 4.465 4.208 1.302 47.855 o
-8 13 5 0.221 -1.324 1.708 36.940 o
-7 0 2 5.862 5.975 0.489 104.010 o
-7 0 4 5.454 5.407 0.320 130.221 o
-7 0 6 1296.760 1317.680 11.559 0.015 o
-7 0 8 5.643 5.274 0.425 117.350 o
-7 0 10 61.694 62.519 1.160 4.469 o
-7 0 12 0.002 0.257 0.834 153.599 o
-7 0 14 1.739 0.458 1.364 53.804 o
-7 1 1 17.961 16.445 0.856 27.448 o
-7 1 2 72.613 66.245 0.837 3.705 o
-7 1 3 52.108 54.602 0.992 5.839 o
-7 1 4 259.312 227.706 2.097 0.374 o
-7 1 5 74.907 78.819 0.925 3.231 o
-7 1 6 5.335 4.743 0.299 140.359 o
-7 1 7 64.928 57.533 1.008 4.473 o
-7 1 8 59.609 56.926 0.821 5.022 o
-7 1 9 9.070 7.698 0.465 72.945 o
-7 1 10 3.883 4.136 0.384 165.325 o
-7 1 11 0.963 0.590 0.594 241.221 o
-7 1 12 16.139 19.257 0.972 26.503 o
-7 1 13 12.842 12.664 0.976 35.443 o
-7 1 14 32.533 35.510 1.407 10.420 o
-7 1 15 0.426 -0.250 0.819 154.046 o
-7 2 1 174.616 138.066 2.112 0.818 o
-7 2 2 209.172 176.879 1.826 0.572 o
-7 2 3 0.005 0.021 0.221 2170.720 o
-7 2 4 134.370 125.690 1.438 1.222 o
-7 2 5 563.016 602.605 4.889 0.074 o
-7 2 6 1.880 0.992 0.309 383.187 o
-7 2 7 8.909 9.818 0.479 67.321 o
-7 2 8 3.706 3.928 0.446 159.302 o
-7 2 9 4.683 3.839 0.417 145.326 o
-7 2 10 70.819 64.026 1.442 3.699 o
-7 2 11 0.198 -0.184 0.411 589.216 o
-7 2 12 21.918 20.683 0.875 21.291 o
-7 2 13 0.034 -0.188 0.579 320.812 o
-7 2 14 10.744 11.296 1.280 32.310 o
-7 2 15 11.174 13.045 1.318 29.844 o
-7 3 1 105.922 112.303 1.102 1.751 o
-7 3 2 197.144 170.974 1.985 0.627 o
-7 3 3 249.101 255.400 1.874 0.368 o
-7 3 4 220.930 200.877 3.080 0.483 o
-7 3 5 246.810 258.610 1.899 0.369 o
-7 3 6 8.437 6.532 0.402 84.296 o
-7 3 7 7.151 5.409 0.569 87.652 o
-7 3 8 44.568 45.098 0.920 7.646 o
-7 3 9 10.936 13.290 0.945 39.081 o
-7 3 10 13.908 12.143 0.647 40.994 o
-7 3 11 14.704 12.070 0.796 36.464 o
-7 3 12 72.391 68.841 2.130 3.226 o
-7 3 13 4.898 5.228 0.839 79.251 o
-7 3 14 5.414 5.925 1.361 41.584 o
-7 3 15 10.205 5.120 1.474 31.666 o
-7 4 1 62.267 60.099 0.692 4.688 o
-7 4 2 55.832 47.881 0.908 5.847 o
-7 4 3 32.027 29.435 0.617 13.717 o
-7 4 4 13.759 15.264 0.591 38.888 o
-7 4 5 23.541 19.595 0.510 22.595 o
-7 4 6 144.280 153.665 1.392 0.995 o
-7 4 7 83.206 77.083 1.046 2.884 o
-7 4 8 70.946 68.010 1.458 3.575 o
-7 4 9 3.753 3.613 0.459 159.102 o
-7 4 10 115.681 104.239 1.771 1.600 o
-7 4 11 12.892 13.361 0.746 39.837 o
-7 4 12 10.502 9.642 0.896 45.611 o
-7 4 13 8.000 6.297 1.083 48.565 o
-7 4 14 1.548 4.479 1.343 51.295 o
-7 4 15 12.946 11.211 1.631 23.182 o
-7 5 1 28.492 31.853 0.524 14.991 o
-7 5 2 120.222 122.129 1.223 1.430 o
-7 5 3 1.208 0.967 0.311 476.430 o
-7 5 4 8.296 5.835 0.432 86.470 o
-7 5 5 21.049 19.751 0.652 24.114 o
-7 5 6 45.184 43.267 0.655 7.934 o
-7 5 7 18.581 18.266 0.521 28.874 o
-7 5 8 0.184 0.185 0.452 482.250 o
-7 5 9 1.000 0.437 0.379 457.404 o
-7 5 10 0.520 0.232 0.416 490.695 o
-7 5 11 35.450 33.511 1.377 10.013 o
-7 5 12 83.306 84.533 1.867 2.580 o
-7 5 13 11.143 10.303 1.238 33.500 o
-7 5 14 0.943 0.126 1.023 96.576 o
-7 5 15 8.813 8.636 2.199 17.676 o
-7 6 1 170.953 167.630 1.520 0.767 o
-7 6 2 19.189 20.043 0.658 25.905 o
-7 6 3 205.647 209.851 1.993 0.527 o
-7 6 4 48.665 50.059 0.929 6.611 o
-7 6 5 2.413 1.237 0.393 272.971 o
-7 6 6 5.487 4.444 0.440 123.564 o
-7 6 7 14.964 14.940 0.753 34.230 o
-7 6 8 44.901 43.188 1.027 7.641 o
-7 6 9 1.686 1.047 0.409 317.970 o
-7 6 10 0.231 -0.118 0.508 393.853 o
-7 6 11 14.254 13.146 0.990 32.529 o
-7 6 12 34.703 35.264 1.645 9.288 o
-7 6 13 11.431 8.023 1.274 33.734 o
-7 6 14 8.840 10.582 1.133 40.093 o
-7 7 1 18.474 17.713 0.528 29.345 o
-7 7 2 239.490 235.303 2.018 0.406 o
-7 7 3 0.012 -0.150 0.304 1157.680 o
-7 7 4 2.406 3.097 0.424 215.584 o
-7 7 5 4.039 3.909 0.420 157.334 o
-7 7 6 0.063 0.256 0.375 699.313 o
-7 7 7 6.330 6.234 0.580 90.034 o
-7 7 8 50.568 50.895 1.125 6.154 o
-7 7 9 24.289 26.801 0.770 17.990 o
-7 7 10 55.699 62.965 1.391 4.820 o
-7 7 11 86.514 86.926 2.078 2.395 o
-7 7 12 6.471 5.983 0.923 62.988 o
-7 7 13 0.585 -0.002 0.835 146.176 o
-7 7 14 10.739 8.253 1.185 37.145 o
-7 8 1 0.055 0.387 0.350 769.502 o
-7 8 2 2.069 1.524 0.414 273.312 o
-7 8 3 2.878 1.639 0.390 239.549 o
-7 8 4 18.285 20.154 0.845 25.132 o
-7 8 5 58.904 61.397 1.305 4.666 o
-7 8 6 56.778 55.266 1.037 5.276 o
-7 8 7 22.709 23.512 0.856 19.726 o
-7 8 8 4.755 4.094 0.509 127.458 o
-7 8 9 9.085 9.004 0.715 58.165 o
-7 8 10 7.502 7.896 0.732 66.508 o
-7 8 11 0.118 -0.489 0.722 204.706 o
-7 8 12 0.797 2.066 1.021 91.472 o
-7 8 13 12.026 12.110 1.156 32.987 o
-7 9 1 38.791 38.900 0.937 9.434 o
-7 9 2 24.454 25.189 0.814 18.188 o
-7 9 3 161.007 160.150 2.024 0.836 o
-7 9 4 1.157 0.676 0.467 324.832 o
-7 9 5 38.243 39.205 1.123 9.219 o
-7 9 6 0.829 1.472 0.550 255.979 o
-7 9 7 15.251 17.227 1.000 28.305 o
-7 9 8 30.627 31.173 1.018 12.861 o
-7 9 9 73.846 83.908 1.779 2.962 o
-7 9 10 1.973 2.449 0.637 163.616 o
-7 9 11 14.015 13.306 1.011 32.363 o
-7 9 12 0.987 1.836 0.867 120.365 o
-7 9 13 38.057 37.384 3.106 5.465 o
-7 10 1 20.558 23.599 0.954 20.625 o
-7 10 2 20.768 18.712 0.886 23.041 o
-7 10 3 53.446 55.554 1.342 5.405 o
-7 10 4 0.525 0.250 0.533 325.069 o
-7 10 5 206.636 230.262 2.877 0.484 o
-7 10 6 13.104 11.794 0.961 36.060 o
-7 10 7 0.559 0.806 0.690 197.382 o
-7 10 8 2.303 1.697 0.841 112.853 o
-7 10 9 28.311 32.079 1.347 12.380 o
-7 10 10 20.029 20.921 1.077 21.055 o
-7 10 11 8.102 9.793 1.027 46.426 o
-7 10 12 1.944 3.982 1.612 37.120 o
-7 11 1 22.991 24.415 1.023 18.191 o
-7 11 2 1.098 0.557 0.564 255.904 o
-7 11 3 26.393 28.530 1.061 15.033 o
-7 11 4 0.156 0.236 0.670 230.720 o
-7 11 5 3.335 1.910 0.689 130.927 o
-7 11 6 0.121 -0.400 0.644 256.081 o
-7 11 7 5.546 6.155 0.961 63.670 o
-7 11 8 3.909 5.059 0.965 72.935 o
-7 11 9 48.335 60.880 1.946 5.129 o
-7 11 10 0.988 0.441 0.729 173.597 o
-7 11 11 25.143 23.774 3.896 5.294 o
-7 12 1 12.373 10.741 0.808 42.416 o
-7 12 2 3.813 3.959 0.756 101.811 o
-7 12 3 31.477 32.826 1.341 11.286 o
-7 12 4 4.238 5.018 0.888 78.801 o
-7 12 5 25.357 26.735 1.207 15.239 o
-7 12 6 17.059 14.307 1.317 23.455 o
-7 12 7 0.160 -0.075 0.823 157.064 o
-7 12 8 0.408 0.144 0.874 135.360 o
-7 12 9 104.640 105.882 3.388 1.567 o
-7 13 1 8.306 8.301 1.085 45.324 o
-7 13 2 20.066 16.515 0.981 23.806 o
-7 13 3 4.076 4.106 0.835 88.614 o
-7 13 4 4.853 4.405 0.872 78.710 o
-7 13 5 2.820 1.514 1.007 83.102 o
-7 13 6 14.523 14.370 1.279 26.293 o
-7 13 7 71.217 92.009 4.622 1.952 o
-6 0 2 9.050 3.014 0.297 100.408 o
-6 0 4 288.768 290.829 2.229 0.281 o
-6 0 6 231.993 217.006 2.724 0.438 o
-6 0 8 0.818 1.362 0.369 429.888 o
-6 0 10 24.723 30.182 0.914 16.104 o
-6 0 12 36.181 32.113 1.300 10.201 o
-6 0 14 221.216 234.831 4.799 0.416 o
-6 1 1 83.212 80.865 0.766 2.846 o
-6 1 2 4.042 5.466 0.267 164.238 o
-6 1 3 780.983 810.090 4.134 0.040 o
-6 1 4 420.026 418.275 1.530 0.139 o
-6 1 5 0.926 0.717 0.214 751.845 o
-6 1 6 72.422 66.009 0.795 3.732 o
-6 1 7 3.803 3.343 0.295 197.163 o
-6 1 8 253.171 246.727 1.582 0.370 o
-6 1 9 25.629 27.141 0.645 17.552 o
-6 1 10 14.051 14.018 0.692 37.813 o
-6 1 11 20.488 20.325 0.892 22.517 o
-6 1 12 79.805 80.054 2.431 2.618 o
-6 1 13 9.966 10.426 0.784 49.942 o
-6 1 14 21.761 22.912 1.375 16.924 o
-6 1 15 0.009 -0.217 0.990 110.412 o
-6 2 1 572.524 587.611 2.722 0.074 o
-6 2 2 42.906 31.505 0.553 9.821 o
-6 2 3 530.425 548.277 3.823 0.085 o
-6 2 4 4.979 6.374 0.246 136.976 o
-6 2 5 33.399 32.089 0.571 12.710 o
-6 2 6 445.888 439.272 3.538 0.123 o
-6 2 7 12.720 12.487 0.665 43.050 o
-6 2 8 0.053 0.123 0.299 1104.390 o
-6 2 9 154.009 155.560 1.736 0.906 o
-6 2 10 76.447 76.542 1.170 3.164 o
-6 2 11 19.450 17.799 0.725 26.296 o
-6 2 12 35.586 33.867 1.032 10.757 o
-6 2 13 6.164 5.843 1.013 58.437 o
-6 2 14 16.763 16.239 1.864 16.749 o
-6 2 15 58.005 62.249 2.093 4.215 o
-6 3 1 109.398 105.522 1.290 1.737 o
-6 3 2 155.066 154.149 1.256 0.914 o
-6 3 3 298.038 316.417 2.457 0.255 o
-6 3 4 76.365 80.295 0.808 3.147 o
-6 3 5 54.728 49.809 0.826 5.909 o
-6 3 6 98.069 92.264 1.175 2.142 o
-6 3 7 8.780 6.514 0.446 79.563 o
-6 3 8 159.789 139.019 1.768 0.922 o
-6 3 9 76.209 68.391 1.183 3.369 o
-6 3 10 48.808 46.280 1.102 6.712 o
-6 3 11 1.586 1.607 0.501 246.823 o
-6 3 12 62.442 66.624 1.998 3.859 o
-6 3 13 0.016 -0.180 0.782 176.978 o
-6 3 14 13.010 12.491 1.208 30.291 o
-6 3 15 2.537 1.749 0.872 104.632 o
-6 4 1 195.022 193.396 1.367 0.599 o
-6 4 2 398.395 397.869 2.420 0.153 o
-6 4 3 319.330 324.303 3.300 0.228 o
-6 4 4 131.561 129.893 1.338 1.233 o
-6 4 5 28.705 29.477 0.609 15.275 o
-6 4 6 78.832 67.710 0.919 3.312 o
-6 4 7 34.172 27.483 0.850 12.698 o
-6 4 8 48.255 44.166 1.501 6.513 o
-6 4 9 19.736 22.133 0.850 22.723 o
-6 4 10 208.229 216.739 2.980 0.497 o
-6 4 11 16.227 18.866 1.101 24.984 o
-6 4 12 19.271 20.951 1.203 20.459 o
-6 4 13 16.152 13.243 1.502 22.081 o
-6 4 14 0.651 -0.800 0.844 142.469 o
-6 4 15 1.210 1.562 0.978 97.460 o
-6 5 1 1.166 1.007 0.164 693.813 o
-6 5 2 101.919 107.190 0.921 1.896 o
-6 5 3 46.687 40.353 1.177 7.406 o
-6 5 4 16.348 10.684 0.559 38.757 o
-6 5 5 26.271 26.825 0.951 16.010 o
-6 5 6 3.565 3.185 0.261 216.305 o
-6 5 7 68.188 60.880 0.805 4.171 o
-6 5 8 192.980 183.493 2.321 0.614 o
-6 5 9 92.476 94.290 1.585 2.213 o
-6 5 10 19.200 19.774 1.101 21.932 o
-6 5 11 37.278 36.375 1.369 9.269 o
-6 5 12 1.030 1.557 0.689 176.186 o
-6 5 13 36.742 43.280 2.849 5.775 o
-6 5 14 13.911 12.545 1.215 29.056 o
-6 5 15 0.571 0.198 1.000 103.057 o
-6 6 1 7.831 6.020 0.336 95.383 o
-6 6 2 57.854 53.913 0.666 5.402 o
-6 6 3 59.022 61.612 0.828 4.860 o
-6 6 4 1.600 0.603 0.410 342.673 o
-6 6 5 33.099 34.530 0.864 11.798 o
-6 6 6 178.051 156.829 2.160 0.745 o
-6 6 7 57.942 55.539 1.433 4.921 o
-6 6 8 1.650 0.917 0.422 315.788 o
-6 6 9 46.312 43.485 0.932 7.474 o
-6 6 10 0.631 0.460 0.453 400.873 o
-6 6 11 0.007 -0.468 0.525 392.946 o
-6 6 12 0.035 0.407 0.672 230.725 o
-6 6 13 30.422 34.705 1.760 9.966 o
-6 6 14 17.113 16.826 1.275 22.913 o
-6 7 1 101.053 95.350 1.026 2.043 o
-6 7 2 7.806 9.089 0.377 80.721 o
-6 7 3 0.008 -0.244 0.200 2676.590 o
-6 7 4 160.558 145.808 1.448 0.901 o
-6 7 5 0.040 -0.069 0.276 1368.840 o
-6 7 6 2.571 2.193 0.460 212.854 o
-6 7 7 13.325 14.245 0.704 38.842 o
-6 7 8 22.984 25.430 0.819 19.069 o
-6 7 9 2.170 1.830 0.440 245.940 o
-6 7 10 3.090 2.478 0.543 166.334 o
-6 7 11 40.411 41.745 1.425 8.006 o
-6 7 12 16.106 14.437 1.397 23.098 o
-6 7 13 2.968 3.707 0.877 92.623 o
-6 7 14 2.729 2.338 0.936 90.747 o
-6 8 1 19.096 14.984 0.740 28.279 o
-6 8 2 0.581 0.198 0.324 694.138 o
-6 8 3 68.716 71.079 1.215 3.693 o
-6 8 4 152.467 153.174 1.502 0.931 o
-6 8 5 10.308 8.457 0.550 61.083 o
-6 8 6 6.541 5.060 0.501 100.543 o
-6 8 7 121.035 124.027 1.645 1.384 o
-6 8 8 26.973 27.852 1.083 14.826 o
-6 8 9 8.294 7.471 0.595 71.447 o
-6 8 10 18.984 17.392 1.111 23.012 o
-6 8 11 4.361 4.667 0.790 89.953 o
-6 8 12 55.952 60.253 2.796 3.880 o
-6 8 13 1.087 2.708 1.072 80.814 o
-6 9 1 5.914 6.340 0.489 101.530 o
-6 9 2 3.519 3.379 0.420 176.434 o
-6 9 3 32.583 33.721 0.911 12.002 o
-6 9 4 64.710 60.726 1.162 4.309 o
-6 9 5 0.151 -0.099 0.407 613.929 o
-6 9 6 47.745 47.663 1.035 6.827 o
-6 9 7 19.261 18.539 0.889 24.532 o
-6 9 8 0.042 0.478 0.580 303.306 o
-6 9 9 4.306 5.332 0.659 103.953 o
-6 9 10 4.156 4.123 0.669 110.431 o
-6 9 11 3.938 4.313 0.850 87.136 o
-6 9 12 5.567 3.043 0.920 73.864 o
-6 9 13 0.753 1.556 1.101 81.399 o
-6 10 1 58.596 58.992 1.036 4.929 o
-6 10 2 70.560 69.927 1.058 3.664 o
-6 10 3 113.064 110.757 1.467 1.613 o
-6 10 4 13.725 13.261 0.825 36.611 o
-6 10 5 30.251 29.633 1.089 13.062 o
-6 10 6 208.958 228.140 3.067 0.478 o
-6 10 7 7.608 6.947 0.833 62.099 o
-6 10 8 1.734 1.963 0.660 166.550 o
-6 10 9 2.724 3.995 0.732 116.678 o
-6 10 10 10.510 9.583 0.877 46.325 o
-6 10 11 1.533 1.024 0.757 147.753 o
-6 10 12 4.014 3.159 1.284 51.045 o
-6 11 1 0.067 0.098 0.468 476.452 o
-6 11 2 5.438 6.740 0.735 80.955 o
-6 11 3 10.473 9.657 0.838 47.669 o
-6 11 4 0.526 0.365 0.679 210.767 o
-6 11 5 0.406 0.374 0.632 244.354 o
-6 11 6 2.628 2.294 0.739 127.032 o
-6 11 7 33.957 33.746 1.826 9.109 o
-6 11 8 6.598 4.683 0.817 73.228 o
-6 11 9 0.352 0.237 0.656 233.008 o
-6 11 10 0.410 -0.698 0.623 258.797 o
-6 11 11 0.011 -1.448 1.120 86.365 o
-6 12 1 5.472 5.859 0.595 97.684 o
-6 12 2 3.571 3.301 0.705 115.749 o
-6 12 3 1.980 1.149 0.697 157.496 o
-6 12 4 7.137 5.270 0.830 68.049 o
-6 12 5 14.555 13.619 1.004 31.486 o
-6 12 6 6.675 5.739 1.099 51.932 o
-6 12 7 34.010 35.240 1.603 9.555 o
-6 12 8 11.918 12.064 1.075 35.117 o
-6 12 9 0.267 1.845 0.745 167.723 o
-6 12 10 39.266 39.668 3.098 5.297 o
-6 13 1 1.481 0.542 0.562 239.813 o
-6 13 2 11.507 10.857 0.853 43.049 o
-6 13 3 29.591 31.394 1.408 11.848 o
-6 13 4 1.175 1.982 0.887 113.247 o
-6 13 5 3.463 5.957 1.274 49.721 o
-6 13 6 2.850 5.085 1.010 73.434 o
-6 13 7 17.448 18.933 1.704 17.356 o
-6 13 8 1.252 -1.846 2.011 26.174 o
-6 14 1 6.434 5.096 0.962 62.192 o
-6 14 2 12.161 10.971 1.009 37.284 o
-6 14 3 3.340 3.698 1.003 75.128 o
-6 14 4 28.047 31.503 2.225 9.217 o
-6 14 5 29.910 35.890 3.256 5.891 o
-5 0 2 118.178 121.111 1.743 1.436 o
-5 0 4 32.037 43.294 0.531 11.280 o
-5 0 6 317.057 327.808 3.361 0.228 o
-5 0 8 480.949 495.011 3.401 0.103 o
-5 0 10 357.646 370.067 4.791 0.178 o
-5 0 12 123.950 126.954 2.686 1.258 o
-5 0 14 0.003 0.877 0.869 137.616 o
-5 1 1 54.172 54.052 0.598 5.827 o
-5 1 2 40.101 39.180 0.591 9.522 o
-5 1 3 84.452 79.903 0.731 2.820 o
-5 1 4 210.676 196.510 0.986 0.540 o
-5 1 5 33.594 33.629 0.481 12.482 o
-5 1 6 116.097 135.186 0.886 1.409 o
-5 1 7 141.228 151.713 1.259 1.033 o
-5 1 8 1.881 1.742 0.242 390.595 o
-5 1 9 48.170 44.409 0.709 7.272 o
-5 1 10 37.905 38.608 1.345 8.942 o
-5 1 11 4.997 5.334 0.495 117.380 o
-5 1 12 201.999 197.071 3.451 0.538 o
-5 1 13 18.636 20.113 1.129 21.976 o
-5 1 14 2.734 2.911 0.758 118.034 o
-5 1 15 12.178 11.515 1.143 33.498 o
-5 2 1 374.422 395.561 1.897 0.166 o
-5 2 2 17.215 20.436 0.396 30.192 o
-5 2 3 0.001 0.044 0.133 5582.290 o
-5 2 4 195.216 175.705 1.038 0.636 o
-5 2 5 100.146 104.883 0.959 1.958 o
-5 2 6 0.088 0.192 0.218 1776.040 o
-5 2 7 139.368 148.197 1.328 1.063 o
-5 2 8 1.073 1.426 0.322 447.055 o
-5 2 9 2.229 2.120 0.314 298.196 o
-5 2 10 212.966 208.441 2.620 0.500 o
-5 2 11 57.314 59.400 1.689 4.644 o
-5 2 12 26.938 28.249 1.269 13.924 o
-5 2 13 0.137 0.608 0.764 175.539 o
-5 2 14 27.139 26.369 1.419 13.512 o
-5 2 15 0.335 1.073 1.095 85.706 o
-5 2 16 0.368 1.035 1.377 55.191 o
-5 3 1 367.212 371.444 1.488 0.178 o
-5 3 2 1.519 0.574 0.131 688.578 o
-5 3 3 73.378 66.660 0.875 3.640 o
-5 3 4 120.092 110.721 0.888 1.531 o
-5 3 5 1.564 3.483 0.256 326.870 o
-5 3 6 69.255 63.938 0.904 3.969 o
-5 3 7 48.965 52.821 0.845 6.438 o
-5 3 8 419.401 440.130 5.678 0.130 o
-5 3 9 20.004 24.419 0.678 22.692 o
-5 3 10 0.079 -0.068 0.347 856.584 o
-5 3 11 15.710 13.843 0.865 32.079 o
-5 3 12 0.315 -1.676 0.886 133.931 o
-5 3 13 5.593 8.115 1.272 43.214 o
-5 3 14 5.022 4.841 0.994 65.909 o
-5 3 15 0.065 0.307 0.988 109.158 o
-5 4 1 37.245 28.975 0.514 11.957 o
-5 4 2 4.881 3.251 0.225 176.890 o
-5 4 3 208.365 213.142 1.243 0.520 o
-5 4 4 18.607 16.946 0.481 30.084 o
-5 4 5 17.809 14.091 0.455 33.879 o
-5 4 6 115.966 99.192 1.277 1.676 o
-5 4 7 217.122 216.756 2.412 0.479 o
-5 4 8 13.230 12.909 0.539 43.851 o
-5 4 9 0.399 0.148 0.353 675.686 o
-5 4 10 42.135 40.851 1.376 7.859 o
-5 4 11 0.405 0.053 0.478 414.935 o
-5 4 12 52.715 52.702 1.747 5.286 o
-5 4 13 0.612 0.369 0.960 110.417 o
-5 4 14 5.512 2.274 1.136 58.047 o
-5 4 15 4.645 6.160 1.048 60.747 o
-5 5 1 335.909 343.446 1.811 0.209 o
-5 5 2 147.606 150.339 1.112 0.988 o
-5 5 3 18.133 12.542 0.532 33.873 o
-5 5 4 242.381 222.428 1.463 0.417 o
-5 5 5 181.273 160.707 2.021 0.721 o
-5 5 6 131.987 125.308 1.945 1.226 o
-5 5 7 8.639 8.122 0.512 72.024 o
-5 5 8 26.037 24.742 0.774 17.522 o
-5 5 9 8.258 10.006 0.563 66.560 o
-5 5 10 117.543 112.864 1.651 1.512 o
-5 5 11 0.377 0.052 0.554 321.535 o
-5 5 12 0.577 2.025 1.017 93.695 o
-5 5 13 13.813 12.966 1.232 28.600 o
-5 5 14 0.412 -0.349 0.784 167.822 o
-5 5 15 36.544 40.069 2.332 6.961 o
-5 6 1 131.439 129.686 1.235 1.240 o
-5 6 2 272.200 245.839 2.801 0.332 o
-5 6 3 24.498 24.505 0.733 18.783 o
-5 6 4 54.285 49.796 1.218 5.712 o
-5 6 5 384.013 375.986 5.019 0.161 o
-5 6 6 93.748 92.038 1.229 2.255 o
-5 6 7 87.289 85.658 1.686 2.471 o
-5 6 8 1.631 1.615 0.419 294.653 o
-5 6 9 97.144 97.309 1.911 2.013 o
-5 6 10 0.728 0.709 0.483 342.761 o
-5 6 11 46.322 43.803 1.397 6.930 o
-5 6 12 2.405 1.559 0.700 145.416 o
-5 6 13 75.614 82.519 2.399 2.728 o
-5 6 14 3.091 2.029 0.918 91.902 o
-5 6 15 1.391 -0.608 2.274 20.537 o
-5 7 1 211.049 208.409 1.734 0.515 o
-5 7 2 90.976 81.377 1.079 2.518 o
-5 7 3 39.642 29.648 0.637 10.896 o
-5 7 4 513.146 492.784 3.962 0.095 o
-5 7 5 5.872 2.982 0.314 145.248 o
-5 7 6 8.363 8.073 0.651 66.498 o
-5 7 7 1.421 1.130 0.425 322.787 o
-5 7 8 0.052 -0.032 0.362 805.559 o
-5 7 9 4.957 5.413 0.569 108.146 o
-5 7 10 18.143 19.992 0.765 26.156 o
-5 7 11 2.493 1.772 0.591 174.307 o
-5 7 12 9.195 11.418 1.158 37.897 o
-5 7 13 14.076 13.642 1.588 22.189 o
-5 7 14 3.305 1.719 0.922 90.953 o
-5 8 1 0.295 0.309 0.287 931.998 o
-5 8 2 249.606 227.119 1.829 0.395 o
-5 8 3 23.376 25.513 0.706 19.349 o
-5 8 4 0.436 0.161 0.373 609.999 o
-5 8 5 12.734 9.920 0.485 50.868 o
-5 8 6 5.742 4.951 0.458 114.552 o
-5 8 7 3.988 3.629 0.561 134.134 o
-5 8 8 7.413 6.864 0.609 77.675 o
-5 8 9 39.035 36.910 1.022 9.477 o
-5 8 10 8.882 7.759 0.696 62.474 o
-5 8 11 5.418 6.101 1.050 58.144 o
-5 8 12 38.607 35.802 1.870 7.963 o
-5 8 13 3.835 4.445 1.439 41.863 o
-5 9 1 201.962 204.103 1.875 0.550 o
-5 9 2 9.250 9.723 0.595 61.158 o
-5 9 3 4.128 3.180 0.470 153.307 o
-5 9 4 32.367 36.020 1.043 11.372 o
-5 9 5 74.277 73.438 1.397 3.283 o
-5 9 6 10.141 9.601 0.699 53.856 o
-5 9 7 30.617 31.774 1.015 12.765 o
-5 9 8 0.047 -1.155 0.557 345.356 o
-5 9 9 16.937 19.471 0.885 26.544 o
-5 9 10 6.196 5.957 0.726 79.371 o
-5 9 11 10.849 11.209 0.942 41.483 o
-5 9 12 25.834 27.265 1.404 13.914 o
-5 9 13 1.824 2.499 1.459 45.617 o
-5 10 1 0.700 0.364 0.388 498.628 o
-5 10 2 2.785 2.766 0.450 199.163 o
-5 10 3 0.734 0.464 0.440 406.019 o
-5 10 4 13.993 12.905 0.723 38.477 o
-5 10 5 19.756 19.393 1.145 21.226 o
-5 10 6 72.340 70.142 1.726 3.353 o
-5 10 7 30.096 33.778 1.315 11.641 o
-5 10 8 16.220 16.313 0.944 28.493 o
-5 10 9 0.201 0.070 0.589 297.293 o
-5 10 10 0.943 0.989 0.616 221.178 o
-5 10 11 1.856 2.142 0.764 132.585 o
-5 10 12 25.828 32.497 2.478 8.637 o
-5 11 1 28.723 28.446 1.024 14.155 o
-5 11 2 15.263 14.393 0.719 34.728 o
-5 11 3 226.452 234.170 2.077 0.436 o
-5 11 4 73.351 82.538 2.007 2.940 o
-5 11 5 3.448 2.871 0.716 117.819 o
-5 11 6 0.474 0.180 0.764 172.939 o
-5 11 7 104.045 107.580 2.538 1.686 o
-5 11 8 26.632 24.585 1.194 15.212 o
-5 11 9 38.076 43.094 1.171 8.752 o
-5 11 10 0.039 1.421 0.715 191.041 o
-5 11 11 4.746 6.173 1.013 62.920 o
-5 12 1 67.055 70.248 1.515 3.709 o
-5 12 2 0.500 -0.256 0.574 294.826 o
-5 12 3 6.544 6.248 0.771 72.938 o
-5 12 4 7.239 7.409 0.815 63.756 o
-5 12 5 0.205 0.278 0.756 181.577 o
-5 12 6 0.903 1.630 0.877 120.050 o
-5 12 7 2.563 2.532 0.961 87.715 o
-5 12 8 14.456 13.477 1.055 30.785 o
-5 12 9 1.169 0.704 0.693 181.544 o
-5 12 10 24.523 29.952 2.486 9.027 o
-5 13 1 2.743 1.476 0.639 157.058 o
-5 13 2 16.102 12.998 1.133 27.721 o
-5 13 3 8.295 9.325 0.837 54.863 o
-5 13 4 29.759 30.004 1.587 11.342 o
-5 13 5 3.416 2.743 1.004 77.114 o
-5 13 6 0.069 1.152 0.857 138.417 o
-5 13 7 3.752 5.172 1.006 69.531 o
-5 13 8 0.363 -0.270 0.774 172.953 o
-5 14 1 5.689 5.527 0.794 77.945 o
-5 14 2 0.973 -0.045 0.589 257.232 o
-5 14 3 6.925 8.313 1.100 47.940 o
-5 14 4 1.486 2.181 1.003 89.649 o
-5 14 5 6.905 8.936 1.327 38.071 o
-5 14 6 0.568 -4.313 3.160 10.808 o
-4 0 2 642.531 716.382 4.304 0.056 o
-4 0 4 313.678 358.514 2.609 0.220 o
-4 0 6 376.836 394.663 3.342 0.163 o
-4 0 8 3.913 4.524 0.463 145.559 o
-4 0 10 56.150 59.852 2.146 4.385 o
-4 0 12 19.259 23.730 1.470 17.287 o
-4 0 14 76.046 75.798 2.655 2.740 o
-4 1 1 39.114 41.017 0.367 9.722 o
-4 1 2 815.747 941.555 3.866 0.034 o
-4 1 3 298.654 307.417 1.488 0.261 o
-4 1 4 18.242 16.812 0.255 32.244 o
-4 1 5 805.618 859.276 3.873 0.037 o
-4 1 6 191.190 191.982 1.107 0.619 o
-4 1 7 119.954 124.136 0.978 1.430 o
-4 1 8 85.744 83.759 0.800 2.691 o
-4 1 9 45.907 47.955 0.930 7.177 o
-4 1 10 87.713 85.185 1.487 2.501 o
-4 1 11 8.671 9.489 0.666 61.082 o
-4 1 12 0.001 0.464 0.482 434.369 o
-4 1 13 5.576 4.615 0.739 86.934 o
-4 1 14 1.003 0.622 0.770 156.374 o
-4 1 15 2.666 3.698 1.213 58.769 o
-4 2 1 128.581 126.846 0.697 1.306 o
-4 2 2 4.663 3.367 0.146 190.884 o
-4 2 3 1011.890 1113.520 3.269 0.023 o
-4 2 4 91.541 89.707 0.689 2.406 o
-4 2 5 148.962 177.505 1.308 0.874 o
-4 2 6 248.733 264.663 1.366 0.363 o
-4 2 7 0.973 0.449 0.269 659.720 o
-4 2 8 9.258 9.453 0.460 67.166 o
-4 2 9 5.748 4.731 0.389 123.657 o
-4 2 10 2.198 2.211 0.390 259.168 o
-4 2 11 0.183 -0.025 0.465 471.682 o
-4 2 12 28.852 27.973 1.348 12.902 o
-4 2 13 35.032 34.788 1.964 8.439 o
-4 2 14 4.085 4.652 1.087 62.474 o
-4 2 15 3.326 3.862 0.973 78.048 o
-4 3 1 1002.570 1008.540 3.200 0.025 o
-4 3 2 1.291 0.501 0.117 817.161 o
-4 3 3 12.355 15.341 0.244 47.304 o
-4 3 4 280.954 318.642 1.261 0.276 o
-4 3 5 452.138 500.180 2.413 0.112 o
-4 3 6 21.052 19.613 0.415 25.626 o
-4 3 7 231.225 233.401 1.701 0.429 o
-4 3 8 27.419 25.430 0.817 16.338 o
-4 3 9 203.995 207.220 3.535 0.515 o
-4 3 10 26.114 28.441 0.873 16.001 o
-4 3 11 4.527 3.967 0.624 113.822 o
-4 3 12 62.124 59.440 2.123 4.021 o
-4 3 13 0.004 -1.008 0.805 167.049 o
-4 3 14 4.548 4.145 1.032 66.132 o
-4 3 15 7.168 8.038 1.091 48.068 o
-4 4 1 9.140 11.509 0.379 65.228 o
-4 4 2 0.397 1.471 0.275 669.186 o
-4 4 3 0.046 0.731 0.243 1203.110 o
-4 4 4 67.784 63.841 0.578 4.145 o
-4 4 5 87.791 85.938 0.828 2.577 o
-4 4 6 138.360 139.349 1.454 1.109 o
-4 4 7 274.554 291.358 1.823 0.300 o
-4 4 8 135.992 131.508 1.612 1.166 o
-4 4 9 5.783 6.879 0.499 99.233 o
-4 4 10 9.258 8.195 0.654 61.897 o
-4 4 11 2.460 2.177 0.582 173.203 o
-4 4 12 19.011 19.985 1.468 18.465 o
-4 4 13 24.385 23.749 1.700 13.512 o
-4 4 14 7.379 9.687 1.397 34.559 o
-4 4 15 4.243 3.855 1.072 64.610 o
-4 5 1 501.626 530.081 1.699 0.094 o
-4 5 2 281.361 275.502 1.673 0.302 o
-4 5 3 25.385 22.815 0.589 19.396 o
-4 5 4 43.328 38.838 0.672 8.737 o
-4 5 5 29.654 29.639 0.650 14.665 o
-4 5 6 2.012 1.087 0.149 482.942 o
-4 5 7 20.778 17.551 0.536 26.423 o
-4 5 8 48.851 41.262 0.922 7.248 o
-4 5 9 76.384 76.320 1.531 3.084 o
-4 5 10 104.637 107.953 1.862 1.753 o
-4 5 11 32.089 30.135 1.545 10.829 o
-4 5 12 5.398 4.235 1.102 57.734 o
-4 5 13 4.764 4.494 0.919 74.350 o
-4 5 14 3.352 4.199 1.121 63.093 o
-4 5 15 1.305 2.199 1.943 27.339 o
-4 6 1 1.832 1.261 0.245 426.424 o
-4 6 2 498.064 489.817 5.625 0.098 o
-4 6 3 10.573 5.643 0.357 74.477 o
-4 6 4 12.896 10.483 0.758 42.798 o
-4 6 5 18.250 17.190 1.071 24.202 o
-4 6 6 3.855 1.624 0.411 194.844 o
-4 6 7 1.845 2.566 0.412 258.023 o
-4 6 8 16.121 12.645 0.700 35.062 o
-4 6 9 21.358 23.381 0.868 20.713 o
-4 6 10 1.385 1.805 0.511 245.548 o
-4 6 11 2.556 3.754 0.784 110.492 o
-4 6 12 16.598 14.985 1.233 24.708 o
-4 6 13 14.091 12.236 1.379 26.057 o
-4 6 14 0.694 -0.088 0.888 128.735 o
-4 7 1 11.156 12.921 0.564 49.211 o
-4 7 2 54.765 56.334 1.523 5.108 o
-4 7 3 11.382 14.153 0.501 48.079 o
-4 7 4 122.558 127.847 1.263 1.358 o
-4 7 5 3.386 1.103 0.209 296.951 o
-4 7 6 6.609 4.309 0.419 111.834 o
-4 7 7 47.464 47.623 0.800 7.064 o
-4 7 8 0.131 0.250 0.376 674.261 o
-4 7 9 36.783 35.128 1.030 10.255 o
-4 7 10 181.211 186.403 2.164 0.659 o
-4 7 11 87.229 87.838 2.072 2.362 o
-4 7 12 0.995 -0.185 0.770 162.076 o
-4 7 13 57.960 58.118 2.230 4.257 o
-4 7 14 4.944 4.544 1.103 58.582 o
-4 8 1 134.173 129.895 1.101 1.212 o
-4 8 2 157.468 149.090 1.525 0.909 o
-4 8 3 12.059 10.076 0.566 50.806 o
-4 8 4 0.549 -0.117 0.249 1047.890 o
-4 8 5 3.228 3.427 0.385 193.365 o
-4 8 6 47.376 40.116 0.924 7.587 o
-4 8 7 38.909 39.621 0.810 9.503 o
-4 8 8 11.698 10.598 0.732 46.437 o
-4 8 9 24.831 24.062 0.900 17.866 o
-4 8 10 23.063 23.864 1.125 17.664 o
-4 8 11 4.479 4.481 0.795 89.176 o
-4 8 12 10.765 11.891 1.137 35.499 o
-4 8 13 4.740 4.556 1.004 66.844 o
-4 8 14 5.099 4.804 2.744 13.235 o
-4 9 1 34.518 35.617 0.720 11.436 o
-4 9 2 39.453 41.002 0.912 9.074 o
-4 9 3 70.965 67.208 0.940 3.750 o
-4 9 4 255.472 255.274 2.052 0.356 o
-4 9 5 113.316 115.245 1.566 1.565 o
-4 9 6 64.783 70.539 1.199 3.955 o
-4 9 7 8.336 7.977 0.709 63.718 o
-4 9 8 55.458 55.353 1.333 5.223 o
-4 9 9 53.021 52.177 1.484 5.511 o
-4 9 10 36.705 40.096 1.390 8.948 o
-4 9 11 7.941 7.077 0.881 57.818 o
-4 9 12 27.562 28.997 1.481 12.609 o
-4 9 13 89.654 95.180 5.871 1.363 o
-4 10 1 12.219 11.255 0.537 49.154 o
-4 10 2 46.188 44.103 0.957 7.419 o
-4 10 3 31.820 25.159 0.872 14.056 o
-4 10 4 37.046 37.052 1.037 9.921 o
-4 10 5 91.622 89.057 1.540 2.315 o
-4 10 6 11.184 8.496 0.700 52.158 o
-4 10 7 34.537 34.170 1.287 10.393 o
-4 10 8 15.591 18.589 1.184 24.635 o
-4 10 9 10.104 8.937 0.781 51.951 o
-4 10 10 7.449 5.043 0.829 67.197 o
-4 10 11 38.869 38.231 1.397 8.679 o
-4 10 12 0.330 -0.230 0.918 124.960 o
-4 11 1 15.247 14.478 0.887 31.919 o
-4 11 2 38.441 37.081 1.023 9.597 o
-4 11 3 4.878 4.125 0.539 120.988 o
-4 11 4 36.609 35.104 1.056 10.252 o
-4 11 5 42.446 41.933 1.590 7.380 o
-4 11 6 62.784 58.329 1.760 4.237 o
-4 11 7 13.024 14.259 0.965 34.056 o
-4 11 8 0.101 -0.388 0.647 254.609 o
-4 11 9 31.035 33.698 1.179 11.787 o
-4 11 10 23.250 23.468 1.045 18.187 o
-4 11 11 19.729 18.096 1.310 20.116 o
-4 12 1 62.276 69.057 1.721 3.941 o
-4 12 2 2.007 2.272 0.625 168.603 o
-4 12 3 3.926 2.641 0.630 129.346 o
-4 12 4 13.740 11.665 1.057 33.029 o
-4 12 5 71.162 76.558 1.888 3.200 o
-4 12 6 11.522 9.867 1.046 38.456 o
-4 12 7 76.624 81.559 2.041 2.822 o
-4 12 8 7.359 6.118 0.940 58.291 o
-4 12 9 0.100 0.182 0.698 215.941 o
-4 12 10 3.423 3.092 1.022 74.298 o
-4 13 1 72.794 75.344 1.515 3.275 o
-4 13 2 1.910 3.274 0.831 110.775 o
-4 13 3 5.431 5.820 0.817 76.512 o
-4 13 4 6.207 4.230 0.993 62.523 o
-4 13 5 2.539 2.703 0.930 91.615 o
-4 13 6 2.963 3.557 1.015 76.090 o
-4 13 7 21.328 21.011 1.475 16.889 o
-4 13 8 57.006 63.550 1.642 4.537 o
-4 13 9 54.904 64.987 3.876 3.039 o
-4 14 1 5.994 5.876 0.677 85.290 o
-4 14 2 33.002 31.222 1.893 9.366 o
-4 14 3 0.034 0.777 0.772 172.508 o
-4 14 4 2.996 2.931 1.070 71.617 o
-4 14 5 1.047 0.460 1.055 89.573 o
-4 14 6 66.642 73.890 2.365 3.269 o
-4 14 7 51.545 54.048 5.508 2.276 o
-3 0 2 1274.520 1383.080 5.842 0.015 o
-3 0 4 218.688 246.553 1.697 0.443 o
-3 0 6 56.228 62.152 1.218 4.908 o
-3 0 8 23.534 25.599 1.409 15.199 o
-3 0 10 121.341 112.353 1.258 1.482 o
-3 0 12 20.244 22.162 1.433 17.483 o
-3 0 14 34.587 30.499 3.384 5.486 o
-3 1 1 1732.100 1918.300 7.286 0.008 o
-3 1 2 110.646 106.939 0.572 1.737 o
-3 1 3 483.466 587.267 1.942 0.092 o
-3 1 4 94.627 107.220 0.704 2.077 o
-3 1 5 9.294 8.681 0.352 73.152 o
-3 1 6 0.345 0.745 0.153 1396.340 o
-3 1 7 66.350 68.317 0.835 4.034 o
-3 1 8 139.428 140.273 2.701 1.040 o
-3 1 9 12.385 12.614 0.631 44.503 o
-3 1 10 0.293 0.672 0.341 660.390 o
-3 1 11 95.089 91.426 1.508 2.192 o
-3 1 12 2.503 2.406 0.577 170.850 o
-3 1 13 19.205 21.210 1.210 20.347 o
-3 1 14 35.888 36.997 1.707 8.718 o
-3 1 15 3.480 3.595 1.133 62.769 o
-3 2 1 68.904 67.719 0.449 3.957 o
-3 2 2 47.312 62.713 0.532 6.163 o
-3 2 3 2972.720 3254.940 8.764 0.003 o
-3 2 4 87.852 87.217 0.699 2.565 o
-3 2 5 480.189 508.793 2.037 0.102 o
-3 2 6 287.049 304.732 1.841 0.275 o
-3 2 7 194.173 213.082 1.803 0.562 o
-3 2 8 0.322 0.245 0.315 815.720 o
-3 2 9 10.408 9.550 0.556 58.115 o
-3 2 10 2.155 1.971 0.443 241.767 o
-3 2 11 0.011 -0.494 0.677 235.801 o
-3 2 12 2.131 2.633 1.019 82.274 o
-3 2 13 8.460 5.253 1.029 51.348 o
-3 2 14 2.441 2.117 0.862 105.618 o
-3 2 15 0.111 0.180 0.838 151.201 o
-3 3 1 95.963 105.157 1.017 2.048 o
-3 3 2 190.038 207.550 1.165 0.592 o
-3 3 3 5.401 6.507 0.248 128.427 o
-3 3 4 485.163 544.088 1.966 0.097 o
-3 3 5 347.441 362.156 1.590 0.194 o
-3 3 6 193.714 198.948 1.074 0.595 o
-3 3 7 0.001 0.056 0.307 1124.110 o
-3 3 8 7.357 8.849 0.631 70.762 o
-3 3 9 87.841 79.243 1.334 2.622 o
-3 3 10 179.525 180.670 3.280 0.654 o
-3 3 11 7.256 7.101 0.790 65.922 o
-3 3 12 15.868 17.147 1.295 23.566 o
-3 3 13 0.032 -0.094 0.928 125.473 o
-3 3 14 16.519 20.270 1.369 20.955 o
-3 3 15 2.504 2.335 0.968 87.724 o
-3 4 1 626.132 661.953 2.887 0.061 o
-3 4 2 662.378 742.718 3.225 0.052 o
-3 4 3 432.108 471.258 2.408 0.123 o
-3 4 4 7.122 7.414 0.234 100.639 o
-3 4 5 36.181 32.488 0.599 11.599 o
-3 4 6 63.550 55.538 0.808 4.737 o
-3 4 7 0.066 0.669 0.412 543.200 o
-3 4 8 394.712 405.359 2.049 0.153 o
-3 4 9 32.984 33.996 1.018 11.559 o
-3 4 10 74.743 71.083 1.645 3.243 o
-3 4 11 0.697 -0.153 0.614 252.491 o
-3 4 12 11.066 7.345 1.288 34.342 o
-3 4 13 0.708 0.960 0.736 171.346 o
-3 4 14 4.840 3.394 1.205 53.716 o
-3 4 15 14.595 13.580 2.706 11.104 o
-3 5 1 0.555 0.500 0.189 1118.290 o
-3 5 2 246.735 274.366 1.391 0.357 o
-3 5 3 80.900 76.007 0.818 3.038 o
-3 5 4 7.009 6.536 0.405 96.412 o
-3 5 5 213.859 231.832 1.736 0.474 o
-3 5 6 20.646 21.588 0.555 24.218 o
-3 5 7 77.213 81.276 1.253 3.007 o
-3 5 8 9.294 8.515 0.378 72.720 o
-3 5 9 90.443 80.272 1.224 2.534 o
-3 5 10 10.501 9.615 0.952 43.725 o
-3 5 11 0.008 -0.354 0.525 392.185 o
-3 5 12 5.171 4.758 0.979 66.648 o
-3 5 13 5.222 4.296 0.965 68.627 o
-3 5 14 1.049 0.975 1.146 75.665 o
-3 6 1 184.335 168.370 1.165 0.700 o
-3 6 2 2.444 1.813 0.188 355.127 o
-3 6 3 8.352 4.732 0.276 99.831 o
-3 6 4 263.892 263.341 2.063 0.335 o
-3 6 5 14.917 13.085 0.512 39.984 o
-3 6 6 6.674 7.177 0.374 98.704 o
-3 6 7 762.490 775.875 6.469 0.042 o
-3 6 8 9.711 7.142 0.464 70.845 o
-3 6 9 2.614 2.112 0.434 222.928 o
-3 6 10 13.589 11.120 0.973 35.539 o
-3 6 11 23.500 22.822 1.211 17.151 o
-3 6 12 1.743 1.835 0.779 132.513 o
-3 6 13 0.259 -0.599 0.873 138.803 o
-3 6 14 0.529 0.056 0.928 119.960 o
-3 7 1 51.115 52.295 0.771 6.233 o
-3 7 2 7.564 6.583 0.773 66.809 o
-3 7 3 71.165 79.194 1.018 3.389 o
-3 7 4 10.787 5.411 0.442 70.566 o
-3 7 5 100.326 98.615 1.789 1.943 o
-3 7 6 124.771 131.526 1.836 1.279 o
-3 7 7 0.733 1.134 0.318 539.329 o
-3 7 8 33.780 33.568 0.891 11.672 o
-3 7 9 17.245 16.420 0.752 29.635 o
-3 7 10 12.061 13.433 0.798 40.356 o
-3 7 11 18.845 22.562 1.820 14.989 o
-3 7 12 4.508 5.438 0.910 74.108 o
-3 7 13 0.394 0.370 0.830 147.942 o
-3 8 1 98.251 85.448 0.826 2.260 o
-3 8 2 125.663 135.867 1.285 1.269 o
-3 8 3 485.197 481.659 2.743 0.104 o
-3 8 4 39.463 36.737 0.655 9.926 o
-3 8 5 31.019 32.242 0.672 13.430 o
-3 8 6 0.035 0.080 0.316 1025.500 o
-3 8 7 4.087 4.225 0.534 132.664 o
-3 8 8 193.837 202.167 2.025 0.580 o
-3 8 9 3.642 3.811 0.569 136.530 o
-3 8 10 12.971 15.777 0.976 32.749 o
-3 8 11 80.963 79.387 2.081 2.693 o
-3 8 12 4.594 5.686 1.003 65.241 o
-3 8 13 18.059 16.407 1.306 21.962 o
-3 9 1 31.749 24.251 0.461 15.399 o
-3 9 2 51.055 46.108 0.806 6.638 o
-3 9 3 22.211 15.808 0.837 23.463 o
-3 9 4 0.486 0.651 0.396 496.536 o
-3 9 5 62.221 66.487 1.279 4.233 o
-3 9 6 4.521 4.544 0.491 130.245 o
-3 9 7 38.572 38.270 1.367 8.795 o
-3 9 8 15.118 14.849 0.729 34.426 o
-3 9 9 64.616 66.000 1.326 4.066 o
-3 9 10 0.216 -0.541 0.538 354.810 o
-3 9 11 1.277 0.994 0.858 124.014 o
-3 9 12 0.187 -0.056 0.767 179.900 o
-3 9 13 4.076 4.473 2.103 21.825 o
-3 10 1 12.420 11.226 0.605 46.941 o
-3 10 2 39.420 39.296 0.931 9.250 o
-3 10 3 196.610 197.418 2.141 0.577 o
-3 10 4 105.027 101.433 1.567 1.839 o
-3 10 5 85.483 83.795 1.281 2.634 o
-3 10 6 115.135 122.858 1.863 1.459 o
-3 10 7 40.480 39.105 1.282 8.481 o
-3 10 8 0.031 -0.150 0.558 345.229 o
-3 10 9 29.333 30.791 1.329 12.324 o
-3 10 10 33.904 33.914 1.294 10.578 o
-3 10 11 36.103 36.250 1.341 9.613 o
-3 10 12 3.474 2.882 1.002 76.612 o
-3 11 1 71.102 68.667 1.341 3.587 o
-3 11 2 9.623 8.363 0.677 58.972 o
-3 11 3 15.952 16.294 0.772 31.291 o
-3 11 4 9.505 8.765 0.664 59.206 o
-3 11 5 1.128 0.789 0.620 215.661 o
-3 11 6 2.399 3.159 0.719 128.794 o
-3 11 7 7.175 7.252 0.856 61.873 o
-3 11 8 3.074 2.126 0.617 150.644 o
-3 11 9 34.085 35.742 1.202 10.517 o
-3 11 10 7.490 7.540 0.816 62.341 o
-3 11 11 0.480 0.753 0.902 123.231 o
-3 12 1 49.650 48.818 1.303 6.245 o
-3 12 2 2.009 1.707 0.723 144.389 o
-3 12 3 0.863 1.676 0.607 216.612 o
-3 12 4 12.532 12.934 1.004 35.081 o
-3 12 5 39.612 37.432 1.529 8.354 o
-3 12 6 2.626 1.797 0.858 106.077 o
-3 12 7 32.322 30.650 1.932 9.441 o
-3 12 8 1.299 1.016 0.602 215.597 o
-3 12 9 16.031 15.105 1.016 28.401 o
-3 12 10 0.978 1.112 0.938 108.652 o
-3 13 1 0.011 0.898 0.672 222.818 o
-3 13 2 33.071 33.663 1.317 10.780 o
-3 13 3 2.740 2.484 0.786 114.914 o
-3 13 4 1.592 0.352 0.758 152.189 o
-3 13 5 52.039 50.685 1.500 5.678 o
-3 13 6 25.359 27.762 1.697 12.533 o
-3 13 7 0.029 0.445 0.792 167.612 o
-3 13 8 1.567 0.120 0.708 172.868 o
-3 13 9 38.558 36.934 6.373 2.130 o
-3 14 1 0.166 -0.651 0.626 267.719 o
-3 14 2 0.039 0.132 0.733 198.992 o
-3 14 3 6.161 4.968 0.963 63.460 o
-3 14 4 33.531 33.537 1.822 9.230 o
-3 14 5 50.703 56.519 1.755 5.289 o
-3 14 6 0.897 0.212 0.973 105.921 o
-3 14 7 38.054 43.394 3.476 4.685 o
-3 15 1 33.778 32.644 1.340 10.660 o
-3 15 2 6.559 3.369 0.858 73.450 o
-3 15 3 1.329 0.871 1.403 51.450 o
-3 15 5 22.042 21.831 4.121 5.055 o
-2 0 2 127.303 137.887 0.720 1.254 o
-2 0 4 1011.940 1029.160 3.456 0.024 o
-2 0 6 583.041 615.119 7.223 0.068 o
-2 0 8 173.527 150.885 4.339 0.713 o
-2 0 10 5.634 5.581 0.715 85.380 o
-2 0 12 186.880 204.092 4.131 0.561 o
-2 0 14 44.174 50.536 3.939 3.661 o
-2 1 1 244.791 235.344 1.126 0.399 o
-2 1 2 914.129 996.649 2.845 0.028 o
-2 1 3 577.693 594.523 2.973 0.073 o
-2 1 4 344.439 386.208 1.726 0.188 o
-2 1 5 46.658 50.791 0.399 7.165 o
-2 1 6 10.563 7.195 0.270 72.403 o
-2 1 7 69.510 70.239 0.633 3.810 o
-2 1 8 161.089 163.144 5.391 0.694 o
-2 1 9 46.051 40.749 0.738 7.939 o
-2 1 10 44.164 47.074 1.406 6.994 o
-2 1 11 4.171 3.596 0.664 114.018 o
-2 1 12 28.183 28.127 1.415 12.829 o
-2 1 13 0.464 1.727 0.776 153.901 o
-2 1 14 29.455 33.070 1.811 10.211 o
-2 1 15 3.509 2.270 1.457 43.194 o
-2 2 1 140.961 166.811 0.668 0.983 o
-2 2 2 550.970 582.610 2.141 0.079 o
-2 2 3 17.307 12.334 0.281 38.102 o
-2 2 4 340.820 342.362 1.177 0.207 o
-2 2 5 1566.930 1691.950 8.846 0.010 o
-2 2 6 0.179 0.351 0.187 1759.690 o
-2 2 7 16.872 19.003 0.619 29.842 o
-2 2 8 149.982 146.578 3.610 0.889 o
-2 2 9 163.931 160.737 2.012 0.817 o
-2 2 10 114.358 114.359 1.656 1.549 o
-2 2 11 86.445 80.449 4.406 1.852 o
-2 2 12 49.660 52.170 1.759 5.602 o
-2 2 13 10.770 9.928 1.047 39.784 o
-2 2 14 6.780 5.448 0.989 58.523 o
-2 2 15 5.250 6.319 1.251 46.678 o
-2 3 1 981.842 1074.100 3.513 0.025 o
-2 3 2 20.548 20.643 0.494 25.186 o
-2 3 3 166.943 179.455 1.354 0.759 o
-2 3 4 137.473 160.518 1.082 1.031 o
-2 3 5 181.371 215.667 1.043 0.611 o
-2 3 6 149.103 162.316 1.027 0.932 o
-2 3 7 21.887 26.898 0.922 18.722 o
-2 3 8 3.381 2.207 0.328 226.508 o
-2 3 9 7.989 5.501 0.448 89.372 o
-2 3 10 2.866 2.583 0.680 134.809 o
-2 3 11 5.867 5.430 0.813 75.529 o
-2 3 12 18.710 16.755 1.479 19.491 o
-2 3 13 26.240 23.293 1.440 14.358 o
-2 3 14 8.943 6.066 1.124 44.816 o
-2 4 1 12.255 7.255 0.182 64.469 o
-2 4 2 142.011 162.478 0.934 0.988 o
-2 4 3 2.140 0.913 0.208 435.470 o
-2 4 4 302.449 331.102 1.612 0.245 o
-2 4 5 0.839 2.962 0.223 466.425 o
-2 4 6 19.355 18.739 0.503 27.674 o
-2 4 7 681.742 707.202 5.795 0.052 o
-2 4 8 34.200 32.703 0.570 12.297 o
-2 4 9 2.521 2.217 0.413 233.243 o
-2 4 10 71.732 72.632 2.246 3.124 o
-2 4 11 4.478 2.338 0.790 98.202 o
-2 4 12 0.313 -0.998 0.720 200.264 o
-2 4 13 3.941 3.980 1.387 44.594 o
-2 4 14 24.668 24.113 1.630 13.745 o
-2 5 1 53.784 63.412 0.626 5.345 o
-2 5 2 34.701 34.778 0.489 11.864 o
-2 5 3 34.514 38.984 0.583 11.111 o
-2 5 4 139.111 141.246 1.201 1.101 o
-2 5 5 794.028 778.703 2.282 0.040 o
-2 5 6 413.831 424.713 2.261 0.139 o
-2 5 7 79.713 66.563 0.720 3.329 o
-2 5 8 61.068 56.003 0.848 4.920 o
-2 5 9 8.253 6.867 0.563 75.310 o
-2 5 10 11.316 10.118 0.870 43.872 o
-2 5 11 11.588 11.541 1.463 27.173 o
-2 5 12 25.664 30.055 1.553 12.746 o
-2 5 13 9.453 9.262 1.175 38.774 o
-2 5 14 0.486 1.487 1.082 85.625 o
-2 6 1 104.562 105.400 1.149 1.844 o
-2 6 2 31.194 32.066 0.581 13.585 o
-2 6 3 42.497 40.520 0.994 8.373 o
-2 6 4 280.380 294.808 2.975 0.286 o
-2 6 5 1.900 2.235 0.342 302.810 o
-2 6 6 12.911 12.217 0.406 48.191 o
-2 6 7 42.268 41.526 0.781 8.568 o
-2 6 8 16.008 17.017 0.575 33.182 o
-2 6 9 39.392 40.034 1.167 8.802 o
-2 6 10 1.422 0.767 0.548 246.212 o
-2 6 11 7.281 9.073 1.026 49.490 o
-2 6 12 20.614 22.227 1.508 16.681 o
-2 6 13 2.920 2.205 0.901 95.015 o
-2 6 14 1.862 1.597 0.961 95.545 o
-2 7 1 136.348 119.554 1.326 1.238 o
-2 7 2 600.347 610.303 4.837 0.067 o
-2 7 3 0.335 0.550 0.395 536.464 o
-2 7 4 225.044 208.096 3.116 0.462 o
-2 7 5 519.242 499.546 5.032 0.092 o
-2 7 6 0.589 0.221 0.278 832.988 o
-2 7 7 54.913 52.285 1.170 5.542 o
-2 7 8 9.285 9.650 0.551 62.967 o
-2 7 9 17.398 18.724 0.824 27.130 o
-2 7 10 0.522 0.455 0.516 335.078 o
-2 7 11 1.889 1.003 0.696 161.220 o
-2 7 12 24.657 25.242 2.142 10.913 o
-2 7 13 3.974 3.571 1.013 71.454 o
-2 8 1 123.067 109.407 0.981 1.491 o
-2 8 2 148.969 151.175 1.533 0.964 o
-2 8 3 97.112 95.819 1.181 2.121 o
-2 8 4 308.433 321.136 2.369 0.242 o
-2 8 5 0.379 0.757 0.265 850.359 o
-2 8 6 8.282 8.051 0.630 68.058 o
-2 8 7 62.222 64.489 1.383 4.258 o
-2 8 8 49.464 49.132 1.209 6.334 o
-2 8 9 46.141 50.952 1.207 6.659 o
-2 8 10 8.115 7.775 0.749 62.987 o
-2 8 11 0.017 -0.866 0.584 316.640 o
-2 8 12 17.010 17.088 1.475 20.514 o
-2 8 13 12.092 10.972 1.672 23.186 o
-2 9 1 828.491 812.277 6.056 0.037 o
-2 9 2 16.469 14.199 0.488 35.902 o
-2 9 3 3.119 3.700 0.502 162.437 o
-2 9 4 0.065 0.196 0.334 877.392 o
-2 9 5 54.401 55.489 1.214 5.399 o
-2 9 6 0.072 -0.614 0.474 471.896 o
-2 9 7 0.016 -0.037 0.511 412.699 o
-2 9 8 14.393 11.865 0.722 38.736 o
-2 9 9 9.134 9.455 0.738 56.142 o
-2 9 10 51.841 52.423 1.345 5.738 o
-2 9 11 27.180 30.049 1.207 13.733 o
-2 9 12 5.747 5.557 0.926 66.648 o
-2 10 1 40.364 37.986 0.792 9.374 o
-2 10 2 54.054 50.562 0.871 5.920 o
-2 10 3 6.174 5.858 0.664 85.263 o
-2 10 4 8.397 7.880 0.569 71.157 o
-2 10 5 32.991 33.257 1.062 11.561 o
-2 10 6 7.403 6.019 0.723 72.355 o
-2 10 7 56.753 57.533 1.288 5.028 o
-2 10 8 65.820 74.821 1.396 3.693 o
-2 10 9 19.442 18.230 1.019 23.196 o
-2 10 10 30.802 33.704 1.169 11.891 o
-2 10 11 17.080 15.975 0.976 27.228 o
-2 10 12 11.921 9.916 1.464 27.597 o
-2 11 1 4.284 2.871 0.583 131.266 o
-2 11 2 0.941 0.232 0.530 299.376 o
-2 11 3 264.800 275.736 3.049 0.319 o
-2 11 4 38.597 42.084 1.152 8.778 o
-2 11 5 1.002 0.313 0.591 247.477 o
-2 11 6 5.834 6.539 0.733 79.264 o
-2 11 7 0.917 0.808 0.544 272.925 o
-2 11 8 0.206 -0.710 0.548 342.721 o
-2 11 9 8.632 9.885 0.823 53.455 o
-2 11 10 0.519 0.004 0.743 183.356 o
-2 11 11 57.742 56.625 3.173 3.592 o
-2 12 1 4.074 3.924 0.653 114.941 o
-2 12 2 21.160 19.441 1.006 21.365 o
-2 12 3 2.531 1.705 0.603 170.281 o
-2 12 4 5.423 3.855 0.818 82.388 o
-2 12 5 4.137 1.908 0.636 130.474 o
-2 12 6 11.250 10.388 1.044 38.532 o
-2 12 7 39.003 39.034 1.191 8.950 o
-2 12 8 10.042 8.965 0.803 51.232 o
-2 12 9 6.171 6.489 0.740 76.768 o
-2 12 10 0.853 -0.083 0.850 137.592 o
-2 13 1 5.915 5.976 0.726 81.095 o
-2 13 2 163.444 172.800 2.656 0.768 o
-2 13 3 2.126 2.007 0.736 136.632 o
-2 13 4 12.904 11.091 1.115 33.394 o
-2 13 5 26.569 24.218 1.456 13.955 o
-2 13 6 6.312 5.069 0.861 70.165 o
-2 13 7 3.338 2.678 0.717 120.121 o
-2 13 8 0.892 -0.480 0.678 205.394 o
-2 13 9 2.465 1.986 1.444 45.840 o
-2 14 1 19.826 19.919 1.004 22.277 o
-2 14 2 0.004 0.668 0.705 207.628 o
-2 14 3 44.354 45.098 1.818 6.542 o
-2 14 4 16.789 16.628 1.196 24.283 o
-2 14 5 26.434 26.820 1.359 13.986 o
-2 14 6 0.481 0.518 0.808 153.000 o
-2 14 7 5.473 5.933 1.330 42.859 o
-2 15 1 81.087 84.070 1.701 2.702 o
-2 15 2 5.001 3.785 0.816 85.563 o
-2 15 3 1.511 1.726 0.864 116.066 o
-2 15 4 34.582 36.385 6.384 2.175 o
-2 15 5 25.460 23.314 4.110 4.882 o
-1 0 2 179.431 145.378 1.009 0.789 o
-1 0 4 61.082 75.740 1.219 4.019 o
-1 0 6 1.954 1.500 0.394 293.246 o
-1 0 8 131.404 136.962 1.500 1.190 o
-1 0 10 3.057 3.821 0.864 93.323 o
-1 0 12 25.962 29.016 1.829 11.548 o
-1 0 14 116.157 114.064 5.060 1.153 o
-1 1 1 249.514 247.589 0.998 0.378 o
-1 1 2 10189.100 10529.200 31.669 0.000 o
-1 1 3 4583.310 4894.820 8.454 0.001 o
-1 1 4 89.265 112.808 0.630 2.146 o
-1 1 5 140.153 139.326 1.061 1.104 o
-1 1 6 73.356 64.738 0.959 3.678 o
-1 1 7 122.318 120.368 1.335 1.408 o
-1 1 8 6.408 6.821 0.737 74.685 o
-1 1 9 22.837 25.563 1.089 17.529 o
-1 1 10 95.811 97.172 1.783 2.064 o
-1 1 11 66.076 65.642 1.857 3.749 o
-1 1 12 8.338 7.902 0.957 51.388 o
-1 1 13 8.460 8.192 1.131 43.292 o
-1 1 14 1.502 2.267 1.114 74.796 o
-1 2 1 142.358 132.485 0.724 1.122 o
-1 2 2 371.693 399.146 2.564 0.166 o
-1 2 3 719.988 801.912 5.477 0.044 o
-1 2 4 361.835 410.233 1.746 0.169 o
-1 2 5 399.552 422.698 2.009 0.146 o
-1 2 6 38.585 40.011 0.617 9.771 o
-1 2 7 60.392 57.072 0.828 4.941 o
-1 2 8 5.560 6.572 0.401 112.498 o
-1 2 9 10.756 10.015 0.796 47.829 o
-1 2 10 3.043 1.886 0.691 134.926 o
-1 2 11 2.488 1.899 0.733 133.013 o
-1 2 12 13.323 14.622 1.508 23.575 o
-1 2 13 25.294 25.749 1.645 13.152 o
-1 2 14 6.853 5.608 1.325 40.945 o
-1 3 1 638.788 743.350 2.389 0.055 o
-1 3 2 1265.920 1296.750 2.895 0.016 o
-1 3 3 818.642 959.246 5.414 0.033 o
-1 3 4 373.318 395.371 3.034 0.165 o
-1 3 5 305.787 341.800 3.324 0.232 o
-1 3 6 429.656 438.441 3.869 0.129 o
-1 3 7 0.178 0.299 0.224 1451.350 o
-1 3 8 146.955 149.472 1.421 0.990 o
-1 3 9 164.361 161.449 3.012 0.783 o
-1 3 10 68.510 69.439 2.257 3.335 o
-1 3 11 24.863 25.182 1.109 16.394 o
-1 3 12 98.548 102.167 2.401 1.858 o
-1 3 13 10.104 9.343 1.079 40.627 o
-1 3 14 37.428 40.986 1.985 7.498 o
-1 4 1 328.095 357.184 1.670 0.210 o
-1 4 2 50.896 44.660 0.661 6.857 o
-1 4 3 2.132 1.000 0.186 445.608 o
-1 4 4 274.254 315.047 2.819 0.281 o
-1 4 5 45.289 56.209 0.582 6.874 o
-1 4 6 39.894 41.408 0.943 8.890 o
-1 4 7 20.579 19.796 0.804 23.398 o
-1 4 8 163.137 152.800 1.714 0.854 o
-1 4 9 3.687 4.129 0.492 148.248 o
-1 4 10 55.178 59.255 1.717 4.803 o
-1 4 11 28.622 30.294 1.276 12.857 o
-1 4 12 9.949 9.784 1.143 38.452 o
-1 4 13 17.791 20.487 2.053 13.976 o
-1 4 14 0.049 0.293 0.856 145.156 o
-1 5 1 696.254 736.974 4.183 0.049 o
-1 5 2 25.067 22.364 0.538 20.008 o
-1 5 3 32.207 28.780 0.469 14.069 o
-1 5 4 359.234 361.841 1.579 0.186 o
-1 5 5 86.441 91.724 1.445 2.445 o
-1 5 6 1.889 1.597 0.251 392.542 o
-1 5 7 107.333 106.505 1.049 1.783 o
-1 5 8 166.628 166.179 1.722 0.791 o
-1 5 9 4.883 4.470 0.495 124.820 o
-1 5 10 25.276 25.739 1.276 15.139 o
-1 5 11 9.002 10.032 0.961 46.532 o
-1 5 12 1.944 2.752 1.110 72.238 o
-1 5 13 2.789 2.906 0.932 88.993 o
-1 5 14 100.425 102.090 2.796 1.761 o
-1 6 1 20.300 14.781 0.499 29.081 o
-1 6 2 96.670 81.987 0.865 2.353 o
-1 6 3 499.453 517.785 2.581 0.096 o
-1 6 4 164.286 147.641 1.200 0.873 o
-1 6 5 251.660 230.325 2.083 0.386 o
-1 6 6 28.597 26.843 0.760 15.549 o
-1 6 7 11.541 12.973 0.550 48.290 o
-1 6 8 51.410 51.651 0.935 6.138 o
-1 6 9 132.635 134.652 1.712 1.181 o
-1 6 10 1.607 2.006 0.667 166.196 o
-1 6 11 9.841 9.564 0.955 45.263 o
-1 6 12 26.572 24.242 1.828 12.058 o
-1 6 13 34.934 40.703 2.324 7.145 o
-1 7 1 0.932 0.963 0.223 683.900 o
-1 7 2 312.447 316.609 1.716 0.242 o
-1 7 3 0.034 -0.015 0.161 3796.370 o
-1 7 4 13.971 11.776 0.673 40.757 o
-1 7 5 53.431 49.813 0.725 6.120 o
-1 7 6 25.386 25.748 0.613 18.274 o
-1 7 7 0.459 0.259 0.367 604.219 o
-1 7 8 0.008 -0.023 0.385 726.405 o
-1 7 9 1.790 1.703 0.506 233.082 o
-1 7 10 144.822 150.272 2.212 0.978 o
-1 7 11 1.018 0.217 0.866 129.604 o
-1 7 12 0.772 0.213 1.038 94.736 o
-1 7 13 2.204 0.975 1.165 68.964 o
-1 8 1 16.268 16.250 0.369 35.523 o
-1 8 2 245.174 220.798 2.211 0.408 o
-1 8 3 22.526 22.492 1.135 18.340 o
-1 8 4 54.911 50.355 1.172 5.645 o
-1 8 5 2.016 1.645 0.437 260.017 o
-1 8 6 99.769 94.130 1.586 2.032 o
-1 8 7 18.049 14.849 0.623 31.119 o
-1 8 8 18.034 21.103 0.888 24.485 o
-1 8 9 56.688 60.488 1.318 4.885 o
-1 8 10 18.569 18.460 0.914 25.008 o
-1 8 11 9.998 8.522 0.976 45.357 o
-1 8 12 17.142 17.771 1.829 16.585 o
-1 8 13 0.006 0.619 1.292 64.051 o
-1 9 1 13.037 13.611 0.457 44.916 o
-1 9 2 142.145 144.248 1.269 1.057 o
-1 9 3 3.356 2.624 0.464 179.911 o
-1 9 4 40.643 38.172 0.886 9.162 o
-1 9 5 45.528 46.959 1.265 6.971 o
-1 9 6 225.936 233.198 2.503 0.435 o
-1 9 7 47.242 47.717 0.950 6.971 o
-1 9 8 57.269 60.919 1.115 4.924 o
-1 9 9 15.303 14.592 0.859 32.224 o
-1 9 10 0.322 -0.147 0.597 284.369 o
-1 9 11 0.258 0.422 0.616 261.485 o
-1 9 12 10.596 7.962 1.193 37.361 o
-1 10 1 36.844 36.731 0.824 10.394 o
-1 10 2 0.436 0.619 0.346 614.601 o
-1 10 3 0.348 0.385 0.438 466.031 o
-1 10 4 11.029 10.735 0.648 50.731 o
-1 10 5 8.219 8.641 0.661 65.260 o
-1 10 6 9.018 9.119 0.628 62.084 o
-1 10 7 5.876 4.752 0.626 95.733 o
-1 10 8 93.197 102.313 2.004 2.033 o
-1 10 9 8.417 9.529 0.818 54.977 o
-1 10 10 29.361 35.954 1.631 10.494 o
-1 10 11 0.288 0.130 0.639 249.018 o
-1 11 1 29.057 28.942 0.918 14.286 o
-1 11 2 55.188 58.993 1.263 5.120 o
-1 11 3 28.431 26.740 1.107 14.320 o
-1 11 4 23.601 22.056 0.940 19.087 o
-1 11 5 77.839 80.928 1.466 2.941 o
-1 11 6 161.471 169.006 2.453 0.795 o
-1 11 7 30.795 34.090 1.084 12.085 o
-1 11 8 21.137 24.505 1.072 19.031 o
-1 11 9 4.808 4.731 0.653 102.684 o
-1 11 10 15.907 13.448 1.065 28.785 o
-1 12 1 13.755 14.023 0.812 36.095 o
-1 12 2 8.967 8.553 0.839 53.813 o
-1 12 3 60.996 63.449 1.565 4.291 o
-1 12 4 2.280 2.194 0.658 153.721 o
-1 12 5 65.945 72.186 1.763 3.617 o
-1 12 6 0.632 0.463 0.620 241.052 o
-1 12 7 0.014 -0.119 0.489 451.801 o
-1 12 8 15.772 13.069 1.088 28.792 o
-1 12 9 32.166 35.508 1.231 11.014 o
-1 12 10 0.007 -0.235 2.466 17.821 o
-1 13 1 3.832 2.300 0.688 121.846 o
-1 13 2 26.310 26.096 1.413 13.915 o
-1 13 3 68.338 74.192 1.930 3.372 o
-1 13 4 0.381 -0.574 0.725 195.723 o
-1 13 5 42.323 44.431 1.588 7.211 o
-1 13 6 6.164 5.763 0.805 73.627 o
-1 13 7 0.899 0.445 0.659 208.549 o
-1 13 8 2.743 3.706 0.713 121.975 o
-1 14 1 1.776 1.954 0.725 145.589 o
-1 14 2 47.698 50.431 1.510 6.178 o
-1 14 3 24.211 22.022 1.555 14.779 o
-1 14 4 9.012 9.371 1.039 44.302 o
-1 14 5 7.228 9.299 1.192 42.231 o
-1 14 6 3.546 2.021 0.709 123.233 o
-1 14 7 13.857 14.653 1.894 18.081 o
-1 15 1 41.962 45.056 1.421 7.468 o
-1 15 2 10.956 8.832 0.891 45.646 o
-1 15 3 11.870 11.565 0.941 39.044 o
-1 15 4 0.544 1.581 1.660 37.941 o
-1 15 5 28.441 29.965 4.238 4.391 o
0 0 2 1061.040 1069.220 9.809 0.022 o
0 0 4 24.463 19.226 0.540 21.787 o
0 0 6 27.800 32.148 0.680 14.872 o
0 0 8 2.117 2.348 0.340 285.017 o
0 0 10 80.881 88.768 2.475 2.436 o
0 0 12 5.183 3.401 1.278 48.533 o
0 0 14 25.163 27.520 4.895 3.655 o
0 1 1 698.846 734.876 2.795 0.049 o
0 1 2 2202.940 2353.240 9.255 0.005 o
0 1 3 5.527 2.894 0.160 170.930 o
0 1 4 10.335 10.057 0.278 65.425 o
0 1 5 22.753 22.977 0.556 21.564 o
0 1 6 90.389 106.436 0.961 2.177 o
0 1 7 20.315 18.046 1.041 22.309 o
0 1 8 62.231 57.656 1.179 4.610 o
0 1 9 3.050 3.159 0.525 164.330 o
0 1 10 18.709 20.051 0.996 23.276 o
0 1 11 135.311 139.371 3.217 1.048 o
0 1 12 77.206 70.279 2.541 2.839 o
0 1 13 0.480 -0.443 0.722 194.203 o
0 1 14 40.806 37.261 1.714 7.800 o
0 2 0 2112.320 2190.910 15.069 0.006 o
0 2 1 2211.330 2359.920 6.433 0.005 o
0 2 2 1530.210 1767.590 8.209 0.010 o
0 2 3 197.545 204.784 1.306 0.569 o
0 2 4 561.178 590.882 3.248 0.076 o
0 2 5 62.412 66.647 0.707 4.409 o
0 2 6 152.093 165.049 1.310 0.895 o
0 2 7 2.422 2.174 0.257 309.909 o
0 2 8 107.565 105.305 1.877 1.722 o
0 2 9 87.473 85.948 1.552 2.486 o
0 2 10 49.733 48.449 1.447 6.117 o
0 2 11 0.000 0.338 0.770 178.874 o
0 2 12 25.776 27.740 2.018 10.917 o
0 2 13 0.964 -0.388 0.565 275.900 o
0 2 14 0.081 0.995 0.897 127.890 o
0 3 1 90.957 108.553 1.190 2.114 o
0 3 2 960.794 1087.930 4.151 0.025 o
0 3 3 194.513 206.258 0.927 0.580 o
0 3 4 0.005 0.139 0.166 3268.420 o
0 3 5 364.428 382.010 1.767 0.176 o
0 3 6 292.407 319.356 1.782 0.261 o
0 3 7 6.498 4.219 0.310 124.138 o
0 3 8 0.023 -0.078 0.472 482.394 o
0 3 9 24.366 20.491 0.829 19.786 o
0 3 10 0.076 -0.479 0.492 437.187 o
0 3 11 46.048 49.015 2.219 5.591 o
0 3 12 16.267 15.897 1.732 18.413 o
0 3 13 19.105 18.707 1.940 14.691 o
0 3 14 16.223 17.361 1.573 19.803 o
0 4 0 392.004 432.718 4.429 0.145 o
0 4 1 1395.530 1476.310 5.337 0.013 o
0 4 2 29.732 31.486 0.551 14.427 o
0 4 3 2.048 0.944 0.209 446.294 o
0 4 4 416.966 479.645 2.928 0.127 o
0 4 5 65.349 56.133 0.716 4.590 o
0 4 6 127.933 124.619 1.018 1.319 o
0 4 7 69.896 69.626 0.820 3.769 o
0 4 8 39.152 40.243 0.696 9.511 o
0 4 9 15.186 13.869 0.750 34.812 o
0 4 10 48.795 42.560 1.792 6.189 o
0 4 11 33.024 31.235 1.691 9.984 o
0 4 12 119.997 120.304 2.606 1.350 o
0 4 13 0.003 0.914 0.896 129.318 o
0 5 1 0.548 2.123 0.162 719.369 o
0 5 2 3.564 6.917 0.271 157.723 o
0 5 3 409.829 432.969 2.066 0.140 o
0 5 4 37.354 40.932 0.717 9.852 o
0 5 5 34.812 38.127 0.552 11.193 o
0 5 6 464.030 484.844 3.422 0.110 o
0 5 7 300.632 318.162 1.799 0.253 o
0 5 8 0.507 -0.085 0.224 1225.770 o
0 5 9 0.815 1.259 0.474 322.510 o
0 5 10 54.534 53.980 1.710 5.091 o
0 5 11 13.121 11.603 1.411 26.683 o
0 5 12 0.128 1.101 0.892 127.959 o
0 5 13 0.086 -0.233 0.668 239.736 o
0 6 0 207.921 210.508 2.024 0.519 o
0 6 1 122.351 130.379 1.258 1.344 o
0 6 2 123.541 128.649 1.120 1.346 o
0 6 3 456.721 446.544 2.326 0.119 o
0 6 4 15.428 10.728 0.448 42.548 o
0 6 5 519.181 519.297 2.625 0.091 o
0 6 6 150.522 151.275 1.348 0.957 o
0 6 7 18.423 17.029 0.535 29.835 o
0 6 8 107.155 120.797 1.937 1.590 o
0 6 9 0.188 -0.165 0.416 578.879 o
0 6 10 3.697 3.761 1.094 64.935 o
0 6 11 1.052 2.236 0.844 122.726 o
0 6 12 54.288 58.170 2.904 3.942 o
0 6 13 0.317 -0.229 0.878 136.503 o
0 7 1 13.108 13.647 0.412 45.408 o
0 7 2 134.814 131.110 1.082 1.199 o
0 7 3 53.504 54.932 1.778 5.085 o
0 7 4 343.793 342.622 3.723 0.199 o
0 7 5 4.677 4.466 0.534 122.192 o
0 7 6 9.013 7.122 0.472 74.708 o
0 7 7 43.784 39.927 0.822 8.378 o
0 7 8 2.582 3.882 0.499 173.996 o
0 7 9 8.490 8.295 0.662 64.759 o
0 7 10 40.558 39.669 1.260 8.447 o
0 7 11 1.646 0.905 1.083 81.095 o
0 7 12 0.554 0.218 0.762 171.912 o
0 8 0 136.003 141.707 2.375 1.081 o
0 8 1 4.764 2.992 0.489 139.379 o
0 8 2 30.354 26.349 0.615 15.217 o
0 8 3 154.594 148.529 1.868 0.923 o
0 8 4 0.223 0.946 0.374 562.177 o
0 8 5 26.380 23.475 0.604 18.407 o
0 8 6 4.055 3.831 0.414 159.069 o
0 8 7 20.718 20.343 0.704 23.778 o
0 8 8 92.482 92.747 1.449 2.253 o
0 8 9 5.317 6.473 0.799 76.877 o
0 8 10 1.234 1.505 0.583 219.224 o
0 8 11 0.067 -0.564 0.669 239.688 o
0 8 12 2.021 2.383 1.192 64.542 o
0 9 1 8.502 8.545 0.541 70.184 o
0 9 2 7.082 5.354 0.443 98.692 o
0 9 3 118.070 109.668 1.511 1.538 o
0 9 4 2.088 2.686 0.390 252.653 o
0 9 5 32.417 31.535 0.702 12.945 o
0 9 6 14.133 14.547 0.607 38.591 o
0 9 7 108.297 110.879 1.418 1.699 o
0 9 8 39.415 40.934 1.268 8.536 o
0 9 9 9.400 8.737 0.725 57.019 o
0 9 10 29.828 33.503 1.116 12.423 o
0 9 11 15.842 11.898 1.759 19.376 o
0 10 0 0.013 -0.970 0.689 227.599 o
0 10 1 55.101 53.598 1.129 5.479 o
0 10 2 19.079 18.309 0.683 26.817 o
0 10 3 26.043 28.083 0.993 15.613 o
0 10 4 156.506 165.639 1.669 0.856 o
0 10 5 17.208 19.631 0.690 28.241 o
0 10 6 5.075 5.008 0.450 124.213 o
0 10 7 6.077 5.365 0.512 102.680 o
0 10 8 13.166 15.002 0.927 34.011 o
0 10 9 24.292 26.080 1.180 16.063 o
0 10 10 0.404 -0.259 0.685 217.188 o
0 10 11 21.174 19.128 2.733 9.422 o
0 11 1 10.906 8.889 0.765 50.122 o
0 11 2 0.202 0.489 0.496 387.005 o
0 11 3 82.077 83.711 1.233 2.767 o
0 11 4 15.569 13.232 0.762 34.509 o
0 11 5 16.490 16.369 0.737 30.920 o
0 11 6 12.134 11.353 0.635 46.808 o
0 11 7 3.593 3.128 0.532 151.458 o
0 11 8 39.642 45.222 1.428 7.831 o
0 11 9 23.254 21.679 1.229 17.490 o
0 11 10 2.817 3.123 1.094 69.564 o
0 12 0 215.563 229.339 3.639 0.452 o
0 12 1 3.678 1.648 0.576 153.911 o
0 12 2 31.317 33.442 1.158 11.802 o
0 12 3 91.108 93.828 1.763 2.229 o
0 12 4 36.911 35.785 1.173 9.843 o
0 12 5 2.795 2.929 0.595 153.916 o
0 12 6 0.188 0.721 0.530 336.433 o
0 12 7 0.031 0.478 0.521 371.795 o
0 12 8 11.300 12.290 0.975 38.553 o
0 12 9 26.804 29.162 1.534 12.600 o
0 13 1 50.239 53.159 1.649 5.600 o
0 13 2 30.872 31.063 1.228 12.118 o
0 13 3 11.243 10.572 0.961 40.772 o
0 13 4 4.154 5.879 0.873 78.376 o
0 13 5 14.101 14.713 1.113 29.394 o
0 13 6 14.276 15.308 0.918 32.217 o
0 13 7 11.092 8.648 0.939 43.903 o
0 13 8 5.328 4.746 1.506 36.733 o
0 14 0 0.214 -0.877 0.829 154.084 o
0 14 1 8.412 7.387 0.825 58.512 o
0 14 2 35.050 37.961 1.478 9.340 o
0 14 3 0.078 0.105 0.739 195.066 o
0 14 4 20.100 16.607 1.230 21.178 o
0 14 5 1.126 0.572 0.729 169.405 o
0 14 6 20.692 22.183 1.548 16.345 o
0 15 1 0.882 -0.025 0.681 203.939 o
0 15 2 0.004 0.460 0.689 220.072 o
0 15 3 11.345 11.077 1.123 35.609 o
0 15 4 17.105 18.401 4.409 4.780 o
1 0 0 0.188 0.269 0.074 3662.060 o
1 0 2 372.306 384.284 3.938 0.167 o
1 0 4 179.543 216.872 2.045 0.605 o
1 0 6 241.000 236.001 1.573 0.405 o
1 0 8 319.677 331.094 4.169 0.222 o
1 0 10 36.473 35.565 1.816 8.481 o
1 0 12 26.708 22.631 2.765 8.243 o
1 0 14 0.062 -0.267 1.217 72.951 o
1 1 0 386.907 384.201 1.444 0.163 o
1 1 1 20.966 17.437 0.155 28.061 o
1 1 2 951.332 1010.190 3.595 0.027 o
1 1 3 0.923 0.858 0.116 924.144 o
1 1 4 31.808 33.212 0.354 13.440 o
1 1 5 337.734 361.436 2.831 0.199 o
1 1 6 9.284 8.097 0.305 76.680 o
1 1 7 81.653 82.123 1.094 2.838 o
1 1 8 59.347 53.344 1.212 5.027 o
1 1 9 0.644 0.907 0.488 336.428 o
1 1 10 13.312 12.090 1.034 33.837 o
1 1 11 0.274 -0.070 0.352 749.532 o
1 1 12 1.231 2.621 0.792 130.952 o
1 1 13 0.167 0.268 0.694 214.801 o
1 1 14 1.787 0.406 1.473 46.605 o
1 2 0 1204.400 1311.380 3.214 0.017 o
1 2 1 13.844 18.125 0.173 40.075 o
1 2 2 624.100 700.692 2.404 0.059 o
1 2 3 370.262 380.676 1.226 0.173 o
1 2 4 641.293 717.635 3.910 0.056 o
1 2 5 284.576 277.172 1.333 0.297 o
1 2 6 7.728 7.034 0.315 92.697 o
1 2 7 98.073 92.488 1.138 2.143 o
1 2 8 0.201 -0.114 0.270 1235.400 o
1 2 9 515.224 502.645 8.460 0.089 o
1 2 10 34.655 34.855 1.073 10.790 o
1 2 11 25.016 27.459 1.330 14.589 o
1 2 12 4.132 2.852 0.977 76.078 o
1 2 13 0.673 0.191 0.760 170.347 o
1 3 0 119.563 126.812 0.816 1.422 o
1 3 1 166.434 186.077 0.830 0.750 o
1 3 2 1712.050 1852.770 6.290 0.008 o
1 3 3 492.309 582.035 1.827 0.091 o
1 3 4 547.067 622.290 2.658 0.076 o
1 3 5 11.445 11.623 0.295 56.413 o
1 3 6 107.532 108.007 1.362 1.743 o
1 3 7 7.191 6.856 0.384 94.581 o
1 3 8 103.905 99.320 1.306 1.909 o
1 3 9 10.495 7.798 1.021 43.426 o
1 3 10 51.969 50.821 1.903 5.297 o
1 3 11 24.909 23.208 1.559 14.233 o
1 3 12 22.131 25.421 1.364 16.178 o
1 3 13 27.571 22.125 3.051 7.252 o
1 4 0 3.254 4.598 0.325 188.177 o
1 4 1 60.175 69.268 0.672 4.490 o
1 4 2 269.690 301.180 1.238 0.301 o
1 4 3 347.929 381.344 1.743 0.187 o
1 4 4 1031.500 1091.660 4.411 0.023 o
1 4 5 51.287 57.249 0.706 5.935 o
1 4 6 50.254 48.694 0.577 6.698 o
1 4 7 273.786 253.521 1.478 0.330 o
1 4 8 0.006 0.347 0.252 1406.190 o
1 4 9 16.217 12.523 0.810 33.217 o
1 4 10 18.488 16.951 1.107 23.682 o
1 4 11 7.479 7.392 0.886 58.690 o
1 4 12 22.298 22.529 1.337 17.018 o
1 4 13 5.511 4.069 1.102 57.623 o
1 5 0 72.010 79.557 0.796 3.379 o
1 5 1 162.485 158.727 2.194 0.827 o
1 5 2 323.921 408.553 2.263 0.193 o
1 5 3 116.414 96.849 0.983 1.706 o
1 5 4 106.501 103.997 0.907 1.834 o
1 5 5 12.615 11.322 0.266 52.925 o
1 5 6 0.929 0.170 0.150 1086.140 o
1 5 7 79.447 67.190 0.711 3.328 o
1 5 8 1.795 0.742 0.257 459.503 o
1 5 9 39.205 40.143 1.878 7.506 o
1 5 10 26.498 26.747 1.306 14.235 o
1 5 11 0.000 0.529 0.668 232.249 o
1 5 12 31.535 33.904 1.550 10.463 o
1 5 13 0.522 -0.539 1.159 78.404 o
1 6 0 82.853 91.365 1.079 2.624 o
1 6 1 574.574 620.971 5.091 0.070 o
1 6 2 0.775 0.371 0.161 1093.330 o
1 6 3 66.469 64.147 0.562 4.231 o
1 6 4 2.065 3.070 0.235 312.302 o
1 6 5 87.819 79.405 0.783 2.696 o
1 6 6 33.543 37.309 0.750 11.425 o
1 6 7 0.339 0.296 0.251 1088.120 o
1 6 8 17.528 15.694 0.724 30.075 o
1 6 9 1.390 1.048 0.471 292.296 o
1 6 10 0.930 -0.906 0.738 176.129 o
1 6 11 42.472 42.976 2.288 6.171 o
1 6 12 0.389 0.414 0.903 125.845 o
1 7 0 147.954 146.030 1.278 0.999 o
1 7 1 333.506 321.754 2.755 0.218 o
1 7 2 266.161 250.239 3.716 0.332 o
1 7 3 401.047 396.929 2.550 0.151 o
1 7 4 0.006 -0.012 0.137 5648.440 o
1 7 5 16.872 16.225 0.439 33.806 o
1 7 6 60.842 67.858 0.971 4.403 o
1 7 7 19.161 17.100 0.640 27.852 o
1 7 8 9.033 7.814 0.612 65.809 o
1 7 9 0.462 -0.013 0.407 540.903 o
1 7 10 14.803 15.142 1.285 25.557 o
1 7 11 2.934 3.370 1.079 70.031 o
1 7 12 53.028 60.568 2.222 4.520 o
1 8 0 42.673 45.397 1.221 7.600 o
1 8 1 472.425 463.165 2.602 0.111 o
1 8 2 42.199 41.907 0.811 8.510 o
1 8 3 9.246 9.691 0.507 64.804 o
1 8 4 136.495 122.367 1.387 1.218 o
1 8 5 27.172 32.860 0.639 15.118 o
1 8 6 60.113 57.614 0.957 4.890 o
1 8 7 33.800 37.136 0.895 11.092 o
1 8 8 12.681 14.277 0.653 41.254 o
1 8 9 12.256 11.674 0.913 38.925 o
1 8 10 12.838 10.959 0.956 37.405 o
1 8 11 3.687 3.367 1.309 50.015 o
1 9 0 167.314 171.055 2.205 0.763 o
1 9 1 136.955 125.937 1.752 1.179 o
1 9 2 6.115 4.629 0.340 123.981 o
1 9 3 23.146 17.958 0.630 23.082 o
1 9 4 2.561 1.945 0.356 262.812 o
1 9 5 12.413 10.511 0.472 51.264 o
1 9 6 1.141 0.407 0.359 466.442 o
1 9 7 18.396 20.300 0.776 25.607 o
1 9 8 5.829 5.780 0.647 89.754 o
1 9 9 1.955 2.487 0.662 155.812 o
1 9 10 2.503 1.043 0.704 147.070 o
1 9 11 22.405 21.229 2.068 12.387 o
1 10 0 100.519 90.422 1.344 2.086 o
1 10 1 96.807 93.015 1.400 2.141 o
1 10 2 131.278 133.090 2.322 1.171 o
1 10 3 6.217 5.441 0.485 103.435 o
1 10 4 0.183 0.679 0.354 658.197 o
1 10 5 1.107 1.427 0.357 403.065 o
1 10 6 86.026 95.764 1.314 2.415 o
1 10 7 39.834 38.239 0.978 9.205 o
1 10 8 29.781 33.137 1.344 11.744 o
1 10 9 143.419 147.841 2.605 0.982 o
1 10 10 26.973 28.639 1.515 12.718 o
1 11 0 1.904 2.367 0.573 188.279 o
1 11 1 7.240 7.492 0.691 71.428 o
1 11 2 34.165 35.705 0.854 11.283 o
1 11 3 46.329 41.360 1.080 7.495 o
1 11 4 0.161 0.106 0.448 499.872 o
1 11 5 8.732 9.208 0.537 67.366 o
1 11 6 0.045 0.293 0.391 647.203 o
1 11 7 0.000 -0.419 0.530 386.267 o
1 11 8 13.849 12.575 0.938 34.656 o
1 11 9 19.860 18.049 1.292 20.212 o
1 12 0 87.542 91.418 1.569 2.396 o
1 12 1 19.668 18.464 0.914 23.926 o
1 12 2 0.010 -0.712 0.569 334.163 o
1 12 3 3.676 2.293 0.535 157.631 o
1 12 4 0.599 1.301 0.537 281.972 o
1 12 5 120.636 124.411 1.735 1.381 o
1 12 6 4.485 4.776 0.700 99.595 o
1 12 7 6.617 6.186 0.739 75.141 o
1 12 8 6.144 5.297 0.766 78.365 o
1 13 0 56.446 63.289 1.480 4.691 o
1 13 1 0.224 -0.368 0.621 269.275 o
1 13 2 1.265 1.148 0.676 180.642 o
1 13 3 11.497 9.626 0.919 42.507 o
1 13 4 23.187 24.629 1.267 16.478 o
1 13 5 7.436 7.491 0.725 68.221 o
1 13 6 49.760 50.179 1.462 5.997 o
1 13 7 8.637 8.984 0.919 50.656 o
1 14 0 57.964 59.616 1.481 4.717 o
1 14 1 59.661 61.854 1.732 4.348 o
1 14 2 0.002 0.582 0.667 231.932 o
1 14 3 3.993 3.741 0.738 103.719 o
1 14 4 0.899 0.394 0.786 154.356 o
1 14 5 17.755 16.488 1.105 24.598 o
1 14 6 27.234 23.195 3.000 7.383 o
1 15 0 8.109 7.063 0.867 58.019 o
1 15 1 18.133 19.201 1.121 22.851 o
1 15 2 3.654 3.127 0.749 108.420 o
1 15 3 37.752 37.451 1.904 7.895 o
2 0 0 228.806 262.808 2.533 0.396 o
2 0 2 1970.830 2258.510 11.258 0.006 o
2 0 4 1.788 0.880 0.308 401.772 o
2 0 6 145.870 132.721 1.061 1.081 o
2 0 8 2.894 1.494 0.521 191.064 o
2 0 10 0.604 1.020 0.578 258.754 o
2 0 12 1.427 0.428 2.151 22.798 o
2 1 0 1849.030 2003.110 5.845 0.007 o
2 1 1 238.458 259.919 0.595 0.388 o
2 1 2 36.900 35.336 0.330 11.199 o
2 1 3 697.228 744.644 3.093 0.049 o
2 1 4 89.172 94.626 0.833 2.391 o
2 1 5 6.454 6.943 0.242 110.723 o
2 1 6 458.162 493.449 3.715 0.110 o
2 1 7 298.796 295.881 2.030 0.266 o
2 1 8 31.616 31.592 0.832 12.935 o
2 1 9 42.388 40.606 1.095 8.251 o
2 1 10 8.242 6.321 0.615 73.885 o
2 1 11 4.626 3.983 0.617 113.577 o
2 1 12 0.625 -0.295 0.571 290.372 o
2 1 13 13.622 14.924 1.370 25.394 o
2 2 0 129.898 107.029 0.502 1.423 o
2 2 1 20.482 21.317 0.202 26.108 o
2 2 2 572.730 657.346 1.652 0.069 o
2 2 3 311.840 345.837 1.274 0.229 o
2 2 4 61.103 62.063 0.472 4.757 o
2 2 5 117.169 121.193 0.764 1.499 o
2 2 6 12.292 13.789 0.323 48.982 o
2 2 7 8.678 9.355 0.382 73.758 o
2 2 8 47.762 48.278 1.039 6.776 o
2 2 9 0.268 0.567 0.436 467.702 o
2 2 10 0.670 -0.714 0.389 537.352 o
2 2 11 15.142 13.590 1.231 26.842 o
2 2 12 6.068 5.016 0.875 70.429 o
2 2 13 1.783 -0.232 1.140 75.311 o
2 3 0 145.352 168.421 0.878 0.939 o
2 3 1 30.060 33.637 0.342 14.129 o
2 3 2 940.477 1011.480 3.100 0.027 o
2 3 3 28.877 27.721 0.329 16.256 o
2 3 4 78.100 91.116 0.685 2.855 o
2 3 5 296.570 282.039 1.844 0.278 o
2 3 6 37.264 28.878 0.459 12.038 o
2 3 7 128.732 113.511 1.437 1.363 o
2 3 8 38.619 43.446 1.224 8.517 o
2 3 9 25.924 26.660 0.941 16.281 o
2 3 10 64.082 64.270 1.968 3.848 o
2 3 11 2.197 1.772 0.781 126.441 o
2 3 12 0.034 -0.403 0.749 192.348 o
2 3 13 6.017 6.972 1.155 49.112 o
2 4 0 1145.950 1323.680 5.903 0.017 o
2 4 1 451.187 506.114 2.400 0.111 o
2 4 2 321.072 377.228 1.676 0.208 o
2 4 3 54.484 54.464 0.382 5.833 o
2 4 4 11.579 10.361 0.270 58.939 o
2 4 5 45.527 36.913 0.461 8.637 o
2 4 6 192.723 188.045 1.066 0.621 o
2 4 7 1.585 2.763 0.256 358.136 o
2 4 8 0.345 0.407 0.354 649.057 o
2 4 9 15.971 13.806 0.863 31.742 o
2 4 10 33.666 32.652 1.811 9.323 o
2 4 11 39.377 36.114 1.440 8.705 o
2 4 12 1.068 -0.741 0.875 127.967 o
2 4 13 8.456 3.256 2.018 21.638 o
2 5 0 540.697 612.313 4.142 0.077 o
2 5 1 454.276 435.098 2.287 0.122 o
2 5 2 16.873 18.360 0.322 32.867 o
2 5 3 7.800 8.890 0.305 84.578 o
2 5 4 341.446 332.503 1.457 0.210 o
2 5 5 31.727 29.383 0.478 14.133 o
2 5 6 1.686 0.961 0.179 536.976 o
2 5 7 1.370 2.019 0.265 420.359 o
2 5 8 0.768 0.681 0.391 456.189 o
2 5 9 107.405 98.235 5.829 1.192 o
2 5 10 39.391 38.476 1.689 7.984 o
2 5 11 42.877 46.786 1.943 6.439 o
2 5 12 56.393 54.877 1.847 4.784 o
2 6 0 21.606 30.659 0.583 19.312 o
2 6 1 205.594 211.812 1.397 0.529 o
2 6 2 0.237 0.091 0.167 2204.130 o
2 6 3 46.115 45.019 0.621 7.630 o
2 6 4 30.668 20.208 0.550 16.904 o
2 6 5 108.756 90.376 0.882 1.932 o
2 6 6 27.445 30.438 0.539 15.864 o
2 6 7 78.069 79.814 1.143 3.024 o
2 6 8 1.429 0.288 0.367 423.329 o
2 6 9 3.170 3.372 0.894 90.026 o
2 6 10 14.879 12.627 1.220 27.819 o
2 6 11 3.160 4.021 1.305 50.687 o
2 6 12 3.255 4.203 1.354 47.455 o
2 7 0 24.075 26.450 0.636 18.836 o
2 7 1 195.616 176.967 1.990 0.621 o
2 7 2 58.929 49.385 0.796 5.475 o
2 7 3 69.559 76.878 1.408 3.430 o
2 7 4 0.552 0.172 0.246 998.534 o
2 7 5 4.421 7.249 0.410 122.346 o
2 7 6 19.584 17.911 0.584 27.294 o
2 7 7 1.412 1.144 0.352 389.059 o
2 7 8 0.000 0.553 0.346 770.955 o
2 7 9 64.234 64.013 1.509 4.078 o
2 7 10 3.250 3.869 1.346 48.229 o
2 7 11 52.043 54.556 2.488 4.567 o
2 7 12 0.016 -1.719 1.377 57.115 o
2 8 0 92.533 88.869 1.379 2.315 o
2 8 1 53.901 50.517 0.958 5.890 o
2 8 2 7.787 7.946 0.348 86.576 o
2 8 3 15.370 17.486 0.552 34.148 o
2 8 4 3.196 4.062 0.321 199.879 o
2 8 5 44.868 45.429 0.968 7.518 o
2 8 6 49.987 48.169 0.976 6.523 o
2 8 7 28.109 30.119 0.800 14.847 o
2 8 8 0.109 0.718 0.569 301.631 o
2 8 9 75.760 78.322 2.177 2.873 o
2 8 10 56.593 57.170 2.536 4.137 o
2 8 11 21.273 18.992 1.938 13.902 o
2 9 0 9.718 8.916 0.448 66.623 o
2 9 1 0.423 1.098 0.286 695.151 o
2 9 2 13.230 7.735 0.381 55.368 o
2 9 3 0.069 0.159 0.321 947.359 o
2 9 4 19.046 18.843 0.563 27.550 o
2 9 5 136.951 135.511 1.355 1.145 o
2 9 6 20.525 20.495 0.792 23.215 o
2 9 7 113.040 113.392 1.643 1.579 o
2 9 8 36.194 35.402 1.288 9.814 o
2 9 9 22.664 24.392 1.331 16.392 o
2 9 10 24.041 19.486 1.879 13.288 o
2 10 0 41.016 39.875 0.797 8.999 o
2 10 1 127.347 115.049 1.322 1.376 o
2 10 2 0.076 0.356 0.325 869.365 o
2 10 3 23.881 27.569 0.771 18.002 o
2 10 4 2.945 2.598 0.346 231.098 o
2 10 5 95.104 100.168 1.236 2.111 o
2 10 6 49.550 50.657 1.109 6.310 o
2 10 7 9.194 8.684 0.839 52.872 o
2 10 8 16.390 17.835 1.072 25.698 o
2 10 9 9.204 6.366 1.165 42.296 o
2 10 10 23.172 27.392 2.968 7.706 o
2 11 0 31.329 29.976 1.212 12.200 o
2 11 1 56.254 57.623 1.146 5.153 o
2 11 2 16.022 16.657 0.728 31.520 o
2 11 3 155.918 159.612 1.578 0.882 o
2 11 4 2.975 2.764 0.503 177.064 o
2 11 5 0.166 0.609 0.490 393.392 o
2 11 6 7.014 6.911 0.646 77.507 o
2 11 7 249.226 264.405 3.242 0.352 o
2 11 8 18.215 24.648 1.622 16.353 o
2 11 9 5.583 5.080 1.117 54.879 o
2 12 0 3.571 1.893 0.582 152.175 o
2 12 1 70.711 69.843 1.504 3.522 o
2 12 2 2.412 1.947 0.479 215.714 o
2 12 3 3.067 1.627 0.544 177.001 o
2 12 4 3.846 3.569 0.565 136.137 o
2 12 5 123.758 125.048 1.887 1.328 o
2 12 6 5.728 5.163 0.787 79.361 o
2 12 7 3.710 2.304 0.867 93.665 o
2 12 8 12.054 8.395 1.439 28.755 o
2 13 0 0.010 -0.480 0.566 336.909 o
2 13 1 23.078 23.264 0.989 18.723 o
2 13 2 1.442 0.729 0.663 187.034 o
2 13 3 266.698 289.903 3.340 0.305 o
2 13 4 12.346 10.423 0.827 42.325 o
2 13 5 0.934 0.298 0.586 254.510 o
2 13 6 41.873 50.471 1.788 6.559 o
2 13 7 1.345 2.901 1.334 54.132 o
2 14 0 8.147 7.572 0.804 60.317 o
2 14 1 23.867 21.731 1.138 17.738 o
2 14 2 124.886 133.268 1.929 1.262 o
2 14 3 0.818 1.551 0.646 200.711 o
2 14 4 14.296 12.848 0.902 34.422 o
2 14 5 26.840 25.717 1.761 12.083 o
2 15 0 1.148 0.929 0.698 177.166 o
2 15 1 2.160 2.064 0.745 133.479 o
2 15 2 1.451 2.143 1.029 86.166 o
3 0 0 4397.180 4830.050 12.290 0.001 o
3 0 2 541.873 574.150 3.329 0.081 o
3 0 4 614.027 629.219 4.884 0.064 o
3 0 6 23.997 20.855 1.162 17.756 o
3 0 8 63.084 59.467 1.680 4.222 o
3 0 10 25.600 23.610 1.375 14.924 o
3 0 12 78.802 86.018 2.847 2.428 o
3 1 0 1080.400 1213.500 3.817 0.020 o
3 1 1 7.868 14.856 0.209 67.139 o
3 1 2 15.466 19.031 0.242 35.288 o
3 1 3 44.906 49.669 0.607 7.445 o
3 1 4 16.519 14.001 0.270 38.089 o
3 1 5 1.069 1.699 0.258 502.027 o
3 1 6 66.847 55.870 1.090 4.359 o
3 1 7 58.291 54.649 1.026 5.164 o
3 1 8 69.588 67.781 1.211 3.740 o
3 1 9 5.865 4.683 0.582 100.938 o
3 1 10 0.847 0.938 0.522 290.506 o
3 1 11 1.543 1.369 0.804 132.095 o
3 1 12 0.104 -0.051 0.721 205.674 o
3 2 0 70.659 83.274 0.493 3.394 o
3 2 1 28.917 36.664 0.337 13.969 o
3 2 2 1136.170 1215.620 4.661 0.019 o
3 2 3 60.973 57.407 0.496 4.972 o
3 2 4 0.931 1.884 0.155 638.424 o
3 2 5 68.758 64.483 0.601 4.051 o
3 2 6 8.955 9.835 0.435 68.728 o
3 2 7 199.148 195.822 4.445 0.528 o
3 2 8 37.836 38.381 1.194 9.275 o
3 2 9 2.387 1.954 0.484 214.562 o
3 2 10 7.828 9.431 0.685 64.022 o
3 2 11 35.658 38.392 1.760 8.504 o
3 2 12 0.978 1.419 0.755 154.518 o
3 3 0 753.195 913.555 3.286 0.039 o
3 3 1 117.590 113.910 0.522 1.556 o
3 3 2 62.127 62.910 0.507 4.627 o
3 3 3 68.687 75.483 0.461 3.725 o
3 3 4 311.842 322.216 1.272 0.240 o
3 3 5 253.667 238.170 1.197 0.379 o
3 3 6 19.120 15.567 0.453 30.567 o
3 3 7 5.479 4.707 0.510 113.320 o
3 3 8 9.730 9.771 0.570 59.961 o
3 3 9 52.202 50.631 1.344 5.798 o
3 3 10 0.440 0.521 0.472 393.515 o
3 3 11 1.169 1.839 0.877 116.313 o
3 3 12 2.781 2.448 0.898 95.515 o
3 4 0 29.407 31.075 0.452 14.877 o
3 4 1 658.404 681.591 1.828 0.056 o
3 4 2 4.190 1.771 0.149 242.328 o
3 4 3 4.503 4.501 0.195 173.444 o
3 4 4 30.274 22.849 0.473 16.564 o
3 4 5 17.256 18.555 0.427 31.341 o
3 4 6 35.815 33.872 0.572 11.530 o
3 4 7 46.120 47.038 1.046 7.107 o
3 4 8 62.983 62.453 1.894 4.011 o
3 4 9 0.191 0.388 0.423 520.684 o
3 4 10 18.557 15.221 1.516 19.666 o
3 4 11 33.036 38.492 1.836 8.798 o
3 4 12 0.250 -0.480 0.905 129.471 o
3 5 0 7.854 4.711 0.259 106.360 o
3 5 1 85.282 87.789 0.653 2.649 o
3 5 2 11.903 8.160 0.279 62.321 o
3 5 3 293.236 278.675 1.076 0.285 o
3 5 4 234.645 214.750 1.195 0.445 o
3 5 5 3.398 6.209 0.313 164.197 o
3 5 6 49.826 46.626 0.778 6.797 o
3 5 7 4.134 4.409 0.449 144.980 o
3 5 8 1.028 0.297 0.270 664.791 o
3 5 9 0.023 -0.331 0.714 211.616 o
3 5 10 2.715 2.185 0.753 123.662 o
3 5 11 6.815 7.966 1.195 44.299 o
3 5 12 2.375 3.320 1.214 60.044 o
3 6 0 14.621 12.341 0.279 44.708 o
3 6 1 9.563 7.370 0.238 79.320 o
3 6 2 32.569 33.320 0.439 12.996 o
3 6 3 163.539 151.421 1.105 0.867 o
3 6 4 22.319 19.607 0.488 23.891 o
3 6 5 32.535 29.861 0.784 13.034 o
3 6 6 1.414 1.422 0.302 420.655 o
3 6 7 173.973 172.724 2.225 0.724 o
3 6 8 8.021 6.827 0.720 67.271 o
3 6 9 149.982 160.241 2.983 0.874 o
3 6 10 43.329 41.453 2.340 6.078 o
3 6 11 2.776 1.148 0.963 90.478 o
3 7 0 57.413 53.564 0.950 5.343 o
3 7 1 73.583 75.251 1.110 3.346 o
3 7 2 0.150 1.173 0.374 554.274 o
3 7 3 210.758 202.734 2.663 0.515 o
3 7 4 353.945 373.872 2.894 0.184 o
3 7 5 4.521 3.787 0.363 158.203 o
3 7 6 0.245 0.231 0.304 908.605 o
3 7 7 21.135 20.588 1.020 20.819 o
3 7 8 75.149 79.446 1.487 3.081 o
3 7 9 9.105 9.467 1.171 39.349 o
3 7 10 3.687 4.001 1.057 67.721 o
3 7 11 21.370 18.526 3.667 6.207 o
3 8 0 66.850 74.126 0.917 3.796 o
3 8 1 0.010 -0.075 0.265 1526.940 o
3 8 2 23.913 18.794 0.474 22.792 o
3 8 3 62.812 63.978 0.936 4.413 o
3 8 4 0.537 0.842 0.280 714.956 o
3 8 5 3.325 3.554 0.426 177.985 o
3 8 6 7.875 7.092 0.500 80.830 o
3 8 7 7.775 7.645 0.844 59.421 o
3 8 8 3.227 3.711 0.800 101.675 o
3 8 9 41.998 40.729 1.841 7.118 o
3 8 10 0.596 -1.224 1.149 79.412 o
3 9 0 0.231 0.332 0.238 1251.340 o
3 9 1 56.028 56.761 0.801 5.391 o
3 9 2 41.630 40.925 0.728 8.824 o
3 9 3 13.976 16.676 0.581 37.139 o
3 9 4 13.458 10.932 0.480 47.111 o
3 9 5 92.715 98.614 1.459 2.167 o
3 9 6 47.011 50.372 1.005 6.763 o
3 9 7 105.216 106.117 2.084 1.735 o
3 9 8 1.472 1.306 0.622 195.833 o
3 9 9 8.957 7.578 1.014 47.590 o
3 10 0 43.595 47.750 0.871 7.631 o
3 10 1 46.977 50.449 0.851 6.884 o
3 10 2 27.247 29.768 0.873 15.095 o
3 10 3 4.413 3.277 0.402 159.523 o
3 10 4 13.552 11.059 0.623 43.677 o
3 10 5 154.528 156.165 1.649 0.902 o
3 10 6 9.197 9.883 0.687 57.247 o
3 10 7 25.887 27.794 1.352 14.045 o
3 10 8 0.041 -0.214 0.652 252.951 o
3 10 9 20.248 23.565 1.668 15.347 o
3 11 0 28.056 26.249 0.800 15.842 o
3 11 1 1.464 1.468 0.411 317.828 o
3 11 2 0.010 0.375 0.424 557.488 o
3 11 3 167.716 176.339 1.872 0.754 o
3 11 4 74.254 74.940 1.227 3.293 o
3 11 5 2.079 2.404 0.628 164.626 o
3 11 6 0.042 -0.077 0.549 356.049 o
3 11 7 1.750 1.959 0.775 132.710 o
3 11 8 22.876 26.980 1.753 13.177 o
3 12 0 48.070 49.242 1.055 6.650 o
3 12 1 234.369 243.778 2.398 0.406 o
3 12 2 1.920 1.258 0.530 224.421 o
3 12 3 18.274 16.609 0.795 27.680 o
3 12 4 79.831 88.454 1.496 2.713 o
3 12 5 76.687 82.458 1.630 2.916 o
3 12 6 18.775 15.917 1.300 21.674 o
3 12 7 0.974 1.396 0.880 120.007 o
3 13 0 17.923 15.966 0.998 26.028 o
3 13 1 0.008 0.433 0.585 301.624 o
3 13 2 9.941 9.801 0.789 50.800 o
3 13 3 84.876 90.663 1.606 2.483 o
3 13 4 2.862 3.200 0.579 153.860 o
3 13 5 0.186 0.222 0.659 237.279 o
3 13 6 33.468 36.362 1.999 8.486 o
3 14 0 9.552 7.697 0.745 57.548 o
3 14 1 63.608 63.264 1.741 4.029 o
3 14 2 26.445 26.428 1.049 15.570 o
3 14 3 6.870 6.509 0.784 69.596 o
3 14 4 19.617 17.778 1.040 23.038 o
3 15 0 68.364 72.832 1.718 3.489 o
3 15 1 12.407 13.108 1.977 18.111 o
4 0 0 0.615 0.759 0.130 1168.430 o
4 0 2 181.407 185.320 1.229 0.674 o
4 0 4 1193.450 1152.950 6.417 0.018 o
4 0 6 530.782 522.730 3.383 0.088 o
4 0 8 10.067 10.489 1.113 38.547 o
4 0 10 29.107 25.960 1.758 11.410 o
4 1 0 234.450 266.766 0.890 0.389 o
4 1 1 36.074 32.524 0.308 11.967 o
4 1 2 101.915 99.425 0.671 1.997 o
4 1 3 2.224 2.952 0.205 316.362 o
4 1 4 29.767 30.139 0.546 14.740 o
4 1 5 350.611 345.554 3.911 0.193 o
4 1 6 10.411 9.812 0.495 59.607 o
4 1 7 24.155 22.433 0.840 19.178 o
4 1 8 81.520 80.295 1.374 2.827 o
4 1 9 47.405 48.959 1.340 6.488 o
4 1 10 32.884 34.073 1.210 11.071 o
4 1 11 1.077 0.923 0.628 211.074 o
4 1 12 18.315 14.486 1.702 18.045 o
4 2 0 318.927 319.060 1.093 0.235 o
4 2 1 78.456 80.598 0.528 3.078 o
4 2 2 2.292 1.948 0.116 392.536 o
4 2 3 48.248 52.849 0.509 6.718 o
4 2 4 58.078 54.719 0.772 5.297 o
4 2 5 47.768 42.512 0.605 7.570 o
4 2 6 205.334 203.274 2.368 0.534 o
4 2 7 17.171 18.408 0.774 28.171 o
4 2 8 0.222 0.461 0.439 478.545 o
4 2 9 3.085 2.455 0.595 152.890 o
4 2 10 66.711 70.630 1.800 3.601 o
4 2 11 23.717 23.852 1.732 13.543 o
4 2 12 6.950 7.046 1.911 23.392 o
4 3 0 227.063 255.153 1.169 0.416 o
4 3 1 66.626 57.687 0.465 4.481 o
4 3 2 77.867 64.887 0.544 3.494 o
4 3 3 14.036 17.720 0.364 38.638 o
4 3 4 560.253 562.789 1.882 0.079 o
4 3 5 35.909 37.157 0.687 10.818 o
4 3 6 114.589 104.854 1.433 1.640 o
4 3 7 16.951 16.449 0.678 30.917 o
4 3 8 5.067 5.182 0.653 98.107 o
4 3 9 0.192 1.131 0.573 280.577 o
4 3 10 3.119 1.368 0.833 107.999 o
4 3 11 0.023 1.701 0.931 116.151 o
4 4 0 1.417 2.712 0.164 438.361 o
4 4 1 39.195 38.327 0.444 9.998 o
4 4 2 1064.200 1076.570 3.823 0.022 o
4 4 3 229.465 215.218 0.922 0.459 o
4 4 4 2.116 1.033 0.220 421.498 o
4 4 5 0.121 -0.023 0.196 2287.130 o
4 4 6 4.429 4.392 0.438 141.610 o
4 4 7 4.014 3.704 0.578 129.950 o
4 4 8 2.518 3.256 0.627 147.721 o
4 4 9 0.236 -0.487 0.451 489.350 o
4 4 10 1.033 0.418 0.716 178.270 o
4 4 11 21.042 25.434 1.957 12.825 o
4 5 0 0.256 0.471 0.179 1569.990 o
4 5 1 436.707 414.969 1.458 0.132 o
4 5 2 14.136 11.056 0.254 48.330 o
4 5 3 5.435 2.792 0.201 170.749 o
4 5 4 29.992 29.841 0.430 14.931 o
4 5 5 91.615 81.364 1.013 2.505 o
4 5 6 6.262 6.332 0.459 100.674 o
4 5 7 3.439 3.102 0.589 141.880 o
4 5 8 39.924 40.850 1.379 8.254 o
4 5 9 48.774 52.251 1.704 5.747 o
4 5 10 15.496 18.787 1.763 17.748 o
4 5 11 0.464 -0.214 1.409 53.639 o
4 6 0 12.503 16.484 0.424 43.026 o
4 6 1 1089.770 1111.030 4.250 0.021 o
4 6 2 7.946 3.839 0.208 113.257 o
4 6 3 15.127 16.261 0.350 37.989 o
4 6 4 0.001 -0.141 0.258 1619.980 o
4 6 5 9.208 8.807 0.437 70.102 o
4 6 6 18.322 20.242 0.706 26.362 o
4 6 7 72.310 77.340 1.815 3.156 o
4 6 8 3.796 4.975 1.039 66.948 o
4 6 9 36.112 39.418 1.392 9.142 o
4 6 10 0.001 -0.327 0.945 121.475 o
4 7 0 214.304 193.662 1.838 0.527 o
4 7 1 72.801 65.975 0.629 3.740 o
4 7 2 1.750 1.488 0.211 448.469 o
4 7 3 22.500 17.383 0.592 24.243 o
4 7 4 1.593 2.121 0.270 382.760 o
4 7 5 6.831 4.646 0.466 102.905 o
4 7 6 6.250 5.717 0.619 89.254 o
4 7 7 54.959 55.982 1.387 5.204 o
4 7 8 8.600 8.828 1.035 46.062 o
4 7 9 0.455 0.305 0.942 116.143 o
4 7 10 14.373 13.616 1.760 19.688 o
4 8 0 4.961 5.820 0.340 132.854 o
4 8 1 3.211 3.734 0.304 209.458 o
4 8 2 209.767 207.912 1.635 0.521 o
4 8 3 58.476 65.381 0.851 4.735 o
4 8 4 6.756 6.247 0.363 103.493 o
4 8 5 95.347 98.638 1.265 2.121 o
4 8 6 26.128 27.704 1.077 15.283 o
4 8 7 49.630 56.292 2.022 5.144 o
4 8 8 10.247 10.676 2.066 18.439 o
4 8 9 4.221 2.087 1.144 61.896 o
4 9 0 4.629 3.265 0.385 157.952 o
4 9 1 15.545 12.717 0.437 40.022 o
4 9 2 47.589 48.694 0.825 6.944 o
4 9 3 3.843 4.294 0.405 160.440 o
4 9 4 5.580 5.333 0.499 109.733 o
4 9 5 2.614 3.033 0.434 205.516 o
4 9 6 2.313 2.451 0.652 152.455 o
4 9 7 1.025 0.154 0.645 216.821 o
4 9 8 2.842 -0.831 1.049 81.704 o
4 9 9 6.219 7.655 1.537 32.874 o
4 10 0 36.994 35.348 0.788 10.606 o
4 10 1 9.133 6.936 0.443 75.942 o
4 10 2 98.055 98.573 1.148 2.066 o
4 10 3 0.073 0.242 0.412 588.273 o
4 10 4 16.595 15.634 0.809 30.328 o
4 10 5 3.284 3.240 0.575 146.510 o
4 10 6 17.253 15.556 1.102 25.589 o
4 10 7 12.399 9.911 1.124 34.845 o
4 10 8 93.275 109.155 2.709 1.843 o
4 11 0 8.504 6.657 0.526 76.562 o
4 11 1 51.805 52.892 0.886 6.042 o
4 11 2 0.781 0.671 0.377 476.968 o
4 11 3 3.298 3.786 0.517 154.158 o
4 11 4 8.939 9.065 0.615 63.155 o
4 11 5 0.062 -0.231 0.520 393.674 o
4 11 6 13.020 12.813 1.125 31.794 o
4 11 7 28.733 32.235 2.155 9.261 o
4 12 0 40.881 44.929 1.489 7.550 o
4 12 1 18.351 15.563 0.743 28.831 o
4 12 2 43.628 43.897 1.088 7.731 o
4 12 3 17.226 17.729 0.790 28.340 o
4 12 4 68.657 72.154 1.322 3.632 o
4 12 5 3.855 4.207 0.878 84.669 o
4 12 6 13.552 14.102 1.653 21.459 o
4 13 0 0.195 0.424 0.567 308.318 o
4 13 1 11.075 8.610 0.713 51.876 o
4 13 2 26.117 28.422 0.996 15.481 o
4 13 3 3.018 3.219 0.543 159.737 o
4 13 4 0.519 0.223 0.665 221.107 o
4 13 5 45.603 49.947 1.727 6.210 o
4 14 0 6.595 5.506 0.756 75.859 o
4 14 1 4.449 4.759 0.671 103.832 o
4 14 2 5.691 4.567 0.672 93.216 o
4 14 3 1.221 1.021 0.608 215.080 o
4 15 0 11.235 10.739 2.327 15.135 o
5 0 0 671.529 705.989 4.010 0.053 o
5 0 2 48.905 49.491 0.780 6.721 o
5 0 4 115.746 99.430 1.541 1.658 o
5 0 6 244.598 246.576 4.286 0.366 o
5 0 8 0.647 0.037 0.585 276.419 o
5 0 10 49.910 46.313 2.258 5.309 o
5 1 0 165.908 189.044 1.167 0.741 o
5 1 1 136.967 120.665 0.625 1.244 o
5 1 2 731.890 723.204 2.420 0.047 o
5 1 3 3.712 3.627 0.217 210.609 o
5 1 4 374.065 348.507 3.153 0.178 o
5 1 5 15.076 16.959 0.616 34.317 o
5 1 6 22.554 25.316 0.880 19.055 o
5 1 7 2.128 2.156 0.391 263.962 o
5 1 8 189.795 197.538 1.903 0.605 o
5 1 9 1.133 1.341 0.508 272.311 o
5 1 10 0.001 -0.782 0.843 152.484 o
5 1 11 0.290 1.288 1.188 73.087 o
5 2 0 20.237 16.823 0.237 29.247 o
5 2 1 0.748 0.706 0.092 1170.770 o
5 2 2 633.184 631.665 2.552 0.062 o
5 2 3 376.037 363.461 1.551 0.175 o
5 2 4 52.859 49.001 0.834 6.184 o
5 2 5 41.741 40.422 0.845 8.723 o
5 2 6 16.701 15.675 0.811 30.134 o
5 2 7 10.756 11.494 0.571 52.667 o
5 2 8 23.850 25.888 0.909 17.863 o
5 2 9 14.229 13.636 1.022 31.603 o
5 2 10 15.799 13.967 1.238 25.885 o
5 3 0 246.406 242.775 0.851 0.389 o
5 3 1 7.590 6.189 0.170 104.757 o
5 3 2 45.279 41.322 0.366 8.283 o
5 3 3 20.120 17.463 0.471 27.735 o
5 3 4 4.460 3.501 0.309 172.409 o
5 3 5 12.152 9.039 0.684 48.776 o
5 3 6 24.294 27.196 0.975 16.865 o
5 3 7 15.268 16.433 0.780 32.109 o
5 3 8 85.657 85.948 1.695 2.517 o
5 3 9 17.638 20.550 1.051 23.448 o
5 3 10 7.349 5.612 1.303 41.013 o
5 4 0 4.597 3.565 0.196 184.259 o
5 4 1 226.397 239.420 1.080 0.436 o
5 4 2 344.116 342.097 1.412 0.204 o
5 4 3 83.545 72.453 0.630 3.023 o
5 4 4 5.991 4.864 0.427 115.262 o
5 4 5 9.489 9.565 0.486 64.726 o
5 4 6 0.492 0.157 0.413 506.661 o
5 4 7 15.852 16.387 0.980 28.383 o
5 4 8 13.874 12.829 1.085 31.435 o
5 4 9 11.402 10.823 0.910 41.656 o
5 4 10 83.221 91.192 2.444 2.343 o
5 5 0 801.455 797.313 2.892 0.039 o
5 5 1 4.628 4.233 0.264 165.345 o
5 5 2 69.871 65.236 0.780 3.917 o
5 5 3 86.219 78.258 0.867 2.768 o
5 5 4 14.038 15.603 0.622 37.461 o
5 5 5 42.351 37.996 1.099 8.510 o
5 5 6 19.312 18.501 0.919 24.199 o
5 5 7 64.831 63.943 1.467 4.060 o
5 5 8 4.775 3.502 0.810 88.782 o
5 5 9 10.754 9.142 1.189 36.273 o
5 5 10 0.097 0.010 0.993 109.008 o
5 6 0 19.994 20.251 0.392 26.614 o
5 6 1 24.533 19.972 0.367 22.088 o
5 6 2 15.292 17.495 0.410 35.825 o
5 6 3 0.977 0.039 0.219 875.165 o
5 6 4 26.918 27.195 0.647 16.752 o
5 6 5 0.320 -0.134 0.271 1113.960 o
5 6 6 42.909 45.125 1.476 7.234 o
5 6 7 13.252 12.868 0.889 36.475 o
5 6 8 5.022 4.358 0.966 69.288 o
5 6 9 0.040 -0.622 0.860 145.889 o
5 6 10 16.910 20.560 2.541 11.008 o
5 7 0 13.315 14.978 0.413 43.035 o
5 7 1 0.137 0.011 0.189 2338.160 o
5 7 2 2.395 2.353 0.278 295.772 o
5 7 3 61.378 59.189 0.941 4.719 o
5 7 4 55.086 60.988 1.071 5.145 o
5 7 5 120.200 127.932 1.796 1.360 o
5 7 6 87.814 91.170 2.039 2.305 o
5 7 7 77.649 83.012 1.979 2.775 o
5 7 8 27.842 27.808 1.640 12.018 o
5 7 9 0.900 1.444 1.002 95.986 o
5 8 0 11.102 8.252 0.365 63.960 o
5 8 1 2.278 1.454 0.263 350.286 o
5 8 2 42.258 42.439 0.745 8.512 o
5 8 3 11.798 10.742 0.462 53.251 o
5 8 4 0.756 0.011 0.281 792.667 o
5 8 5 20.607 26.084 1.196 17.982 o
5 8 6 26.412 23.758 1.551 13.605 o
5 8 7 35.207 37.543 1.981 8.129 o
5 8 8 0.175 0.099 0.809 161.399 o
5 8 9 0.003 -0.149 1.740 35.792 o
5 9 0 40.621 40.048 0.743 9.131 o
5 9 1 0.727 0.955 0.321 555.243 o
5 9 2 22.847 25.023 0.607 20.405 o
5 9 3 5.244 5.472 0.431 120.814 o
5 9 4 73.790 76.474 1.387 3.237 o
5 9 5 39.884 43.944 1.345 8.034 o
5 9 6 12.393 11.906 0.982 36.714 o
5 9 7 1.293 1.541 1.133 75.033 o
5 9 8 3.062 1.441 1.462 44.296 o
5 10 0 6.571 5.850 0.440 101.642 o
5 10 1 7.854 6.670 0.415 87.704 o
5 10 2 9.288 8.755 0.514 66.633 o
5 10 3 12.007 11.186 0.601 48.311 o
5 10 4 1.213 1.379 0.538 247.742 o
5 10 5 1.889 2.381 0.877 106.701 o
5 10 6 0.888 0.487 1.046 91.747 o
5 10 7 19.387 15.591 1.446 19.782 o
5 11 0 138.667 141.812 1.639 1.089 o
5 11 1 45.015 45.251 0.904 7.571 o
5 11 2 18.837 17.381 0.778 26.728 o
5 11 3 8.721 7.955 0.643 65.444 o
5 11 4 5.268 6.205 0.767 80.843 o
5 11 5 82.059 89.470 1.888 2.535 o
5 11 6 18.007 21.044 1.816 15.650 o
5 12 0 9.391 8.517 0.650 60.832 o
5 12 1 10.354 8.798 0.693 54.724 o
5 12 2 2.475 2.026 0.473 214.487 o
5 12 3 33.508 33.602 1.042 11.395 o
5 12 4 31.285 33.758 1.616 10.334 o
5 12 5 0.667 0.009 0.784 162.868 o
5 13 0 2.204 1.979 0.632 165.222 o
5 13 1 0.254 0.422 0.581 291.096 o
5 13 2 39.107 43.987 1.360 8.147 o
5 13 3 10.645 10.564 0.905 43.829 o
5 13 4 18.220 16.502 2.673 10.411 o
5 14 0 0.295 -0.175 0.575 306.783 o
5 14 1 0.312 -0.372 0.612 272.172 o
6 0 0 63.445 58.966 1.345 4.387 o
6 0 2 193.201 166.987 2.234 0.648 o
6 0 4 11.691 10.575 0.948 40.229 o
6 0 6 100.716 96.963 2.214 1.895 o
6 0 8 17.847 15.661 1.705 17.950 o
6 0 10 3.521 1.351 1.473 43.095 o
6 1 0 7.520 5.457 0.408 96.514 o
6 1 1 213.732 187.428 2.036 0.537 o
6 1 2 111.902 103.983 1.019 1.722 o
6 1 3 26.399 25.496 0.530 17.980 o
6 1 4 30.764 30.438 0.616 14.052 o
6 1 5 2.976 3.045 0.347 219.993 o
6 1 6 11.559 10.348 0.624 50.374 o
6 1 7 46.946 49.672 1.231 6.612 o
6 1 8 0.592 0.483 0.763 167.793 o
6 1 9 1.093 -0.425 0.752 167.047 o
6 1 10 27.857 31.075 2.514 8.316 o
6 2 0 19.218 15.160 0.389 31.208 o
6 2 1 45.655 39.693 0.453 8.326 o
6 2 2 13.778 17.595 0.423 38.689 o
6 2 3 9.316 9.385 0.451 67.398 o
6 2 4 10.719 11.282 0.418 57.442 o
6 2 5 33.717 32.073 0.732 12.291 o
6 2 6 127.850 132.935 1.905 1.232 o
6 2 7 8.898 9.607 0.653 60.440 o
6 2 8 9.721 8.726 0.946 46.947 o
6 2 9 5.745 4.588 0.984 64.293 o
6 2 10 22.790 23.585 5.562 3.034 o
6 3 0 581.017 553.771 3.038 0.076 o
6 3 1 1.148 1.671 0.139 622.560 o
6 3 2 50.122 43.243 0.564 7.140 o
6 3 3 16.952 16.312 0.472 33.279 o
6 3 4 6.722 4.161 0.420 111.224 o
6 3 5 7.987 7.883 0.485 78.216 o
6 3 6 48.509 52.276 1.393 6.087 o
6 3 7 0.186 -0.030 0.309 991.016 o
6 3 8 12.254 12.590 1.075 34.162 o
6 3 9 50.150 50.488 2.228 5.138 o
6 4 0 347.472 353.626 1.618 0.197 o
6 4 1 2.861 0.938 0.153 371.957 o
6 4 2 0.319 0.470 0.158 1623.770 o
6 4 3 0.005 -0.254 0.165 3906.530 o
6 4 4 180.226 188.948 2.085 0.659 o
6 4 5 23.558 23.891 0.940 18.505 o
6 4 6 16.368 14.708 0.877 30.325 o
6 4 7 6.004 4.178 0.649 94.682 o
6 4 8 25.183 26.976 1.279 14.887 o
6 4 9 0.107 -0.682 0.879 138.711 o
6 5 0 5.569 6.771 0.246 123.904 o
6 5 1 175.355 162.293 0.945 0.765 o
6 5 2 4.152 4.335 0.336 165.111 o
6 5 3 10.966 11.668 0.794 45.116 o
6 5 4 25.586 24.336 0.763 17.980 o
6 5 5 1.161 1.020 0.455 322.357 o
6 5 6 0.806 0.785 0.459 358.617 o
6 5 7 1.631 2.061 0.657 168.622 o
6 5 8 130.623 138.733 2.250 1.153 o
6 5 9 1.778 1.206 0.799 131.132 o
6 6 0 1.106 1.067 0.198 652.578 o
6 6 1 48.209 42.439 0.582 7.514 o
6 6 2 43.906 44.329 0.715 8.026 o
6 6 3 40.189 41.997 0.861 8.869 o
6 6 4 17.134 18.349 0.729 28.753 o
6 6 5 83.275 83.940 1.432 2.683 o
6 6 6 15.191 14.721 0.927 31.161 o
6 6 7 19.477 19.122 1.122 21.768 o
6 6 8 5.340 6.835 1.158 50.804 o
6 6 9 26.291 27.456 3.309 6.416 o
6 7 0 54.599 57.153 0.782 5.529 o
6 7 1 0.008 0.211 0.300 1099.840 o
6 7 2 2.639 2.422 0.381 236.026 o
6 7 3 65.466 65.786 1.262 4.042 o
6 7 4 128.530 134.334 1.618 1.231 o
6 7 5 51.374 52.663 1.329 5.789 o
6 7 6 0.931 1.539 0.654 193.808 o
6 7 7 7.598 7.044 1.005 52.479 o
6 7 8 3.703 3.170 0.910 85.162 o
6 8 0 146.946 145.778 1.661 0.998 o
6 8 1 6.607 5.987 0.379 105.433 o
6 8 2 128.155 131.444 1.338 1.263 o
6 8 3 70.970 77.516 1.463 3.326 o
6 8 4 120.204 118.249 1.858 1.420 o
6 8 5 0.519 0.513 0.597 261.248 o
6 8 6 23.204 25.156 1.340 15.877 o
6 8 7 17.740 14.802 1.448 21.101 o
6 8 8 3.966 3.864 1.644 33.809 o
6 9 0 59.920 58.349 0.876 4.907 o
6 9 1 31.400 31.795 0.646 13.422 o
6 9 2 17.407 19.852 0.663 28.110 o
6 9 3 52.982 54.444 1.466 5.414 o
6 9 4 11.748 9.067 1.444 28.628 o
6 9 5 105.915 105.334 2.515 1.676 o
6 9 6 29.060 30.237 1.693 11.100 o
6 9 7 1.328 0.437 0.955 105.024 o
6 10 0 0.729 0.523 0.241 812.561 o
6 10 1 0.136 0.198 0.272 1184.800 o
6 10 2 141.928 146.209 1.979 1.027 o
6 10 3 3.847 4.398 0.730 103.145 o
6 10 4 24.768 26.537 1.294 15.094 o
6 10 5 4.563 4.549 0.957 71.779 o
6 10 6 1.943 2.843 1.052 78.647 o
6 11 0 24.569 24.477 0.868 18.071 o
6 11 1 5.263 6.136 0.617 96.069 o
6 11 2 2.564 2.819 0.603 157.347 o
6 11 3 5.865 5.357 0.889 69.476 o
6 11 4 1.873 2.508 1.286 56.929 o
6 11 5 2.085 2.192 1.334 53.279 o
6 12 0 3.710 2.533 0.597 140.349 o
6 12 1 4.187 4.335 0.616 116.943 o
6 12 2 15.290 14.964 1.673 19.874 o
6 12 3 69.851 73.979 2.208 3.192 o
6 12 4 5.497 4.970 1.606 32.940 o
6 13 0 34.870 36.910 1.430 9.613 o
6 13 1 41.084 42.936 1.373 7.866 o
6 13 2 23.929 18.820 1.873 13.475 o
7 0 0 307.483 271.596 4.237 0.261 o
7 0 2 18.964 19.104 1.031 23.120 o
7 0 4 271.330 275.944 3.092 0.310 o
7 0 6 43.455 45.275 2.441 5.717 o
7 0 8 135.355 133.519 3.641 1.043 o
7 1 0 4.559 2.052 0.437 163.245 o
7 1 1 6.239 5.315 0.379 113.872 o
7 1 2 49.922 43.818 0.719 7.034 o
7 1 3 4.671 3.553 0.413 149.055 o
7 1 4 1.121 1.008 0.395 384.595 o
7 1 5 55.986 56.022 1.106 5.280 o
7 1 6 43.006 41.381 1.299 7.779 o
7 1 7 14.819 13.819 1.204 27.510 o
7 1 8 5.722 4.819 0.821 77.345 o
7 1 9 7.217 7.575 1.289 40.089 o
7 2 0 47.916 44.878 0.833 7.183 o
7 2 1 15.634 12.807 0.541 38.288 o
7 2 2 33.284 30.730 0.651 12.868 o
7 2 3 3.318 3.485 0.375 192.064 o
7 2 4 1.180 1.148 0.339 431.143 o
7 2 5 20.975 19.748 0.909 22.198 o
7 2 6 46.073 47.349 1.139 6.998 o
7 2 7 0.397 -0.701 0.530 348.895 o
7 2 8 6.215 4.259 0.909 68.820 o
7 2 9 63.380 64.809 4.163 2.616 o
7 3 0 36.705 37.556 0.555 10.698 o
7 3 1 6.138 5.645 0.445 106.960 o
7 3 2 51.582 52.634 1.277 5.810 o
7 3 3 28.204 26.526 0.641 16.232 o
7 3 4 0.914 1.375 0.458 324.931 o
7 3 5 12.252 12.688 0.807 40.517 o
7 3 6 57.942 61.394 1.542 4.610 o
7 3 7 1.219 2.455 0.778 135.825 o
7 3 8 3.829 2.700 0.997 75.865 o
7 4 0 94.209 93.524 0.927 2.252 o
7 4 1 4.770 3.613 0.319 161.586 o
7 4 2 23.703 21.280 0.757 20.411 o
7 4 3 113.163 109.596 1.518 1.617 o
7 4 4 1.883 2.063 0.408 271.725 o
7 4 5 35.135 38.874 0.997 10.260 o
7 4 6 36.585 39.348 1.268 9.304 o
7 4 7 0.176 0.025 0.675 230.716 o
7 4 8 29.929 31.093 1.788 10.414 o
7 5 0 27.587 23.268 0.634 17.576 o
7 5 1 353.839 364.234 3.144 0.186 o
7 5 2 67.517 70.496 1.132 3.807 o
7 5 3 0.093 -0.174 0.341 880.246 o
7 5 4 14.047 14.136 0.725 37.103 o
7 5 5 10.738 8.358 0.669 55.069 o
7 5 6 0.036 -0.536 0.598 300.778 o
7 5 7 4.024 4.795 0.902 79.236 o
7 5 8 9.875 8.223 1.157 39.544 o
7 6 0 43.330 44.366 0.683 8.160 o
7 6 1 94.498 95.289 1.408 2.170 o
7 6 2 60.082 62.593 1.269 4.542 o
7 6 3 55.173 56.508 1.080 5.351 o
7 6 4 6.327 5.810 0.592 90.729 o
7 6 5 15.042 17.872 0.876 29.982 o
7 6 6 39.053 40.528 1.478 8.269 o
7 6 7 44.465 44.622 1.422 7.112 o
7 7 0 0.031 0.414 0.342 802.695 o
7 7 1 118.758 116.298 1.762 1.461 o
7 7 2 90.857 87.254 1.488 2.372 o
7 7 3 0.672 0.126 0.386 530.263 o
7 7 4 15.218 12.854 0.956 31.964 o
7 7 5 0.521 0.416 0.549 303.603 o
7 7 6 7.790 5.463 0.980 55.630 o
7 7 7 24.697 26.915 1.369 14.632 o
7 8 0 6.124 5.877 0.495 101.195 o
7 8 1 41.441 41.466 1.198 8.203 o
7 8 2 27.224 28.398 1.091 14.557 o
7 8 3 198.936 213.618 3.077 0.528 o
7 8 4 0.111 -0.289 0.477 459.165 o
7 8 5 5.025 4.162 0.880 77.627 o
7 8 6 10.981 12.441 1.203 33.093 o
7 9 0 91.423 93.983 1.505 2.257 o
7 9 1 10.043 9.778 0.857 48.007 o
7 9 2 2.825 5.095 1.082 66.713 o
7 9 3 7.440 6.404 1.206 44.141 o
7 9 4 4.194 5.266 1.118 58.746 o
7 9 5 18.833 17.745 1.475 19.155 o
7 10 0 3.685 3.805 0.618 126.690 o
7 10 1 10.838 9.997 1.000 41.038 o
7 10 2 27.426 28.112 1.855 11.160 o
7 10 3 4.679 7.271 1.030 59.956 o
7 10 4 0.202 0.625 0.848 142.864 o
7 10 5 8.481 8.313 4.387 5.291 o
7 11 0 17.235 16.002 1.165 24.567 o
7 11 1 74.987 75.693 2.341 2.895 o
7 11 2 26.219 26.202 1.396 14.013 o
7 11 3 11.882 9.988 1.460 27.686 o
7 11 4 0.372 1.190 1.272 64.051 o
7 12 0 4.668 5.055 0.931 72.362 o
7 12 1 0.000 -0.135 0.764 185.690 o
7 12 2 1.895 0.025 2.057 24.746 o
7 13 0 2.595 2.957 1.569 38.760 o
8 0 0 127.077 115.921 2.091 1.330 o
8 0 2 0.336 0.517 0.553 309.189 o
8 0 4 225.226 222.584 2.769 0.447 o
8 0 6 6.171 7.385 1.221 45.083 o
8 0 8 23.770 24.832 4.254 4.669 o
8 1 0 0.628 0.366 0.308 692.578 o
8 1 1 53.887 56.826 1.133 5.435 o
8 1 2 111.243 111.317 1.405 1.644 o
8 1 3 6.979 6.247 0.536 88.309 o
8 1 4 61.372 64.461 1.302 4.357 o
8 1 5 8.997 7.552 0.659 64.273 o
8 1 6 54.453 54.643 1.512 5.224 o
8 1 7 5.814 7.781 0.990 57.760 o
8 1 8 6.858 6.672 2.156 19.352 o
8 2 0 1.167 1.158 0.313 464.343 o
8 2 1 2.239 4.766 0.437 188.796 o
8 2 2 41.572 43.081 0.838 8.489 o
8 2 3 217.496 226.919 2.380 0.465 o
8 2 4 2.627 1.505 0.583 177.112 o
8 2 5 0.003 -0.104 0.484 462.327 o
8 2 6 3.145 2.865 0.765 112.447 o
8 2 7 2.823 3.380 0.992 79.858 o
8 2 8 0.024 -0.214 1.601 42.239 o
8 3 0 123.702 120.041 1.311 1.392 o
8 3 1 15.757 12.979 0.590 37.134 o
8 3 2 27.466 29.576 0.918 14.868 o
8 3 3 46.013 49.170 1.274 6.733 o
8 3 4 14.577 15.415 0.857 32.735 o
8 3 5 59.707 62.518 1.472 4.470 o
8 3 6 11.277 10.711 0.951 40.848 o
8 3 7 17.613 17.053 1.263 22.562 o
8 4 0 38.642 38.158 0.920 9.587 o
8 4 1 18.905 17.190 0.766 26.880 o
8 4 2 6.266 5.732 0.616 89.347 o
8 4 3 0.045 0.726 0.449 467.102 o
8 4 4 7.399 5.997 0.694 74.496 o
8 4 5 8.803 8.282 0.843 54.663 o
8 4 6 53.717 57.444 1.717 5.005 o
8 4 7 31.923 31.699 1.486 10.854 o
8 5 0 0.032 -0.570 0.403 656.503 o
8 5 1 42.059 44.337 0.964 8.124 o
8 5 2 4.214 3.589 0.536 135.358 o
8 5 3 61.803 64.427 1.576 4.195 o
8 5 4 9.917 9.748 0.802 50.439 o
8 5 5 46.642 49.942 1.709 6.110 o
8 5 6 23.169 26.576 1.909 12.296 o
8 5 7 80.196 79.551 4.131 2.059 o
8 6 0 9.157 7.935 0.638 63.683 o
8 6 1 10.789 11.354 0.658 50.180 o
8 6 2 1.753 1.759 0.623 181.608 o
8 6 3 0.057 -0.693 0.557 344.687 o
8 6 4 27.869 26.775 1.234 13.999 o
8 6 5 38.023 37.819 1.656 8.354 o
8 6 6 0.118 0.007 0.846 149.426 o
8 7 0 1.621 1.704 0.576 205.449 o
8 7 1 44.514 44.871 1.266 7.285 o
8 7 2 5.553 5.871 0.744 82.246 o
8 7 3 8.469 8.375 0.922 51.911 o
8 7 4 0.195 -0.071 0.712 207.702 o
8 7 5 45.278 44.165 1.564 6.837 o
8 7 6 63.572 61.126 3.993 2.755 o
8 8 0 0.132 0.292 0.625 263.763 o
8 8 1 16.657 16.125 1.049 26.632 o
8 8 2 1.836 1.408 0.910 105.319 o
8 8 3 3.269 2.860 0.880 93.083 o
8 8 4 26.227 26.718 1.548 13.151 o
8 8 5 0.802 2.294 1.068 83.805 o
8 9 0 85.066 91.378 2.204 2.345 o
8 9 1 67.179 67.425 2.291 3.431 o
8 9 2 26.077 22.593 1.776 12.724 o
8 9 3 2.028 2.251 0.958 92.577 o
8 9 4 4.743 4.559 1.335 45.260 o
8 10 0 91.601 92.505 2.204 2.155 o
8 10 1 1.820 3.094 0.899 100.354 o
8 10 2 13.787 15.330 1.323 25.821 o
8 10 3 55.909 58.215 2.034 4.547 o
8 11 0 20.226 20.585 1.343 18.698 o
8 11 1 5.192 7.128 1.076 55.571 o
8 11 2 40.942 39.469 1.987 7.096 o
8 12 0 3.925 3.142 1.614 35.311 o
9 0 0 8.966 8.104 0.793 56.723 o
9 0 2 1.047 -0.067 0.469 361.953 o
9 0 4 12.313 12.517 1.221 30.884 o
9 0 6 7.523 5.410 1.523 33.094 o
9 1 0 1.613 0.404 0.437 326.448 o
9 1 1 168.733 171.694 1.803 0.762 o
9 1 2 106.838 113.226 1.570 1.692 o
9 1 3 4.881 4.602 0.579 112.373 o
9 1 4 31.790 31.459 1.250 11.684 o
9 1 5 0.319 -0.063 0.548 334.654 o
9 1 6 4.415 6.079 0.969 67.909 o
9 2 0 49.860 53.470 1.162 6.053 o
9 2 1 0.177 -0.054 0.450 501.877 o
9 2 2 0.395 -0.145 0.458 453.150 o
9 2 3 13.350 11.735 0.728 41.019 o
9 2 4 6.571 6.169 0.800 70.795 o
9 2 5 17.091 17.709 1.021 25.690 o
9 2 6 64.809 70.317 2.017 3.613 o
9 3 0 96.349 104.974 1.746 1.966 o
9 3 1 37.331 39.456 0.960 9.685 o
9 3 2 2.274 0.689 0.365 318.127 o
9 3 3 39.611 42.323 1.415 8.115 o
9 3 4 47.287 47.843 1.451 6.457 o
9 3 5 0.938 1.118 0.670 191.832 o
9 3 6 15.599 14.517 1.145 27.252 o
9 4 0 62.941 66.776 1.260 4.180 o
9 4 1 90.143 92.367 1.594 2.302 o
9 4 2 8.007 7.392 0.713 66.383 o
9 4 3 54.810 57.282 1.578 5.021 o
9 4 4 36.395 37.633 1.436 9.178 o
9 4 5 1.737 1.382 0.693 161.288 o
9 4 6 10.629 13.291 2.477 13.598 o
9 5 0 20.911 23.327 0.910 20.782 o
9 5 1 11.438 9.805 0.697 49.381 o
9 5 2 40.666 42.437 1.235 8.201 o
9 5 3 22.402 23.474 1.456 15.903 o
9 5 4 85.341 94.532 2.538 2.219 o
9 5 5 1.829 1.137 1.027 87.128 o
9 6 0 1.276 1.774 0.479 271.546 o
9 6 1 61.472 60.350 1.591 4.354 o
9 6 2 3.216 3.351 0.707 119.433 o
9 6 3 3.110 3.012 0.812 104.032 o
9 6 4 25.181 25.319 1.281 15.256 o
9 6 5 83.720 85.826 3.579 2.088 o
9 7 0 61.049 67.301 1.766 4.050 o
9 7 1 0.322 0.269 0.686 214.887 o
9 7 2 22.386 20.961 1.157 18.741 o
9 7 3 16.764 17.058 1.347 22.215 o
9 7 4 11.350 9.224 1.096 37.900 o
9 7 5 2.121 0.310 3.021 11.647 o
9 8 0 2.355 1.784 0.747 132.272 o
9 8 1 15.732 15.866 1.083 27.307 o
9 8 2 7.112 8.479 1.174 44.046 o
9 8 3 50.600 56.833 1.934 5.119 o
9 8 4 115.560 115.937 9.917 0.649 o
9 9 0 9.232 10.181 0.998 44.397 o
9 9 1 30.442 32.716 1.545 10.925 o
9 9 2 22.635 21.940 1.335 17.013 o
9 9 3 47.929 52.269 4.409 3.088 o
9 10 0 40.725 42.374 1.561 7.668 o
9 10 1 1.162 0.653 0.902 116.703 o
9 10 2 21.123 25.055 4.270 4.747 o
9 11 0 9.009 9.526 1.271 36.229 o
10 0 0 139.702 148.247 3.258 0.975 o
10 0 2 106.914 118.201 2.734 1.530 o
10 0 4 16.358 16.538 1.422 21.779 o
10 1 0 6.831 6.258 0.695 77.007 o
10 1 1 25.568 27.688 1.082 15.535 o
10 1 2 29.246 29.308 1.095 13.496 o
10 1 3 4.362 3.303 0.714 105.790 o
10 1 4 7.263 8.227 0.805 62.508 o
10 1 5 4.222 2.724 1.078 66.254 o
10 2 0 46.034 47.355 1.258 6.877 o
10 2 1 154.493 163.206 2.003 0.869 o
10 2 2 5.124 3.850 0.769 89.813 o
10 2 3 8.756 8.819 0.896 51.527 o
10 2 4 4.870 5.471 0.819 80.681 o
10 2 5 33.490 33.557 2.576 7.201 o
10 3 0 13.977 12.816 0.718 38.706 o
10 3 1 0.372 0.343 0.517 351.199 o
10 3 2 3.691 3.785 0.702 112.209 o
10 3 3 56.885 59.221 1.692 4.683 o
10 3 4 21.101 22.499 1.230 18.506 o
10 3 5 1.071 -0.213 1.202 70.970 o
10 4 0 50.552 51.753 1.375 5.895 o
10 4 1 6.566 6.831 0.796 69.493 o
10 4 2 109.248 111.279 2.126 1.615 o
10 4 3 42.056 44.596 1.437 7.467 o
10 4 4 118.475 121.073 2.570 1.368 o
10 5 0 14.618 13.179 0.836 34.858 o
10 5 1 7.134 7.543 0.871 60.569 o
10 5 2 2.784 3.206 0.887 94.299 o
10 5 3 3.520 2.375 0.975 80.825 o
10 5 4 0.026 -0.221 1.594 42.609 o
10 6 0 21.888 19.143 1.295 18.533 o
10 6 1 48.127 45.195 1.411 6.565 o
10 6 2 4.280 2.846 1.091 64.715 o
10 6 3 1.164 1.465 0.968 99.839 o
10 7 0 0.007 -0.090 0.715 211.981 o
10 7 1 0.728 1.000 0.774 156.408 o
10 7 2 108.962 117.311 2.381 1.545 o
10 7 3 2.771 3.613 2.113 22.372 o
10 8 0 0.011 -1.001 0.686 230.049 o
10 8 1 7.531 7.454 1.070 48.913 o
10 8 2 3.269 5.007 2.914 12.063 o
10 9 0 37.200 39.961 1.529 8.573 o
10 9 1 16.791 14.089 1.914 16.706 o
11 0 0 95.264 107.919 2.408 1.865 o
11 0 2 0.001 -0.317 0.847 151.193 o
11 1 0 3.326 2.093 0.626 144.113 o
11 1 1 0.108 0.679 0.649 238.187 o
11 1 2 75.635 81.251 1.976 2.885 o
11 1 3 47.983 49.068 1.797 5.905 o
11 2 0 74.076 76.577 1.502 3.190 o
11 2 1 40.852 40.893 1.361 8.109 o
11 2 2 0.042 0.003 0.633 268.094 o
11 2 3 1.467 1.417 0.731 153.867 o
11 3 0 107.634 107.067 1.999 1.692 o
11 3 1 72.756 79.486 1.604 3.154 o
11 3 2 31.453 31.201 1.357 11.482 o
11 3 3 0.724 0.053 1.028 97.265 o
11 4 0 0.008 0.155 0.594 301.771 o
11 4 1 10.789 9.096 1.018 41.493 o
11 4 2 0.450 0.072 0.823 151.694 o
11 5 0 0.882 2.071 0.787 141.104 o
11 5 1 9.278 7.867 1.005 46.821 o
11 5 2 106.562 116.840 2.970 1.516 o
11 6 0 10.722 8.997 1.051 40.651 o
11 6 1 11.883 9.111 1.221 33.737 o
11 7 0 7.162 7.031 1.228 43.111 o
12 0 0 85.597 86.089 2.631 2.300 o
12 1 0 0.957 0.935 0.653 202.031 o
12 1 1 1.946 2.281 0.741 136.177 o
12 2 0 7.699 6.853 0.880 59.203 o
12 2 1 18.578 17.321 1.189 22.522 o
12 3 0 1.488 2.343 0.768 135.352 o
12 3 1 19.993 18.255 2.541 10.636 o
12 4 0 17.285 19.102 1.256 22.085 o
;
_iucr_refine_instructions_details
;
TITL 
CELL 0.71073 7.8577 8.7346 9.0006 90 115.571 90
ZERR 4 0.0041 0.0053 0.005 0 0.038 0
LATT 1
SYMM -X,0.5+Y,0.5-Z
SFAC C H N O
UNIT 20 28 4 12

L.S. 4
PLAN  20
CONF
FMAP 2
MORE -1
BOND $H
ACTA
WGHT 0.064533 0.111541
FVAR 0.96786
REM <olex2.extras>
REM <HklSrc "%.\\fk_03443_intdb_v128.hkl">
REM </olex2.extras>

O     4     0.53313  0.04778  0.69102  11.00000  0.01025  0.01380  0.01441 =
 0.00229  0.00228  0.00038
O1    4    -0.11947  0.39307  0.28280  11.00000  0.01087  0.01296  0.01959 =
 0.00633  0.00447  0.00189
H1    2    -0.25112  0.41186  0.25849  11.00000 -1.50000
N1    3     0.23630  0.11335  0.50447  11.00000  0.00895  0.00967  0.01433 =
 0.00216  0.00284 -0.00108
H1a   2     0.19001  0.02379  0.51116  11.00000 -1.20000
O2    4    -0.13606  0.18786  0.42507  11.00000  0.01459  0.01811  0.03178 =
 0.01131  0.01138  0.00145
C5    1    -0.05229  0.26699  0.36697  11.00000  0.00985  0.01014  0.01268 =
 0.00137  0.00312 -0.00049
C6    1     0.14122  0.22851  0.37939  11.00000  0.01035  0.00973  0.01116 =
 0.00061  0.00348 -0.00037
H6    2     0.12215  0.19052  0.26927  11.00000 -1.20000
C3    1     0.47205  0.28690  0.53231  11.00000  0.01047  0.01177  0.01807 =
 0.00155  0.00484 -0.00233
H3a   2     0.55471  0.34419  0.62723  11.00000 -1.20000
H3b   2     0.54139  0.26387  0.46336  11.00000 -1.20000
C8    1     0.42154  0.13742  0.58669  11.00000  0.00914  0.01082  0.01134 =
 -0.00039  0.00374 -0.00086
C     1     0.28087  0.36338  0.43294  11.00000  0.01188  0.01019  0.01692 =
 0.00142  0.00532 -0.00162
Ha    2     0.27676  0.41984  0.34197  11.00000 -1.20000
Hb    2     0.24931  0.43480  0.50280  11.00000 -1.20000
HKLF 4

END
Q1 1 0.037037 0.233333 0.375 11 0.05 0.6
Q2 1 0.481481 0.1 0.65625 11 0.05 0.51
Q3 1 -0.111111 0.233333 0.375 11 0.05 0.51
Q4 1 0.333333 0.133333 0.53125 11 0.05 0.5
Q5 1 0.185185 0.3 0.40625 11 0.05 0.39

  REM The information below was added by Olex2.
  REM
  REM R1 = 0.0399 for 2840 Fo > 4sig(Fo) and 0.0494 for all 3394 data
  REM 103 parameters refined using 0 restraints
  REM Highest difference peak 0.6005, deepest hole -0.3524
  REM Mean Shift 0.0000, Max Shift -0.0007.

  REM +++ Tabular Listing of Refinement Information +++
  REM R1_all = 0.0494
  REM R1_gt = 0.0399
  REM wR_ref = 0.1127
  REM GOOF = 1.0349
  REM Shift_max = -0.0007
  REM Shift_mean = 0.0000
  REM Reflections_all = 3394
  REM Reflections_gt = 2840
  REM Parameters = 103
  REM Hole = -0.3524
  REM Peak = 0.6005
  REM Flack = n/a

  
;
_olex2_exptl_crystal_mounting_method  'Cryo loop'
_olex2_submission_special_instructions  'No special instructions were received'
