data_fk_03410_intdb_10
_audit_creation_date               2024-03-13
_audit_creation_method
;
Olex2 1.5-alpha
(compiled 2023.11.24 svn.r209d9fb2 for OlexSys, GUI svn.r6869)
;
_audit_contact_author_address      ?
_audit_contact_author_email        ?
_audit_contact_author_name         ''
_audit_contact_author_phone        ?
_publ_contact_author_id_orcid      ?
_publ_section_references
;
Bourhis, L.J., Dolomanov, O.V., Gildea, R.J., Howard, J.A.K., Puschmann, H.
 (2015). Acta Cryst. A71, 59-75.

Dolomanov, O.V., Bourhis, L.J., Gildea, R.J, Howard, J.A.K. & Puschmann, H.
 (2009), J. Appl. Cryst. 42, 339-341.
;
_chemical_name_systematic          '2-Amino-3-hydroxypropanoic acid monohydrate'
_chemical_formula_moiety           'C3 H7 N O3, H2 O'
_chemical_formula_sum              'C3 H9 N O4'
_chemical_formula_weight           123.109
_chemical_absolute_configuration   unk
loop_
  _atom_type_symbol
  _atom_type_scat_dispersion_real
  _atom_type_scat_dispersion_imag
  _atom_type_scat_Cromer_Mann_a1
  _atom_type_scat_Cromer_Mann_a2
  _atom_type_scat_Cromer_Mann_a3
  _atom_type_scat_Cromer_Mann_a4
  _atom_type_scat_Cromer_Mann_b1
  _atom_type_scat_Cromer_Mann_b2
  _atom_type_scat_Cromer_Mann_b3
  _atom_type_scat_Cromer_Mann_b4
  _atom_type_scat_Cromer_Mann_c
  _atom_type_scat_source
  _atom_type_scat_dispersion_source
 C 0.00313 0.00162 2.31000 1.02000 1.58860 0.86500 20.84390 10.20750 0.56870
 51.65120 0.21560 'International Tables Volume C Table 6.1.1.4 (pp. 500-502)'
 'Brennan, Cowan, Rev. Sci. Instrum., 1992, 63, 850'
 H 0.00000 0.00000 0.49300 0.32291 0.14019 0.04081 10.51090 26.12570 3.14236
 57.79970 0.00304 'International Tables Volume C Table 6.1.1.4 (pp. 500-502)'
 'Brennan, Cowan, Rev. Sci. Instrum., 1992, 63, 850'
 N 0.00612 0.00332 12.21260 3.13220 2.01250 1.16630 0.00570 9.89330 28.99750
 0.58260 -11.52900 'International Tables Volume C Table 6.1.1.4 (pp. 500-502)'
 'Brennan, Cowan, Rev. Sci. Instrum., 1992, 63, 850'
 O 0.01085 0.00610 3.04850 2.28680 1.54630 0.86700 13.27710 5.70110 0.32390
 32.90890 0.25080 'International Tables Volume C Table 6.1.1.4 (pp. 500-502)'
 'Brennan, Cowan, Rev. Sci. Instrum., 1992, 63, 850'

_space_group_crystal_system        'orthorhombic'
_space_group_IT_number             19
_space_group_name_H-M_alt          'P 21 21 21'
_space_group_name_Hall             ' P 2ac 2ab'
loop_
  _space_group_symop_id
  _space_group_symop_operation_xyz
 1 x,y,z
 2 x+1/2,-y+1/2,-z
 3 -x,y+1/2,-z+1/2
 4 -x+1/2,-y,z+1/2

_symmetry_Int_Tables_number        19
_cell_length_a                     4.7947(12)
_cell_length_b                     9.2922(18)
_cell_length_c                     12.142(3)
_cell_angle_alpha                  90
_cell_angle_beta                   90
_cell_angle_gamma                  90
_cell_volume                       541.0(2)
_cell_formula_units_Z              4
_cell_measurement_temperature      100
_exptl_absorpt_coefficient_mu      0.140
_exptl_absorpt_correction_T_max    1
_exptl_absorpt_correction_T_min    1
_exptl_absorpt_correction_type     multi-scan
_exptl_crystal_colour              'clear colourless'
_exptl_crystal_colour_lustre       clear
_exptl_crystal_colour_modifier     .
_exptl_crystal_colour_primary      colourless
_exptl_crystal_density_diffrn      1.512
_exptl_crystal_description         block
_exptl_crystal_F_000               264.252
_exptl_crystal_size_max            0.17
_exptl_crystal_size_mid            0.14
_exptl_crystal_size_min            0.11
_diffrn_reflns_av_R_equivalents    0.0233
_diffrn_reflns_av_unetI/netI       0.0184
_diffrn_reflns_Laue_measured_fraction_full  1.0000
_diffrn_reflns_Laue_measured_fraction_max  0.9795
_diffrn_reflns_limit_h_max         8
_diffrn_reflns_limit_h_min         -8
_diffrn_reflns_limit_k_max         11
_diffrn_reflns_limit_k_min         -16
_diffrn_reflns_limit_l_max         20
_diffrn_reflns_limit_l_min         -20
_diffrn_reflns_number              24612
_diffrn_reflns_point_group_measured_fraction_full  1.0000
_diffrn_reflns_point_group_measured_fraction_max  0.9682
_diffrn_reflns_theta_full          25.2417
_diffrn_reflns_theta_max           38.33
_diffrn_reflns_theta_min           2.76
_diffrn_ambient_temperature        100
_diffrn_detector                   Pilatus200K
_diffrn_detector_area_resol_mean   5.81
_diffrn_detector_type              'DECTRIS PILATUS 200K'
_diffrn_measured_fraction_theta_full  1.0000
_diffrn_measured_fraction_theta_max  0.9795
_diffrn_measurement_device         'Eulerian 4-circle diffractometer'
_diffrn_measurement_device_type    'STOE STADIVARI'
_diffrn_measurement_method         'rotation method, \w scans'
_diffrn_radiation_collimation      '0.6 mm diameter'
_diffrn_radiation_monochromator    'Graded multilayer mirror'
_diffrn_radiation_probe            x-ray
_diffrn_radiation_type             'Mo K\a'
_diffrn_radiation_wavelength       0.71073
_diffrn_source                     'Genix Mo'
_diffrn_special_details            ?
_reflns_Friedel_coverage           0.952
_reflns_limit_h_max                8
_reflns_limit_h_min                -8
_reflns_limit_k_max                16
_reflns_limit_k_min                -15
_reflns_limit_l_max                20
_reflns_limit_l_min                -20
_reflns_number_gt                  2723
_reflns_number_total               2920
_reflns_threshold_expression       I>=2u(I)
_computing_molecular_graphics      'Olex2 1.5-alpha (Dolomanov et al., 2009)'
_computing_publication_material    'Olex2 1.5-alpha (Dolomanov et al., 2009)'
_computing_structure_refinement   
 'olex2.refine 1.5-alpha (Bourhis et al., 2015)'
_refine_diff_density_max           0.4880
_refine_diff_density_min           -0.2022
_refine_diff_density_rms           0.0622
_refine_ls_abs_structure_details  
 'Hooft, R.W.W., Straver, L.H., Spek, A.L. (2010). J. Appl. Cryst., 43, 665-668.'
_refine_ls_abs_structure_Flack     0.20(19)
_refine_ls_d_res_high              0.5730
_refine_ls_d_res_low               7.3793
_refine_ls_goodness_of_fit_ref     1.0778
_refine_ls_hydrogen_treatment      constr
_refine_ls_matrix_type             full
_refine_ls_number_constraints      14
_refine_ls_number_parameters       78
_refine_ls_number_reflns           2920
_refine_ls_number_restraints       0
_refine_ls_R_factor_all            0.0349
_refine_ls_R_factor_gt             0.0309
_refine_ls_restrained_S_all        1.0778
_refine_ls_shift/su_max            -0.0002
_refine_ls_shift/su_mean           0.0000
_refine_ls_structure_factor_coef   Fsqd
_refine_ls_weighting_details      
 'w=1/[\s^2^(Fo^2^)+(0.0503P)^2^+0.0271P] where P=(Fo^2^+2Fc^2^)/3'
_refine_ls_weighting_scheme        calc
_refine_ls_wR_factor_gt            0.0778
_refine_ls_wR_factor_ref           0.0800
_refine_special_details            ?
_olex2_refinement_description
;
1. Fixed Uiso
 At 1.2 times of:
  All C(H) groups, All C(H,H) groups, All N(H,H,H) groups
 At 1.5 times of:
  All O(H) groups, All O(H,H) groups
2.a Free rotating group:
 C1(Ha,Hb)
2.b Ternary CH refined with riding coordinates:
 C2(H2)
2.c Secondary CH2 refined with riding coordinates:
 C3(H3a,H3b)
2.d Idealised Me refined as rotating group:
 N1(H1a,H1b,H1c)
2.e Idealised tetrahedral OH refined as rotating group:
 O(H)
;
loop_
  _atom_site_label
  _atom_site_type_symbol
  _atom_site_fract_x
  _atom_site_fract_y
  _atom_site_fract_z
  _atom_site_U_iso_or_equiv
  _atom_site_adp_type
  _atom_site_occupancy
  _atom_site_refinement_flags_posn
 O1 O 0.76748(11) 0.36262(5) 0.70098(4) 0.01093(9) Uani 1.000000 .
 O2 O 0.98045(12) 0.45884(5) 0.84697(4) 0.01448(10) Uani 1.000000 .
 C1 O 1.36133(12) 0.57840(6) 0.99625(4) 0.01430(10) Uani 1.000000 .
 Ha H 1.2375(19) 0.5505(10) 0.9510(8) 0.02145(15) Uiso 1.000000 G
 Hb H 1.415(2) 0.5018(6) 1.0281(9) 0.02145(15) Uiso 1.000000 G
 O O 0.94765(12) 0.67335(5) 0.60416(4) 0.01332(10) Uani 1.000000 .
 H H 0.9972(7) 0.7580(3) 0.6184(8) 0.01997(15) Uiso 1.000000 GR
 N1 N 0.71465(13) 0.71087(6) 0.83376(4) 0.00943(9) Uani 1.000000 .
 H1a H 0.8910(6) 0.7421(5) 0.8199(4) 0.01132(11) Uiso 1.000000 GR
 H1b H 0.5940(9) 0.7862(3) 0.8290(4) 0.01132(11) Uiso 1.000000 GR
 H1c H 0.7069(14) 0.6726(2) 0.90268(6) 0.01132(11) Uiso 1.000000 GR
 C C 0.81063(13) 0.46294(6) 0.76824(5) 0.00853(10) Uani 1.000000 .
 C2 C 0.63614(13) 0.59904(6) 0.75157(5) 0.00810(9) Uani 1.000000 .
 H2 H 0.43616(13) 0.57332(6) 0.76418(5) 0.00972(11) Uiso 1.000000 R
 C3 C 0.66329(14) 0.65463(7) 0.63402(5) 0.01061(10) Uani 1.000000 .
 H3a H 0.56435(14) 0.74773(7) 0.62736(5) 0.01274(12) Uiso 1.000000 R
 H3b H 0.57444(14) 0.58555(7) 0.58281(5) 0.01274(12) Uiso 1.000000 R

loop_
  _atom_site_aniso_label
  _atom_site_aniso_U_11
  _atom_site_aniso_U_22
  _atom_site_aniso_U_33
  _atom_site_aniso_U_12
  _atom_site_aniso_U_13
  _atom_site_aniso_U_23
 O1 0.0110(2) 0.00806(17) 0.01374(19) -0.00031(14) -0.00023(16) -0.00272(14)
 O2 0.0164(2) 0.01022(19) 0.0169(2) 0.00237(16) -0.00787(18) -0.00138(16)
 C1 0.0158(2) 0.0146(2) 0.01254(19) -0.00201(18) -0.00290(17) 0.00169(16)
 O 0.0148(2) 0.00985(18) 0.0153(2) -0.00277(16) 0.00489(17) -0.00201(15)
 N1 0.0108(2) 0.00767(18) 0.00981(19) 0.00052(16) -0.00036(16) -0.00028(15)
 C 0.0076(2) 0.0066(2) 0.0114(2) -0.00064(17) 0.00045(17) 0.00052(16)
 C2 0.0079(2) 0.00690(19) 0.0095(2) -0.00003(17) -0.00041(17) -0.00043(16)
 C3 0.0115(2) 0.0103(2) 0.0100(2) -0.00007(19) -0.00059(18) 0.00067(18)

loop_
  _geom_bond_atom_site_label_1
  _geom_bond_atom_site_label_2
  _geom_bond_distance
  _geom_bond_site_symmetry_2
  _geom_bond_publ_flag
 O1 C 1.2566(8) . ?
 O2 C 1.2563(8) . ?
 C1 Ha 0.8500 . ?
 C1 Hb 0.8500 . ?
 O H 0.8400 . ?
 O C3 1.4215(9) . ?
 N1 H1a 0.9100 . ?
 N1 H1b 0.9100 . ?
 N1 H1c 0.9100 . ?
 N1 C2 1.4892(8) . ?
 C C2 1.5298(9) . ?
 C2 H2 1.0000 . ?
 C2 C3 1.5234(9) . ?
 C3 H3a 0.9900 . ?
 C3 H3b 0.9900 . ?

loop_
  _geom_angle_atom_site_label_1
  _geom_angle_atom_site_label_2
  _geom_angle_atom_site_label_3
  _geom_angle
  _geom_angle_site_symmetry_1
  _geom_angle_site_symmetry_3
  _geom_angle_publ_flag
 Hb C1 Ha 104.5 . . ?
 C3 O H 109.5 . . ?
 H1b N1 H1a 109.5 . . ?
 H1c N1 H1a 109.5 . . ?
 H1c N1 H1b 109.5 . . ?
 C2 N1 H1a 109.5 . . ?
 C2 N1 H1b 109.5 . . ?
 C2 N1 H1c 109.5 . . ?
 O2 C O1 125.36(6) . . ?
 C2 C O1 115.93(5) . . ?
 C2 C O2 118.70(5) . . ?
 C C2 N1 110.48(5) . . ?
 H2 C2 N1 107.85(3) . . ?
 H2 C2 C 107.85(3) . . ?
 C3 C2 N1 111.70(5) . . ?
 C3 C2 C 110.95(5) . . ?
 C3 C2 H2 107.85(3) . . ?
 C2 C3 O 111.25(5) . . ?
 H3a C3 O 109.38(3) . . ?
 H3a C3 C2 109.38(3) . . ?
 H3b C3 O 109.38(3) . . ?
 H3b C3 C2 109.38(3) . . ?
 H3b C3 H3a 108.0 . . ?

loop_
  _geom_torsion_atom_site_label_1
  _geom_torsion_atom_site_label_2
  _geom_torsion_atom_site_label_3
  _geom_torsion_atom_site_label_4
  _geom_torsion
  _geom_torsion_site_symmetry_1
  _geom_torsion_site_symmetry_2
  _geom_torsion_site_symmetry_3
  _geom_torsion_site_symmetry_4
  _geom_torsion_publ_flag
 O1 C C2 N1 -177.93(6) . . . . ?
 O1 C C2 C3 -53.49(6) . . . . ?
 O2 C C2 N1 2.83(6) . . . . ?
 O2 C C2 C3 127.27(6) . . . . ?
 O C3 C2 N1 70.37(6) . . . . ?
 O C3 C2 C -53.38(6) . . . . ?

loop_
  _diffrn_refln_index_h
  _diffrn_refln_index_k
  _diffrn_refln_index_l
  _diffrn_refln_intensity_net
  _diffrn_refln_intensity_u
  _diffrn_refln_scale_group_code
 -1 -7 6 115.59 2.72 0
 -1 -6 4 150.52 2.35 0
 -1 -4 20 96.79 8.84 0
 0 -7 5 0.21 0.3 0
 0 -7 6 14.79 1.2 0
 0 -7 8 46.83 2.5 0
 0 -6 4 1954.6 7.83 0
 0 -6 5 15.49 1.18 0
 0 -6 6 159.83 3.79 0
 0 -6 8 81.97 3.62 0
 0 -6 9 825.59 12.2 0
 0 -6 10 63.35 4.15 0
 0 -6 12 508.42 11.85 0
 0 -6 13 9.6 2.64 0
 0 -6 14 -0.83 1.77 0
 0 -5 3 1045.09 5.16 0
 0 -5 5 645.94 7.19 0
 0 -5 6 166 4.46 0
 0 -5 12 74.01 5.17 0
 0 -5 13 25.66 3.97 0
 0 -5 14 17.8 3.81 0
 0 -5 15 17.36 4.13 0
 0 -5 16 11.97 3.68 0
 0 -5 17 67.78 6.82 0
 0 -5 18 3.12 3.02 0
 0 -4 3 1515.68 7.81 0
 0 -4 4 445.19 5.59 0
 0 -4 16 248.38 11.44 0
 0 -4 17 266.75 11.93 0
 0 -4 18 136.5 9.2 0
 0 -4 19 13.74 4.86 0
 0 -4 20 107.08 8.9 0
 0 -3 17 3.81 3.95 0
 0 -3 18 15.69 4.8 0
 0 -3 19 16.18 5.12 0
 0 -3 20 20.9 5.46 0
 0 -2 18 2.09 4.02 0
 0 -2 19 0.54 3.98 0
 0 -2 20 13.95 5.23 0
 0 -1 19 32.12 6.73 0
 0 -1 20 3.74 4.62 0
 0 0 20 156.14 11.31 0
 0 1 20 2.67 5.05 0
 0 2 20 15.69 5.78 0
 0 8 18 115.25 10.66 0
 0 9 2 171.61 2.66 0
 0 9 3 1.45 1.01 0
 0 9 17 116.29 9.96 0
 0 10 4 163.18 4.41 0
 0 10 5 9.82 1.88 0
 0 10 15 6.42 4 0
 0 10 16 20.51 5.41 0
 0 11 11 1.88 2.84 0
 1 -7 4 124.76 3.22 0
 1 -7 6 120.25 3.72 0
 1 -7 7 148.96 4.48 0
 1 -7 8 48.18 2.91 0
 1 -7 9 127.45 4.81 0
 1 -6 3 34.69 1.79 0
 1 -6 4 142.74 3.65 0
 1 -6 8 7.55 1.73 0
 1 -6 9 368.79 8.44 0
 1 -6 12 34.33 4.16 0
 1 -6 13 176.7 7.69 0
 1 -6 14 92.84 6.1 0
 1 -5 2 517.66 6.27 0
 1 -5 3 313.02 5.09 0
 1 -5 4 719.83 8.14 0
 1 -5 5 465.76 7.17 0
 1 -5 7 569.17 9.41 0
 1 -5 8 402.73 8.56 0
 1 -5 9 496.52 10.11 0
 1 -5 12 325.51 9.99 0
 1 -5 13 85.33 6.11 0
 1 -5 14 48.83 4.95 0
 1 -5 15 35.94 5.04 0
 1 -5 16 79.91 6.84 0
 1 -5 17 6.57 3.48 0
 1 -5 19 16.08 4.12 0
 1 -4 2 1910.07 11.91 0
 1 -4 3 103.9 3.12 0
 1 -4 4 1373.5 11.52 0
 1 -4 5 1632.09 13.64 0
 1 -4 8 431.71 9.09 0
 1 -4 9 254.23 7.68 0
 1 -4 13 197.53 8.93 0
 1 -4 14 7.3 3.24 0
 1 -4 15 15.8 4.01 0
 1 -4 16 17.27 4.44 0
 1 -4 17 84.53 7.21 0
 1 -4 18 27.87 5.39 0
 1 -4 19 30.05 5.83 0
 1 -3 1 2214.59 12.21 0
 1 -3 2 342.66 5.06 0
 1 -3 3 1086.79 9.54 0
 1 -3 4 713.25 8.45 0
 1 -3 5 384.86 6.92 0
 1 -3 6 307.38 6.74 0
 1 -3 8 153.25 5.8 0
 1 -3 11 45.51 4.9 0
 1 -3 12 85.55 6.23 0
 1 -3 14 52.2 5.56 0
 1 -3 15 227.14 10.36 0
 1 -3 16 12.59 4.29 0
 1 -3 17 49.93 6.51 0
 1 -3 18 14.18 4.91 0
 1 -3 19 112.74 8.74 0
 1 -3 20 17.16 5.68 0
 1 -2 0 3137.09 14.55 0
 1 -2 1 1465.64 9.74 0
 1 -2 2 379.21 5.28 0
 1 -2 3 1629.23 11.75 0
 1 -2 4 1013.79 10.33 0
 1 -2 5 1448.23 13.59 0
 1 -2 6 602.67 9.84 0
 1 -2 9 430.73 10.62 0
 1 -2 11 235.44 9.03 0
 1 -2 12 162.79 7.94 0
 1 -2 13 171.16 8.86 0
 1 -2 14 122.34 8.04 0
 1 -2 15 62.1 7.25 0
 1 -2 16 49.57 6.79 0
 1 -2 17 56.82 7.01 0
 1 -2 18 28.24 5.98 0
 1 -2 19 14.84 4.75 0
 1 -2 20 76.46 9.03 0
 1 -1 0 5157.05 17.55 0
 1 -1 1 1063.01 8.14 0
 1 -1 2 9692.59 26.09 0
 1 -1 3 4191.83 19.01 0
 1 -1 4 146.32 4.16 0
 1 -1 5 973.89 11.79 0
 1 -1 6 866.13 12.26 0
 1 -1 13 190.61 9.41 0
 1 -1 14 118.54 8.21 0
 1 -1 15 28.2 5.45 0
 1 -1 16 62.97 7.7 0
 1 -1 18 70.42 8.62 0
 1 -1 19 27.25 5.97 0
 1 -1 20 24.42 5.61 0
 1 0 0 -0.1 1.17 0
 1 0 2 391.64 5.39 0
 1 0 3 1515.34 11.74 0
 1 0 4 88.05 3.55 0
 1 0 5 877.29 11.33 0
 1 0 14 545.13 15.83 0
 1 0 15 31.11 5.32 0
 1 0 17 262.13 12.72 0
 1 0 18 25.48 5.97 0
 1 0 19 -1.35 3.96 0
 1 0 20 1.83 5.18 0
 1 1 0 5131.77 16.35 0
 1 1 1 1070.29 7.99 0
 1 1 2 9569.92 26.17 0
 1 1 3 4080.56 19.68 0
 1 1 4 146.72 4.53 0
 1 1 15 20.73 4.62 0
 1 1 16 68.88 8.12 0
 1 1 17 52.49 7.34 0
 1 1 18 84.57 9.38 0
 1 1 19 26.27 6.14 0
 1 2 0 3145.07 12.35 0
 1 2 1 1466.47 9.27 0
 1 2 2 374.84 5.36 0
 1 2 3 1623.13 12.78 0
 1 2 4 1032.08 11.54 0
 1 2 16 52.52 6.89 0
 1 2 17 57.45 7.43 0
 1 2 18 29.91 6.44 0
 1 2 19 12.95 6.36 0
 1 2 20 68.22 9 0
 1 3 0 4805.31 14.68 0
 1 3 1 2254.44 11.39 0
 1 3 2 336.88 5.27 0
 1 3 3 1110.01 10.86 0
 1 3 4 720.01 9.82 0
 1 3 16 16.06 4.98 0
 1 3 17 40.86 6.63 0
 1 3 18 22.16 5.73 0
 1 3 19 113.11 10.63 0
 1 4 0 5190.33 14.72 0
 1 4 1 1081.32 7.89 0
 1 4 2 1899.52 12.25 0
 1 4 3 101.69 3.49 0
 1 4 4 1386.79 13.86 0
 1 4 17 75.35 9.12 0
 1 4 18 23.25 5.91 0
 1 5 0 544.93 4.4 0
 1 5 1 1.74 0.69 0
 1 5 2 504.03 6.31 0
 1 5 3 315.7 5.94 0
 1 5 4 740.27 10.26 0
 1 5 15 39.18 7 0
 1 5 16 87.38 8.36 0
 1 5 17 7.68 4.83 0
 1 5 19 14.68 5.58 0
 1 6 1 303.37 3.89 0
 1 6 2 340.69 5.17 0
 1 6 3 34.46 2.25 0
 1 6 4 150.79 4.85 0
 1 6 5 364.72 8.04 0
 1 6 14 83.61 8.04 0
 1 6 15 27.13 6.06 0
 1 6 16 71.07 8.49 0
 1 6 17 15.15 5.4 0
 1 6 18 20.57 6.61 0
 1 7 1 89.06 1.9 0
 1 7 2 812.85 7.58 0
 1 7 3 469.21 6.9 0
 1 7 4 126.27 4.31 0
 1 7 6 118.03 5.36 0
 1 7 7 139.47 6.08 0
 1 7 12 213.92 10.28 0
 1 7 13 36.15 5.4 0
 1 7 14 260.74 11.93 0
 1 7 15 24.98 5.6 0
 1 7 16 97.25 8.9 0
 1 7 17 11.61 5.44 0
 1 7 18 77.66 8.24 0
 1 8 2 155.88 3.06 0
 1 8 3 503.9 6.87 0
 1 8 4 418.76 7.28 0
 1 8 5 102.51 4.26 0
 1 8 6 209.21 6.67 0
 1 8 9 36.51 4.94 0
 1 8 10 143.15 7.7 0
 1 8 11 169.66 8.86 0
 1 8 12 62.88 6.38 0
 1 8 13 72.83 7.21 0
 1 8 14 118.1 8.54 0
 1 8 15 174.53 10.28 0
 1 8 16 38.98 6.28 0
 1 8 17 42.09 6.98 0
 1 9 3 376.73 5.32 0
 1 9 4 99.76 3.53 0
 1 9 5 117.41 4.39 0
 1 9 6 55.57 3.69 0
 1 9 8 52.4 4.24 0
 1 9 9 153.87 7.16 0
 1 9 10 10.8 3.54 0
 1 9 12 197.98 9.86 0
 1 9 13 77.75 6.81 0
 1 9 14 62.92 7.63 0
 1 9 15 4.46 4.31 0
 1 9 16 6.15 4.38 0
 1 9 17 11.58 5.2 0
 1 10 5 66.23 3.22 0
 1 10 6 38.8 3.01 0
 1 10 8 33.56 3.73 0
 1 10 9 35.91 4.45 0
 1 10 10 6.92 2.96 0
 1 10 11 225.79 9.21 0
 1 10 12 3.69 3.03 0
 1 10 13 59.74 6.62 0
 1 10 14 66.23 6.91 0
 1 10 15 35.01 5.85 0
 1 10 16 67.81 7.73 0
 2 -7 5 165.49 5.33 0
 2 -7 6 328.43 7.57 0
 2 -7 7 121.4 4.93 0
 2 -7 8 0.95 1.35 0
 2 -6 4 145.06 4.85 0
 2 -6 5 690.1 10.59 0
 2 -6 6 19.9 2.46 0
 2 -6 7 709.84 11.71 0
 2 -6 8 25.57 3.1 0
 2 -6 10 25.54 3.31 0
 2 -6 11 356.11 10.08 0
 2 -6 12 96.88 6.07 0
 2 -6 13 3.27 2.56 0
 2 -6 14 72.65 6.08 0
 2 -6 15 28.38 4.57 0
 2 -6 16 8.02 3.33 0
 2 -5 5 268 6.8 0
 2 -5 6 319.09 7.6 0
 2 -5 7 1522.9 17.36 0
 2 -5 8 52.69 3.91 0
 2 -5 10 36.63 4.29 0
 2 -5 11 46.06 4.31 0
 2 -5 12 48.37 4.74 0
 2 -5 13 158.91 8.1 0
 2 -5 14 107.41 6.97 0
 2 -5 15 54.9 6 0
 2 -5 16 127.5 8.59 0
 2 -5 17 8.87 3.76 0
 2 -5 18 21.74 4.96 0
 2 -5 19 36.04 5.64 0
 2 -4 1 108.39 4.25 0
 2 -4 2 153.42 4.82 0
 2 -4 6 171.19 5.7 0
 2 -4 7 294.57 7.83 0
 2 -4 8 29.1 3.22 0
 2 -4 10 98.33 5.63 0
 2 -4 11 57.44 5.12 0
 2 -4 12 333.81 10.72 0
 2 -4 13 8.48 3.69 0
 2 -4 14 99.27 7.23 0
 2 -4 15 46.29 6.07 0
 2 -4 16 19.82 4.46 0
 2 -4 17 6.76 3.85 0
 2 -4 19 55.54 7.37 0
 2 -3 1 383.98 7.38 0
 2 -3 2 2566.36 18.6 0
 2 -3 3 178.25 5.22 0
 2 -3 4 139.93 4.86 0
 2 -3 6 2074.87 19.45 0
 2 -3 7 2.79 1.91 0
 2 -3 8 212 7.29 0
 2 -3 11 123.28 6.6 0
 2 -3 12 28.82 4.55 0
 2 -3 13 32.59 5.1 0
 2 -3 14 270.99 11 0
 2 -3 15 102.21 7.37 0
 2 -3 16 97.91 8.11 0
 2 -3 17 120.32 8.53 0
 2 -3 19 15.14 4.79 0
 2 -2 0 353.96 6.96 0
 2 -2 1 1305.64 13.12 0
 2 -2 2 214.87 5.45 0
 2 -2 3 127.18 4.49 0
 2 -2 4 565.19 9.38 0
 2 -2 7 122.17 5.4 0
 2 -2 10 231.36 8.41 0
 2 -2 11 497.57 12.74 0
 2 -2 12 43.79 4.64 0
 2 -2 13 92 6.57 0
 2 -2 14 103.48 7.35 0
 2 -2 15 46.12 6.51 0
 2 -2 16 169.3 9.56 0
 2 -2 17 17.62 4.9 0
 2 -2 18 12.38 4.47 0
 2 -2 19 22.24 5.44 0
 2 -1 0 365.23 6.91 0
 2 -1 3 1858.32 16 0
 2 -1 4 1000.06 12.34 0
 2 -1 5 72.66 3.92 0
 2 -1 7 27.99 3.1 0
 2 -1 10 452.19 11.81 0
 2 -1 12 15.13 3.71 0
 2 -1 13 10.92 3.67 0
 2 -1 14 50.71 5.78 0
 2 -1 15 115.4 8.41 0
 2 -1 16 200.1 10.9 0
 2 -1 18 138.42 9.97 0
 2 -1 19 135.51 10.26 0
 2 -1 20 11.69 5.31 0
 2 0 0 528.37 7.99 0
 2 0 1 909.58 10.47 0
 2 0 2 1686.04 14.46 0
 2 0 3 592.03 9.08 0
 2 0 5 643.08 10.64 0
 2 0 10 22.42 3.79 0
 2 0 11 98.03 6.07 0
 2 0 12 7.38 3.06 0
 2 0 14 16.69 4.51 0
 2 0 15 222.73 10.74 0
 2 0 17 19.89 4.9 0
 2 0 18 2.75 3.94 0
 2 0 19 36.17 6.24 0
 2 0 20 22.79 6.07 0
 2 1 0 360.61 6.53 0
 2 1 1 1775.69 14.44 0
 2 1 2 2162.29 16.37 0
 2 1 4 1018.37 12.61 0
 2 1 5 68.85 3.95 0
 2 1 10 468.11 12.38 0
 2 1 11 261.83 9.8 0
 2 1 12 17.79 3.77 0
 2 1 13 15.77 4.15 0
 2 1 15 124.24 8.58 0
 2 1 16 190.02 10.36 0
 2 1 17 48.5 6.81 0
 2 1 18 118.44 9.15 0
 2 1 19 134.21 10.34 0
 2 2 -1 1322.65 12.52 0
 2 2 0 354.93 6.49 0
 2 2 1 1271.12 12.02 0
 2 2 3 119.87 4.31 0
 2 2 4 559.69 9.39 0
 2 2 5 690.85 11.1 0
 2 2 6 1428.2 16.83 0
 2 2 7 122.1 5.55 0
 2 2 11 509.96 13.59 0
 2 2 12 45.28 5.12 0
 2 2 13 97.15 7.49 0
 2 2 14 104.4 7.61 0
 2 2 17 15.18 5.1 0
 2 2 19 29.07 6.52 0
 2 3 0 21.22 2.04 0
 2 3 1 383.95 6.68 0
 2 3 2 2516.69 17.43 0
 2 3 3 171.87 5.11 0
 2 3 4 148.44 5.12 0
 2 3 5 141.78 5.24 0
 2 3 7 4.85 1.99 0
 2 3 9 361.39 10.45 0
 2 3 10 492.42 13.08 0
 2 3 11 129.69 7.34 0
 2 3 15 110.99 8.71 0
 2 3 17 109.06 9.08 0
 2 3 18 180.09 11.41 0
 2 3 19 13.16 5.98 0
 2 4 0 469.19 7.07 0
 2 4 1 110.35 3.63 0
 2 4 2 155.89 4.59 0
 2 4 3 350.82 7.2 0
 2 4 4 177.45 5.46 0
 2 4 5 47.66 3.52 0
 2 4 6 175.79 6.29 0
 2 4 9 21.89 3.58 0
 2 4 10 105.29 6.61 0
 2 4 11 74.88 6.12 0
 2 4 12 339.36 12.18 0
 2 4 13 1.96 3.79 0
 2 4 14 104.08 7.83 0
 2 4 15 51.87 6.98 0
 2 4 16 25.91 5.95 0
 2 4 17 4.78 4.3 0
 2 4 18 90.28 9.29 0
 2 4 19 53.19 7.65 0
 2 5 0 6.35 1.38 0
 2 5 1 198.03 4.74 0
 2 5 2 617.33 8.7 0
 2 5 3 65.21 3.29 0
 2 5 4 160.14 5.38 0
 2 5 5 254.42 7.1 0
 2 5 6 336.31 8.47 0
 2 5 9 516.46 12.72 0
 2 5 10 34 4.85 0
 2 5 11 53.19 5.36 0
 2 5 12 58.78 5.8 0
 2 5 13 160.7 9.15 0
 2 5 14 93.98 7.97 0
 2 5 16 142.72 9.65 0
 2 5 17 7.87 4.64 0
 2 5 18 11.63 5.06 0
 2 6 0 4.12 1.07 0
 2 6 1 1044.78 10.34 0
 2 6 2 469.66 7.44 0
 2 6 3 211.85 5.55 0
 2 6 4 137.18 4.93 0
 2 6 5 679.86 11.41 0
 2 6 6 19.37 2.77 0
 2 6 8 34.67 4.01 0
 2 6 9 177.03 7.69 0
 2 6 10 27.82 4.26 0
 2 6 11 343.11 11.8 0
 2 6 12 92.91 7.11 0
 2 6 13 1.08 3.23 0
 2 6 14 68.2 7.14 0
 2 6 15 21.13 5.19 0
 2 6 16 5.15 4.04 0
 2 6 17 24.49 5.56 0
 2 6 18 30.31 6.19 0
 2 7 1 149.49 3.8 0
 2 7 2 238.66 5.28 0
 2 7 3 168.44 4.9 0
 2 7 4 389.65 7.94 0
 2 7 5 172.29 5.88 0
 2 7 8 1.12 2.35 0
 2 7 9 101.87 6.16 0
 2 7 10 20.2 3.67 0
 2 7 11 56.38 5.48 0
 2 7 12 34.42 5.03 0
 2 7 13 48.85 5.99 0
 2 7 14 175.88 9.92 0
 2 7 16 10.9 4.9 0
 2 7 17 51.6 7.23 0
 2 8 1 176.01 3.73 0
 2 8 2 46.65 2.4 0
 2 8 3 153.49 4.47 0
 2 8 4 66.83 3.46 0
 2 8 5 255.48 6.92 0
 2 8 6 20.79 2.82 0
 2 8 8 81.33 5.26 0
 2 8 9 117.12 6.61 0
 2 8 10 77.36 5.8 0
 2 8 11 17.06 4.14 0
 2 8 12 45.41 5.7 0
 2 8 13 88.17 7.04 0
 2 8 14 46.49 6.18 0
 2 8 15 55.78 7.06 0
 2 8 16 9.11 4.49 0
 2 8 17 29.77 5.67 0
 2 9 2 90.72 2.68 0
 2 9 3 81.53 3.13 0
 2 9 4 140.17 4.55 0
 2 9 5 134.14 4.96 0
 2 9 8 406.11 10.38 0
 2 9 9 20.58 3.43 0
 2 9 10 143.27 7.48 0
 2 9 11 27.52 4.71 0
 2 9 12 67.61 6.27 0
 2 9 13 191.37 9.83 0
 2 9 14 103.84 8.08 0
 2 9 15 79.1 7.13 0
 2 9 16 9.56 4.6 0
 2 10 6 100.81 4.58 0
 2 10 8 32.03 3.9 0
 2 10 9 7.97 2.48 0
 2 10 10 94.24 6.12 0
 2 10 11 111.29 6.73 0
 2 10 12 187.26 8.92 0
 2 10 13 92.66 7.23 0
 2 10 14 36.14 5.74 0
 2 10 15 10.34 4.09 0
 3 -7 8 146.04 6.74 0
 3 -7 9 23.37 3.68 0
 3 -7 10 16.98 3.11 0
 3 -7 11 57.55 4.75 0
 3 -6 3 328.62 8.78 0
 3 -6 8 30.45 3.73 0
 3 -6 9 99.09 5.79 0
 3 -6 11 65.43 5.43 0
 3 -6 12 10.89 3.36 0
 3 -6 14 22.68 4.84 0
 3 -6 15 63.92 6.34 0
 3 -6 16 54.21 5.9 0
 3 -5 4 10.54 2.52 0
 3 -5 8 169.27 7.16 0
 3 -5 9 389.6 10.97 0
 3 -5 11 72.64 6.19 0
 3 -5 12 72.18 5.97 0
 3 -5 13 2.35 3.14 0
 3 -5 14 35.04 5.43 0
 3 -5 16 6.35 4.03 0
 3 -5 17 17.03 5 0
 3 -5 18 66.15 7.49 0
 3 -4 1 83.6 4.79 0
 3 -4 2 73.43 4.24 0
 3 -4 3 400.33 9.37 0
 3 -4 4 2504.76 23.56 0
 3 -4 11 6.58 3.04 0
 3 -4 13 21.67 4.28 0
 3 -4 14 1.67 3.29 0
 3 -4 15 167.83 9.51 0
 3 -4 18 1.94 3.74 0
 3 -3 2 515.52 10.49 0
 3 -3 3 318.79 8.41 0
 3 -3 4 170.39 6.32 0
 3 -3 8 498.59 12.03 0
 3 -3 9 8.95 3.16 0
 3 -3 10 100.7 6.38 0
 3 -3 11 37.76 5.06 0
 3 -3 12 18.27 4.48 0
 3 -3 13 19.38 4.33 0
 3 -3 14 53.1 6.61 0
 3 -3 15 75.71 7.44 0
 3 -3 17 13 4.66 0
 3 -3 18 52.41 7.45 0
 3 -3 19 4.63 4.61 0
 3 -2 4 163.93 6.21 0
 3 -2 5 143.63 5.96 0
 3 -2 9 84.87 5.66 0
 3 -2 11 145.71 7.76 0
 3 -2 12 21.51 4.15 0
 3 -2 13 12.77 4.13 0
 3 -2 14 9.99 3.8 0
 3 -2 15 27.93 5.11 0
 3 -2 16 153.48 10.07 0
 3 -2 17 28.1 5.55 0
 3 -2 18 26.48 6.15 0
 3 -2 19 86.19 9.01 0
 3 -1 8 60.11 4.89 0
 3 -1 9 173.22 7.8 0
 3 -1 10 207.08 8.7 0
 3 -1 11 376.47 11.92 0
 3 -1 12 4.4 3.15 0
 3 -1 13 75.19 6.91 0
 3 -1 14 142.95 9.08 0
 3 -1 15 31.54 5.68 0
 3 -1 16 41.64 6.32 0
 3 -1 17 23.72 5.74 0
 3 -1 18 13.8 5 0
 3 -1 19 169.67 11.17 0
 3 0 0 -0.41 1.44 0
 3 0 8 4.66 2.3 0
 3 0 11 134.19 7.37 0
 3 0 12 14.39 4.19 0
 3 0 13 67.65 6.24 0
 3 0 15 0.33 3.11 0
 3 0 16 210.28 11.51 0
 3 0 17 11.08 4.57 0
 3 0 18 14.31 5.62 0
 3 0 19 3.64 4.86 0
 3 1 0 102.26 4.65 0
 3 1 1 713.47 11.65 0
 3 1 2 334.36 8.2 0
 3 1 3 12.91 2.27 0
 3 1 4 530.94 10.66 0
 3 1 5 492.87 10.72 0
 3 1 8 56.64 4.55 0
 3 1 9 167.77 7.71 0
 3 1 10 218.91 8.98 0
 3 1 11 384.01 12.17 0
 3 1 12 10.83 3.83 0
 3 1 13 70.4 6.32 0
 3 1 14 142.08 8.72 0
 3 1 16 31.77 6.11 0
 3 1 17 26.79 5.68 0
 3 1 19 189.81 12.23 0
 3 2 0 2855.69 22.57 0
 3 2 1 1022.91 13.73 0
 3 2 2 483.65 9.7 0
 3 2 4 170.42 6.13 0
 3 2 5 137.82 6.04 0
 3 2 10 73.8 5.58 0
 3 2 11 140.42 7.8 0
 3 2 12 22.36 4.5 0
 3 2 13 11.68 3.83 0
 3 2 15 30.25 6.08 0
 3 2 16 152.02 9.82 0
 3 2 17 13.09 5.04 0
 3 2 18 19.2 5.64 0
 3 3 0 21.86 2.68 0
 3 3 1 542.18 9.95 0
 3 3 2 544.46 10.31 0
 3 3 3 342.07 8.27 0
 3 3 4 168.14 6.13 0
 3 3 8 501.96 12.34 0
 3 3 9 13.3 3.29 0
 3 3 10 85.22 6.05 0
 3 3 11 38.71 5.04 0
 3 3 12 19.9 4.66 0
 3 3 13 17.67 4.34 0
 3 3 14 51.67 6.26 0
 3 3 15 80.67 7.86 0
 3 3 16 11.94 4.62 0
 3 3 17 18.83 5.42 0
 3 3 18 39.66 6.74 0
 3 4 1 92.22 4.46 0
 3 4 2 79.45 4.16 0
 3 4 3 404.93 9.01 0
 3 4 4 2493.43 22.85 0
 3 4 7 511.82 11.96 0
 3 4 8 125.58 6.83 0
 3 4 9 140.61 7.46 0
 3 4 10 56.08 5.53 0
 3 4 12 64.91 6.32 0
 3 4 13 14.25 4.38 0
 3 4 14 5.08 3.97 0
 3 4 15 171.51 10.55 0
 3 4 16 82.13 7.9 0
 3 4 17 46.87 7.12 0
 3 4 18 -0.33 4.16 0
 3 5 0 6.53 1.83 0
 3 5 1 474.39 9.24 0
 3 5 2 259.07 7.02 0
 3 5 3 199.83 6.41 0
 3 5 4 8.36 2.48 0
 3 5 7 20.84 3.41 0
 3 5 8 172.26 7.81 0
 3 5 9 392.92 11.8 0
 3 5 10 485.13 13.33 0
 3 5 11 76.14 6.24 0
 3 5 12 63.6 6.59 0
 3 5 13 -0.83 3.12 0
 3 5 14 35.15 5.71 0
 3 5 15 27.1 5.46 0
 3 5 16 1.96 4.26 0
 3 5 17 15.75 5.16 0
 3 5 18 55.27 7.97 0
 3 6 1 45.91 3.32 0
 3 6 2 37.01 3.2 0
 3 6 3 300.8 7.75 0
 3 6 4 175.1 6.38 0
 3 6 7 295.47 9.38 0
 3 6 8 29.55 4.09 0
 3 6 9 104.63 6.69 0
 3 6 10 26.1 4.23 0
 3 6 11 62.02 6.02 0
 3 6 12 13.54 4.41 0
 3 6 13 102.9 7.63 0
 3 6 14 26.11 5.19 0
 3 6 15 71.95 7.31 0
 3 6 16 46.11 7.33 0
 3 6 17 7.23 4.34 0
 3 7 1 314.79 7.14 0
 3 7 2 313.92 7.4 0
 3 7 3 92.1 4.67 0
 3 7 4 16.14 2.59 0
 3 7 7 441.98 11.29 0
 3 7 8 150.75 7.31 0
 3 7 9 27.88 4.52 0
 3 7 10 15.11 3.76 0
 3 7 11 58.65 5.85 0
 3 7 12 141.62 8.39 0
 3 7 13 80.14 7.47 0
 3 7 14 9.02 4.34 0
 3 7 15 2.35 4.14 0
 3 7 16 16.51 4.87 0
 3 7 17 54.89 7.91 0
 3 8 2 137 4.83 0
 3 8 3 59.96 3.58 0
 3 8 4 74.72 4.2 0
 3 8 6 215.48 7.4 0
 3 8 7 59.61 4.91 0
 3 8 8 63.56 5.23 0
 3 8 9 40.7 4.46 0
 3 8 10 50.12 5.81 0
 3 8 11 11.3 3.74 0
 3 8 12 434.58 13.82 0
 3 8 13 71.65 7.22 0
 3 8 14 2.77 3.64 0
 3 8 15 29 5.83 0
 3 8 16 0.62 4.38 0
 3 9 2 144.75 4.66 0
 3 9 3 119.01 4.58 0
 3 9 4 287.95 7.43 0
 3 9 6 66.26 4.33 0
 3 9 7 115.24 5.78 0
 3 9 8 192.98 7.84 0
 3 9 9 77.24 5.82 0
 3 9 10 26.57 4.49 0
 3 9 11 48.52 5.81 0
 3 9 12 0.54 3.04 0
 3 9 13 15.11 4.21 0
 3 9 15 14.28 4.93 0
 3 10 9 135.58 6.98 0
 3 10 10 47.91 5.29 0
 3 10 11 16.59 4 0
 3 10 12 4.42 3.05 0
 4 -7 5 3.34 2.82 0
 4 -7 6 140.38 7.33 0
 4 -7 7 102.11 6.63 0
 4 -7 8 55.24 5.41 0
 4 -7 9 29.59 4.28 0
 4 -7 10 81.49 6.47 0
 4 -7 11 20.62 3.99 0
 4 -7 12 6.65 3.15 0
 4 -6 5 227.65 9.01 0
 4 -6 6 96.07 6.1 0
 4 -6 7 2.52 2.75 0
 4 -6 8 80.01 5.99 0
 4 -6 9 47.11 5.71 0
 4 -6 10 39.37 5.14 0
 4 -6 11 29.49 4.98 0
 4 -6 12 86.48 6.81 0
 4 -6 13 10.06 3.95 0
 4 -6 14 16.67 4.41 0
 4 -6 15 57.85 7.23 0
 4 -6 16 69.78 7.22 0
 4 -5 3 254.23 9.33 0
 4 -5 4 480.58 12.32 0
 4 -5 6 62.35 5.64 0
 4 -5 7 65.65 5.97 0
 4 -5 8 51.25 5.49 0
 4 -5 9 29.8 4.78 0
 4 -5 10 55.27 6.07 0
 4 -5 11 9.13 4.16 0
 4 -5 13 32.61 5.3 0
 4 -5 14 38.89 6.08 0
 4 -5 15 86.81 7.58 0
 4 -5 16 2.62 3.65 0
 4 -5 17 44.35 6.53 0
 4 -4 2 43.93 4.68 0
 4 -4 3 17.22 3.32 0
 4 -4 4 53.94 5.09 0
 4 -4 5 104.44 6.5 0
 4 -4 6 9.29 2.97 0
 4 -4 7 253.39 9.58 0
 4 -4 9 97.77 6.69 0
 4 -4 10 414.35 12.88 0
 4 -4 11 104.27 7.47 0
 4 -4 12 198.75 9.85 0
 4 -4 14 1.19 3.73 0
 4 -4 15 -0.88 3.5 0
 4 -4 16 20.59 5.03 0
 4 -4 17 8.42 4.4 0
 4 -3 3 108.76 6.34 0
 4 -3 4 185.19 7.77 0
 4 -3 5 74.06 5.57 0
 4 -3 8 37.4 4.53 0
 4 -3 9 30.32 4.49 0
 4 -3 10 4.68 3.12 0
 4 -3 11 26.64 5.07 0
 4 -3 12 45.1 6.25 0
 4 -3 14 6.12 3.86 0
 4 -3 15 16.47 5.45 0
 4 -3 16 8.26 4.73 0
 4 -3 17 64.12 8.53 0
 4 -2 6 124.17 6.54 0
 4 -2 7 33.79 4.36 0
 4 -2 8 25.81 4.56 0
 4 -2 9 47.6 5.67 0
 4 -2 11 0.24 2.99 0
 4 -2 12 62.49 6.25 0
 4 -2 13 67.11 7.4 0
 4 -2 14 82.46 7.9 0
 4 -2 15 33.61 6.19 0
 4 -2 16 77.18 8.52 0
 4 -2 17 188.5 11.57 0
 4 -1 4 198.94 7.96 0
 4 -1 5 307.6 9.96 0
 4 -1 7 45.66 4.52 0
 4 -1 8 168.28 8.26 0
 4 -1 9 73.57 6.1 0
 4 -1 10 20.76 4.4 0
 4 -1 11 14.61 3.86 0
 4 -1 12 105.89 7.6 0
 4 -1 13 17.67 5.2 0
 4 -1 14 61.09 6.58 0
 4 -1 15 9.57 4.37 0
 4 -1 16 11.24 4.93 0
 4 -1 17 24.87 5.86 0
 4 0 6 110.4 6.32 0
 4 0 7 4.81 2.73 0
 4 0 9 596.12 15.05 0
 4 0 10 -1.69 2.79 0
 4 0 11 26.26 4.78 0
 4 0 13 2.54 3.37 0
 4 0 14 -0.93 3.64 0
 4 0 15 10.98 5.37 0
 4 0 16 226.81 12.54 0
 4 1 6 169.24 7.64 0
 4 1 7 44.11 4.47 0
 4 1 8 192.24 8.52 0
 4 1 9 78.23 6.11 0
 4 1 10 17.86 4.15 0
 4 1 11 9.29 3.76 0
 4 1 12 105.07 7.79 0
 4 1 13 12.83 4.08 0
 4 1 14 66.55 7.57 0
 4 1 15 8.94 5.47 0
 4 1 16 9.34 4.34 0
 4 1 17 15.99 5.16 0
 4 2 5 318.13 9.94 0
 4 2 6 116.06 6.57 0
 4 2 8 22.41 4.02 0
 4 2 9 47.22 5 0
 4 2 10 99.91 7.26 0
 4 2 11 0.61 2.72 0
 4 2 12 61.62 6.84 0
 4 2 13 71.27 7.68 0
 4 2 15 41.37 6.28 0
 4 2 16 80.48 8.1 0
 4 2 17 189.48 12.1 0
 4 3 4 177.2 7.39 0
 4 3 5 75.08 5.27 0
 4 3 6 275.31 9.67 0
 4 3 7 536.24 13.74 0
 4 3 8 42.88 4.89 0
 4 3 10 -2.16 2.53 0
 4 3 11 30.78 5.04 0
 4 3 12 48.91 6.26 0
 4 3 13 254.99 12.08 0
 4 3 14 4.89 4.09 0
 4 3 15 21.5 5.38 0
 4 3 16 16.11 5.1 0
 4 3 17 47.07 7.36 0
 4 4 4 57.42 4.77 0
 4 4 5 109.46 6.13 0
 4 4 6 8.3 3.04 0
 4 4 7 269.04 9.94 0
 4 4 8 581.57 14.57 0
 4 4 9 101.16 6.92 0
 4 4 10 439.61 13.88 0
 4 4 12 184.85 10.12 0
 4 4 13 140.69 9.65 0
 4 4 14 5.45 4.28 0
 4 4 15 0.73 3.77 0
 4 4 16 18.75 5.42 0
 4 4 17 0.18 4.63 0
 4 5 4 455.23 11.49 0
 4 5 7 67.46 5.86 0
 4 5 8 60.5 5.38 0
 4 5 9 34.83 4.71 0
 4 5 10 57.93 6.28 0
 4 5 11 3.68 3.37 0
 4 5 12 50.34 6.23 0
 4 5 13 45.56 6.38 0
 4 5 14 44.03 6.48 0
 4 5 15 83.11 8.32 0
 4 5 16 11.77 4.91 0
 4 6 3 199.81 7.52 0
 4 6 4 447.54 11.3 0
 4 6 5 244.36 8.69 0
 4 6 6 88.53 5.83 0
 4 6 7 1.77 2.57 0
 4 6 8 66.97 6.06 0
 4 6 9 48.84 5.6 0
 4 6 10 33.06 5.2 0
 4 6 11 26.28 4.87 0
 4 6 12 94.26 7.51 0
 4 6 13 7.81 4.08 0
 4 6 14 26.24 5.39 0
 4 6 15 74.37 8.6 0
 4 6 16 69.97 8.74 0
 4 7 3 121.33 6.03 0
 4 7 4 146.79 6.8 0
 4 7 5 5.57 2.65 0
 4 7 6 135.79 7.13 0
 4 7 7 99.6 6.26 0
 4 7 8 63.94 5.75 0
 4 7 9 45.17 5.4 0
 4 7 10 91.33 6.88 0
 4 7 11 27.44 5.17 0
 4 7 12 1.27 4.14 0
 4 7 14 8.44 4.4 0
 4 7 15 8.87 4.36 0
 4 8 3 22.03 3.53 0
 4 8 4 101.23 5.57 0
 4 8 5 352.53 10.21 0
 4 8 7 234.62 9.15 0
 4 8 8 72.43 5.98 0
 4 8 9 121.95 7.57 0
 4 8 10 176.16 9.13 0
 4 8 11 11.75 3.82 0
 4 8 12 20.99 5.32 0
 4 8 13 82.19 7.6 0
 4 8 14 40.59 6.13 0
 4 8 15 71.77 7.78 0
 4 9 4 103.64 5.51 0
 4 9 5 138.04 6.54 0
 4 9 6 6.89 2.73 0
 4 9 7 53.38 4.91 0
 4 9 8 19.33 3.66 0
 4 9 9 168.52 8.35 0
 4 9 10 22.11 4.35 0
 4 9 11 78.91 6.99 0
 4 9 12 63.63 6.51 0
 4 9 14 19.33 4.99 0
 5 -7 7 149.32 8.88 0
 5 -7 8 76.14 6.44 0
 5 -7 9 62.06 6.91 0
 5 -7 10 24.2 4.72 0
 5 -7 11 2.57 3.36 0
 5 -6 5 5.67 3.38 0
 5 -6 6 12.4 3.88 0
 5 -6 7 13.4 4.23 0
 5 -6 8 63.64 6.27 0
 5 -6 9 20.74 4.44 0
 5 -6 10 156.91 9.22 0
 5 -6 11 3.03 3.76 0
 5 -6 12 240.27 11.44 0
 5 -6 13 34.13 5.83 0
 5 -6 14 24.66 5.32 0
 5 -6 15 52.32 7.19 0
 5 -5 4 212.74 9.76 0
 5 -5 5 6.45 3.97 0
 5 -5 6 137.95 8.61 0
 5 -5 7 61.52 6.08 0
 5 -5 8 10.8 4.3 0
 5 -5 9 29.89 5.45 0
 5 -5 10 104.33 8.38 0
 5 -5 11 32.71 5.54 0
 5 -5 12 83.55 8.15 0
 5 -5 13 38.81 6.66 0
 5 -5 14 166.98 10.37 0
 5 -5 15 12.9 5.11 0
 5 -4 3 238.97 10.33 0
 5 -4 5 2.57 3.5 0
 5 -4 6 77.21 6.93 0
 5 -4 7 33.58 5.02 0
 5 -4 8 20.2 4.79 0
 5 -4 9 216.94 10.64 0
 5 -4 10 30.69 5.77 0
 5 -4 11 130.51 8.74 0
 5 -4 12 28.39 5.51 0
 5 -4 13 9.89 4.66 0
 5 -4 14 5.52 4.23 0
 5 -4 15 21.82 6.04 0
 5 -3 3 173.8 8.91 0
 5 -3 4 6.13 3.08 0
 5 -3 5 159.75 8.52 0
 5 -3 6 38.88 5.25 0
 5 -3 7 14.3 4.07 0
 5 -3 8 94.57 7.16 0
 5 -3 9 26.87 4.95 0
 5 -3 10 218.4 10.73 0
 5 -3 11 23.29 5.46 0
 5 -3 12 38.92 6.27 0
 5 -3 14 51.69 7.36 0
 5 -2 2 144.89 8.11 0
 5 -2 3 23.97 4.45 0
 5 -2 4 76.5 6.07 0
 5 -2 5 407.66 13.09 0
 5 -2 6 42.89 5.47 0
 5 -2 7 17.79 4.3 0
 5 -2 8 34.39 5.51 0
 5 -2 10 4.43 3.69 0
 5 -2 11 120.21 8.98 0
 5 -2 12 23.58 5.35 0
 5 -2 13 41.7 6.67 0
 5 -2 14 8.11 4.56 0
 5 -2 15 176.64 11.44 0
 5 -2 16 30.65 6.18 0
 5 -1 3 144.4 7.81 0
 5 -1 4 27.97 4.37 0
 5 -1 5 13.83 3.88 0
 5 -1 6 241.21 10.22 0
 5 -1 7 33.3 4.91 0
 5 -1 8 70.09 6.35 0
 5 -1 9 57.59 5.84 0
 5 -1 10 263.48 11.51 0
 5 -1 11 43.99 6.08 0
 5 -1 12 8.18 4.65 0
 5 -1 13 249.77 12.39 0
 5 -1 14 120.39 9.21 0
 5 -1 15 28.02 5.93 0
 5 -1 16 67.09 8.84 0
 5 0 1 202.23 9.15 0
 5 0 2 3.82 3.14 0
 5 0 3 179.55 8.69 0
 5 0 4 3.86 2.53 0
 5 0 6 139.52 8.24 0
 5 0 9 26.93 5.27 0
 5 0 10 1.22 3.39 0
 5 0 11 1.23 3.8 0
 5 0 12 129.68 9.41 0
 5 0 13 1.02 5.01 0
 5 0 14 2.3 4.28 0
 5 0 15 6.48 5.54 0
 5 0 16 34.64 6.65 0
 5 1 1 105.03 6.76 0
 5 1 2 148.94 7.76 0
 5 1 3 162.01 8.23 0
 5 1 4 42.98 5.26 0
 5 1 5 12.1 3.57 0
 5 1 7 26.8 4.37 0
 5 1 8 67.12 6.44 0
 5 1 9 46.92 6.06 0
 5 1 11 45.73 7.05 0
 5 1 12 7.38 4.9 0
 5 1 13 219.79 11.83 0
 5 1 14 106.81 8.64 0
 5 1 16 61.61 8.68 0
 5 2 1 421.68 12.52 0
 5 2 2 136.82 7.73 0
 5 2 3 25.57 4.41 0
 5 2 4 70.26 6.19 0
 5 2 7 23.94 4.83 0
 5 2 9 69.9 6.45 0
 5 2 10 5.41 3.97 0
 5 2 11 109.71 8.28 0
 5 2 12 25.79 5.44 0
 5 2 13 45.26 6.54 0
 5 2 14 7.83 5.57 0
 5 3 1 308.23 10.76 0
 5 3 2 10.56 3.44 0
 5 3 3 191.91 8.85 0
 5 3 4 7.89 3.35 0
 5 3 5 166.82 8.48 0
 5 3 6 37.54 5.21 0
 5 3 7 9.43 3.8 0
 5 3 9 33.44 5.45 0
 5 3 10 277.48 12.13 0
 5 3 11 36.54 5.94 0
 5 3 12 48.14 6.88 0
 5 3 13 46.85 6.86 0
 5 3 15 60.39 7.81 0
 5 4 1 39.09 4.85 0
 5 4 2 52.92 5.6 0
 5 4 3 240.96 9.54 0
 5 4 4 48.03 5.23 0
 5 4 5 -0.01 2.84 0
 5 4 6 81.29 6.91 0
 5 4 7 24.09 4.62 0
 5 4 8 20.8 4.63 0
 5 4 9 225.36 10.76 0
 5 4 10 37.16 6.15 0
 5 4 11 119.25 8.78 0
 5 4 12 33.79 5.82 0
 5 4 13 10.34 4.7 0
 5 4 14 3.78 4.39 0
 5 4 15 17.68 5.64 0
 5 5 2 286.7 10.32 0
 5 5 3 82.04 6.28 0
 5 5 4 211.34 9.43 0
 5 5 5 5.42 3.33 0
 5 5 6 146.28 8.38 0
 5 5 7 65.87 6.56 0
 5 5 8 10.1 3.69 0
 5 5 9 25.88 4.94 0
 5 5 10 85.23 7.9 0
 5 5 11 32.67 5.47 0
 5 5 12 86.63 7.93 0
 5 5 13 51.54 7.23 0
 5 5 14 179.17 11.32 0
 5 6 2 138.69 7.6 0
 5 6 3 70.09 5.58 0
 5 6 4 5.82 3.11 0
 5 6 5 3.47 3.05 0
 5 6 7 14.42 4.08 0
 5 6 8 72.85 7.09 0
 5 6 9 25.11 5.04 0
 5 6 10 167.34 9.92 0
 5 6 11 7.64 4.09 0
 5 6 12 247.41 11.79 0
 5 6 13 19.39 5.1 0
 5 6 14 12.92 5 0
 5 7 3 66.58 5.81 0
 5 7 4 97.61 6.59 0
 5 7 5 155.7 8.25 0
 5 7 6 167.98 8.49 0
 5 7 7 155.36 8.48 0
 5 7 8 75.75 6.95 0
 5 7 9 61.6 6.62 0
 5 7 10 19.8 4.71 0
 5 7 11 -4.74 3.76 0
 5 7 12 92.13 8.31 0
 5 7 13 107.01 8.93 0
 5 8 4 136.62 7.31 0
 5 8 5 0.9 2.64 0
 5 8 6 77.38 6.35 0
 5 8 7 54.3 6.14 0
 5 8 8 94.18 7.31 0
 5 8 9 24.85 5.09 0
 5 8 10 13.17 4.38 0
 5 8 11 100.39 8.1 0
 5 8 12 5.27 3.83 0
 5 8 13 5.02 3.89 0
 5 9 7 45.87 5.73 0
 5 9 8 48.93 6.09 0
 5 9 9 21.37 4.66 0
 5 9 10 27.52 4.87 0
 6 -7 9 10.6 4.31 0
 6 -7 10 203.67 11.46 0
 6 -6 7 18.77 5.39 0
 6 -6 8 -1.13 4.32 0
 6 -6 10 51.01 7.2 0
 6 -6 11 4.95 4.98 0
 6 -6 12 43.72 7.1 0
 6 -5 6 0.95 3.64 0
 6 -5 7 17.85 5.6 0
 6 -5 8 109.87 9.15 0
 6 -5 9 21.91 5.92 0
 6 -5 10 13.42 4.77 0
 6 -5 12 39.84 7.2 0
 6 -4 5 27.88 5.53 0
 6 -4 6 40.68 6.25 0
 6 -4 8 63.41 7.41 0
 6 -4 9 96.5 8.25 0
 6 -4 10 74.41 8.36 0
 6 -4 11 1.37 4.11 0
 6 -4 13 33.67 6.46 0
 6 -3 4 20.37 5.42 0
 6 -3 5 11.3 4.47 0
 6 -3 8 81.98 8.39 0
 6 -3 9 29.27 5.72 0
 6 -3 11 138.19 10.35 0
 6 -3 12 136.71 10.51 0
 6 -3 13 -0.88 4.74 0
 6 -2 4 12.63 4.76 0
 6 -2 6 63.13 6.88 0
 6 -2 7 -1.31 3.13 0
 6 -2 9 8.54 4.46 0
 6 -2 10 3.06 4.3 0
 6 -2 12 56.76 7.64 0
 6 -2 13 59.75 8.01 0
 6 -1 4 56.8 6.5 0
 6 -1 5 35.37 5.87 0
 6 -1 6 295.88 12.82 0
 6 -1 7 121.77 9.15 0
 6 -1 8 85.24 7.94 0
 6 -1 9 43.21 7 0
 6 -1 10 -0.31 3.71 0
 6 -1 11 46.79 7.23 0
 6 -1 12 8.73 4.96 0
 6 -1 13 -1.47 4.09 0
 6 0 3 10.07 4.26 0
 6 0 5 21.39 4.61 0
 6 0 6 7.96 4.47 0
 6 0 7 25.02 5.58 0
 6 0 8 255.77 12.05 0
 6 0 9 4 4.41 0
 6 0 10 176.64 11.07 0
 6 0 11 262.79 13.24 0
 6 0 12 24.24 5.68 0
 6 0 13 31.52 6.42 0
 6 1 3 197.07 10.51 0
 6 1 4 58.34 7.16 0
 6 1 5 40.12 6.19 0
 6 1 7 111.17 8.98 0
 6 1 8 75.62 7.92 0
 6 1 9 36.76 6.82 0
 6 1 10 0.99 3.79 0
 6 1 11 44.79 7.33 0
 6 1 12 14.38 5.79 0
 6 1 13 -2.57 5.12 0
 6 2 3 276.43 12.07 0
 6 2 4 13.4 4.43 0
 6 2 5 3.38 3.61 0
 6 2 6 64.7 7.48 0
 6 2 7 3.72 3.79 0
 6 2 8 12.41 4.64 0
 6 2 9 9.02 4.5 0
 6 2 10 6.17 5.08 0
 6 2 11 43.28 6.77 0
 6 2 12 41.45 6.86 0
 6 3 3 107.58 8.29 0
 6 3 4 10.86 4.31 0
 6 3 5 8.4 4.15 0
 6 3 6 87.23 7.91 0
 6 3 7 62.6 7.44 0
 6 3 8 72.05 7.24 0
 6 3 9 37.25 6.17 0
 6 3 10 128.78 10.07 0
 6 3 11 140.55 9.87 0
 6 3 12 121.37 10.24 0
 6 3 13 -0.11 4.09 0
 6 4 3 1.73 3.36 0
 6 4 4 15.79 4.4 0
 6 4 5 28.34 5.04 0
 6 4 6 43.02 5.94 0
 6 4 7 8.62 4.8 0
 6 4 8 70.96 8.33 0
 6 4 9 103.26 8.96 0
 6 4 10 62.39 7.47 0
 6 4 11 5.85 4.48 0
 6 4 12 46.49 7.37 0
 6 5 3 72.73 7.28 0
 6 5 4 10.9 4.01 0
 6 5 5 3.66 3.51 0
 6 5 6 0.74 3.34 0
 6 5 7 15.21 4.95 0
 6 5 8 128.31 9.41 0
 6 5 9 22.75 5.44 0
 6 5 11 96.22 8.66 0
 6 5 12 28.98 5.99 0
 6 6 4 204.36 10.48 0
 6 6 5 70.99 7.2 0
 6 6 6 11.69 4.65 0
 6 6 7 20.57 4.7 0
 6 6 8 10.57 5.09 0
 6 6 9 12.26 5.13 0
 6 6 10 48.17 6.68 0
 6 6 11 3.54 4.31 0
 6 7 4 97.47 7.59 0
 6 7 7 84.55 7.67 0
 6 7 8 40.06 6.27 0
 6 7 9 14.9 4.81 0
 6 7 10 214.2 11.56 0
 6 7 11 45.33 6.68 0
 6 8 5 43.07 5.66 0
 6 8 7 36.69 5.77 0
 6 8 8 36.62 5.82 0
 6 8 9 12.42 4.72 0
 6 8 10 65.05 7.6 0
 7 -4 8 1.56 4.4 0
 7 -4 9 14.89 5.7 0
 7 -3 7 23.76 5.96 0
 7 -3 8 43.28 7.27 0
 7 -3 9 36.43 7.03 0
 7 -2 6 20.22 5.71 0
 7 -2 7 4.73 4.63 0
 7 -2 8 189.57 12.03 0
 7 -2 9 31.94 7.16 0
 7 -2 10 37.9 7.02 0
 7 -1 6 44.86 7.01 0
 7 -1 7 -3.44 3.46 0
 7 -1 8 67.29 7.94 0
 7 -1 9 52.32 7.93 0
 7 -1 10 23.66 6.17 0
 7 0 5 187.28 11.98 0
 7 0 6 128.45 9.85 0
 7 0 7 200.42 11.85 0
 7 0 8 2.21 3.97 0
 7 0 9 9.63 5.12 0
 7 0 10 -4.88 4.33 0
 7 1 6 30.27 6.63 0
 7 1 7 2.17 4.68 0
 7 1 8 79.72 9.04 0
 7 1 10 29.42 6.92 0
 7 2 5 13.9 5.16 0
 7 2 6 12.42 5.1 0
 7 2 7 4.69 4.51 0
 7 2 8 210.96 12.34 0
 7 2 9 29.72 6.75 0
 7 2 10 39.09 6.8 0
 7 3 5 8.87 4.74 0
 7 3 6 1.74 4.52 0
 7 3 7 24.1 5.85 0
 7 3 8 26.56 6.28 0
 7 3 9 41.47 7.61 0
 7 4 5 31.55 6.52 0
 7 4 6 147.62 10.11 0
 7 4 7 3.6 4.2 0
 7 4 8 1.66 4.09 0
 7 4 9 11.52 5.09 0
 7 5 7 76.07 8.27 0
 7 5 8 22.54 5.69 0
 7 6 6 47.2 7.03 0
 7 6 7 0.33 3.91 0
 7 7 7 9.17 4.53 0
 -8 -4 2 94.25 8.33 0
 -8 -4 3 11.5 5.21 0
 -8 -3 3 2.18 3.79 0
 -8 -3 4 43.2 6.96 0
 -7 -8 -4 267.74 12.69 0
 -7 -8 -3 109.99 9.2 0
 -7 -8 -2 10.56 4.73 0
 -7 -8 -1 55.27 7.25 0
 -7 -8 0 -1.28 3.95 0
 -7 -8 1 61.72 7.92 0
 -7 -8 2 16.16 6.02 0
 -7 -7 -4 27.67 5.7 0
 -7 -7 -2 16.4 5.56 0
 -7 -7 0 0.35 3.82 0
 -7 -7 1 23.91 5.71 0
 -7 -7 2 21.59 5.88 0
 -7 -7 3 50.63 7.31 0
 -7 -7 4 17.96 6.53 0
 -7 -7 5 13.95 6.18 0
 -7 -6 -3 41.56 6.04 0
 -7 -6 -2 60.12 7.15 0
 -7 -6 -1 4.47 4.1 0
 -7 -6 0 9.14 4.22 0
 -7 -6 1 3.6 4.11 0
 -7 -6 2 61.55 7.65 0
 -7 -6 3 36.01 6.65 0
 -7 -6 4 11.16 5.01 0
 -7 -6 5 37.37 6.59 0
 -7 -6 6 58.1 8.49 0
 -7 -5 -3 5.18 3.5 0
 -7 -5 -2 41.84 5.85 0
 -7 -5 -1 303.18 12.26 0
 -7 -5 1 319.6 13.05 0
 -7 -5 2 32.36 5.82 0
 -7 -5 3 4.31 4.29 0
 -7 -5 4 17.08 5.77 0
 -7 -4 -2 19.16 4.63 0
 -7 -4 -1 186.2 9.36 0
 -7 -4 0 73.9 6.86 0
 -7 -4 1 178.27 9.89 0
 -7 -4 2 17.23 5.04 0
 -7 -3 -2 116.09 7.21 0
 -7 -3 -1 62.04 6.15 0
 -7 -3 0 13.45 4.26 0
 -7 -3 1 65.77 6.73 0
 -7 -2 -1 58.55 5.5 0
 -7 -2 0 74.69 6.46 0
 -7 -1 0 97.92 6.69 0
 -6 -10 -6 7.28 5.46 0
 -6 -10 -5 4.45 4.64 0
 -6 -10 -4 83.64 9.55 0
 -6 -10 -3 19.55 5.79 0
 -6 -10 -1 11.33 5.04 0
 -6 -10 2 3.64 4.91 0
 -6 -10 3 16.62 6.12 0
 -6 -10 4 88.72 10.32 0
 -6 -9 -8 8.22 4.53 0
 -6 -9 -7 0.01 3.98 0
 -6 -9 -6 119.29 9.5 0
 -6 -9 -5 125.71 9.74 0
 -6 -9 -4 4.24 3.98 0
 -6 -9 -3 84.09 8.66 0
 -6 -9 -2 135.11 9.94 0
 -6 -9 0 47.32 6.8 0
 -6 -9 1 112.36 9.94 0
 -6 -9 2 137.94 10.01 0
 -6 -9 3 88.66 9.13 0
 -6 -9 4 8.37 5.88 0
 -6 -9 5 92.95 9.42 0
 -6 -9 6 115.78 9.8 0
 -6 -8 -8 47.99 6.53 0
 -6 -8 -7 39.79 6.47 0
 -6 -8 -6 37.85 5.93 0
 -6 -8 -5 51.83 6.98 0
 -6 -8 -3 31.86 5.77 0
 -6 -8 -2 14.99 5.33 0
 -6 -8 -1 23.87 5.48 0
 -6 -8 0 22.3 5.3 0
 -6 -8 1 20.76 5.26 0
 -6 -8 2 13.04 5.24 0
 -6 -8 3 40.08 6.45 0
 -6 -8 4 31.28 6.39 0
 -6 -8 5 51.84 7.45 0
 -6 -8 6 37.3 6.83 0
 -6 -8 7 32.5 7.27 0
 -6 -7 -7 89 7.51 0
 -6 -7 -6 69.65 7.27 0
 -6 -7 -5 38.42 5.66 0
 -6 -7 -4 86.56 7.8 0
 -6 -7 -3 28.42 5.81 0
 -6 -7 -2 148.31 9.53 0
 -6 -7 -1 57.05 6.7 0
 -6 -7 0 31.14 6.13 0
 -6 -7 1 63.73 7.72 0
 -6 -7 2 149.14 9.96 0
 -6 -7 3 16.1 5.06 0
 -6 -7 4 86.8 8.16 0
 -6 -7 5 47.23 6.86 0
 -6 -7 6 77.39 8.16 0
 -6 -6 -7 24.1 4.78 0
 -6 -6 -6 17.39 4.22 0
 -6 -6 -4 196.1 9.72 0
 -6 -6 -3 104.49 7.3 0
 -6 -6 -2 166.99 9.43 0
 -6 -6 -1 313.77 12.1 0
 -6 -6 0 6.47 3.96 0
 -6 -6 1 300.13 12.2 0
 -6 -6 2 181.82 9.98 0
 -6 -6 4 200.88 10.95 0
 -6 -5 -6 4.33 3 0
 -6 -5 -5 6.4 3.61 0
 -6 -5 -4 13.89 3.92 0
 -6 -5 -3 88.31 7.03 0
 -6 -5 -2 1.68 2.97 0
 -6 -5 -1 60.38 6.29 0
 -6 -5 2 -0.71 3.59 0
 -6 -4 -6 41.16 4.98 0
 -6 -4 -5 35.03 4.88 0
 -6 -4 -4 10.51 3.65 0
 -6 -4 -3 6.62 3.08 0
 -6 -4 -2 69.18 6.03 0
 -6 -4 -1 75.48 6.39 0
 -6 -4 0 6.03 4.07 0
 -6 -4 1 83.9 6.78 0
 -6 -3 -5 7.89 3.02 0
 -6 -3 -4 15.51 3.15 0
 -6 -3 -3 100.16 5.95 0
 -6 -3 -2 91.63 6.23 0
 -6 -3 -1 2.15 3.28 0
 -6 -3 0 11.53 3.53 0
 -6 -2 -4 12.79 2.98 0
 -6 -2 -3 277.52 8.76 0
 -6 -2 -2 110.85 6.15 0
 -6 -2 -1 90.12 6.21 0
 -6 -1 -2 30.96 3.76 0
 -6 0 -2 6.67 2.54 0
 -5 -12 -4 6.44 5.25 0
 -5 -12 -3 40.15 7.82 0
 -5 -12 -2 34.45 7.2 0
 -5 -12 0 3.09 4.96 0
 -5 -12 1 58.06 8.3 0
 -5 -12 2 27.32 7.87 0
 -5 -12 3 45.84 8.36 0
 -5 -11 -8 43.38 7.48 0
 -5 -11 -7 19.49 6.29 0
 -5 -11 -6 2.17 4.46 0
 -5 -11 -4 55.66 8.28 0
 -5 -11 -3 1.47 4.44 0
 -5 -11 -2 206.23 12.16 0
 -5 -11 -1 3.66 4.98 0
 -5 -11 0 14.56 5.91 0
 -5 -11 1 -1.63 4.19 0
 -5 -11 3 -1.66 4.24 0
 -5 -11 4 51.31 7.74 0
 -5 -11 5 30.09 6.17 0
 -5 -11 6 4.71 5.9 0
 -5 -10 -9 6.61 5.57 0
 -5 -10 -8 31.19 7.09 0
 -5 -10 -7 149.15 10.83 0
 -5 -10 -6 107.67 9.49 0
 -5 -10 -5 19.8 5.38 0
 -5 -10 -4 21.18 5.9 0
 -5 -10 -3 116.32 9.56 0
 -5 -10 -2 46.83 6.9 0
 -5 -10 -1 92.41 8.26 0
 -5 -10 0 164.24 10.78 0
 -5 -10 1 84.71 8.67 0
 -5 -10 2 49.74 7.26 0
 -5 -10 3 107.09 8.91 0
 -5 -10 4 25.61 5.92 0
 -5 -10 5 34.01 6.42 0
 -5 -10 6 98.5 9.33 0
 -5 -10 7 127.46 9.88 0
 -5 -10 8 29.62 7.09 0
 -5 -10 9 1.52 5.43 0
 -5 -9 -9 23.73 5.9 0
 -5 -9 -8 48.06 6.98 0
 -5 -9 -7 47.66 6.56 0
 -5 -9 -6 64.13 7.52 0
 -5 -9 -5 105.03 8.32 0
 -5 -9 -4 9.25 4.5 0
 -5 -9 -2 0.53 3.93 0
 -5 -9 -1 91.48 8.01 0
 -5 -9 0 39.61 6.21 0
 -5 -9 1 110.12 8.59 0
 -5 -9 2 1.71 3.96 0
 -5 -9 3 131.7 9.22 0
 -5 -9 4 9.4 4.82 0
 -5 -9 5 121.89 9.52 0
 -5 -9 6 47.2 6.87 0
 -5 -9 7 62.72 8.78 0
 -5 -9 8 38.99 7.13 0
 -5 -9 9 31.26 6.78 0
 -5 -9 10 22.07 6.57 0
 -5 -8 -9 25.77 5.78 0
 -5 -8 -8 97.63 7.67 0
 -5 -8 -6 84 7.28 0
 -5 -8 -5 -3.35 3.17 0
 -5 -8 -4 114.88 8.51 0
 -5 -8 -3 19.09 4.66 0
 -5 -8 -1 42.89 6.58 0
 -5 -8 0 187.41 10.38 0
 -5 -8 1 29.17 5.37 0
 -5 -8 2 70.09 7.48 0
 -5 -8 3 26.07 5.39 0
 -5 -8 4 138.38 9.74 0
 -5 -8 5 -2 4.39 0
 -5 -8 6 78.68 8.2 0
 -5 -8 7 51.53 7.11 0
 -5 -7 -9 66.69 6.68 0
 -5 -7 -8 93.03 7.31 0
 -5 -7 -7 164.2 9.04 0
 -5 -7 -6 152.73 8.94 0
 -5 -7 -5 141.74 8.68 0
 -5 -7 -4 92.76 7.21 0
 -5 -7 -3 54.73 5.86 0
 -5 -7 -2 153.81 8.49 0
 -5 -7 -1 80.17 7.15 0
 -5 -7 0 18.26 4.59 0
 -5 -7 1 96.38 7.71 0
 -5 -7 2 145.96 9.22 0
 -5 -7 3 60.55 6.72 0
 -5 -6 -9 25.15 4.59 0
 -5 -6 -7 7.5 3.5 0
 -5 -6 -6 14.37 3.89 0
 -5 -6 -5 -0.57 2.73 0
 -5 -6 -4 1.89 2.8 0
 -5 -6 -3 80 6.58 0
 -5 -6 -2 134.48 7.71 0
 -5 -6 -1 25.31 4.38 0
 -5 -6 0 249.99 10.22 0
 -5 -6 1 29.61 5.34 0
 -5 -6 2 142.14 8.74 0
 -5 -5 -9 19.79 3.6 0
 -5 -5 -8 12.86 3.57 0
 -5 -5 -7 65.43 5.71 0
 -5 -5 -6 142.48 7.41 0
 -5 -5 -5 6.79 2.97 0
 -5 -5 -4 208.43 8.81 0
 -5 -5 -3 89.29 6.47 0
 -5 -5 -1 71.68 6.14 0
 -5 -5 0 36.03 4.84 0
 -5 -5 1 64.39 6.35 0
 -5 -4 -9 227.9 8.33 0
 -5 -4 -8 14.66 3.34 0
 -5 -4 -7 30.15 4.01 0
 -5 -4 -5 0.36 2.33 0
 -5 -4 -3 240.56 8.6 0
 -5 -4 -2 50.5 5.07 0
 -5 -4 -1 31.56 4.19 0
 -5 -3 -6 37.61 3.78 0
 -5 -3 -5 143.26 6.39 0
 -5 -3 -4 6.76 2.67 0
 -5 -3 -3 197.56 7.48 0
 -5 -3 -2 7.64 2.86 0
 -5 -3 -1 320.28 9.74 0
 -5 -2 -7 21.21 2.91 0
 -5 -1 -6 241.09 6.15 0
 -5 -1 -5 10.45 2 0
 -5 -1 -4 33.3 3.14 0
 -5 0 -5 125.88 4.17 0
 -5 0 -4 4.56 1.56 0
 -5 0 -3 185.99 5.76 0
 -5 1 -4 37.69 2.46 0
 -5 1 -3 162.65 4.97 0
 -4 -13 -5 48.62 8.34 0
 -4 -13 -4 15.43 6.26 0
 -4 -13 -3 67.39 9.55 0
 -4 -13 -2 22.17 6.29 0
 -4 -13 -1 31.95 7.2 0
 -4 -13 0 -3.58 4.67 0
 -4 -13 1 41.53 7.44 0
 -4 -13 2 16.98 6.05 0
 -4 -13 4 14 5.59 0
 -4 -13 5 42.53 8.14 0
 -4 -12 -8 6.1 5.58 0
 -4 -12 -7 136.6 10.58 0
 -4 -12 -6 138.63 11.13 0
 -4 -12 -5 32.55 7.5 0
 -4 -12 -4 23.4 6.84 0
 -4 -12 -3 81.84 9.45 0
 -4 -12 -2 17.3 5.72 0
 -4 -12 0 342.53 15.32 0
 -4 -12 2 33.11 6.52 0
 -4 -12 3 81.11 8.52 0
 -4 -12 4 24.57 6.09 0
 -4 -12 5 44.08 7.24 0
 -4 -12 7 133.91 10.54 0
 -4 -12 8 2.58 4.74 0
 -4 -11 -8 73.18 9.47 0
 -4 -11 -7 91.04 8.73 0
 -4 -11 -6 88.61 9.26 0
 -4 -11 -5 125.24 9.64 0
 -4 -11 -4 76.32 7.99 0
 -4 -11 -2 46.79 7.5 0
 -4 -11 -1 81.12 8.27 0
 -4 -11 0 3.1 4.12 0
 -4 -11 1 67.41 8.42 0
 -4 -11 2 33.46 6.23 0
 -4 -11 3 35.56 6.27 0
 -4 -11 4 77.81 8.82 0
 -4 -11 5 127.01 9.57 0
 -4 -11 6 80.56 9.1 0
 -4 -11 7 86.55 8.45 0
 -4 -11 8 93.82 9.47 0
 -4 -11 9 16.53 6.53 0
 -4 -11 10 4.48 4.6 0
 -4 -10 -9 12.93 5.29 0
 -4 -10 -8 40.6 6.84 0
 -4 -10 -7 2.91 4.39 0
 -4 -10 -5 2.56 4.02 0
 -4 -10 -4 79.28 8.13 0
 -4 -10 -3 30.41 5.81 0
 -4 -10 -2 151.4 9.98 0
 -4 -10 0 133.64 9.69 0
 -4 -10 1 33.15 5.9 0
 -4 -10 2 170.51 10.18 0
 -4 -10 4 86.46 8.56 0
 -4 -10 5 3.06 4.98 0
 -4 -10 6 29.29 5.95 0
 -4 -10 7 7.34 4.52 0
 -4 -10 8 30.81 6.08 0
 -4 -10 9 15.75 5.24 0
 -4 -10 11 32.62 6.92 0
 -4 -9 -9 173.34 10.3 0
 -4 -9 -8 17.91 5.27 0
 -4 -9 -7 51.61 6.98 0
 -4 -9 -6 10.8 5.14 0
 -4 -9 -5 127.24 9.23 0
 -4 -9 -4 107.84 8.35 0
 -4 -9 0 30.78 5.44 0
 -4 -9 2 17.18 4.67 0
 -4 -9 3 218.1 10.89 0
 -4 -9 4 103.8 7.92 0
 -4 -9 6 12.18 4.57 0
 -4 -9 7 50.02 7.37 0
 -4 -9 8 9.87 4.61 0
 -4 -9 9 168.14 10.52 0
 -4 -9 10 12.13 5.02 0
 -4 -8 -8 81.35 7.45 0
 -4 -8 -7 220.64 10.61 0
 -4 -8 -6 151.42 8.98 0
 -4 -8 -5 340.26 12.69 0
 -4 -8 -4 97.45 7.43 0
 -4 -8 -3 30.56 4.88 0
 -4 -8 -2 303.26 11.72 0
 -4 -8 -1 96.43 7.62 0
 -4 -8 0 7 3.63 0
 -4 -8 1 96.01 7.04 0
 -4 -8 2 312.01 11.82 0
 -4 -8 3 30.13 5.02 0
 -4 -8 4 98.67 7.98 0
 -4 -8 5 360.83 13.38 0
 -4 -8 6 164.51 9.93 0
 -4 -7 -9 36.48 5.46 0
 -4 -7 -8 61.6 5.97 0
 -4 -7 -7 98.74 7.07 0
 -4 -7 -6 145.32 8.1 0
 -4 -7 -5 3.68 3.32 0
 -4 -7 -4 141.03 7.77 0
 -4 -7 -3 114.3 7.54 0
 -4 -7 -2 63.92 5.71 0
 -4 -7 -1 40.65 5.06 0
 -4 -7 0 234.77 9.87 0
 -4 -7 1 41.09 5.16 0
 -4 -7 2 66.99 6.32 0
 -4 -7 3 123.8 8.22 0
 -4 -7 4 142.79 8.16 0
 -4 -6 -9 45.73 5.28 0
 -4 -6 -8 77.09 6.49 0
 -4 -6 -7 -0.45 2.69 0
 -4 -6 -6 76.73 6.04 0
 -4 -6 -5 232.5 9.4 0
 -4 -6 -4 438.27 12.27 0
 -4 -6 -3 209.28 8.82 0
 -4 -6 -2 43.25 4.63 0
 -4 -6 -1 208.28 8.87 0
 -4 -6 0 329.15 10.77 0
 -4 -6 2 42.5 4.8 0
 -4 -5 -9 33.5 4.5 0
 -4 -5 -8 59.99 5.27 0
 -4 -5 -7 67.42 5.49 0
 -4 -5 -6 59.53 5.24 0
 -4 -5 -5 358.96 10.38 0
 -4 -5 -4 460.86 11.58 0
 -4 -5 -3 250.88 8.87 0
 -4 -5 -2 132.06 6.86 0
 -4 -5 -1 259.65 9.16 0
 -4 -5 0 236.64 8.71 0
 -4 -5 1 276.21 9.61 0
 -4 -4 -9 97.26 5.76 0
 -4 -4 -8 562.85 12.31 0
 -4 -4 -7 229.44 7.99 0
 -4 -4 -1 252.15 8.5 0
 -4 -2 -8 27.71 2.87 0
 -4 -2 -7 31.14 2.85 0
 -4 -2 -6 124.85 4.97 0
 -4 -2 -5 320.92 7.58 0
 -4 -2 -4 152.04 5.49 0
 -4 -2 -3 186.23 6.17 0
 -4 -1 -7 40.84 2.67 0
 -4 -1 -6 167.58 4.85 0
 -4 -1 -5 301.33 6.57 0
 -4 -1 -4 190.61 5.38 0
 -4 -1 -3 615.33 9.78 0
 -4 0 -6 103.04 3.19 0
 -4 0 -5 187.75 4.42 0
 -4 0 -4 626.98 8.41 0
 -4 0 -3 88.6 3.74 0
 -4 1 -5 290.76 4.14 0
 -4 1 -4 192.92 4.1 0
 -4 2 -4 146.53 2.72 0
 -3 -14 -5 15.1 7.09 0
 -3 -14 -4 8.45 5.7 0
 -3 -14 -3 30.82 7.79 0
 -3 -14 -2 -4.27 4.19 0
 -3 -14 -1 -2.38 5.54 0
 -3 -14 0 96.17 10.89 0
 -3 -14 1 1.63 4.97 0
 -3 -14 2 2.8 5.03 0
 -3 -14 3 23.36 7.1 0
 -3 -14 4 -1.13 4.48 0
 -3 -14 5 11.75 6.09 0
 -3 -13 -6 32 6.9 0
 -3 -13 -5 89.76 9.34 0
 -3 -13 -4 2.47 4.77 0
 -3 -13 -3 159.07 11.75 0
 -3 -13 -2 26.41 6.11 0
 -3 -13 -1 36.87 7.11 0
 -3 -13 0 16.75 5.6 0
 -3 -13 1 30.71 6.9 0
 -3 -13 2 27.2 6.78 0
 -3 -13 3 162.29 11.2 0
 -3 -13 4 2.85 4.52 0
 -3 -13 5 75.19 7.92 0
 -3 -13 6 37.68 7.02 0
 -3 -13 8 -0.13 4.34 0
 -3 -12 -7 183.03 11.75 0
 -3 -12 -4 56.95 8.24 0
 -3 -12 -2 48.07 7.18 0
 -3 -12 -1 21.64 5.58 0
 -3 -12 0 -4.96 4.27 0
 -3 -12 1 35.33 6.35 0
 -3 -12 2 61.1 7.64 0
 -3 -12 3 34.95 6.86 0
 -3 -12 4 62.19 8.28 0
 -3 -12 5 240.05 12.45 0
 -3 -12 6 116.39 9.13 0
 -3 -12 7 168.6 10.99 0
 -3 -12 8 29.86 6.66 0
 -3 -12 9 4.43 5.18 0
 -3 -12 10 24.16 5.94 0
 -3 -12 11 67.79 8.46 0
 -3 -11 -8 11.18 5.82 0
 -3 -11 -7 13.74 5.12 0
 -3 -11 -6 57.77 7.72 0
 -3 -11 -5 86.94 8.6 0
 -3 -11 -4 29.63 5.74 0
 -3 -11 -3 147.67 9.91 0
 -3 -11 -2 260 12.42 0
 -3 -11 -1 17.27 5.06 0
 -3 -11 0 247.35 11.62 0
 -3 -11 1 17.09 4.88 0
 -3 -11 2 235.44 11.52 0
 -3 -11 3 137.47 9.41 0
 -3 -11 4 23.61 5.37 0
 -3 -11 5 97.39 8.4 0
 -3 -11 6 57.61 7.76 0
 -3 -11 7 11.58 4.56 0
 -3 -11 8 9.22 4.62 0
 -3 -11 9 100.9 8.89 0
 -3 -11 10 56.12 7.36 0
 -3 -11 11 9.29 4.68 0
 -3 -11 12 14.43 5.38 0
 -3 -11 13 28.98 6.23 0
 -3 -10 -7 18.03 5.39 0
 -3 -10 -6 49.66 6.69 0
 -3 -10 -4 116.62 8.87 0
 -3 -10 -3 350.66 13.2 0
 -3 -10 -2 218.62 10.89 0
 -3 -10 -1 43.48 6.01 0
 -3 -10 1 54.63 6.47 0
 -3 -10 2 241.87 11.27 0
 -3 -10 3 372.97 13.36 0
 -3 -10 4 107.41 7.87 0
 -3 -10 5 381.6 13.88 0
 -3 -10 6 53.6 6.79 0
 -3 -10 7 17.52 4.57 0
 -3 -10 8 100.99 8.23 0
 -3 -10 9 132.88 9.34 0
 -3 -10 10 43.5 6.92 0
 -3 -10 11 22.98 5.29 0
 -3 -10 12 3.53 4.55 0
 -3 -10 14 12.45 5.2 0
 -3 -9 -8 186.84 10.21 0
 -3 -9 -7 109.76 8.07 0
 -3 -9 -6 69.66 6.76 0
 -3 -9 -5 21.04 4.69 0
 -3 -9 -4 303.38 11.83 0
 -3 -9 -3 120.98 7.63 0
 -3 -9 -2 146.85 8.64 0
 -3 -9 -1 109.19 7.31 0
 -3 -9 1 96.87 7.56 0
 -3 -9 3 126.23 8.14 0
 -3 -9 4 312.51 11.76 0
 -3 -9 6 69.61 6.44 0
 -3 -9 7 122.06 8.14 0
 -3 -9 8 183.99 10.19 0
 -3 -9 9 67.58 7.2 0
 -3 -9 10 25.4 5.58 0
 -3 -8 -9 35.34 5.91 0
 -3 -8 -7 56.32 6.16 0
 -3 -8 -5 133.46 7.93 0
 -3 -8 -4 73.87 6.52 0
 -3 -8 -3 63.39 6.05 0
 -3 -8 -2 146.77 7.9 0
 -3 -8 -1 27.83 4.55 0
 -3 -8 0 12.4 3.57 0
 -3 -8 1 30.45 4.42 0
 -3 -8 2 136.61 7.51 0
 -3 -8 3 68.38 5.79 0
 -3 -8 4 77.82 6.36 0
 -3 -8 5 130.04 7.76 0
 -3 -7 -8 151.52 8.65 0
 -3 -7 -7 415.33 12.67 0
 -3 -7 -5 14.1 3.54 0
 -3 -7 -4 22.07 3.97 0
 -3 -7 -3 92.53 6.29 0
 -3 -7 -2 317.2 10.26 0
 -3 -7 -1 348.46 10.77 0
 -3 -7 0 0.73 2.45 0
 -3 -7 1 333.16 10.6 0
 -3 -7 2 333.22 10.97 0
 -3 -7 3 95.21 6.22 0
 -3 -6 -9 97.2 6.74 0
 -3 -6 -8 30.86 4.84 0
 -3 -6 -7 276.35 9.73 0
 -3 -6 -6 156.24 7.4 0
 -3 -6 -5 311.85 10.06 0
 -3 -6 -4 167.73 7.29 0
 -3 -6 -3 308.81 9.54 0
 -3 -6 -2 40.4 4.06 0
 -3 -6 -1 47.91 4.25 0
 -3 -6 0 36.99 4.28 0
 -3 -6 1 53.74 4.54 0
 -3 -6 2 40.8 4.42 0
 -3 -5 -7 16.8 3.08 0
 -3 -5 -6 6.37 2.55 0
 -3 -4 -3 403.23 9.23 0
 -3 -4 -1 91.63 4.94 0
 -3 -3 -8 491.16 10.38 0
 -3 -3 -7 446.68 9.5 0
 -3 -3 -6 583.93 10.61 0
 -3 -3 -5 431.44 8.97 0
 -3 -3 -4 170.6 5.64 0
 -3 -3 -3 343.59 7.82 0
 -3 -3 -2 527.26 9.75 0
 -3 -3 -1 562.88 10.35 0
 -3 -2 -7 84.81 4.16 0
 -3 -2 -6 182.67 5.39 0
 -3 -2 -5 148.23 4.93 0
 -3 -2 -4 168.94 5.09 0
 -3 -2 -3 420.48 7.85 0
 -3 -2 -2 496.45 8.74 0
 -3 -1 -6 327.81 6.23 0
 -3 -1 -5 511.19 7.6 0
 -3 -1 -4 519.34 7.59 0
 -3 -1 -3 11.79 1.7 0
 -3 0 -6 316.19 4.94 0
 -3 0 -5 1015.53 8.68 0
 -3 0 -4 340.44 5.3 0
 -3 0 -3 760 8.25 0
 -3 1 -5 491.42 4.03 0
 -3 3 -3 344.4 3.67 0
 -3 4 -3 403.34 4.13 0
 -2 -15 -3 15.89 7.36 0
 -2 -15 -2 6.88 5.8 0
 -2 -15 -1 0.94 4.61 0
 -2 -15 0 8.25 5.06 0
 -2 -15 1 -1.45 4.38 0
 -2 -15 2 3.83 5.52 0
 -2 -15 3 16.4 5.78 0
 -2 -15 4 79.27 9.63 0
 -2 -14 -5 25.5 6.7 0
 -2 -14 -4 133.83 11.1 0
 -2 -14 -2 33.13 7.14 0
 -2 -14 0 269.8 13.92 0
 -2 -14 1 32.55 6.93 0
 -2 -14 3 56.44 7.85 0
 -2 -14 4 148.07 10.57 0
 -2 -14 5 25.28 6 0
 -2 -14 6 141.61 10.41 0
 -2 -14 8 41.66 6.92 0
 -2 -14 9 34.14 6.86 0
 -2 -13 -6 59.54 8.2 0
 -2 -13 -5 203.84 12.7 0
 -2 -13 -4 98.76 9.78 0
 -2 -13 -3 108.84 9.2 0
 -2 -13 -2 22.63 6.02 0
 -2 -13 0 14.33 5.53 0
 -2 -13 1 45.72 6.75 0
 -2 -13 2 28.61 5.9 0
 -2 -13 3 125.13 9.15 0
 -2 -13 4 108.98 8.59 0
 -2 -13 5 194.47 11.2 0
 -2 -13 6 67.83 7.32 0
 -2 -13 7 21.32 5.96 0
 -2 -13 8 100.89 8.8 0
 -2 -13 10 101.96 8.18 0
 -2 -13 11 -0.85 3.9 0
 -2 -12 -5 62.75 7.76 0
 -2 -12 -4 6.34 4.68 0
 -2 -12 -1 21.8 6.03 0
 -2 -12 0 109.55 8.29 0
 -2 -12 1 20.95 5.32 0
 -2 -12 2 113.82 8.33 0
 -2 -12 3 51.83 6.79 0
 -2 -12 4 12.91 4.45 0
 -2 -12 5 60.41 6.55 0
 -2 -12 6 25.06 5.31 0
 -2 -12 7 142.32 9.09 0
 -2 -12 8 23.2 5.79 0
 -2 -12 9 31.93 6.09 0
 -2 -12 10 97.77 8.24 0
 -2 -12 11 39.08 6.14 0
 -2 -12 12 0.28 3.44 0
 -2 -12 13 11.73 4.67 0
 -2 -11 -7 99.12 9.09 0
 -2 -11 -6 3.86 4.03 0
 -2 -11 -5 96.52 8.07 0
 -2 -11 -4 168.75 10.18 0
 -2 -11 -3 277.1 12.62 0
 -2 -11 -2 192.85 10.56 0
 -2 -11 -1 84.21 7.57 0
 -2 -11 1 77.66 7.07 0
 -2 -11 2 200.11 10.03 0
 -2 -11 3 273.26 11.58 0
 -2 -11 4 149.05 9.17 0
 -2 -11 5 95.33 7.95 0
 -2 -11 6 4.01 4.11 0
 -2 -11 7 91.06 7.27 0
 -2 -11 8 22.15 5.35 0
 -2 -11 9 176.67 10.03 0
 -2 -11 10 2.01 3.89 0
 -2 -11 11 55.44 6.77 0
 -2 -11 13 9.77 4.34 0
 -2 -11 14 54.27 6.97 0
 -2 -10 -6 119.57 9.09 0
 -2 -10 -5 141.01 8.77 0
 -2 -10 -4 125.72 8.55 0
 -2 -10 -3 321.09 12.11 0
 -2 -10 -2 5.43 3.54 0
 -2 -10 -1 26.5 4.66 0
 -2 -10 0 6.04 3.23 0
 -2 -10 1 23.97 4.54 0
 -2 -10 2 17.47 3.96 0
 -2 -10 3 315.05 11.72 0
 -2 -10 4 126.04 7.64 0
 -2 -10 5 116.02 7.72 0
 -2 -10 6 123.75 8.11 0
 -2 -10 7 24.28 4.64 0
 -2 -10 8 37.45 5.68 0
 -2 -10 9 7.57 3.62 0
 -2 -10 10 102.47 7.49 0
 -2 -10 11 115.43 8.3 0
 -2 -10 12 191.72 10.11 0
 -2 -10 13 93.46 7.88 0
 -2 -10 14 24.35 5.31 0
 -2 -10 15 8.95 3.91 0
 -2 -9 -8 386.2 13.74 0
 -2 -9 -7 66.51 6.64 0
 -2 -9 -6 73.85 6.51 0
 -2 -9 -5 128.12 7.95 0
 -2 -9 -4 153.43 8.44 0
 -2 -9 -3 78.95 6.53 0
 -2 -9 -1 167.63 8.29 0
 -2 -9 0 267.78 10.12 0
 -2 -9 1 162.18 7.97 0
 -2 -9 2 90.78 6.35 0
 -2 -9 4 136.38 7.55 0
 -2 -9 5 116.81 7.29 0
 -2 -9 6 76.86 6.52 0
 -2 -9 7 67.02 6.23 0
 -2 -9 8 398.11 12.63 0
 -2 -9 9 21.54 4.81 0
 -2 -9 10 138.93 8.62 0
 -2 -9 11 26.85 5.41 0
 -2 -9 12 63.16 6.24 0
 -2 -9 13 202.13 10.27 0
 -2 -9 14 117.87 8.44 0
 -2 -9 16 12.57 4.69 0
 -2 -8 -8 82.6 7.01 0
 -2 -8 -7 17.95 4.15 0
 -2 -8 -6 25.34 4.4 0
 -2 -8 -5 266.53 10.32 0
 -2 -8 -4 63.2 5.59 0
 -2 -8 -3 149.33 7.41 0
 -2 -8 -2 43.25 4.84 0
 -2 -8 0 212.38 8.54 0
 -2 -8 1 178.51 7.78 0
 -2 -8 2 41.3 4.69 0
 -2 -8 3 155.8 7.35 0
 -2 -8 4 69.61 5.29 0
 -2 -8 5 262.11 9.64 0
 -2 -8 6 21.31 3.79 0
 -2 -8 7 26.32 4.23 0
 -2 -7 -8 0.28 2.75 0
 -2 -7 -7 131.24 7.69 0
 -2 -7 -5 168.89 7.7 0
 -2 -7 -4 378.71 10.94 0
 -2 -7 -3 173.27 7.51 0
 -2 -7 -2 228.38 8.45 0
 -2 -7 -1 156.95 6.94 0
 -2 -7 0 0.1 2.18 0
 -2 -7 2 218.76 8.12 0
 -2 -7 3 162.24 7.01 0
 -2 -7 4 389.6 10.92 0
 -2 -6 -8 34.19 4.91 0
 -2 -6 -7 677.57 14.54 0
 -2 -6 -6 19.36 3.42 0
 -2 -5 -4 155.49 6.2 0
 -2 -5 -3 64.11 4.32 0
 -2 -5 0 9.28 2.55 0
 -2 -5 1 193.19 6.46 0
 -2 -4 -7 290.29 8.36 0
 -2 -4 -6 166.79 6.32 0
 -2 -4 -4 170.03 5.95 0
 -2 -4 -2 152.58 5.31 0
 -2 -4 -1 114.97 4.84 0
 -2 -4 0 485.6 9.26 0
 -2 -3 -7 5.78 2.04 0
 -2 -3 -6 2119.21 19.11 0
 -2 -3 -3 172.72 5.11 0
 -2 -3 -2 2586.05 18.81 0
 -2 -3 -1 388 7.65 0
 -2 -2 -6 1434.93 14.22 0
 -2 -2 -5 716.22 9.56 0
 -2 -2 -4 557.27 8.17 0
 -2 -2 -2 201.74 4.91 0
 -2 -1 -5 69.54 2.82 0
 -2 -1 -4 1011.81 9.35 0
 -2 -1 -3 1811.76 12.1 0
 -2 -1 -2 2115.79 13.23 0
 -2 0 -4 2205.54 10.89 0
 -2 0 -3 582.94 5.6 0
 -2 1 -3 1806.01 6.87 0
 -2 3 -2 2618.51 11.02 0
 -2 4 -3 340.22 3.94 0
 -1 -15 -2 65.74 8.89 0
 -1 -15 -1 41.24 7.41 0
 -1 -15 1 46.32 7.37 0
 -1 -15 3 12.1 5.24 0
 -1 -15 4 47.44 7.69 0
 -1 -15 5 93.16 8.9 0
 -1 -15 6 133.77 9.76 0
 -1 -15 7 21.14 5.65 0
 -1 -14 -3 74.68 9.62 0
 -1 -14 -2 2.33 4.71 0
 -1 -14 -1 121.95 9.55 0
 -1 -14 0 -0.96 4.14 0
 -1 -14 2 4.28 4.39 0
 -1 -14 3 96.24 8.44 0
 -1 -14 5 76.26 7.65 0
 -1 -14 6 69.6 7.44 0
 -1 -14 7 17.05 4.95 0
 -1 -14 8 95.87 8.01 0
 -1 -13 -3 41 6.86 0
 -1 -13 -2 16.25 5.22 0
 -1 -13 -1 70.8 7.45 0
 -1 -13 0 47.29 7.48 0
 -1 -13 2 14.8 4.65 0
 -1 -13 3 23.72 5.22 0
 -1 -13 4 201.05 10.93 0
 -1 -13 5 129.09 8.82 0
 -1 -13 6 12.7 4.71 0
 -1 -13 7 56.94 6.82 0
 -1 -13 8 93.9 7.42 0
 -1 -13 9 1.96 3.26 0
 -1 -13 10 8.13 4.15 0
 -1 -12 -4 86.5 7.95 0
 -1 -12 -3 72.77 7.66 0
 -1 -12 -2 164.74 10.36 0
 -1 -12 -1 55.24 6.64 0
 -1 -12 0 5.11 3.94 0
 -1 -12 1 46.95 6.04 0
 -1 -12 2 151.09 9.43 0
 -1 -12 4 76.79 7.19 0
 -1 -12 5 45.8 6.46 0
 -1 -12 6 41.92 5.8 0
 -1 -12 7 139.28 8.68 0
 -1 -12 8 15.75 4.22 0
 -1 -12 9 109.71 7.42 0
 -1 -12 10 48.14 6.11 0
 -1 -11 -5 8.28 4.14 0
 -1 -11 -4 76.93 7.19 0
 -1 -11 -3 75.69 6.75 0
 -1 -11 -2 56.38 5.98 0
 -1 -11 -1 189.76 9.53 0
 -1 -11 0 309.14 11.83 0
 -1 -11 1 182.21 9.45 0
 -1 -11 3 75.21 6.55 0
 -1 -11 4 76.59 6.25 0
 -1 -11 5 11.28 3.66 0
 -1 -11 6 137.84 7.88 0
 -1 -11 7 136.41 8.19 0
 -1 -11 8 47.3 5.55 0
 -1 -11 9 38.98 5.69 0
 -1 -11 10 56.8 6.04 0
 -1 -11 11 37.4 4.96 0
 -1 -11 12 71.16 6.11 0
 -1 -10 -5 73.38 6.91 0
 -1 -10 -4 309.62 11.87 0
 -1 -10 -3 68.95 6.38 0
 -1 -10 -2 253.43 10.67 0
 -1 -10 -1 411.13 12.75 0
 -1 -10 0 124.13 7.39 0
 -1 -10 1 395.93 12.22 0
 -1 -10 2 231.99 9.34 0
 -1 -10 3 66.41 5.47 0
 -1 -10 5 75.13 5.78 0
 -1 -10 7 51.74 5.14 0
 -1 -10 8 27.9 4.73 0
 -1 -10 9 24.51 4.29 0
 -1 -10 10 7.03 3.13 0
 -1 -10 11 219.09 9.36 0
 -1 -10 12 8.42 3.65 0
 -1 -9 -6 47.41 5.68 0
 -1 -9 -5 115.23 7.3 0
 -1 -9 -4 96.24 6.94 0
 -1 -9 -3 378.5 12.1 0
 -1 -9 -2 13.5 3.61 0
 -1 -9 -1 584.92 14.1 0
 -1 -9 0 4.85 3 0
 -1 -9 1 588.45 13.64 0
 -1 -9 2 16.31 3.39 0
 -1 -9 3 360.08 10.87 0
 -1 -9 5 107.47 6.22 0
 -1 -9 6 53.79 5.02 0
 -1 -9 7 52.36 5.19 0
 -1 -9 8 54.57 5.39 0
 -1 -9 9 151.38 7.48 0
 -1 -9 10 14.53 3.53 0
 -1 -9 11 98.43 6.3 0
 -1 -9 12 208.78 9.06 0
 -1 -9 13 69.59 5.6 0
 -1 -8 -6 215.86 9.35 0
 -1 -8 -5 105.61 6.59 0
 -1 -8 -3 492.98 12.72 0
 -1 -8 -2 158.79 7.43 0
 -1 -8 -1 137.84 6.83 0
 -1 -8 0 3.63 2.19 0
 -1 -8 1 132.83 6.43 0
 -1 -8 2 156.19 6.98 0
 -1 -8 3 497.23 11.69 0
 -1 -8 5 101.29 5.87 0
 -1 -8 6 203.85 7.72 0
 -1 -8 7 113.07 6.45 0
 -1 -8 8 39.73 4.96 0
 -1 -8 10 129.16 7.1 0
 -1 -7 -6 129.08 7.33 0
 -1 -7 -5 361.86 10.55 0
 -1 -7 -4 130.79 6.71 0
 -1 -6 -1 300.54 7.96 0
 -1 -6 1 305.09 7.94 0
 -1 -6 2 340.74 8.35 0
 -1 -6 3 33.77 3.23 0
 -1 -6 4 139.82 5.9 0
 -1 -5 -4 737.61 12.3 0
 -1 -5 -2 516.33 9.76 0
 -1 -5 -1 0.2 1.57 0
 -1 -5 0 563.83 9.86 0
 -1 -5 1 1.7 1.72 0
 -1 -4 -6 212.31 6.93 0
 -1 -4 -5 1663.91 17.54 0
 -1 -4 -4 1375.59 15.26 0
 -1 -4 -3 102.53 4.35 0
 -1 -4 -2 1915.55 16.56 0
 -1 -4 -1 1064.86 12.13 0
 -1 -4 0 5370.2 26.49 0
 -1 -4 1 1076.12 12 0
 -1 -3 -5 397.08 8.19 0
 -1 -3 -4 703.27 9.96 0
 -1 -3 -3 1104.83 11.78 0
 -1 -3 -2 355.05 6.45 0
 -1 -3 -1 2269.38 15.46 0
 -1 -3 0 4977.87 22.62 0
 -1 -2 -5 1381.19 12.96 0
 -1 -2 -4 1008.67 10.37 0
 -1 -2 -3 1648.53 12.32 0
 -1 -2 -1 1452.36 10.55 0
 -1 -1 -4 144.54 3.55 0
 -1 -1 -3 4073.15 15.99 0
 -1 -1 -2 9583.91 22.47 0
 -1 -1 -1 1072.74 7.52 0
 -1 0 -3 1443.72 7.3 0
 -1 2 -1 1535.67 7.42 0
 -1 2 0 3174.23 13 0
 -1 3 -2 347.55 4.08 0
 0 -15 1 84.59 8.17 0
 0 -15 2 4.68 4.7 0
 0 -15 3 18.35 5.04 0
 0 -15 4 87.32 8.01 0
 0 -15 5 77.95 7.62 0
 0 -14 0 12.89 5.58 0
 0 -14 2 50.81 6.64 0
 0 -14 3 -1.23 3.66 0
 0 -14 4 2.04 3.48 0
 0 -14 5 5.84 3.99 0
 0 -14 6 363.6 13.07 0
 0 -13 -2 190.92 10.66 0
 0 -13 -1 91.97 8.29 0
 0 -13 0 -1.47 4.26 0
 0 -13 1 80.65 7.94 0
 0 -13 2 197.36 10.53 0
 0 -13 3 198.17 10.14 0
 0 -13 4 102.28 7.72 0
 0 -13 6 9.74 3.84 0
 0 -13 7 18.83 4.19 0
 0 -12 -2 447.05 15.36 0
 0 -12 -1 57.8 6.72 0
 0 -12 2 449.29 14.01 0
 0 -12 3 62.67 6.35 0
 0 -12 4 2.81 3.31 0
 0 -12 5 93.67 7.08 0
 0 -12 6 96.07 6.56 0
 0 -12 8 237.13 9.53 0
 0 -11 -3 262.25 11.48 0
 0 -11 -2 131.25 8.53 0
 0 -11 -1 17.21 4.26 0
 0 -11 0 -1.01 2.9 0
 0 -11 1 13.66 4.34 0
 0 -11 2 125.05 7.31 0
 0 -11 3 244.35 9.97 0
 0 -11 4 1.06 2.92 0
 0 -11 5 151.09 7.81 0
 0 -11 6 111.82 6.94 0
 0 -11 7 26.99 3.99 0
 0 -11 8 13.63 3.36 0
 0 -11 9 50.94 4.71 0
 0 -10 -4 165.69 8.98 0
 0 -10 -3 6.93 3.8 0
 0 -10 -2 30.61 5.08 0
 0 -10 -1 440.69 12.93 0
 0 -10 0 162.21 8.17 0
 0 -10 1 451.22 12.6 0
 0 -10 2 35.05 4.73 0
 0 -10 3 9.37 3.03 0
 0 -10 4 160.67 7.59 0
 0 -10 5 11.56 3.03 0
 0 -10 6 26.47 3.86 0
 0 -10 7 93.92 5.74 0
 0 -10 8 0.54 1.98 0
 0 -10 9 -0.42 2.1 0
 0 -10 10 7.54 2.6 0
 0 -9 -4 14.24 4.18 0
 0 -9 -3 3.13 2.74 0
 0 -9 -2 175.62 8.12 0
 0 -9 -1 239.54 8.9 0
 0 -9 0 1.5 2.57 0
 0 -9 1 234.75 8.64 0
 0 -9 3 0.43 2.18 0
 0 -9 4 12.55 2.85 0
 0 -9 5 51.62 4.47 0
 0 -9 6 177.2 7.17 0
 0 -9 8 4.94 2.34 0
 0 -9 9 1.43 2.21 0
 0 -9 10 -1.24 1.81 0
 0 -8 -4 65.21 5.37 0
 0 -8 -3 1035.12 17.72 0
 0 -8 10 -2.8 1.75 0
 0 -8 11 383.33 9.73 0
 0 -7 0 0.31 1.86 0
 0 -7 1 874.04 13.45 0
 0 -7 2 1417.27 16.8 0
 0 -7 3 635.33 11.11 0
 0 -7 4 638.92 11.06 0
 0 -7 5 1.61 1.78 0
 0 -6 -3 26.4 3.27 0
 0 -6 -2 120.22 5.26 0
 0 -6 -1 27.93 3.24 0
 0 -6 0 41.66 3.16 0
 0 -6 1 33.3 2.91 0
 0 -6 2 116.88 4.74 0
 0 -6 3 32.79 2.76 0
 0 -6 4 1964.52 17.52 0
 0 -6 5 15.46 2.45 0
 0 -6 6 159.78 5.47 0
 0 -5 -4 1198.16 15.74 0
 0 -5 -3 1040.41 13.87 0
 0 -5 -2 152.56 5.43 0
 0 -5 -1 404.93 8.02 0
 0 -5 0 0.06 1.47 0
 0 -5 1 389.41 7.34 0
 0 -5 2 143.85 4.56 0
 0 -5 3 1072.88 11.77 0
 0 -5 4 1184 12.48 0
 0 -4 -3 1548.99 15.36 0
 0 -4 -2 12.47 2.07 0
 0 -4 -1 3096.07 19.3 0
 0 -4 0 1091.47 10.99 0
 0 -4 1 3072.19 17.78 0
 0 -4 2 13.27 1.77 0
 0 -4 3 1576.47 12.75 0
 0 -3 -3 4587.58 23.59 0
 0 -3 -2 6910.8 26.6 0
 0 -3 -1 279.37 5.33 0
 0 -3 0 0.92 1.11 0
 0 -3 1 266.7 4.54 0
 0 -3 2 6840.83 22.33 0
 0 -2 -2 2.61 1.32 0
 0 -2 -1 407.17 5.18 0
 0 -2 0 300.75 4.22 0
 0 1 1 40.15 1.44 0
 1 -13 4 190.27 9.13 0
 1 -12 2 168.17 8.72 0
 1 -12 3 67.35 5.66 0
 1 -12 4 82.91 6.28 0
 1 -12 5 58.15 5.1 0
 1 -11 1 192.71 8.85 0
 1 -11 2 65.15 5.4 0
 1 -11 3 74.19 5.57 0
 1 -11 4 72.54 5.4 0
 1 -11 5 3.83 2.69 0
 1 -11 6 137.61 6.47 0
 1 -10 0 119.18 7.04 0
 1 -10 1 403.98 11.39 0
 1 -10 3 71.01 5.13 0
 1 -10 4 292.41 8.99 0
 1 -10 5 77.13 4.84 0
 1 -10 6 43.57 3.87 0
 1 -10 7 51.38 3.89 0
 1 -9 -1 593.52 13.35 0
 1 -9 0 3.89 2.63 0
 1 -8 2 142.77 5.8 0
 1 -8 3 493.98 10.07 0
 1 -8 4 434.5 9.3 0
 1 -8 5 103.5 4.73 0
 1 -8 6 211.68 6.31 0
 1 -8 7 114.18 4.59 0
 1 -7 -1 96.4 5.1 0
 1 -7 0 393 9.15 0
 1 -7 1 89.33 4.41 0
 1 -7 2 802.07 11.95 0
 1 -7 3 472.33 8.96 0
 1 -7 4 115.59 4.49 0
 1 -7 6 125.83 4.46 0
 1 -6 -1 298.88 7.61 0
 1 -6 0 260.82 6.81 0
 1 -6 1 311.13 7.09 0
 1 -6 2 324.38 6.94 0
 1 -6 3 33.82 2.64 0
 1 -6 4 139.84 4.35 0
 1 -6 5 368.16 6.69 0
 1 -6 10 96.45 3.63 0
 1 -5 0 559.76 8.83 0
 1 -5 1 -0.25 1.41 0
 1 -5 2 515.75 7.61 0
 1 -5 3 306.72 5.63 0
 1 -4 0 5303.63 23.69 0
 1 -4 1 1077.06 9.86 0
 1 -4 2 1874.31 12.11 0
 1 -4 6 215.66 4.02 0
 1 -3 3 1062.26 6.55 0
 1 -3 4 715.41 5.39 0
 1 0 4 89.5 2.23 0
 2 -2 9 567.31 4.7 0
 2 -1 7 29.16 1.22 0
 -5 -4 -16 10.33 6.91 0
 -4 -11 -10 1.93 6.52 0
 -4 -9 -13 20.9 9.58 0
 -4 -8 -13 67.63 12.29 0
 -4 -7 -15 2.35 6.9 0
 -4 -7 -14 10.26 7.3 0
 -4 -6 -16 61.83 11.46 0
 -4 -6 -14 12.94 8.09 0
 -4 -5 -16 -3.15 5.43 0
 -4 -5 -15 88.71 11.09 0
 -4 -4 -17 9.84 6.53 0
 -4 -4 -16 16.72 7.27 0
 -4 -4 -15 -1.58 5.42 0
 -4 -3 -17 61.12 9.77 0
 -4 -3 -16 14.22 6.46 0
 -4 -3 -15 15.14 6.33 0
 -4 -2 -16 86.46 9.58 0
 -4 -1 -15 1.59 4.13 0
 -3 -14 -6 22.11 8.33 0
 -3 -14 -5 12.54 7.27 0
 -3 -14 -4 5.72 6.2 0
 -3 -14 -2 -1.34 4.61 0
 -3 -14 -1 -0.58 4.48 0
 -3 -13 -8 6.39 8.15 0
 -3 -13 -7 111.13 12.19 0
 -3 -13 -6 22.3 8.19 0
 -3 -13 -5 88.64 11.13 0
 -3 -13 -4 5.03 6.29 0
 -3 -12 -10 28.4 8.93 0
 -3 -12 -8 22.6 8.11 0
 -3 -12 -7 164.31 14.23 0
 -3 -11 -10 63.97 10.85 0
 -3 -11 -9 82.89 11.23 0
 -3 -11 -8 11.79 6.56 0
 -3 -10 -13 107.75 13.77 0
 -3 -10 -12 1.98 7.37 0
 -3 -10 -11 10.68 7.49 0
 -3 -10 -10 43.99 9.65 0
 -3 -9 -12 2.5 6.1 0
 -3 -9 -11 40.17 9.39 0
 -3 -8 -16 -2.71 6.2 0
 -3 -8 -15 28.84 8.83 0
 -3 -8 -14 9.92 7.01 0
 -3 -8 -13 61.09 10.24 0
 -3 -7 -16 22.66 8.65 0
 -3 -7 -15 13.43 7.99 0
 -3 -7 -13 68.53 10.16 0
 -3 -6 -17 5.74 6.63 0
 -3 -6 -15 64.56 10.4 0
 -3 -6 -13 99 11.45 0
 -3 -5 -18 52.23 10.1 0
 -3 -5 -17 20.35 7.11 0
 -3 -5 -15 32.23 7.78 0
 -3 -5 -14 32.03 7.52 0
 -3 -5 -13 -2.86 5.1 0
 -3 -4 -18 1.9 5.21 0
 -3 -4 -17 69.16 9.59 0
 -3 -4 -16 99.34 10.43 0
 -3 -4 -15 166.49 12.94 0
 -3 -4 -14 1.68 6.1 0
 -3 -3 -18 61.83 9.32 0
 -3 -3 -17 22.95 7.26 0
 -3 -3 -16 1.21 5.35 0
 -3 -3 -15 85.37 10.29 0
 -3 -3 -14 50.98 8.22 0
 -3 -2 -17 29.25 6.64 0
 -3 -2 -16 159.83 11.42 0
 -3 -2 -15 31.06 6.38 0
 -3 -2 -14 10.03 5.28 0
 -3 -1 -16 39.88 6.18 0
 -3 -1 -15 42.01 6.96 0
 -3 -1 -14 131.86 9.59 0
 -3 0 -15 3.05 3.89 0
 -3 0 -14 226.43 10.9 0
 -3 1 -14 141.59 8 0
 -2 -15 -5 75.21 10.88 0
 -2 -15 -4 87.68 10.7 0
 -2 -14 -8 37.23 9.51 0
 -2 -14 -7 34.94 8.68 0
 -2 -14 -6 149.58 13.31 0
 -2 -14 -4 143.5 12.31 0
 -2 -14 -3 64.15 8.68 0
 -2 -14 -2 31.36 7.59 0
 -2 -13 -10 99.22 12.98 0
 -2 -13 -9 66.49 10.74 0
 -2 -13 -7 14.5 6.4 0
 -2 -13 -6 65.4 10.27 0
 -2 -13 -5 214.75 14.55 0
 -2 -13 -4 94.08 10.62 0
 -2 -13 -3 112.77 11.07 0
 -2 -13 -2 23.6 6.13 0
 -2 -13 -1 54.65 8.03 0
 -2 -13 0 9.17 4.07 0
 -2 -12 -12 -4.54 6.82 0
 -2 -12 -11 41.91 10.2 0
 -2 -12 -10 102.57 13.44 0
 -2 -12 -8 26.67 7.78 0
 -2 -12 -7 137.53 13.18 0
 -2 -12 -6 30.11 7.35 0
 -2 -12 -5 55.26 9.06 0
 -2 -12 -4 3.65 4.98 0
 -2 -12 -3 48.64 7.42 0
 -2 -12 -2 99 8.97 0
 -2 -11 -13 4.56 6.45 0
 -2 -11 -12 164.08 13.95 0
 -2 -11 -11 51.09 9.47 0
 -2 -11 -10 3.47 6.3 0
 -2 -11 -9 206.99 14.9 0
 -2 -11 -8 18.08 6.83 0
 -2 -11 -7 86.14 9.7 0
 -2 -11 -5 83.06 10.09 0
 -2 -10 -14 26.06 9.4 0
 -2 -10 -10 101.02 11.86 0
 -2 -10 -9 2.36 5.5 0
 -2 -10 -8 38.07 7.79 0
 -2 -10 -7 21.45 6.3 0
 -2 -9 -16 15.68 7.93 0
 -2 -9 -15 86.7 12.75 0
 -2 -9 -14 141.07 13.73 0
 -2 -9 -11 25.73 7.53 0
 -2 -9 -10 133.83 11.56 0
 -2 -8 -17 37.81 9.3 0
 -2 -8 -16 18.83 7.87 0
 -2 -8 -15 46.21 9.18 0
 -2 -8 -14 47.65 9.69 0
 -2 -8 -12 32.02 7.6 0
 -2 -8 -11 23.88 6.69 0
 -2 -8 -9 106.14 9.37 0
 -2 -7 -17 54.58 9.72 0
 -2 -7 -16 4.15 6.22 0
 -2 -7 -15 50.26 8.91 0
 -2 -7 -14 186.89 13.41 0
 -2 -7 -13 52.14 8.62 0
 -2 -7 -12 29.44 7.55 0
 -2 -7 -11 57.4 9.05 0
 -2 -6 -18 38.81 8.51 0
 -2 -6 -17 27.32 8.62 0
 -2 -6 -16 5.8 6.36 0
 -2 -6 -15 31.63 8.04 0
 -2 -6 -14 83.04 10.36 0
 -2 -6 -13 3.14 5.21 0
 -2 -6 -12 85.8 9.46 0
 -2 -6 -11 325.65 15.03 0
 -2 -5 -18 12.95 6.39 0
 -2 -5 -17 4.38 6.53 0
 -2 -5 -16 143.86 12.27 0
 -2 -5 -15 50.18 8.16 0
 -2 -5 -14 103.17 10.73 0
 -2 -5 -13 152.72 11.78 0
 -2 -5 -12 41.6 7.04 0
 -2 -5 -11 52.7 7.78 0
 -2 -4 -19 63.48 9.37 0
 -2 -4 -18 106.4 11.04 0
 -2 -4 -16 14.32 6.55 0
 -2 -4 -15 50.49 7.73 0
 -2 -4 -13 0.67 4.35 0
 -2 -4 -12 329.97 14.65 0
 -2 -3 -19 17.4 6.23 0
 -2 -3 -18 187.57 12.31 0
 -2 -3 -17 116.46 9.9 0
 -2 -3 -16 111.71 9.95 0
 -2 -3 -15 103.73 9.98 0
 -2 -3 -14 246.22 12.99 0
 -2 -3 -13 24.09 5.83 0
 -2 -2 -18 12.05 5.61 0
 -2 -2 -17 25.27 6.43 0
 -2 -2 -16 198.25 11.74 0
 -2 -2 -13 91.13 8.43 0
 -2 -2 -12 40.78 6.25 0
 -2 -1 -17 53.44 6.82 0
 -2 -1 -16 198.95 10.78 0
 -2 -1 -15 126.72 8.96 0
 -2 -1 -14 54.12 6.69 0
 -2 -1 -13 9.04 3.8 0
 -2 -1 -12 17.1 4.56 0
 -2 0 -16 61.54 6.17 0
 -2 0 -15 239.6 10.54 0
 -2 0 -14 17.62 4.24 0
 -2 0 -13 226.28 9.86 0
 -2 1 -15 111.74 6.77 0
 -2 1 -11 273.36 9.2 0
 -2 2 -12 45.51 4.06 0
 -2 2 -11 509.28 10.94 0
 -2 2 -10 239.37 7.4 0
 -2 3 -12 40.1 3.11 0
 -2 3 -11 123.33 4.71 0
 -2 3 -10 495.94 8.81 0
 -2 3 -9 343.64 7.16 0
 -2 4 -10 94.08 2.44 0
 -2 4 -9 22.55 1.51 0
 -2 4 -8 26.12 1.68 0
 -2 5 -6 330.43 3.84 0
 -1 -15 -6 115.09 11.62 0
 -1 -15 -5 89.41 10.52 0
 -1 -15 -4 44.83 7.53 0
 -1 -14 -9 0.9 6.25 0
 -1 -14 -8 100.08 12.21 0
 -1 -14 -7 24.73 7.62 0
 -1 -14 -6 55.07 9.42 0
 -1 -14 -5 78.28 9.11 0
 -1 -14 -4 50.09 8.22 0
 -1 -14 -2 0.29 3.88 0
 -1 -13 -11 53.44 10.11 0
 -1 -13 -10 6.12 6.26 0
 -1 -13 -9 9.1 7.23 0
 -1 -13 -8 98.32 11.86 0
 -1 -13 -7 67.73 9.28 0
 -1 -13 -6 10.88 6.02 0
 -1 -13 -4 204.27 12.74 0
 -1 -13 -2 13.92 4.82 0
 -1 -13 -1 65.37 7.59 0
 -1 -12 -12 66.13 11.2 0
 -1 -12 -11 65.44 10.83 0
 -1 -12 -10 56.58 9.54 0
 -1 -12 -8 25.51 7.15 0
 -1 -12 -7 135.39 11.53 0
 -1 -12 -6 32.99 7.03 0
 -1 -12 -5 50.38 7.65 0
 -1 -12 -4 71.74 8.45 0
 -1 -12 -3 86.06 8.83 0
 -1 -12 -2 149.76 9.68 0
 -1 -12 -1 44.27 6.4 0
 -1 -12 0 11.28 3.7 0
 -1 -12 1 45.12 5.35 0
 -1 -11 -13 129.62 13.1 0
 -1 -11 -12 68.38 10.5 0
 -1 -11 -11 38.35 8.97 0
 -1 -11 -10 43.75 9.17 0
 -1 -11 -9 38.65 8.13 0
 -1 -11 -8 46.13 9.01 0
 -1 -11 -7 129.92 10.72 0
 -1 -11 -6 143.42 11.44 0
 -1 -11 -5 10.07 5.54 0
 -1 -11 -4 65.52 8.5 0
 -1 -11 -3 62.17 7.92 0
 -1 -11 -2 63.33 7.78 0
 -1 -11 -1 191.9 10.3 0
 -1 -11 0 309.4 11.82 0
 -1 -11 1 178.25 8.83 0
 -1 -11 2 51.22 4.84 0
 -1 -10 -15 40.75 9.11 0
 -1 -10 -14 83.73 12.32 0
 -1 -10 -13 39.24 9.52 0
 -1 -10 -11 211.98 14.85 0
 -1 -10 -10 5.21 6.29 0
 -1 -10 -9 31.43 8.13 0
 -1 -10 -8 41.13 7.53 0
 -1 -10 -7 50.43 7.6 0
 -1 -10 -6 49.01 8.06 0
 -1 -10 -5 74.1 8.05 0
 -1 -10 -4 281.46 13.15 0
 -1 -10 -3 66.15 7.52 0
 -1 -10 -2 248.49 11.6 0
 -1 -10 -1 394.3 13.36 0
 -1 -10 0 111.1 7.38 0
 -1 -9 -14 62.42 10.05 0
 -1 -9 -12 192.36 14.32 0
 -1 -9 -11 90.41 11.29 0
 -1 -9 -10 12.84 6.52 0
 -1 -9 -9 148.51 11.79 0
 -1 -9 -8 56.38 8.46 0
 -1 -9 -7 46.76 8.05 0
 -1 -9 -6 52.77 7.29 0
 -1 -9 -5 116.65 8.79 0
 -1 -9 -4 96.5 8.1 0
 -1 -8 -17 42.43 10.02 0
 -1 -8 -16 48.58 9.35 0
 -1 -8 -14 122.16 11.52 0
 -1 -8 -11 163.45 11.61 0
 -1 -8 -10 133.27 11.35 0
 -1 -8 -8 48.32 7.06 0
 -1 -8 -6 202.6 10.76 0
 -1 -7 -18 87.78 11.29 0
 -1 -7 -17 22.84 7.37 0
 -1 -7 -16 102.61 12.45 0
 -1 -7 -15 33.86 7.68 0
 -1 -7 -14 260.22 14.9 0
 -1 -7 -13 41.19 8.42 0
 -1 -7 -12 204.97 12.81 0
 -1 -7 -11 113.61 10.01 0
 -1 -7 -10 371.58 15.71 0
 -1 -7 -8 41.63 6.28 0
 -1 -7 -7 147.06 9.3 0
 -1 -6 -19 4.83 5.67 0
 -1 -6 -18 31.95 7.67 0
 -1 -6 -17 15.34 6.26 0
 -1 -6 -16 54.93 9.19 0
 -1 -6 -15 26.15 7.46 0
 -1 -6 -13 193.89 12.36 0
 -1 -6 -11 38.29 7.51 0
 -1 -6 -9 346.22 14.05 0
 -1 -6 -8 4.95 4.24 0
 -1 -5 -19 12.46 6.83 0
 -1 -5 -18 192.8 13.76 0
 -1 -5 -17 5.54 5.75 0
 -1 -5 -15 47.44 8.15 0
 -1 -5 -14 47.14 8.36 0
 -1 -5 -13 87.45 9.33 0
 -1 -5 -11 28.84 5.93 0
 -1 -5 -10 29.65 5.67 0
 -1 -5 -9 464.17 15.15 0
 -1 -5 -8 421.02 13.82 0
 -1 -4 -20 101.68 9.76 0
 -1 -4 -19 36.46 7.94 0
 -1 -4 -18 21.1 6.49 0
 -1 -4 -17 83.93 9.19 0
 -1 -4 -16 15.82 5.64 0
 -1 -4 -14 6.87 4.64 0
 -1 -4 -13 198.09 11.59 0
 -1 -4 -12 188.43 11 0
 -1 -4 -11 161.18 9.97 0
 -1 -4 -10 39.43 5.86 0
 -1 -4 -9 260.72 10.92 0
 -1 -3 -18 23.46 6.07 0
 -1 -3 -17 33.79 7.03 0
 -1 -3 -16 16.2 5.43 0
 -1 -3 -15 211.39 11.57 0
 -1 -3 -14 52.02 7.19 0
 -1 -3 -13 4.83 4.6 0
 -1 -3 -12 84.35 7.42 0
 -1 -3 -10 115.33 7.98 0
 -1 -2 -19 14.99 5.59 0
 -1 -2 -18 26.2 5.67 0
 -1 -2 -17 66.62 8.1 0
 -1 -2 -15 71.87 7.68 0
 -1 -2 -14 112.08 8.42 0
 -1 -2 -13 166.08 9.3 0
 -1 -2 -12 154.48 9.01 0
 -1 -2 -11 223.46 10.09 0
 -1 -1 -18 74.44 7.2 0
 -1 -1 -17 38.41 6.23 0
 -1 -1 -16 60.01 6.78 0
 -1 -1 -15 30.31 5.2 0
 -1 -1 -14 113 8.05 0
 -1 -1 -13 183.3 9.06 0
 -1 -1 -10 131.56 7.38 0
 -1 -1 -9 744.64 15 0
 -1 0 -17 247.25 10.51 0
 -1 0 -16 448.34 13.48 0
 -1 0 -15 35.38 4.79 0
 -1 0 -14 528.58 14.02 0
 -1 0 -11 20.5 3.95 0
 -1 0 -10 154.35 7.17 0
 -1 0 -9 77.42 5.04 0
 -1 1 -16 58.44 5.29 0
 -1 1 -15 27.64 4.13 0
 -1 1 -12 97.75 5.79 0
 -1 1 -11 606.11 12.33 0
 -1 1 -9 762.6 12.43 0
 -1 1 -8 49.83 3.63 0
 -1 2 -14 109.92 5.41 0
 -1 2 -13 167.18 6.25 0
 -1 2 -12 165.33 5.98 0
 -1 2 -11 236.79 6.76 0
 -1 2 -10 611.9 10.21 0
 -1 2 -8 683.26 9.58 0
 -1 2 -7 1378.37 12.44 0
 -1 2 -1 1507.65 9.56 0
 -1 3 -13 6.79 1.7 0
 -1 3 -12 82.64 3.57 0
 -1 3 -11 49.38 2.76 0
 -1 3 -10 113.4 3.57 0
 -1 3 -9 92.01 3.01 0
 -1 3 -8 155.15 3.43 0
 -1 3 -7 492.31 5.18 0
 -1 3 -6 306.99 3.47 0
 0 -15 -7 -2.88 4.84 0
 0 -15 -6 114.94 10.77 0
 0 -15 -5 76.01 9.44 0
 0 -14 -9 33.74 8.49 0
 0 -14 -8 117.16 11.04 0
 0 -14 -7 42.3 8.79 0
 0 -14 -6 350.63 16.33 0
 0 -14 -5 -2.28 4.33 0
 0 -14 -4 3.07 4.56 0
 0 -14 -3 1.28 4.02 0
 0 -13 -11 42.44 9.37 0
 0 -13 -9 -0.74 5.2 0
 0 -13 -8 -1.65 5.06 0
 0 -13 -7 16.65 7.05 0
 0 -13 -6 6.31 5.1 0
 0 -13 -5 8.03 5.5 0
 0 -13 -4 105.29 9.46 0
 0 -13 -3 218.73 11.47 0
 0 -13 -2 181.65 10.19 0
 0 -12 -13 27.8 8.2 0
 0 -12 -12 6.49 7.01 0
 0 -12 -11 -4.08 5.14 0
 0 -12 -10 153.76 12.77 0
 0 -12 -9 37.09 8.6 0
 0 -12 -8 233.76 14.51 0
 0 -12 -7 30.98 7.08 0
 0 -12 -4 0.75 4.26 0
 0 -12 -2 429.67 14.56 0
 0 -12 -1 59.93 6.21 0
 0 -12 0 43.61 5.12 0
 0 -11 -14 217.19 15.32 0
 0 -11 -13 61.58 10.6 0
 0 -11 -12 49.95 9.86 0
 0 -11 -11 -2.37 5.17 0
 0 -11 -10 2.16 5.54 0
 0 -11 -9 54.99 9.03 0
 0 -11 -8 10.39 5.51 0
 0 -11 -6 126.5 11.22 0
 0 -11 -5 178.61 11.13 0
 0 -11 -3 250.81 11.62 0
 0 -11 -2 122.94 8.3 0
 0 -11 -1 15.03 3.83 0
 0 -11 0 2.06 2.4 0
 0 -10 -15 11.92 7.85 0
 0 -10 -14 192.33 14.97 0
 0 -10 -13 -3.17 5.45 0
 0 -10 -12 308.31 16.46 0
 0 -10 -11 107.61 11.3 0
 0 -10 -10 9.28 5.83 0
 0 -10 -9 3.47 5.48 0
 0 -10 -8 -3.08 4.22 0
 0 -10 -7 98.24 8.93 0
 0 -10 -6 24.17 6.05 0
 0 -10 -5 10.9 4.52 0
 0 -10 -4 173.31 10.23 0
 0 -10 -2 34.89 5.2 0
 0 -9 -16 25.18 8.54 0
 0 -9 -15 26.89 8.48 0
 0 -9 -14 9.23 6.99 0
 0 -9 -13 533.55 21.5 0
 0 -9 -12 56.55 9.08 0
 0 -9 -11 54.07 8.24 0
 0 -9 -10 -3.66 4.49 0
 0 -9 -9 0.66 4.21 0
 0 -9 -8 4.44 4.71 0
 0 -9 -7 584.53 18.36 0
 0 -9 -6 158.55 10.09 0
 0 -9 -4 14.99 4.44 0
 0 -9 -3 0.41 3.01 0
 0 -9 0 1.05 2.74 0
 0 -9 1 262.11 8.52 0
 0 -9 3 -0.02 1.23 0
 0 -9 4 11.49 1.59 0
 0 -8 -17 10.57 6.81 0
 0 -8 -16 37.87 8.44 0
 0 -8 -14 -3.06 5.1 0
 0 -8 -13 142.12 12.21 0
 0 -8 -12 164.38 12.17 0
 0 -8 -10 2.89 4.28 0
 0 -8 -9 44.09 6.94 0
 0 -8 -8 207.05 11.65 0
 0 -8 -7 140.95 9.36 0
 0 -8 -6 27.14 5.21 0
 0 -8 -5 56.8 7.08 0
 0 -8 -4 71.89 6.91 0
 0 -8 -1 1071.47 18.19 0
 0 -8 0 317.64 9.4 0
 0 -8 1 1092.89 16.03 0
 0 -8 3 1031.14 12.58 0
 0 -8 4 60.86 2.74 0
 0 -7 -18 -9.16 6.26 0
 0 -7 -17 11.66 6.55 0
 0 -7 -16 13.49 6.28 0
 0 -7 -15 35.81 8.9 0
 0 -7 -13 83.12 9.05 0
 0 -7 -12 6.71 5.35 0
 0 -7 -11 28.85 6.33 0
 0 -7 -10 9.54 4.34 0
 0 -7 -9 199.83 10.88 0
 0 -7 -8 50.2 7.07 0
 0 -7 -2 1424.71 20.71 0
 0 -7 -1 858.74 15.42 0
 0 -7 0 -0.76 2.13 0
 0 -7 1 871.18 13.33 0
 0 -7 3 621.3 9.01 0
 0 -7 4 637.63 7.48 0
 0 -6 -19 5.82 6.67 0
 0 -6 -18 -1.13 5.04 0
 0 -6 -17 13.91 6.72 0
 0 -6 -16 100.36 9.77 0
 0 -6 -15 12.55 6.27 0
 0 -6 -14 -2.35 4.21 0
 0 -6 -13 15.47 5.49 0
 0 -6 -10 50.44 7.12 0
 0 -6 -9 824.74 20.44 0
 0 -6 -8 84.55 7.62 0
 0 -6 -7 432.41 14.05 0
 0 -6 -4 1971.52 25.5 0
 0 -6 -3 28.48 3.92 0
 0 -6 -2 123.1 6.33 0
 0 -6 -1 31.42 3.62 0
 0 -6 0 41.1 3.36 0
 0 -6 1 26.84 2.55 0
 0 -6 3 30.94 2.09 0
 0 -6 4 1939.62 11.25 0
 0 -5 -19 0.75 5.01 0
 0 -5 -18 -3.93 5.47 0
 0 -5 -17 72.43 9.38 0
 0 -5 -16 3.11 5.24 0
 0 -5 -15 6.87 4.86 0
 0 -5 -14 17.25 6.09 0
 0 -5 -10 116.36 8.29 0
 0 -5 -9 93.15 7.27 0
 0 -5 -8 99.19 6.84 0
 0 -5 -5 666.73 14.7 0
 0 -5 -4 1154.88 18.2 0
 0 -5 -3 1055.17 16.47 0
 0 -5 -2 143.18 6.23 0
 0 -5 0 -0.04 1.51 0
 0 -5 3 1026.69 8.81 0
 0 -4 -20 92.05 10.62 0
 0 -4 -19 20.56 6.83 0
 0 -4 -18 151.1 11.37 0
 0 -4 -17 263.04 13.65 0
 0 -4 -16 243.06 13.39 0
 0 -4 -15 29.43 6.17 0
 0 -4 -14 1.64 4.11 0
 0 -4 -13 3.55 4.07 0
 0 -4 -12 111.01 8.84 0
 0 -4 -11 54.56 6.1 0
 0 -4 -10 442.97 14.3 0
 0 -4 -9 55.74 5.51 0
 0 -4 -6 208.88 8.46 0
 0 -4 -5 2454.15 26.03 0
 0 -4 -3 1508.2 17.92 0
 0 -4 -2 8.79 2.43 0
 0 -3 -19 15.74 6.41 0
 0 -3 -18 13.01 5.75 0
 0 -3 -17 6 4.58 0
 0 -3 -16 30.86 6.2 0
 0 -3 -15 310.75 13.82 0
 0 -3 -14 15.1 4.8 0
 0 -3 -13 60.24 6.82 0
 0 -3 -12 2.95 4.01 0
 0 -3 -8 428.02 12.17 0
 0 -3 -7 22.9 3.76 0
 0 -3 -6 68.96 4.76 0
 0 -3 -5 471.56 10.79 0
 0 -3 -4 492.17 10.42 0
 0 -3 -3 4669.85 28.43 0
 0 -2 -19 0.4 3.83 0
 0 -2 -18 2.4 3.99 0
 0 -2 -17 18.23 4.97 0
 0 -2 -16 1.31 3.97 0
 0 -2 -15 103.21 8.3 0
 0 -2 -14 123.25 8.18 0
 0 -2 -13 311.59 12.17 0
 0 -2 -9 506.09 12.7 0
 0 -2 -7 1581.09 19.97 0
 0 -2 -6 2.33 2.39 0
 0 -2 -5 25.17 3.55 0
 0 -2 -4 4404.79 27.27 0
 0 -2 -3 2656.12 19.33 0
 0 -1 -18 29.28 6 0
 0 -1 -17 6.67 4.5 0
 0 -1 -16 62.11 6.76 0
 0 -1 -15 5.94 3.67 0
 0 -1 -13 28.12 4.69 0
 0 -1 -9 314.31 9.44 0
 0 -1 -8 664.44 12.87 0
 0 -1 -7 69.83 4.51 0
 0 -1 -6 10.79 2.45 0
 0 -1 -5 8459.62 36.62 0
 0 -1 -4 435.59 8.03 0
 0 -1 -3 8.01 1.9 0
 0 -1 -2 10.83 2.01 0
 0 -1 3 5.55 1.05 0
 0 -1 4 423.57 5.56 0
 0 0 -17 -2.15 2.67 0
 0 0 -16 17.11 3.92 0
 0 0 -15 -1.47 2.66 0
 0 0 -14 3.86 2.92 0
 0 0 -11 -1.3 2.37 0
 0 0 -9 -1.24 2.32 0
 0 0 -8 1703.07 18.54 0
 0 0 -7 -0.84 1.69 0
 0 0 -5 0.11 1.53 0
 0 0 -4 113.77 3.63 0
 0 0 -3 0.83 1.57 0
 0 0 -2 6060.13 16.99 0
 0 0 2 6213.92 17.53 0
 0 1 -16 74.62 5.75 0
 0 1 -15 7.82 2.97 0
 0 1 -11 294.66 8.45 0
 0 1 -10 4.09 2.36 0
 0 1 -9 310.07 7.75 0
 0 1 -8 647.95 10.19 0
 0 1 -7 67.9 3.32 0
 0 1 -6 10.35 1.76 0
 0 1 -5 8174 26.6 0
 0 1 -4 420.97 5.32 0
 0 1 -3 5.72 0.86 0
 0 2 -14 119.29 5.61 0
 0 2 -13 315.52 8.43 0
 0 2 -12 84.9 4.67 0
 0 2 -11 28.1 2.85 0
 0 2 -10 214.03 6.1 0
 0 2 -9 536.79 8.8 0
 0 2 -8 483.77 7.73 0
 0 2 -7 1584.86 12.42 0
 0 2 -6 1.06 1 0
 0 2 -5 22.96 1.4 0
 1 -15 -7 27.05 7.36 0
 1 -15 -6 120.32 10.53 0
 1 -14 -9 9.5 6.03 0
 1 -14 -8 81.13 10.31 0
 1 -14 -7 23.05 7.16 0
 1 -14 -6 69.37 9.45 0
 1 -14 -5 79.38 8.77 0
 1 -13 -11 45.87 8.77 0
 1 -13 -10 12.8 7.05 0
 1 -13 -9 7 6.59 0
 1 -13 -8 90.29 10.54 0
 1 -13 -6 9.62 4.96 0
 1 -13 -5 120.44 9.56 0
 1 -13 -3 32.19 5.75 0
 1 -13 -2 20.19 4.23 0
 1 -12 -12 66.73 10.77 0
 1 -12 -10 53.13 8.79 0
 1 -12 -9 97.9 11.28 0
 1 -12 -8 26.5 6.73 0
 1 -12 -7 124.51 10.88 0
 1 -12 -6 34.19 7.02 0
 1 -12 -5 48.69 7.65 0
 1 -12 -4 76.31 7.35 0
 1 -12 -3 66.37 6.97 0
 1 -12 -2 167.69 8.82 0
 1 -12 -1 47.94 5.04 0
 1 -11 -14 77.7 11.24 0
 1 -11 -13 123.43 11.79 0
 1 -11 -12 62.92 9.87 0
 1 -11 -11 27.46 8.22 0
 1 -11 -9 40.8 7.83 0
 1 -11 -8 43.13 7.32 0
 1 -11 -7 117.8 10.01 0
 1 -11 -5 3.1 4.19 0
 1 -11 -4 66.5 7.61 0
 1 -11 -3 66.51 6.76 0
 1 -11 -2 61.48 6.12 0
 1 -11 -1 185.78 8.42 0
 1 -11 0 287.46 9.68 0
 1 -10 -15 44.4 9.02 0
 1 -10 -14 67.81 10.67 0
 1 -10 -13 56.56 9.11 0
 1 -10 -12 12.64 6.79 0
 1 -10 -10 6.28 5.33 0
 1 -10 -9 31.27 6.72 0
 1 -10 -8 38.26 7.27 0
 1 -10 -7 53.31 7.3 0
 1 -10 -6 35.65 6.52 0
 1 -10 -5 75.89 7.64 0
 1 -10 -4 289.61 12.06 0
 1 -10 -3 63.9 6.11 0
 1 -10 -2 244.69 9.81 0
 1 -10 -1 379.81 11.44 0
 1 -10 1 385.84 9.77 0
 1 -9 -16 -0.88 5.73 0
 1 -9 -15 3.88 5.79 0
 1 -9 -14 40.33 9.24 0
 1 -9 -13 65.68 9.12 0
 1 -9 -12 185.87 12.94 0
 1 -9 -10 8.34 5.02 0
 1 -9 -8 63.48 7.41 0
 1 -9 -7 51.84 7.14 0
 1 -9 -6 61.07 6.57 0
 1 -9 -5 102.35 7.94 0
 1 -9 -4 95.85 7.19 0
 1 -9 -3 374.1 12.24 0
 1 -9 0 4.02 2.26 0
 1 -9 1 601.22 11.55 0
 1 -9 3 389.07 7.03 0
 1 -8 -17 36.44 9.38 0
 1 -8 -16 30.49 8.31 0
 1 -8 -15 164.67 12.65 0
 1 -8 -14 102.68 10.28 0
 1 -8 -12 48.54 7.88 0
 1 -8 -10 133.93 10.18 0
 1 -8 -9 36.23 6.39 0
 1 -8 -8 47.98 6.56 0
 1 -8 -7 123.47 8.81 0
 1 -8 -5 98.46 7.6 0
 1 -8 -4 420.77 13.07 0
 1 -8 -1 134.3 6.59 0
 1 -8 0 4.05 2.37 0
 1 -8 1 136.55 5.42 0
 1 -8 3 502.85 7.46 0
 1 -7 -18 80.33 10.78 0
 1 -7 -17 10.15 6.43 0
 1 -7 -16 103.58 11.32 0
 1 -7 -15 27.21 6.89 0
 1 -7 -14 254.89 14.13 0
 1 -7 -13 46.64 7.82 0
 1 -7 -12 210.02 12.77 0
 1 -7 -11 123.29 9.52 0
 1 -7 -10 358.19 14.59 0
 1 -7 -7 152.17 8.9 0
 1 -7 -6 122.52 7.81 0
 1 -7 -2 839.47 15.48 0
 1 -7 -1 83.69 5.08 0
 1 -7 0 370.49 8.82 0
 1 -7 1 85.37 4.04 0
 1 -7 3 476.64 6.55 0
 1 -6 -19 8.53 6.26 0
 1 -6 -18 31.06 8.16 0
 1 -6 -17 7.26 5.8 0
 1 -6 -16 61.87 9.05 0
 1 -6 -14 86.08 9.88 0
 1 -6 -13 183.18 12.01 0
 1 -6 -12 29.7 5.97 0
 1 -6 -11 31.12 5.88 0
 1 -6 -10 97.66 8.03 0
 1 -6 -8 9.59 4.56 0
 1 -6 -7 645.21 16.51 0
 1 -6 -3 32.11 4.01 0
 1 -6 -1 311.21 8.31 0
 1 -6 0 241.97 6.62 0
 1 -6 1 308.27 6.74 0
 1 -6 3 35.25 1.74 0
 1 -5 -19 22.22 6.9 0
 1 -5 -18 195.19 13.66 0
 1 -5 -17 7.87 5.17 0
 1 -5 -16 92.62 9.27 0
 1 -5 -14 47.7 7.1 0
 1 -5 -13 89.03 8.11 0
 1 -5 -12 325.62 13.86 0
 1 -5 -11 23.47 5.09 0
 1 -5 -10 33.07 5.58 0
 1 -5 -9 487.51 14.77 0
 1 -5 -8 416.02 13.2 0
 1 -5 -5 456.45 11.94 0
 1 -5 -3 317.72 8.93 0
 1 -5 -2 524.38 10.73 0
 1 -5 -1 0.1 1.63 0
 1 -5 0 564.81 9.22 0
 1 -5 1 1.23 1.14 0
 1 -4 -20 97.93 10 0
 1 -4 -19 35.48 7.2 0
 1 -4 -18 29.66 6.89 0
 1 -4 -16 16.11 5.6 0
 1 -4 -15 17.69 5.44 0
 1 -4 -14 5.05 4.25 0
 1 -4 -13 196.51 11.22 0
 1 -4 -12 178.7 10.43 0
 1 -4 -11 154.37 9.07 0
 1 -4 -10 37.67 5.88 0
 1 -4 -9 268.93 10.66 0
 1 -4 -5 1738.32 21.39 0
 1 -4 -4 1369.04 17.94 0
 1 -4 -3 96.28 4.84 0
 1 -4 -2 1892.65 18.3 0
 1 -4 -1 1100.45 12.89 0
 1 -4 0 5278.54 24.86 0
 1 -4 1 1063 9.99 0
 1 -3 -19 123.78 10.37 0
 1 -3 -18 18.16 5.65 0
 1 -3 -17 38.27 7.04 0
 1 -3 -16 9.08 4.83 0
 1 -3 -15 212.57 11.37 0
 1 -3 -14 58.68 6.92 0
 1 -3 -13 9.72 4.21 0
 1 -3 -12 74.7 7.05 0
 1 -3 -11 43.53 5.52 0
 1 -3 -10 112.45 7.42 0
 1 -3 -7 514.5 12.34 0
 1 -3 -6 316.32 9.42 0
 1 -3 -5 384.06 9.68 0
 1 -3 -4 755.04 12.75 0
 1 -3 -3 1056.18 13.67 0
 1 -3 -2 350.13 7.35 0
 1 -3 -1 2260.48 16.53 0
 1 -3 0 4931.14 21.6 0
 1 -2 -19 13.15 4.77 0
 1 -2 -18 33.32 6.7 0
 1 -2 -16 77.79 7.46 0
 1 -2 -15 65.83 7.69 0
 1 -2 -14 108.41 8.22 0
 1 -2 -13 162.27 8.93 0
 1 -2 -12 161.12 8.58 0
 1 -2 -11 235.48 9.91 0
 1 -2 -8 688.89 14.1 0
 1 -2 -7 1377.31 18.67 0
 1 -2 -6 618.91 12.04 0
 1 -2 -5 1418.93 16.75 0
 1 -2 -4 1028.74 13.26 0
 1 -2 -3 1655.92 15.46 0
 1 -2 -2 378.29 6.94 0
 1 -2 -1 1488.77 12.17 0
 1 -2 0 3150.84 15.07 0
 1 -1 -18 75.48 6.94 0
 1 -1 -16 69.64 7.1 0
 1 -1 -15 25.91 4.9 0
 1 -1 -14 114 7.8 0
 1 -1 -13 180.94 9.14 0
 1 -1 -9 774.65 14.72 0
 1 -1 -8 52.02 4.52 0
 1 -1 -7 153.25 6.09 0
 1 -1 -6 871.63 13.04 0
 1 -1 -5 953.83 12.78 0
 1 -1 -3 4150.94 22.38 0
 1 -1 -2 9735.91 30.61 0
 1 0 -16 443.11 13.32 0
 1 0 -15 25.14 4.71 0
 1 0 -14 547.36 14.23 0
 1 0 -13 0.11 2.5 0
 1 0 -8 264.26 7.84 0
 1 0 -7 8.47 2.59 0
 1 0 -6 5.69 2.19 0
 1 0 -5 936.45 11.82 0
 1 0 -4 90.93 3.89 0
 1 0 -3 1490.66 11.87 0
 1 1 -11 612.84 12.35 0
 1 1 -9 762.46 12.34 0
 1 1 -8 48.17 3.67 0
 1 1 -6 873.64 10.83 0
 2 -14 -8 42.22 7.97 0
 2 -14 -7 34.57 6.95 0
 2 -14 -6 147.56 11.02 0
 2 -14 -5 17.1 5.3 0
 2 -13 -10 104.03 10.55 0
 2 -13 -8 96.72 10.96 0
 2 -13 -7 11.8 5.53 0
 2 -13 -6 54.82 7.88 0
 2 -13 -5 196.09 11.31 0
 2 -13 -4 94.31 8.15 0
 2 -13 -3 121.85 8.42 0
 2 -12 -12 1.47 7.12 0
 2 -12 -11 43.61 8.67 0
 2 -12 -9 28.52 7.23 0
 2 -12 -8 28.44 6.77 0
 2 -12 -7 143.7 10.74 0
 2 -12 -6 36.96 6.87 0
 2 -12 -5 55.84 7.36 0
 2 -12 -4 11.41 4.42 0
 2 -12 -3 50.81 6.55 0
 2 -12 -2 109.23 7.52 0
 2 -11 -12 151.56 13.1 0
 2 -11 -11 48.11 9.26 0
 2 -11 -9 161.58 12.32 0
 2 -11 -8 31.5 6.81 0
 2 -11 -6 4.62 5.24 0
 2 -11 -5 86.29 7.86 0
 2 -11 -4 161.52 9.44 0
 2 -11 -2 184.47 9.22 0
 2 -11 -1 72.38 5.73 0
 2 -11 0 140.14 6.55 0
 2 -10 -14 27.23 8.95 0
 2 -10 -13 99.95 12.27 0
 2 -10 -12 197.42 14.18 0
 2 -10 -11 108.66 11.3 0
 2 -10 -10 87.47 9.95 0
 2 -10 -9 4.95 5.16 0
 2 -10 -8 38.09 6.62 0
 2 -10 -7 22.68 5.63 0
 2 -10 -6 105.85 8.72 0
 2 -10 -4 116.52 8.24 0
 2 -10 -3 326.63 11.87 0
 2 -10 -2 10.52 3.47 0
 2 -10 -1 19.81 3.83 0
 2 -9 -14 129.12 11.64 0
 2 -9 -13 197.69 13.58 0
 2 -9 -12 74.75 9.51 0
 2 -9 -10 136.69 10.57 0
 2 -9 -9 25.98 6.86 0
 2 -9 -8 367.45 15.28 0
 2 -9 -7 68.54 7.22 0
 2 -9 -6 67.02 7.49 0
 2 -9 -5 132.44 8.59 0
 2 -9 -4 147.86 8.6 0
 2 -9 -3 72.58 6.11 0
 2 -9 -2 93.49 6.21 0
 2 -8 -16 16.25 6.76 0
 2 -8 -15 69.64 9.95 0
 2 -8 -14 51.11 8.6 0
 2 -8 -12 37.9 8.19 0
 2 -8 -11 20.11 6.99 0
 2 -8 -10 75.99 8.67 0
 2 -8 -9 114.22 9.08 0
 2 -8 -8 92.57 7.92 0
 2 -8 -7 27.35 5.51 0
 2 -8 -4 70.82 6.4 0
 2 -8 -3 156.92 8.11 0
 2 -8 0 215.26 7.49 0
 2 -7 -17 43.3 9.02 0
 2 -7 -16 3.93 5.49 0
 2 -7 -15 39.98 8.7 0
 2 -7 -14 195.67 12.77 0
 2 -7 -13 50.61 8.06 0
 2 -7 -11 72.11 8.74 0
 2 -7 -10 14.35 5.11 0
 2 -7 -9 110.07 8.85 0
 2 -7 -8 5.18 3.66 0
 2 -7 -7 120.04 8.05 0
 2 -7 -6 333.51 12.1 0
 2 -7 -5 163.19 8.75 0
 2 -7 -4 390.74 12.02 0
 2 -7 -1 155.15 6.54 0
 2 -7 0 0.71 1.69 0
 2 -6 -18 35.27 7.75 0
 2 -6 -17 28.45 7.57 0
 2 -6 -16 7.67 6.49 0
 2 -6 -15 26.92 6.84 0
 2 -6 -14 62.25 9.17 0
 2 -6 -13 9.88 5.47 0
 2 -6 -12 101.78 9.02 0
 2 -6 -11 323.83 13.98 0
 2 -6 -10 29.48 6.11 0
 2 -6 -9 187.62 10.13 0
 2 -6 -8 28.67 5.32 0
 2 -6 -7 668.54 16.89 0
 2 -6 -6 22.14 4.6 0
 2 -6 -5 659.87 15.33 0
 2 -6 -2 475.98 11.28 0
 2 -6 -1 1039.18 15.27 0
 2 -6 0 3.95 1.83 0
 2 -5 -19 48.57 8.64 0
 2 -5 -18 15.02 6.4 0
 2 -5 -17 9.39 6.16 0
 2 -5 -16 146.89 11.43 0
 2 -5 -15 56.67 8.21 0
 2 -5 -14 91.88 9.52 0
 2 -5 -13 164.39 11.13 0
 2 -5 -12 48.27 7.12 0
 2 -5 -10 35.21 6.03 0
 2 -5 -9 499.59 15.2 0
 2 -5 -7 1463.71 23.63 0
 2 -5 -2 637.7 12.37 0
 2 -5 -1 181.53 6.13 0
 2 -4 -18 109.71 9.52 0
 2 -4 -17 2.67 4.77 0
 2 -4 -16 16.77 5.68 0
 2 -4 -15 55.63 8.09 0
 2 -4 -14 107.61 8.97 0
 2 -4 -13 7.38 4.25 0
 2 -4 -12 323.12 13.27 0
 2 -4 -11 64.5 6.7 0
 2 -4 -10 96.67 7.34 0
 2 -4 -9 21.72 4.91 0
 2 -4 -8 32.97 4.89 0
 2 -4 -4 173.47 7.1 0
 2 -4 -3 338.47 9.16 0
 2 -4 -2 154.05 5.97 0
 2 -3 -17 121.64 9.7 0
 2 -3 -16 118.55 9.9 0
 2 -3 -15 104.03 8.74 0
 2 -3 -14 246.78 12.51 0
 2 -3 -13 34.41 5.77 0
 2 -3 -12 44.2 6.04 0
 2 -3 -10 483.45 14.51 0
 2 -3 -9 363.81 11.98 0
 2 -3 -8 221.45 9.14 0
 2 -3 -4 149.51 6.23 0
 2 -3 -3 173.38 6.37 0
 2 -3 -2 2541.05 20.7 0
 2 -2 -15 48.57 6.97 0
 2 -2 -14 103.22 7.88 0
 2 -2 -13 90.48 7.28 0
 2 -2 -11 506.16 14.36 0
 2 -2 -10 239.98 9.9 0
 2 -2 -9 539.41 13.8 0
 2 -2 -6 1445.69 19.11 0
 2 -2 -5 691.94 12.71 0
 2 -2 -4 540.23 10.55 0
 2 -1 -13 8.47 3.95 0
 2 -1 -12 14.17 4.17 0
 2 -1 -11 263.17 9.82 0
 2 -1 -10 473.24 12.64 0
 2 -1 -7 27.75 3.36 0
 3 -13 -9 135.19 10.68 0
 3 -13 -8 6.18 5.08 0
 3 -12 -10 31.81 8.13 0
 3 -12 -9 9.28 6.03 0
 3 -12 -8 28.24 6.7 0
 3 -12 -7 161.19 11.12 0
 3 -12 -6 125.57 9.16 0
 3 -11 -12 13.41 6.38 0
 3 -11 -11 17.96 6.97 0
 3 -11 -9 90.66 10.28 0
 3 -11 -8 5.11 5.85 0
 3 -11 -7 20.52 5.55 0
 3 -11 -6 69.37 8.44 0
 3 -11 -5 88.88 8.23 0
 3 -10 -13 115.88 10.96 0
 3 -10 -12 10.12 6.62 0
 3 -10 -11 15.97 6.35 0
 3 -10 -10 38.95 8.08 0
 3 -10 -9 147.06 11.62 0
 3 -10 -8 91.05 9.44 0
 3 -10 -7 16.95 5.26 0
 3 -10 -6 49.21 6.86 0
 3 -10 -5 365.73 13.66 0
 3 -10 -4 111.3 8.09 0
 3 -9 -14 16.87 7.08 0
 3 -9 -13 18.02 6.35 0
 3 -9 -12 -2.65 4.74 0
 3 -9 -10 19.48 6.01 0
 3 -9 -9 67.84 8.18 0
 3 -9 -7 113.94 9.2 0
 3 -9 -6 71.92 7.7 0
 3 -9 -5 26.69 5.52 0
 3 -9 -4 298.43 11.36 0
 3 -8 -15 42.03 8.19 0
 3 -8 -14 9.19 6.39 0
 3 -8 -12 448.54 18.04 0
 3 -8 -11 9.9 6.01 0
 3 -8 -10 57.96 7.88 0
 3 -8 -8 51.92 7.13 0
 3 -8 -7 54.18 7.21 0
 3 -8 -6 220.41 11.02 0
 3 -8 -5 129.76 8.45 0
 3 -7 -15 6.52 5.51 0
 3 -7 -14 9.08 5.62 0
 3 -7 -13 69.64 8.63 0
 3 -7 -12 145.62 11.52 0
 3 -7 -11 65.12 8.14 0
 3 -7 -10 8.45 5.53 0
 3 -7 -9 34.21 6.6 0
 3 -7 -8 147.84 9.72 0
 3 -7 -7 427.69 14.46 0
 3 -7 -6 302.9 11.86 0
 3 -7 -5 14.02 3.84 0
 3 -7 -4 18.67 4.25 0
 3 -6 -15 52 8.01 0
 3 -6 -14 24.26 6.14 0
 3 -6 -13 108.29 9.33 0
 3 -6 -12 10.19 4.91 0
 3 -6 -11 50.36 6.95 0
 3 -6 -10 33.07 6.12 0
 3 -6 -9 89.69 8.12 0
 3 -6 -8 26.71 5.48 0
 3 -6 -7 284.74 11.55 0
 3 -6 -5 305.43 10.76 0
 3 -5 -14 32.99 6.42 0
 3 -5 -13 7.5 4.78 0
 3 -5 -12 69.02 8.48 0
 3 -5 -11 71.57 7.19 0
 3 -5 -10 497.63 16.07 0
 3 -5 -8 158.53 8.83 0
 3 -5 -7 24.55 4.86 0
 3 -5 -6 3.37 3.73 0
 3 -4 -11 8.99 4.01 0
 3 -4 -10 40.12 5.9 0
 3 -4 -9 148.52 8.73 0
 3 -4 -8 114.25 7.21 0
 -5 -1 -1 103.37 7.39 0
 -5 -1 0 110.64 7.43 0
 -5 0 -1 179.39 8.83 0
 -5 0 0 0.13 2.62 0
 -5 0 1 192.21 9.37 0
 -5 0 2 -1.82 2.58 0
 -5 0 4 3.56 3.2 0
 -5 1 -2 139.06 7.64 0
 -5 1 -1 91.76 6.46 0
 -5 1 2 143.63 7.77 0
 -5 1 3 147.01 7.6 0
 -5 1 5 10.51 3.52 0
 -5 2 -2 126.79 6.85 0
 -5 2 -1 399.69 11.17 0
 -5 2 0 170.67 7.55 0
 -5 2 1 411.6 11.35 0
 -5 2 2 152.3 7.46 0
 -5 2 3 18.44 3.43 0
 -5 3 -3 178.54 7.52 0
 -5 3 -2 4.97 2.58 0
 -5 3 0 59.89 4.72 0
 -5 3 1 332.53 9.55 0
 -5 3 2 13.26 3.2 0
 -5 4 -2 41.23 3.68 0
 -5 4 -1 34.79 3.39 0
 -4 -4 3 14.52 4.1 0
 -4 -3 2 195.52 9.69 0
 -4 -3 5 72.31 6.9 0
 -4 -2 2 286.6 10.67 0
 -4 -2 4 140.51 7.86 0
 -4 -2 5 310.8 11.45 0
 -4 -2 6 115.95 8.14 0
 -4 -1 0 1037.3 19.2 0
 -4 -1 1 12.93 4.16 0
 -4 -1 2 220.44 9.22 0
 -4 -1 4 185.72 8.77 0
 -4 0 1 71.33 5.23 0
 -4 0 2 397.6 11.48 0
 -4 0 3 90.98 5.92 0
 -4 0 4 596.93 13.92 0
 -4 0 5 183.38 8.64 0
 -4 1 0 1034.28 16.81 0
 -4 1 1 8.88 2.67 0
 -4 1 2 200.17 7.7 0
 -4 1 3 598.13 13.2 0
 -4 1 5 301.96 10.12 0
 -4 2 -1 629.45 12.45 0
 -4 2 0 42.64 3.63 0
 -4 2 1 628.15 12.47 0
 -4 2 3 177.69 7.19 0
 -4 3 -2 194.82 6.57 0
 -4 3 -1 512.62 10.14 0
 -4 3 0 1.03 1.65 0
 -4 3 1 508.47 10.06 0
 -4 3 2 195.43 6.62 0
 -4 4 -2 38.35 2.95 0
 -4 4 -1 264.91 6.37 0
 -4 4 0 128.39 4.57 0
 -4 5 -4 479.81 8.05 0
 -4 5 -3 265.99 5.26 0
 -4 5 -2 143.39 3.42 0
 -3 -7 1 306.87 12.26 0
 -3 -7 2 321.93 12.01 0
 -3 -6 2 36.79 5.4 0
 -3 -6 4 177.72 9.57 0
 -3 -6 5 303.2 11.6 0
 -3 -5 1 470.19 13.56 0
 -3 -5 3 195.74 9.08 0
 -3 -5 5 89.45 6.58 0
 -3 -5 6 3.8 3.41 0
 -3 -4 3 392.9 11.91 0
 -3 -4 4 2506.73 30.06 0
 -3 -4 5 239.32 9.65 0
 -3 -4 6 348.48 11.85 0
 -3 -4 7 504.33 14.52 0
 -3 -3 5 421.28 12.07 0
 -3 -3 6 555.18 14.25 0
 -3 -3 7 454.98 13.18 0
 -3 -2 1 1021.49 17.36 0
 -3 -2 2 471.77 11.97 0
 -3 -2 3 426.01 11.73 0
 -3 -2 4 171.09 7.49 0
 -3 -1 5 494.38 12.4 0
 -3 -1 6 319.96 10.48 0
 -3 0 3 746.78 13.73 0
 -3 0 5 1011.75 16.57 0
 -3 1 0 106.5 5.01 0
 -3 1 1 707 11.97 0
 -3 1 2 335.5 8.44 0
 -3 1 3 12.83 2.51 0
 -3 1 4 519.18 11.07 0
 -3 2 0 2869.42 21.52 0
 -3 2 1 1053.61 13.43 0
 -3 2 3 423.29 9.13 0
 -3 3 -1 545.13 8.57 0
 -3 3 0 23.87 2.14 0
 -3 4 -2 73.34 2.89 0
 -3 4 -1 86.13 2.77 0
 -3 4 0 129.6 3.3 0
 -3 5 -3 208.02 3.26 0
 -3 6 -7 275.51 6.7 0
 -3 6 -6 158.4 4.48 0
 -3 6 -5 304.22 4.57 0
 -2 -9 0 273.39 10.8 0
 -2 -9 1 160.03 8.69 0
 -2 -9 2 93.71 6.67 0
 -2 -9 3 77.88 6.87 0
 -2 -9 4 134.03 7.75 0
 -2 -8 1 174.38 8.44 0
 -2 -8 2 45.47 5.24 0
 -2 -8 4 58.27 5.74 0
 -2 -8 5 248.99 10.14 0
 -2 -8 6 22.17 4.18 0
 -2 -7 2 221.13 9.02 0
 -2 -7 3 167.63 8.19 0
 -2 -7 5 171.9 8.27 0
 -2 -7 6 345.64 11.95 0
 -2 -7 7 125.17 7.98 0
 -2 -6 1 1050.42 18.66 0
 -2 -6 2 467.43 12.62 0
 -2 -6 3 214 8.77 0
 -2 -6 4 149.08 7.79 0
 -2 -6 5 663.41 15.07 0
 -2 -6 6 17.64 4.18 0
 -2 -6 7 705.47 16.34 0
 -2 -5 6 337.13 10.79 0
 -2 -4 5 56.93 4.79 0
 -2 -4 6 171.96 7.93 0
 -2 -3 2 2538.83 24.55 0
 -2 -3 3 166.58 6.97 0
 -2 -2 3 118.75 5.66 0
 -2 -2 4 561.23 11.53 0
 -2 -1 1 1785.79 18.14 0
 -2 -1 2 2082.98 19.7 0
 -2 -1 3 1860.05 19.26 0
 -2 -1 4 984.09 14.56 0
 -2 -1 5 63.38 4.35 0
 -2 0 1 875.67 11.64 0
 -2 0 2 1648.26 16.47 0
 -2 0 3 590.38 10.26 0
 -2 0 4 2325.72 21.2 0
 -2 1 1 1746.4 14.85 0
 -2 1 3 1873 17.01 0
 -2 2 0 339.5 5.69 0
 -2 2 1 1310.58 11.31 0
 -2 2 2 202.11 4.89 0
 -2 3 0 20.66 1.36 0
 -2 5 -5 259.96 5.7 0
 -2 5 -4 158.03 3.77 0
 -2 6 -10 36.37 4.11 0
 -2 6 -9 169.74 6.98 0
 -2 6 -8 32.77 3.17 0
 -2 6 -7 679.67 11.17 0
 -2 6 -6 18.76 2.24 0
 -2 6 -5 700.95 8.8 0
 -2 7 -9 107.78 5.55 0
 -2 7 -8 3.97 1.88 0
 -2 7 -7 117.05 4.72 0
 -2 7 -6 333.87 6.76 0
 -1 -10 -1 377 11.49 0
 -1 -10 0 111.75 6.55 0
 -1 -10 1 382.67 11.35 0
 -1 -10 2 230.1 8.78 0
 -1 -10 3 63.63 4.91 0
 -1 -10 4 304 10.16 0
 -1 -10 5 72.71 5.55 0
 -1 -9 0 1.07 2.2 0
 -1 -9 1 587.53 13.34 0
 -1 -9 2 10.44 2.74 0
 -1 -9 3 384.28 10.98 0
 -1 -9 5 113.94 6.61 0
 -1 -8 1 132.53 6.4 0
 -1 -8 2 158.78 7.16 0
 -1 -8 3 504.94 12.18 0
 -1 -8 4 394.65 10.76 0
 -1 -8 5 111.12 6.27 0
 -1 -7 1 88.44 5.22 0
 -1 -7 2 815.27 14.64 0
 -1 -7 3 478.59 11.35 0
 -1 -7 4 133.52 6.26 0
 -1 -7 5 364.64 10.5 0
 -1 -6 5 371.04 10.27 0
 -1 -5 1 1.47 1.97 0
 -1 -5 2 510.83 10.47 0
 -1 -4 2 1866.19 18.57 0
 -1 -4 3 103.83 4.92 0
 -1 -4 4 1396.97 17.25 0
 -1 -3 2 351.37 7.71 0
 -1 -3 3 1086.77 13.84 0
 -1 -2 1 1505.99 14.4 0
 -1 -2 3 1652.09 15.8 0
 -1 -2 4 1026.65 13.44 0
 -1 -1 1 1062.77 10.89 0
 -1 -1 2 9788.02 33.83 0
 -1 1 1 1100.65 8.1 0
 -1 3 -2 345.52 4.16 0
 -1 4 -5 1666.06 15.67 0
 -1 4 -4 1387.33 12.79 0
 -1 4 -3 96.97 3.02 0
 -1 5 -10 29.68 4.37 0
 -1 5 -9 491.64 12.35 0
 -1 5 -7 562.29 11.21 0
 -1 5 -6 484.14 9.59 0
 -1 5 -5 474.42 8.64 0
 -1 5 -4 727.14 9.53 0
 -1 5 -3 321.33 5.55 0
 -1 6 -11 37.87 5.43 0
 -1 6 -10 96.17 6.14 0
 -1 6 -9 369.38 10.66 0
 -1 6 -8 5.34 2.22 0
 -1 6 -7 652.33 12.33 0
 -1 6 -6 335.87 8.19 0
 -1 7 -11 120.65 7.61 0
 -1 7 -10 369.65 11.62 0
 -1 7 -9 123.77 6.69 0
 -1 7 -8 47.49 3.99 0
 -1 7 -7 147.06 6.01 0
 -1 7 -6 123.87 5.35 0
 -1 8 -10 138.25 7.38 0
 -1 8 -9 36.22 4.25 0
 -1 8 -8 43.77 4.15 0
 0 -9 -1 255.43 7.85 0
 0 -9 0 -0.55 1.47 0
 0 -9 1 251.39 7.34 0
 0 -9 2 163.44 5.88 0
 0 -9 3 0.46 1.27 0
 0 -8 0 323.01 8.05 0
 0 -8 1 1102 14.56 0
 0 -8 2 271.06 7.22 0
 0 -8 3 1064.33 14.45 0
 0 -6 1 29.82 2.57 0
 0 -6 2 117.49 4.48 0
 0 -6 3 31.04 2.75 0
 0 -5 1 404.4 7.4 0
 0 -5 3 1067.92 12.4 0
 0 -4 1 3050.6 17.76 0
 0 -4 2 9.4 1.67 0
 0 -4 3 1577.12 14.11 0
 0 -3 1 269.11 4.67 0
 0 -3 2 6896.65 24.93 0
 0 -2 1 403.31 4.98 0
 0 -2 2 2.51 1.02 0
 0 2 -4 4416.03 24.24 0
 0 2 -3 2694.77 16.79 0
 0 2 -2 1.98 1.02 0
 0 2 -1 398.51 5.15 0
 0 3 -11 257.74 10.67 0
 0 3 -9 1096.87 18.41 0
 0 3 -8 442.76 11.23 0
 0 3 -7 17.83 2.84 0
 0 3 -6 71.68 4.28 0
 0 3 -5 480.8 9.49 0
 0 3 -4 513.52 8.82 0
 0 3 -3 4582.53 23.54 0
 0 3 -2 6774.95 25.86 0
 0 4 -11 61.04 5.83 0
 0 4 -10 441.26 12.83 0
 0 4 -8 110.83 6.39 0
 0 4 -7 60.89 4.72 0
 0 4 -5 2456.75 21.67 0
 0 4 -4 445.81 8.69 0
 0 4 -3 1549.55 14.75 0
 0 5 -11 138.42 8 0
 0 5 -10 129.5 7.74 0
 0 5 -8 119.65 6.71 0
 0 5 -6 166.27 6.6 0
 0 5 -5 659.38 11.66 0
 0 5 -4 1196.33 15.04 0
 0 6 -11 251.49 11.22 0
 0 6 -10 61.96 6.41 0
 0 6 -8 76.65 5.56 0
 0 6 -7 430.37 11.16 0
 0 6 -6 160.6 6.7 0
 0 6 -5 16.82 3.12 0
 0 7 -10 14.02 4.07 0
 0 7 -9 205.09 9.17 0
 0 7 -8 47.55 4.85 0
 0 7 -7 43.88 4.95 0
 0 8 -10 -0.88 3.59 0
 0 8 -9 50.97 5.77 0
 1 -9 0 -0.74 0.47 0
 1 -8 -1 136.78 3.73 0
 1 -8 0 4.99 0.91 0
 1 -7 0 381.04 4.93 0
 1 -6 0 253.24 3.63 0
 1 -1 -3 4148.06 21.42 0
 1 -1 -2 9798.11 28.45 0
 1 -1 -1 1083.97 8.24 0
 1 0 -5 874.9 12.78 0
 1 0 -3 1487.85 13.73 0
 1 0 -2 385.52 6.49 0
 1 0 -1 876.97 8.69 0
 1 1 -11 580.35 15.8 0
 1 1 -10 135.6 7.61 0
 1 1 -8 42.1 5.09 0
 1 1 -7 152.63 6.62 0
 1 1 -5 954.03 13.82 0
 1 1 -4 140.75 5.08 0
 1 1 -3 4128.49 24.35 0
 1 1 -2 9914.95 34.59 0
 1 2 -11 238.46 10.67 0
 1 2 -10 607.58 15.51 0
 1 2 -8 675.04 14.4 0
 1 2 -7 1399.6 19.55 0
 1 2 -6 596.37 12.31 0
 1 2 -5 1421.08 17.27 0
 1 2 -2 362.64 7.55 0
 1 3 -10 117.81 7.82 0
 1 3 -8 153.33 7.84 0
 1 3 -6 304.82 9.33 0
 1 3 -5 392.35 9.71 0
 1 3 -4 715.21 12.27 0
 1 3 -3 1109.15 14.56 0
 1 4 -10 39.25 5.35 0
 1 4 -9 246.18 10.01 0
 1 4 -8 420.19 12.53 0
 1 4 -7 3.82 2.64 0
 1 4 -6 215.89 8.05 0
 1 4 -5 1698.89 20.8 0
 1 5 -9 500.77 14.48 0
 1 5 -8 412.73 12.56 0
 1 5 -7 549.94 13.58 0
 1 6 -10 87.59 7.05 0
 1 6 -9 357.27 12.77 0
 1 6 -8 6.33 3.28 0
 1 6 -7 663.45 15.55 0
 1 7 -9 121.08 8.62 0
 2 -8 -5 253.55 6.22 0
 2 -7 -5 167.62 5.36 0
 2 -7 -4 377.3 6.78 0
 2 -7 -3 174.41 3.52 0
 2 -6 -4 145.29 4.53 0
 2 -6 -3 222.72 4.48 0
 2 -5 -7 1502.74 19.43 0
 2 -5 -6 329.34 8.43 0
 2 -5 -5 250.9 6.82 0
 2 -5 -3 60.34 2.68 0
 2 -5 -2 607.96 6.08 0
 2 -4 -10 101.29 6.69 0
 2 -4 -9 27.52 4.26 0
 2 -4 -8 30.3 4.13 0
 2 -4 -7 289.2 8.7 0
 2 -4 -6 169.75 6.35 0
 2 -4 -5 53.14 3.66 0
 2 -4 -4 171.96 5.2 0
 2 -4 -2 152.34 3.68 0
 2 -3 -7 4.45 2.4 0
 2 -3 -6 2097.31 21.79 0
 2 -3 -5 136.4 5.34 0
 2 -3 -3 163.84 4.89 0
 2 -2 -10 238.49 10.21 0
 2 -2 -9 573 14.45 0
 2 -2 -8 255.35 9.15 0
 2 -2 -7 122.4 6.45 0
 2 -2 -6 1423.64 18.34 0
 2 -2 -5 704.18 12.16 0
 2 -2 -4 551.91 10.02 0
 2 -2 -3 115.76 4.53 0
 2 -2 -2 201.27 5.37 0
 2 -1 -10 470.93 13.8 0
 2 -1 -9 39.52 5.59 0
 2 -1 -8 267.68 9.78 0
 2 -1 -7 27.47 3.7 0
 2 -1 -6 -1.03 1.9 0
 2 -1 -5 70.44 4.6 0
 2 -1 -4 987.74 14.22 0
 2 -1 -3 1775.51 17.18 0
 2 0 -10 25.65 4.69 0
 2 0 -9 229.48 9.39 0
 2 0 -8 206.33 8.46 0
 2 0 -7 741.81 14.77 0
 2 0 -4 2312.41 22 0
 2 0 -3 593.9 10.75 0
 2 1 -10 457.92 13.98 0
 2 1 -9 40.58 5.13 0
 2 1 -8 259.64 9.71 0
 2 1 -6 0.29 2.09 0
 2 1 -5 72.13 4.92 0
 2 1 -4 1011.47 15.45 0
 2 1 -3 1792.48 19.99 0
 2 2 -10 231.12 10.76 0
 2 2 -8 229.53 9.88 0
 2 2 -7 127.99 7.35 0
 2 2 -6 1392.05 20.5 0
 2 2 -5 734.62 14.64 0
 2 2 -4 535.33 12.01 0
 2 3 -10 467.95 14.99 0
 2 3 -9 365.66 12.69 0
 2 3 -8 222.09 9.66 0
 2 3 -6 2059.78 25.89 0
 2 3 -5 150.32 7.68 0
 2 4 -9 21.15 5.51 0
 2 5 -7 1539.07 25.27 0
 3 -6 -10 40.8 5.02 0
 3 -6 -9 96.25 6.22 0
 3 -6 -8 29.31 3.84 0
 3 -6 -7 289.74 8.89 0
 3 -6 -5 305.43 7.44 0
 3 -5 -9 404.51 12.15 0
 3 -5 -8 164.77 7.44 0
 3 -5 -7 20.85 3.56 0
 3 -5 -6 5.36 2.11 0
 3 -4 -10 51.9 5.82 0
 3 -4 -9 141.39 7.6 0
 3 -4 -8 118.6 7.03 0
 3 -4 -7 517.99 12.45 0
 3 -4 -6 356.85 9.84 0
 3 -4 -4 2536.52 22.22 0
 3 -3 -9 6.35 3.21 0
 3 -3 -8 481.43 13.05 0
 3 -3 -7 421.48 11.73 0
 3 -3 -6 554.69 12.47 0
 3 -3 -5 408.38 10.14 0
 3 -3 -4 168.87 6.51 0
 3 -2 -10 76.57 6.66 0
 3 -2 -9 90.02 6.67 0
 3 -2 -8 547.85 14.23 0
 3 -2 -7 92.65 6.13 0
 3 -2 -6 184.76 7.94 0
 3 -2 -5 141.97 6.48 0
 3 -2 -4 173.19 7 0
 3 -1 -9 172.23 9 0
 3 -1 -8 57.21 5.47 0
 3 -1 -7 624.01 14.89 0
 3 -1 -6 321.41 10.38 0
 3 -1 -5 503.55 12.18 0
 3 0 -9 420.21 13.72 0
 3 0 -8 5.26 3.77 0
 3 0 -7 4.99 2.94 0
 3 0 -5 1042.68 18.43 0
 3 1 -9 174.52 9.78 0
 3 1 -7 625.26 15.62 0
 3 1 -6 327.53 11.19 0
 3 2 -8 548.01 15.86 0
 3 2 -7 88.36 6.78 0
 3 3 -8 498.73 15.55 0
 4 -5 -9 30.93 4.9 0
 4 -5 -8 61.65 5.5 0
 4 -3 -8 37.09 5 0
 4 -2 -8 20.56 4.54 0
 4 -1 -8 193.72 9.9 0
 -1 -2 5 1419.82 9.9 0
 -1 0 1 913.83 8.05 0
 0 -7 6 18.75 1.59 0
 0 -7 7 42.48 1.95 0
 0 -6 4 1954.49 14.01 0
 0 -6 5 14.35 1.51 0
 0 -6 6 168.18 3.92 0
 0 -6 7 429.21 6.24 0
 0 -6 8 77.52 2.88 0
 0 -5 2 149.29 4.25 0
 0 -5 3 1037.87 9.66 0
 0 -5 4 1184.26 9.92 0
 0 -5 5 674.09 7.53 0
 0 -5 6 166.16 3.9 0
 0 -5 7 578.75 7.63 0
 0 -5 8 107.87 3.71 0
 0 -5 10 125.3 4.47 0
 0 -4 2 15.44 1.6 0
 0 -4 3 1543.35 10.42 0
 0 -4 4 445.57 5.63 0
 0 -4 5 2465.41 13.94 0
 0 -4 7 55.82 2.78 0
 0 -3 1 271.15 4.35 0
 0 -3 2 6708.4 19.03 0
 0 -3 3 4549.38 15.66 0
 0 -2 1 391.58 3.98 0
 0 2 0 306.14 4.2 0
 0 3 -2 7117.19 19.45 0
 1 -9 4 103.56 5.6 0
 1 -9 5 110.56 5.38 0
 1 -8 2 156.78 6.8 0
 1 -8 3 490.54 11.1 0
 1 -8 4 404.98 9.75 0
 1 -8 5 99.15 4.98 0
 1 -8 6 213.97 6.96 0
 1 -7 1 84.6 5.22 0
 1 -7 2 792.14 13.49 0
 1 -7 3 461.65 10.14 0
 1 -7 4 132.9 5.54 0
 1 -7 5 364.89 8.88 0
 1 -7 6 118.4 5.26 0
 1 -7 7 156.03 5.87 0
 1 -7 8 38.85 3.29 0
 1 -6 6 327.93 8.02 0
 1 -6 7 653.67 11.45 0
 1 -6 8 5.3 1.81 0
 1 -6 9 354.87 8.93 0
 1 -6 10 97.89 5.03 0
 1 -5 -1 1.29 1.93 0
 1 -5 0 546.4 10.54 0
 1 -5 1 1.21 1.68 0
 1 -5 2 524.87 9.92 0
 1 -5 3 306.93 7.52 0
 1 -5 4 737.41 11.29 0
 1 -5 8 404.27 9.24 0
 1 -5 9 464.61 10.3 0
 1 -5 10 28.58 3.66 0
 1 -5 11 24.76 3.32 0
 1 -4 -2 1891.78 19.61 0
 1 -4 -1 1077.33 13.96 0
 1 -4 0 5277.96 29.7 0
 1 -4 1 1090.02 13.33 0
 1 -4 2 1908.05 17.16 0
 1 -4 3 99.08 4.27 0
 1 -4 4 1350.45 14.56 0
 1 -4 5 1629.16 16.44 0
 1 -4 8 434.43 9.84 0
 1 -3 -2 341.86 7.72 0
 1 -3 -1 2290.16 18.73 0
 1 -3 0 5058 26.65 0
 1 -3 1 2229.24 17.14 0
 1 -3 2 339.26 6.83 0
 1 -3 3 1076.67 12.19 0
 1 -3 4 705.18 10.15 0
 1 -3 5 400.63 8.37 0
 1 -2 -3 1715.73 16.56 0
 1 -2 -1 1493.76 13.54 0
 1 -2 0 3142.18 18.64 0
 1 -2 1 1508.55 12.93 0
 1 -2 2 368.68 6.62 0
 1 -2 3 1672.26 14.69 0
 1 -1 -3 4198.31 22.67 0
 1 -1 -2 9701.66 31.47 0
 1 -1 -1 1075.51 10.28 0
 1 -1 0 5142.79 21.16 0
 1 -1 1 1063.86 9.95 0
 1 0 -3 1483.9 11.72 0
 1 0 -2 384.84 5.72 0
 1 0 -1 877.43 7.82 0
 1 0 0 0.46 1.59 0
 1 1 -3 4056.52 15.84 0
 1 1 -2 9579.96 21.84 0
 1 1 -1 1029.77 7.28 0
 1 6 -3 37.33 1.35 0
 2 -10 2 8.48 3.58 0
 2 -10 3 319.96 11.63 0
 2 -10 4 135.9 7.48 0
 2 -9 1 172.13 8.7 0
 2 -9 2 84.43 6.23 0
 2 -7 2 217.26 8.82 0
 2 -7 3 178.27 8.22 0
 2 -7 4 374.73 11.12 0
 2 -7 5 169.96 7.6 0
 2 -7 6 331.13 10.4 0
 2 -6 -1 1025.54 17.96 0
 2 -6 1 1042.15 17.96 0
 2 -6 3 219.76 8.38 0
 2 -6 4 139.88 6.66 0
 2 -6 5 688.3 14.05 0
 2 -6 6 21.75 3.43 0
 2 -6 7 671.68 14.27 0
 2 -6 11 338.13 11.24 0
 2 -5 3 64.22 4.88 0
 2 -5 4 152.04 6.66 0
 2 -5 6 320.52 9.78 0
 2 -5 7 1473.27 20.72 0
 2 -5 8 43.17 4.82 0
 2 -5 11 41.37 4.83 0
 2 -5 12 51.06 5.23 0
 2 -5 13 157.91 8.46 0
 2 -4 -2 162.34 6.86 0
 2 -4 0 475.35 11.06 0
 2 -4 1 115.51 5.9 0
 2 -4 2 145.65 6.26 0
 2 -4 5 57.78 4.63 0
 2 -4 6 163.72 7.07 0
 2 -4 7 282.29 9.27 0
 2 -4 8 25.5 3.83 0
 2 -4 11 73.3 5.99 0
 2 -3 -5 142.27 6.98 0
 2 -3 -4 147.14 6.71 0
 2 -3 -2 2577.82 24.37 0
 2 -3 -1 386.82 9.55 0
 2 -3 1 375.12 9.11 0
 2 -3 2 2586.8 23.53 0
 2 -3 3 165.56 6.45 0
 2 -3 6 2074.93 23.29 0
 2 -2 -5 692.01 13.26 0
 2 -2 -4 552.24 11.21 0
 2 -2 -3 119.47 5.46 0
 2 -2 -1 1229.27 15.53 0
 2 -2 0 346.47 8.28 0
 2 -2 1 1317.89 16.11 0
 2 -2 2 202.86 6.81 0
 2 -2 3 124.88 5.47 0
 2 -2 4 556.94 11.7 0
 2 -1 -5 75 4.41 0
 2 -1 -4 992.48 13.93 0
 2 -1 -3 1848.76 18.42 0
 2 -1 -2 2130.76 19.27 0
 2 -1 -1 1793.46 17.49 0
 2 -1 0 357.67 7.94 0
 2 -1 1 1690.48 17 0
 2 -1 2 2188.33 20.23 0
 2 0 -5 653.86 10.98 0
 2 0 -4 2260.51 19.02 0
 2 0 -3 587.82 9.83 0
 2 0 -2 1661.67 15.59 0
 2 0 -1 891.82 11.46 0
 2 0 0 542.67 9.22 0
 2 0 1 881.77 12.13 0
 2 1 -5 72.99 3.65 0
 2 1 -4 986.31 11.4 0
 2 1 -3 1834.43 15.33 0
 2 1 -2 2113.71 16.08 0
 2 1 -1 1730.03 14.96 0
 2 1 0 370.62 7.47 0
 2 2 -4 553.88 7.58 0
 2 2 -3 119.22 3.75 0
 2 2 -2 207.44 4.84 0
 2 2 -1 1249.21 12.13 0
 2 3 -4 137.8 3.19 0
 2 3 -3 170.24 3.79 0
 2 3 -2 2520.6 15.18 0
 2 4 -3 334.8 4.44 0
 2 4 -2 151.48 3.74 0
 2 5 -3 56.2 1.61 0
 3 -11 1 21.72 5.61 0
 3 -11 2 244.55 12.52 0
 3 -11 3 155.05 10.14 0
 3 -11 4 24.67 5.27 0
 3 -10 -1 54.01 7.24 0
 3 -10 0 49.48 7.51 0
 3 -10 2 243.47 11.96 0
 3 -10 3 365.12 13.65 0
 3 -10 4 114.09 8.48 0
 3 -10 5 344.44 13.27 0
 3 -10 6 54.78 6.3 0
 3 -9 -2 156.36 10.26 0
 3 -9 -1 102.68 8.83 0
 3 -9 0 85.83 7.86 0
 3 -9 1 106.65 8.37 0
 3 -9 2 136.61 8.81 0
 3 -9 3 115.06 8.48 0
 3 -9 4 310.31 12.72 0
 3 -9 5 23.88 4.93 0
 3 -9 6 68.83 6.5 0
 3 -9 7 111.65 7.75 0
 3 -8 -3 58.94 7.1 0
 3 -8 -2 149.44 9.6 0
 3 -8 -1 32.94 5.64 0
 3 -8 0 16.12 4.55 0
 3 -8 1 33.23 5.71 0
 3 -8 2 147.13 9.11 0
 3 -8 3 70.12 7.07 0
 3 -8 4 82.4 7.3 0
 3 -8 5 117.74 8.18 0
 3 -8 6 209.18 10.45 0
 3 -8 7 47.7 5.59 0
 3 -8 8 51.08 5.86 0
 3 -8 9 43.89 5.78 0
 3 -7 -4 16.59 4.82 0
 3 -7 -2 331.78 12.79 0
 3 -7 -1 326.4 12.28 0
 3 -7 0 -0.53 2.81 0
 3 -7 1 339.16 12.76 0
 3 -7 2 345.32 12.39 0
 3 -7 3 94.21 7.4 0
 3 -7 4 17.74 4.35 0
 3 -7 5 10.87 3.93 0
 3 -7 6 319.34 12.11 0
 3 -7 7 416.18 13.53 0
 3 -7 8 154.43 8.67 0
 3 -7 9 31.55 5.1 0
 3 -7 10 16.97 4.37 0
 3 -6 -4 170.79 9.29 0
 3 -6 -2 41.4 5.36 0
 3 -6 -1 53.97 6.03 0
 3 -6 5 295.89 11.2 0
 3 -6 7 280.72 11.36 0
 3 -6 8 26.86 4.7 0
 3 -6 9 104 7.64 0
 3 -6 10 37.15 5.61 0
 3 -5 -5 92.6 7.17 0
 3 -5 -4 6.49 3.06 0
 3 -5 7 20.18 4.8 0
 3 -5 8 172.54 9.2 0
 3 -5 9 392.39 13.51 0
 3 -5 10 493.02 15.06 0
 3 -5 11 76.6 7.15 0
 3 -5 12 76.61 7.08 0
 3 -5 13 3.84 4.44 0
 3 -5 14 41.7 6.64 0
 3 -4 -6 342.22 12.17 0
 3 -4 1 96.03 6.2 0
 3 -4 2 75.58 6.16 0
 3 -4 8 125.66 8 0
 3 -4 9 142.66 8.36 0
 3 -4 10 46.67 6.48 0
 3 -4 11 1.88 4.07 0
 3 -4 12 68.39 7.05 0
 3 -4 13 18.26 5.33 0
 3 -4 14 5.87 4.57 0
 3 -4 15 179.57 11.16 0
 3 -4 16 96.28 8.59 0
 3 -3 -3 342.96 10.77 0
 3 -3 3 341.73 10.73 0
 3 -3 8 478.73 14.1 0
 3 -3 10 96.29 7.97 0
 3 -2 -5 139.2 7.21 0
 3 -2 -4 159.35 7.25 0
 3 -2 -3 433.07 11.66 0
 3 -2 -2 486.72 11.93 0
 3 -2 -1 1025.47 16.94 0
 3 -2 4 159.17 7.42 0
 3 -1 -6 323.36 10.08 0
 3 -1 -4 536.63 12.19 0
 3 -1 -3 8.62 2.67 0
 3 -1 -2 326.22 9.5 0
 3 -1 -1 700.7 13.5 0
 3 -1 1 724.99 14.08 0
 3 0 -5 1029.88 15.8 0
 3 0 -4 337.48 9.17 0
 3 0 -3 753.79 13.41 0
 3 0 -2 154.77 6.29 0
 3 0 -1 1231.53 16.96 0
 3 0 0 0.39 2.1 0
 3 0 1 1203.24 17.25 0
 3 0 2 156.06 6.8 0
 3 1 -6 326.85 8.7 0
 3 1 -5 495.27 10.36 0
 3 1 -4 526.74 10.82 0
 3 1 -3 11.44 2.51 0
 3 1 -2 323.33 8.41 0
 3 1 -1 710.08 12.47 0
 3 1 0 105.15 5.31 0
 3 2 -6 171.41 5.85 0
 3 2 -5 141.86 5.3 0
 3 2 -4 163.87 5.67 0
 3 2 -3 414.89 8.83 0
 3 2 -2 482.4 9.81 0
 3 2 -1 1020.65 14.4 0
 3 2 0 2792.12 24.38 0
 3 3 -6 549.57 8.98 0
 3 3 -5 421.48 7.91 0
 3 3 -3 319.66 7.25 0
 3 3 -2 513.99 9.57 0
 3 3 -1 547.08 10.2 0
 3 3 0 20.06 3.25 0
 3 4 -5 221.07 4.84 0
 3 4 -4 2573.18 17.82 0
 3 4 -3 404.72 7.62 0
 3 4 -2 73.92 3.84 0
 3 4 -1 85.56 4.41 0
 3 5 -4 9.98 1.42 0
 3 5 -3 199.16 4.98 0
 3 5 -2 249.11 6.21 0
 3 5 -1 457.14 9.33 0
 3 6 -3 323.33 5.7 0
 3 6 -2 36.08 2.77 0
 3 7 -3 98.77 2.7 0
 3 7 -2 329.81 6.63 0
 3 8 -2 142.58 4.24 0
 4 -12 2 19.95 6.43 0
 4 -12 4 31.79 6.71 0
 4 -11 0 -0.89 4.83 0
 4 -11 1 72.55 9.04 0
 4 -11 2 47.3 7.86 0
 4 -11 3 30.63 6.27 0
 4 -11 4 83.66 8.68 0
 4 -10 -2 153.86 11.48 0
 4 -10 -1 36.87 7.96 0
 4 -10 0 124.95 10.24 0
 4 -10 1 28.76 6.79 0
 4 -10 2 126.55 9.78 0
 4 -10 3 40.81 7.16 0
 4 -10 4 90.78 9.38 0
 4 -10 5 2.25 4.39 0
 4 -10 6 25.64 5.87 0
 4 -10 7 4.21 4.89 0
 4 -9 -3 223.43 13.08 0
 4 -9 -2 19.22 5.71 0
 4 -9 -1 25.41 5.88 0
 4 -9 0 20.91 6.12 0
 4 -9 1 38.47 6.6 0
 4 -9 3 231.36 12.9 0
 4 -9 4 105.46 9.73 0
 4 -9 5 126.59 10.12 0
 4 -9 6 -1.26 4.13 0
 4 -9 8 16.31 5.18 0
 4 -9 9 177.28 10.99 0
 4 -8 -4 103.32 9.61 0
 4 -8 -1 90.49 8.25 0
 4 -8 0 7.46 4.66 0
 4 -8 1 98.48 8.42 0
 4 -8 2 314.42 14.09 0
 4 -8 3 20.23 5.78 0
 4 -8 4 102.92 8.74 0
 4 -8 5 335.81 14.56 0
 4 -8 6 144.29 10.36 0
 4 -8 7 233.65 12.5 0
 4 -8 8 71.02 8.27 0
 4 -8 9 104.63 9.12 0
 4 -8 10 151.01 10.5 0
 4 -8 11 19.56 5.4 0
 4 -7 -5 -2.19 3.62 0
 4 -7 -4 155.05 10.82 0
 4 -7 -2 72.82 8.29 0
 4 -7 -1 33.35 6.1 0
 4 -7 0 237.48 12.3 0
 4 -7 2 68.91 8.59 0
 4 -7 3 141.03 10.05 0
 4 -7 4 153.6 9.85 0
 4 -7 5 0.12 4.03 0
 4 -7 6 134.6 9.34 0
 4 -7 9 45.42 6.94 0
 4 -7 10 86.2 8.78 0
 4 -7 11 14.39 5.75 0
 4 -7 12 1.21 3.83 0
 4 -6 -6 89.75 8.66 0
 4 -6 -5 223.66 12.07 0
 4 -6 -4 452.52 16.15 0
 4 -6 -3 204.51 11.22 0
 4 -6 -2 45.44 6.36 0
 4 -6 -1 190.76 10.42 0
 4 -6 0 327.29 13.55 0
 4 -6 1 206.22 10.77 0
 4 -6 2 46.42 6.64 0
 4 -6 3 214.99 11.38 0
 4 -6 4 410.86 15 0
 4 -6 5 224.78 11.22 0
 4 -6 6 80.21 8.26 0
 4 -6 7 3.08 4.22 0
 4 -6 8 78.91 8.57 0
 4 -6 9 39.33 6.52 0
 4 -6 10 40.47 6.86 0
 4 -6 11 24.02 6.04 0
 4 -6 12 86.74 8.54 0
 4 -6 13 7.73 5.61 0
 4 -6 14 18.1 5.56 0
 4 -5 -4 461.41 15.53 0
 4 -5 -3 270.42 11.82 0
 4 -5 -2 132.72 8.52 0
 4 -5 1 274.77 11.74 0
 4 -5 3 246.64 11.34 0
 4 -5 6 60.9 6.77 0
 4 -5 7 66.44 7.02 0
 4 -5 8 62.65 6.9 0
 4 -5 9 39.22 6.62 0
 4 -5 10 55.46 7.49 0
 4 -5 11 5.9 4.71 0
 4 -5 12 47.03 7.46 0
 4 -5 13 35.96 7.04 0
 4 -5 14 29.75 6.46 0
 4 -4 -7 267.8 12.78 0
 4 -4 -6 4.8 3.91 0
 4 -4 -5 100.25 7.64 0
 4 -4 -4 55.89 6.63 0
 4 -4 -3 16.39 4.5 0
 4 -4 -2 41.61 5.79 0
 4 -4 -1 267.06 11.24 0
 4 -4 1 261.21 11.07 0
 4 -4 3 21.43 4.57 0
 4 -4 4 62.16 6.31 0
 4 -4 5 100.35 7.76 0
 4 -4 6 6.78 3.89 0
 4 -4 7 238.06 11.71 0
 4 -4 9 96.57 8.15 0
 4 -4 10 401.59 15.58 0
 4 -4 11 100.71 9.06 0
 4 -4 12 214.06 12.23 0
 4 -4 14 4.25 5.25 0
 4 -4 15 -2.33 4.33 0
 4 -4 16 22.58 6.47 0
 4 -3 -6 282.62 11.62 0
 4 -3 -4 181.78 9.46 0
 4 -3 -3 124.97 8.22 0
 4 -3 -2 204.12 9.9 0
 4 -3 0 4.69 3.19 0
 4 -3 1 524.6 14.67 0
 4 -3 2 196.37 9.43 0
 4 -3 5 68.02 6.43 0
 4 -3 6 262.31 11.77 0
 4 -3 7 521.37 16.14 0
 4 -3 8 45.13 6.6 0
 4 -3 9 29.66 5.64 0
 4 -3 10 6.6 4.48 0
 4 -3 11 32.48 6.26 0
 4 -3 12 41 6.91 0
 4 -3 13 242.27 13.11 0
 4 -3 14 6.41 5.41 0
 4 -3 15 18.85 6 0
 4 -3 16 17.2 7.09 0
 4 -3 18 46 7.78 0
 4 -2 -7 27 5.18 0
 4 -2 -6 117.53 7.53 0
 4 -2 4 156.84 8.59 0
 4 -2 5 303.63 11.75 0
 4 -2 6 121.44 8.49 0
 4 -2 7 25.17 5.07 0
 4 -2 9 41.91 6.17 0
 4 -2 10 120.09 9.09 0
 4 -2 11 -1.13 3.87 0
 4 -2 12 57.57 8.05 0
 4 -2 14 90.24 10.84 0
 4 -2 15 44.41 7.61 0
 4 -2 16 67.62 9.5 0
 4 -2 18 34.96 7.68 0
 4 -1 -7 49.26 5.48 0
 4 -1 5 300.19 11.58 0
 4 -1 7 44.93 6.33 0
 4 -1 8 186.62 10.51 0
 4 0 5 191.18 9.64 0
 4 1 -7 40.35 4.79 0
 4 1 -6 167.03 7.77 0
 4 1 -5 298.64 9.72 0
 4 1 -3 614.83 13.6 0
 4 1 -1 9.69 3.23 0
 4 2 -7 29.03 3.88 0
 4 2 -6 119.86 6.1 0
 4 2 -5 316.74 9.51 0
 4 2 -3 186.98 7.62 0
 4 2 -2 295.96 9.24 0
 4 2 0 36.54 4.28 0
 4 3 -6 271.99 7.96 0
 4 3 -5 70.51 4.66 0
 4 3 -4 174.02 6.93 0
 4 3 -3 112.14 5.7 0
 4 3 -2 203.05 7.72 0
 4 3 -1 520.75 12.12 0
 4 3 0 -0.1 2.79 0
 4 4 -6 7.28 2.1 0
 4 4 -5 97.15 4.72 0
 4 4 -4 53.95 4.01 0
 4 4 -3 15.11 2.86 0
 4 4 -2 40.81 3.96 0
 4 4 -1 253.04 8.54 0
 4 4 0 129.27 6.76 0
 4 5 -5 344.98 7.2 0
 4 5 -4 469.79 9.2 0
 4 5 -3 259.29 7.37 0
 4 5 -2 126.03 5.81 0
 4 5 -1 268.82 8.46 0
 4 5 0 229.52 8.31 0
 4 6 -4 430.46 7.67 0
 4 6 -3 198.59 6.05 0
 4 6 -2 39.11 3.68 0
 4 6 -1 192.63 7.15 0
 4 6 0 323.41 9.71 0
 4 7 -2 61.15 3.89 0
 4 7 -1 38.39 3.76 0
 4 7 0 238.47 8.38 0
 4 8 0 7.95 2.91 0
 5 -12 2 27.35 7.49 0
 5 -12 4 4.01 5.21 0
 5 -11 -1 -0.31 5.56 0
 5 -11 0 9.52 7.05 0
 5 -11 1 3.12 5.99 0
 5 -11 2 202.34 14.01 0
 5 -11 3 7.65 6.77 0
 5 -11 4 49.82 8.61 0
 5 -11 5 33.68 7.75 0
 5 -11 6 3.6 4.94 0
 5 -10 -3 114.96 11.7 0
 5 -10 -2 53.93 9.04 0
 5 -10 0 162.83 13.24 0
 5 -10 1 83.59 9.95 0
 5 -10 2 55.54 8.8 0
 5 -10 3 95.34 9.84 0
 5 -10 4 23.85 6.77 0
 5 -10 5 37.28 8.25 0
 5 -10 6 122.81 11.3 0
 5 -10 7 147.68 12.15 0
 5 -10 8 37.7 7.7 0
 5 -9 -4 10.77 6.22 0
 5 -9 -3 124.29 12.09 0
 5 -9 -2 3.61 6.44 0
 5 -9 0 36 7.84 0
 5 -9 2 6.96 6.55 0
 5 -9 3 128.46 11.4 0
 5 -9 4 8.62 5.71 0
 5 -9 6 54.74 8.79 0
 5 -9 7 54.93 8.64 0
 5 -9 9 30.77 7.06 0
 5 -9 10 29.8 6.75 0
 5 -8 -5 -4.57 4.35 0
 5 -8 -4 134.45 11.19 0
 5 -8 -3 23.44 6.4 0
 5 -8 -2 67.64 8.91 0
 5 -8 -1 44.4 7.63 0
 5 -8 0 182.12 12.84 0
 5 -8 1 35.1 7.31 0
 5 -8 2 54.76 8.49 0
 5 -8 3 17.68 6.05 0
 5 -8 4 133.23 11.56 0
 5 -8 5 3.05 6.11 0
 5 -8 6 62.26 8.59 0
 5 -8 7 53.81 8.39 0
 5 -8 8 92.69 10.31 0
 5 -8 9 19.25 6.63 0
 5 -8 10 13.84 6.39 0
 5 -8 11 97.57 10.2 0
 5 -7 -6 165.69 12.61 0
 5 -7 -5 146.85 11.79 0
 5 -7 -4 98.93 9.57 0
 5 -7 -2 149.49 11.57 0
 5 -7 -1 85.69 10.05 0
 5 -7 0 20.26 6.64 0
 5 -7 4 103.11 9.56 0
 5 -7 5 155.02 11.1 0
 5 -7 7 163.16 11.43 0
 5 -7 8 91.19 10.23 0
 5 -7 10 21.46 6.52 0
 5 -7 11 5.03 5.39 0
 5 -7 13 119.54 11.16 0
 5 -6 -6 13.49 6 0
 5 -6 -5 3.07 4.46 0
 5 -6 -4 6.21 4.82 0
 5 -6 -3 79.96 9.18 0
 5 -6 -2 130.35 9.75 0
 5 -6 -1 26.64 6.26 0
 5 -6 0 250.52 13.55 0
 5 -6 1 19.87 6.28 0
 5 -6 2 153.15 11.28 0
 5 -6 3 88.42 8.82 0
 5 -6 5 6 4.62 0
 5 -6 6 11.78 5.31 0
 5 -6 7 12.94 5.68 0
 5 -6 8 62.68 8.29 0
 5 -6 9 22.51 7.1 0
 5 -6 10 174.58 12.79 0
 5 -6 11 12.81 6.49 0
 5 -6 12 244.33 14.38 0
 5 -6 13 22.89 7.13 0
 5 -6 14 20.08 6.69 0
 5 -5 -6 138.8 10.18 0
 5 -5 -5 4.55 4.45 0
 5 -5 -4 214.84 12.41 0
 5 -5 -3 98.09 9.7 0
 5 -5 -2 284.02 13.63 0
 5 -5 -1 70.28 8.26 0
 5 -5 0 35.3 6.17 0
 5 -5 1 62.2 8.1 0
 5 -5 2 294.14 14.13 0
 5 -5 3 98.72 9.26 0
 5 -5 4 199.29 11.54 0
 5 -5 5 7.53 4.81 0
 5 -5 6 147.34 10.99 0
 5 -5 7 62.45 8.34 0
 5 -5 8 5.29 4.9 0
 5 -5 10 104.75 10.59 0
 5 -5 11 34.4 7.52 0
 5 -5 12 88.45 9.65 0
 5 -5 13 34.11 7.84 0
 5 -4 -7 29.23 6.29 0
 5 -4 -5 -0.16 3.96 0
 5 -4 -4 50.36 7.52 0
 5 -4 -3 237.51 12.69 0
 5 -4 -2 44.59 7.07 0
 5 -4 -1 36.75 6.28 0
 5 -4 0 13.33 4.81 0
 5 -4 1 39.31 6.36 0
 5 -4 3 219.54 12.12 0
 5 -4 4 55.37 7.57 0
 5 -4 5 8.56 4.9 0
 5 -4 6 71.09 7.99 0
 5 -4 7 34.07 6.44 0
 5 -4 8 15.99 6.57 0
 5 -4 9 214.24 12.71 0
 5 -4 10 44.09 7.93 0
 5 -4 12 31.73 8.06 0
 5 -4 13 13.46 5.97 0
 5 -4 14 4.08 5.64 0
 5 -4 15 14.83 6.68 0
 5 -3 -7 8.37 4.69 0
 5 -3 -6 26.87 5.52 0
 5 -3 -5 159.53 10.45 0
 5 -3 -3 192.7 11.07 0
 5 -3 -1 329.93 13.98 0
 5 -3 1 327.56 13.4 0
 5 -3 4 5.84 4.82 0
 5 -3 5 152.45 10.03 0
 5 -3 6 37.72 6.41 0
 5 -3 7 13.85 5.19 0
 5 -3 8 108.66 9.67 0
 5 -3 9 21.39 5.93 0
 5 -3 10 244.79 13.86 0
 5 -3 11 31.5 6.89 0
 5 -3 14 56.17 9.03 0
 5 -3 15 47.93 8.63 0
 5 -3 16 20.13 7.76 0
 5 -2 -8 39.4 6.92 0
 5 -2 -7 25.39 5.91 0
 5 -2 -5 399.35 14.77 0
 5 -2 -4 74.18 7.55 0
 5 -2 -3 27.39 5.22 0
 5 -2 -2 140.14 9.66 0
 5 -2 -1 425.09 14.82 0
 5 -2 0 186.7 10.3 0
 5 -2 2 141.31 9.24 0
 5 -2 3 23.51 5.81 0
 5 -2 4 72.57 7.89 0
 5 -2 7 18.05 5.31 0
 5 -2 8 42.29 7 0
 5 -2 9 69.32 8 0
 5 -2 10 8.89 5.2 0
 5 -2 11 112.67 10.13 0
 5 -2 12 19.62 6.94 0
 5 -2 13 49.9 8.73 0
 5 -2 14 5.36 5.44 0
 5 -1 -8 59.63 6.96 0
 5 -1 -6 227.49 10.89 0
 5 -1 -5 12.76 4.44 0
 5 -1 -4 37.93 5.87 0
 5 -1 -3 158.44 9.75 0
 5 -1 -2 136.82 8.84 0
 5 -1 -1 100.08 7.61 0
 5 -1 1 99.96 7.95 0
 5 -1 2 141.55 9.13 0
 5 -1 3 158.26 9.97 0
 5 -1 4 30.33 5.65 0
 5 -1 5 9.04 4.28 0
 5 -1 6 233.63 11.85 0
 5 -1 7 21.51 5.29 0
 5 -1 8 66.72 8.53 0
 5 -1 9 55.77 7.86 0
 5 -1 11 39.81 7.96 0
 5 -1 12 2.45 5.3 0
 5 -1 13 234.06 14.99 0
 5 -1 14 114.51 12.05 0
 5 -1 15 21.3 7.08 0
 5 -1 16 70.07 10.12 0
 5 0 -7 29.87 4.98 0
 5 0 -6 134.49 8.43 0
 5 0 -5 137.22 9.02 0
 5 0 -2 -1.49 2.78 0
 5 0 -1 189.75 9.65 0
 5 0 0 -1.79 3.43 0
 5 0 2 2.8 4 0
 5 0 3 183.86 10.18 0
 5 0 4 2.68 3.65 0
 5 0 6 143.58 10.21 0
 5 0 7 31.72 6.41 0
 5 0 8 493.6 17.71 0
 5 0 10 -2.58 4.42 0
 5 0 11 -2.78 4.74 0
 5 0 12 122.53 11.8 0
 5 0 13 2.41 6.01 0
 5 0 14 5.47 5.89 0
 5 0 15 1.8 6.54 0
 5 0 16 38.95 9.03 0
 5 1 -8 62.19 6.36 0
 5 1 -7 22.04 4.23 0
 5 1 -6 243.79 10.28 0
 5 1 -5 6.49 3.58 0
 5 1 -4 37.56 5.29 0
 5 1 -2 140.59 8.39 0
 5 1 -1 91.43 7.46 0
 5 1 0 106.23 7.85 0
 5 1 1 94.19 7.7 0
 5 1 2 128.51 8.83 0
 5 1 3 152.82 9.32 0
 5 1 4 37.85 5.84 0
 5 1 5 10.43 4.44 0
 5 1 6 213.02 11.41 0
 5 1 7 32.92 6.17 0
 5 1 8 71.53 8.73 0
 5 2 -7 19.19 3.93 0
 5 2 -4 69.38 5.83 0
 5 2 -3 19.63 4.35 0
 5 2 -2 133.57 8.1 0
 5 2 -1 417.02 12.98 0
 5 2 0 169.81 8.91 0
 5 2 1 409.76 13.8 0
 5 2 2 144.08 9.11 0
 5 2 3 19.34 4.69 0
 5 2 4 74.24 7.07 0
 5 2 5 393.02 14.95 0
 5 3 -1 322.84 11.24 0
 5 3 0 60.9 6.44 0
 5 3 1 320.43 11.85 0
 5 3 2 9.13 3.9 0
 5 3 4 2.69 3.84 0
 5 3 5 147.39 10.33 0
 5 4 -6 68.46 4.78 0
 5 4 -5 5.88 2.67 0
 5 4 -1 36.74 4.89 0
 5 4 0 12.51 4 0
 5 4 1 36.74 5.33 0
 5 4 2 42.36 6.06 0
 5 4 3 231.32 10.87 0
 5 4 4 42.55 6.33 0
 5 5 -4 200.75 7.58 0
 5 5 0 30.6 4.57 0
 5 5 1 52.7 5.52 0
 5 5 2 287.08 11.72 0
 5 5 3 92.06 7.53 0
 5 6 1 24.97 4.46 0
 5 6 2 138.7 8.65 0
 5 6 3 78.47 7.59 0
 5 7 0 25.13 4.32 0
 5 7 1 80.98 6.49 0
 5 7 2 153.17 8.91 0
 5 8 1 32.75 4.66 0
 5 8 2 70.01 6.7 0
 6 -10 -3 21.88 8.12 0
 6 -10 -2 -2.21 5.97 0
 6 -10 0 21.87 7.95 0
 6 -10 2 -4.39 5.65 0
 6 -10 3 13.71 7.71 0
 6 -10 4 82.36 10.73 0
 6 -10 5 13.66 7.27 0
 6 -10 6 3.86 5.77 0
 6 -9 -4 6.46 6.43 0
 6 -9 -3 99.82 11.6 0
 6 -9 -2 126.39 12.93 0
 6 -9 -1 118.45 11.59 0
 6 -9 0 38.94 8.62 0
 6 -9 1 115.15 12.22 0
 6 -9 2 132.55 13 0
 6 -9 4 8.25 7.44 0
 6 -9 5 115.61 11.55 0
 6 -9 6 115.47 12.36 0
 6 -9 7 -4.43 5.02 0
 6 -9 8 6.85 6.13 0
 6 -8 -5 48.31 9.03 0
 6 -8 -4 22.38 7.09 0
 6 -8 -3 38.37 8.1 0
 6 -8 -2 6.99 5.87 0
 6 -8 -1 34.8 8.52 0
 6 -8 0 21.96 7.18 0
 6 -8 1 21.31 7.32 0
 6 -8 2 7.63 6.7 0
 6 -8 3 50.44 9.21 0
 6 -8 4 26.11 7.98 0
 6 -8 5 57.41 10.19 0
 6 -8 6 35.21 8.17 0
 6 -8 7 43.17 9.64 0
 6 -8 8 31.63 8.23 0
 6 -8 9 13.97 6.95 0
 6 -7 -6 87.92 11.8 0
 6 -7 -5 41.55 8.53 0
 6 -7 -4 91.22 10.05 0
 6 -7 -2 152.08 12.06 0
 6 -7 -1 51.72 8.8 0
 6 -7 0 42.54 9.03 0
 6 -7 1 53.63 9.05 0
 6 -7 2 152.38 13.02 0
 6 -7 3 27.17 7.96 0
 6 -7 4 93.8 11.59 0
 6 -7 5 37.15 8.67 0
 6 -7 6 85.47 11.03 0
 6 -7 8 41.02 8.47 0
 6 -7 9 18.57 6.85 0
 6 -7 11 45.46 8.77 0
 6 -6 -6 7.5 5.92 0
 6 -6 -5 67.31 9.59 0
 6 -6 -4 202.93 13.92 0
 6 -6 -3 82.79 10.09 0
 6 -6 -2 180.45 12.68 0
 6 -6 -1 286.5 15.37 0
 6 -6 0 6.89 5.36 0
 6 -6 1 296.28 16.31 0
 6 -6 2 185.6 12.82 0
 6 -6 3 99.31 11.48 0
 6 -6 4 196.17 13.93 0
 6 -6 5 72.81 10.18 0
 6 -6 6 21.59 7.64 0
 6 -6 7 29.99 7.5 0
 6 -6 9 2.11 5.89 0
 6 -6 10 44.1 9.66 0
 6 -6 11 12.36 6.62 0
 6 -5 -7 17.81 6.92 0
 6 -5 -6 3.58 5.38 0
 6 -5 -5 12.2 6.25 0
 6 -5 -4 15.91 6.17 0
 6 -5 -2 1.44 4.94 0
 6 -5 -1 62.98 8.63 0
 6 -5 0 205.31 13.1 0
 6 -5 1 63.57 8.8 0
 6 -5 2 7.18 5.85 0
 6 -5 3 81.64 9.92 0
 6 -5 4 15.95 6.72 0
 6 -5 5 10.77 6.33 0
 6 -5 6 5.67 5.68 0
 6 -5 7 18.69 6.75 0
 6 -5 8 104.15 11.91 0
 6 -5 10 10.08 6.64 0
 6 -5 11 89.25 11.63 0
 6 -5 12 35.51 8.05 0
 6 -4 -7 12.42 6.18 0
 6 -4 -6 37.12 7.21 0
 6 -4 -5 38.15 7.51 0
 6 -4 -3 8.75 5.52 0
 6 -4 -2 72.02 9.13 0
 6 -4 -1 89.84 9.17 0
 6 -4 0 1.6 4.84 0
 6 -4 1 79.58 9.45 0
 6 -4 3 7.57 5.64 0
 6 -4 4 13.19 5.62 0
 6 -4 5 29.07 6.87 0
 6 -4 6 32.45 7.24 0
 6 -4 7 10.5 5.78 0
 6 -4 8 57.04 8.95 0
 6 -4 11 7.81 6.3 0
 6 -4 12 46.11 8.65 0
 6 -4 13 33.32 8.24 0
 6 -3 -8 75.39 9.65 0
 6 -3 -7 71.91 9.67 0
 6 -3 -4 11.89 5.52 0
 6 -3 -3 107.3 10.17 0
 6 -3 -1 2.01 4.82 0
 6 -3 0 24.7 6.19 0
 6 -3 1 1.43 5.32 0
 6 -3 5 10.9 5.52 0
 6 -3 7 46.15 8.85 0
 6 -3 8 76.4 9.54 0
 6 -3 9 31.12 7.56 0
 6 -3 10 112.27 11.4 0
 6 -3 11 142.26 12.16 0
 6 -3 12 125.65 12.77 0
 6 -3 13 1.33 5.34 0
 6 -2 -8 8.47 5.08 0
 6 -2 -7 -4.38 4.55 0
 6 -2 -6 65.58 7.84 0
 6 -2 -5 5.72 5.68 0
 6 -2 -4 14.9 5.52 0
 6 -2 -3 288.8 14.05 0
 6 -2 -2 119.49 9.72 0
 6 -2 -1 88.08 9.84 0
 6 -2 0 154.16 10.66 0
 6 -2 1 92.6 9.46 0
 6 -2 2 98.3 9.91 0
 6 -2 3 298.31 14.82 0
 6 -2 4 13.46 5.3 0
 6 -2 5 2.58 4.5 0
 6 -2 6 59.98 8.47 0
 6 -2 7 -0.74 4.63 0
 6 -2 8 12.71 6.97 0
 6 -2 9 5.68 5.77 0
 6 -2 11 36.12 9.18 0
 6 -2 12 41.43 8.59 0
 6 -1 -7 121.38 9.83 0
 6 -1 -6 314.3 13.99 0
 6 -1 -5 47.73 6.82 0
 6 -1 -4 46.19 7.48 0
 6 -1 -3 210.24 11.75 0
 6 -1 -2 29.47 6.15 0
 6 -1 -1 312.38 14.01 0
 6 -1 0 29.02 6.06 0
 6 -1 1 306.6 14.38 0
 6 -1 2 34.1 7.31 0
 6 -1 4 47.86 7.61 0
 6 -1 5 36 7.21 0
 6 -1 7 115.07 10.16 0
 6 -1 8 76.05 10.05 0
 6 -1 9 42.61 7.98 0
 6 -1 10 -1.52 4.71 0
 6 -1 11 52.79 9.4 0
 6 -1 12 4.95 5.88 0
 6 -1 13 0.36 7.11 0
 6 0 -8 261.56 12.73 0
 6 0 -6 5.19 3.99 0
 6 0 -5 14.33 4.76 0
 6 0 -4 2.26 4.04 0
 6 0 -3 6.42 4.62 0
 6 0 -2 10.35 4.73 0
 6 0 -1 190.33 11.37 0
 6 0 0 113.51 9.45 0
 6 0 1 170.48 10.64 0
 6 0 2 3.47 4.4 0
 6 0 3 5.98 4.66 0
 6 0 4 0.96 4.49 0
 6 0 5 17.4 5.93 0
 6 0 6 2.57 4.81 0
 6 0 7 16.44 5.89 0
 6 0 8 266.25 15.19 0
 6 0 9 4.01 5.36 0
 6 0 10 191.16 13.64 0
 6 0 13 35.4 8.44 0
 6 1 -8 81.81 7.42 0
 6 1 -7 108.3 8.19 0
 6 1 -6 302.32 12.63 0
 6 1 -5 45.34 6.15 0
 6 1 -4 48.46 6.46 0
 6 1 -3 195.37 10.83 0
 6 1 -2 38.04 6.46 0
 6 1 0 24.41 6.08 0
 6 1 1 307.78 13.86 0
 6 1 3 224.5 12.5 0
 6 1 5 39.97 6.88 0
 6 1 7 110.04 10.41 0
 6 1 11 45.23 8.54 0
 6 2 -7 -1.33 2.95 0
 6 2 -6 59.17 6.87 0
 6 2 -5 -0.98 3.27 0
 6 2 -4 18.99 4.71 0
 6 2 -3 285.81 12.36 0
 6 2 -2 95.4 8.44 0
 6 2 -1 97.8 8.33 0
 6 2 0 150.82 10.12 0
 6 2 1 92.26 8.77 0
 6 2 2 118.5 9.24 0
 6 2 3 287.25 13.57 0
 6 2 5 0.03 4.56 0
 6 2 6 63.82 8.97 0
 6 2 7 -1.04 4.4 0
 6 2 8 10.39 6.16 0
 6 2 9 12.59 6.26 0
 6 2 11 47.26 9.41 0
 6 2 13 50.29 9.31 0
 6 3 -6 82.19 6.57 0
 6 3 -5 11.31 3.7 0
 6 3 -4 14.1 4.41 0
 6 3 -3 112.96 8.07 0
 6 3 -2 97.67 7.97 0
 6 3 -1 2.71 4.23 0
 6 3 0 18.12 4.92 0
 6 3 1 0.21 3.61 0
 6 3 2 94.21 8.23 0
 6 3 3 93.7 8.33 0
 6 3 4 15.4 5.44 0
 6 3 5 9.8 5.8 0
 6 3 7 59.81 8.73 0
 6 3 8 81.44 10.17 0
 6 3 11 138.81 12.93 0
 6 3 12 131.76 12.84 0
 6 3 13 -6.48 5.38 0
 6 4 -4 11.43 3.63 0
 6 4 -3 9.26 4.07 0
 6 4 -1 85.03 7.54 0
 6 4 0 12.28 4.91 0
 6 4 1 71.69 7.71 0
 6 4 2 73.72 8.06 0
 6 4 3 9.39 4.77 0
 6 4 4 13.29 5.21 0
 6 4 5 21.21 6.01 0
 6 4 6 35.68 7.35 0
 6 4 7 7.36 5.41 0
 6 4 8 64.13 9.87 0
 6 4 9 106.59 11.83 0
 6 4 10 64.06 10.82 0
 6 5 -2 5.13 3.89 0
 6 5 -1 55.37 6.12 0
 6 5 0 213.35 10.61 0
 6 5 1 61.23 7.18 0
 6 5 2 -0.12 3.87 0
 6 5 4 14.03 5.19 0
 6 5 5 -0.04 4.87 0
 6 5 6 3.92 5.03 0
 6 5 7 19.23 6.96 0
 6 5 8 121.48 11.06 0
 6 5 9 20.11 7.13 0
 6 6 0 14.95 4.57 0
 6 6 1 302.25 12.56 0
 6 6 2 191.67 10.87 0
 6 6 3 90.44 8.08 0
 6 6 4 201.57 11.42 0
 6 6 7 16.08 6.74 0
 6 6 8 6.65 5.58 0
 6 7 1 49.13 6.39 0
 6 7 2 165.4 9.9 0
 6 7 3 17.31 5.74 0
 6 7 4 101.88 9.34 0
 6 7 5 49.3 7.19 0
 6 7 6 89.65 9.81 0
 6 7 7 95.29 10.14 0
 6 8 4 27.13 5.73 0
 6 8 5 55.43 8 0
 6 8 6 26.04 6.82 0
 6 8 7 38.05 8.11 0
 6 9 6 115.3 10.21 0
 6 9 7 0.75 4.8 0
 7 -7 -5 12.27 7.91 0
 7 -7 -4 23.28 8.09 0
 7 -7 -3 59.11 10.66 0
 7 -7 -2 13.7 6.94 0
 7 -7 -1 25.29 8.61 0
 7 -7 0 0.69 6.3 0
 7 -7 1 17.36 8.6 0
 7 -7 2 22.95 8.57 0
 7 -7 3 39.93 9.62 0
 7 -7 4 19.38 8.53 0
 7 -7 5 5.04 6.9 0
 7 -6 -6 66.34 10.86 0
 7 -6 -5 28.14 7.87 0
 7 -6 -4 9.12 6.63 0
 7 -6 -3 31.87 7.99 0
 7 -6 -2 68.28 10.46 0
 7 -6 0 8.02 6.46 0
 7 -6 1 -3.31 6.03 0
 7 -6 3 44.35 9.02 0
 7 -6 6 60.97 10.85 0
 7 -6 7 -2.72 5.91 0
 7 -5 -7 76.75 10.87 0
 7 -5 -6 85.18 11.51 0
 7 -5 -5 8.61 5.84 0
 7 -5 -4 15.16 6.84 0
 7 -5 -3 5.69 7.03 0
 7 -5 1 326.47 18.12 0
 7 -5 2 24.72 7.54 0
 7 -5 3 -0.28 6.06 0
 7 -5 4 30.15 8.05 0
 7 -5 5 5.64 6.18 0
 7 -5 6 102.83 12.27 0
 7 -5 7 68.14 10.29 0
 7 -5 8 16.64 7.77 0
 7 -4 -7 6.29 6.19 0
 7 -4 -6 161.94 13.38 0
 7 -4 -5 16.39 6.72 0
 7 -4 -4 40.17 8.84 0
 7 -4 -3 6.74 6.24 0
 7 -4 1 172.89 14.1 0
 7 -4 3 13.25 6.75 0
 7 -4 4 36.17 9.12 0
 7 -4 5 25.88 8.36 0
 7 -4 6 179.45 13.6 0
 7 -4 8 1.87 5.89 0
 7 -4 9 15.64 7.42 0
 7 -3 -7 22.56 6.89 0
 7 -3 -6 5.35 5.48 0
 7 -3 -5 7.15 5.78 0
 7 -3 -4 142.69 12.45 0
 7 -3 -2 118.31 11.23 0
 7 -3 -1 73.28 10.79 0
 7 -3 0 12.34 7.15 0
 7 -3 2 125.6 12.18 0
 7 -3 3 75.76 10.38 0
 7 -3 4 137.62 12.76 0
 7 -3 5 7.71 7.15 0
 7 -3 6 9.42 6.05 0
 7 -3 7 22.86 7.41 0
 7 -3 8 34.33 8.13 0
 7 -3 9 43.98 9.13 0
 7 -2 -7 -0.81 4.61 0
 7 -2 -6 19.13 6.22 0
 7 -2 -5 10.39 5.8 0
 7 -2 -4 11.51 5.87 0
 7 -2 -3 156.91 12.38 0
 7 -2 -2 75.69 9.73 0
 7 -2 0 67.75 9.32 0
 7 -2 1 56.03 9.48 0
 7 -2 4 8.4 5.88 0
 7 -2 5 17.13 6.63 0
 7 -2 6 17.6 6.89 0
 7 -2 7 3.97 6.25 0
 7 -2 8 204.4 14.42 0
 7 -2 9 38.18 8.68 0
 7 -2 10 37.78 9.02 0
 7 -1 -8 68.13 8.54 0
 7 -1 -7 0.38 4.77 0
 7 -1 -4 10.72 6.53 0
 7 -1 -3 175.62 12.56 0
 7 -1 -2 63.69 8.74 0
 7 -1 -1 21.04 7.11 0
 7 -1 1 25.49 7.03 0
 7 -1 2 62.35 8.88 0
 7 -1 3 183.19 13.57 0
 7 -1 4 14.22 6.64 0
 7 -1 6 48.02 8.83 0
 7 -1 9 60.53 10.07 0
 7 -1 10 37.99 9.05 0
 7 0 -7 211.05 12.13 0
 7 0 -6 131.21 10.37 0
 7 0 -5 186.99 11.96 0
 7 0 -4 59.72 8.38 0
 7 0 -2 0.36 5.02 0
 7 0 -1 75.04 9.89 0
 7 0 0 4.17 5.05 0
 7 0 1 91.07 9.25 0
 7 0 2 -1.52 4.71 0
 7 0 3 36.8 7.9 0
 7 0 6 138.87 12.42 0
 7 0 7 200.27 13.84 0
 7 0 8 -0.74 5.68 0
 7 0 10 -2.17 7.57 0
 7 1 -6 52.55 7.4 0
 7 1 -4 15.55 6.06 0
 7 1 -3 176.49 11.62 0
 7 1 -2 71.47 8.73 0
 7 1 -1 24.77 6.22 0
 7 1 0 84.1 10.23 0
 7 1 2 66.95 9.21 0
 7 1 3 172.59 12.33 0
 7 1 4 11.3 6.09 0
 7 1 5 21.59 7.6 0
 7 1 7 -0.24 5.64 0
 7 1 8 89.97 11.91 0
 7 1 9 46.39 9.38 0
 7 1 10 20.08 7.97 0
 7 2 -5 14.81 5.16 0
 7 2 -4 13.34 5.03 0
 7 2 -2 83.87 8.38 0
 7 2 -1 45.52 7.33 0
 7 2 0 56.5 7.93 0
 7 2 1 60.42 8.95 0
 7 2 2 67.95 9.44 0
 7 2 3 167.67 12.58 0
 7 2 4 11.54 5.64 0
 7 2 5 8.36 6.94 0
 7 2 6 21.02 7.86 0
 7 2 7 -0.76 5.6 0
 7 2 9 41.72 9.02 0
 7 2 10 45.37 9.79 0
 7 3 -3 72.3 8.22 0
 7 3 -2 120.34 9.71 0
 7 3 -1 73.04 7.91 0
 7 3 0 9.86 4.76 0
 7 3 1 78.81 9.33 0
 7 3 2 108.25 9.73 0
 7 3 4 129.39 11.29 0
 7 3 5 2.13 5.39 0
 7 3 6 -2.06 5.11 0
 7 3 7 24.98 7.48 0
 7 3 8 31.32 8.11 0
 7 3 9 45.43 9.82 0
 7 4 0 77.05 8.16 0
 7 4 1 189.36 11.77 0
 7 4 2 22.75 6.12 0
 7 4 3 7.98 5.66 0
 7 4 5 25.05 7.65 0
 7 4 6 150.51 12.6 0
 7 4 7 1.99 5.41 0
 7 4 8 0.89 5.68 0
 7 4 9 16.68 7.26 0
 7 5 0 65.76 7.95 0
 7 5 1 303.73 13.87 0
 7 5 2 33.83 6.44 0
 7 5 3 6.02 4.73 0
 7 5 5 11.08 6.5 0
 7 5 6 73.63 10.25 0
 7 5 7 81.18 10.26 0
 7 5 8 22.21 7.19 0
 7 6 3 42.96 7.22 0
 7 6 4 7.05 6.1 0
 7 6 6 52.64 8.23 0
 7 6 7 3.39 5.18 0
 8 -3 -2 29.88 8.01 0
 8 -3 -1 33.3 8.73 0
 8 -3 0 12.57 6.96 0
 8 -2 -4 20.06 7.35 0
 8 -2 -3 58.84 9.46 0
 8 -2 -2 11.41 6.83 0
 8 -2 -1 -3.12 5.19 0
 8 -2 0 18.78 7.67 0
 8 -2 1 -1.72 6.79 0
 8 -1 -5 19.13 6.53 0
 8 -1 -4 7.5 6.62 0
 8 -1 -2 -2.39 6.1 0
 8 -1 -1 32.26 8.48 0
 8 -1 0 25.82 8.03 0
 8 -1 1 24.03 8.53 0
 8 -1 2 14.28 6.84 0
 8 0 -4 57.45 8.58 0
 8 0 -2 -4.89 5.03 0
 8 0 -1 61.23 8.98 0
 8 0 0 4.4 5.67 0
 8 0 3 108.09 12.32 0
 8 0 4 54.96 10.42 0
 8 1 -2 2.4 5.4 0
 8 1 -1 31.11 7.4 0
 8 1 0 15.85 7.22 0
 8 1 1 25 7.85 0
 8 1 2 4.53 5.78 0
 8 1 3 27.62 7.54 0
 8 1 4 3.92 5.74 0
 8 2 -2 13.17 5.55 0
 8 2 0 8.5 6.33 0
 8 2 1 -1.04 5.23 0
 8 2 2 19.92 7.06 0
 8 2 3 63.72 9.44 0
 8 2 4 30.55 8.42 0
 8 3 0 17.86 5.96 0
 8 3 2 23.65 7.22 0
 8 3 3 4.88 5.25 0
 -4 5 3 263.32 11.51 0
 -4 6 0 327.3 11.93 0
 -4 7 -3 107.74 6.55 0
 -4 7 -2 56.98 5.23 0
 -4 7 -1 38.31 4.84 0
 -4 7 0 235.18 10.28 0
 -4 8 -1 78.35 6.21 0
 -4 8 0 8.18 3.67 0
 -3 -3 11 39.15 4.84 0
 -3 -2 10 76.75 6.62 0
 -3 -2 11 130.9 7.84 0
 -3 0 9 424.46 13.7 0
 -3 1 8 58.55 6.5 0
 -3 1 9 175.07 9.13 0
 -3 1 10 207.94 10.35 0
 -3 2 7 92.87 7.33 0
 -3 2 8 534.87 15.55 0
 -3 2 9 75.32 7.08 0
 -3 3 7 429.53 13.61 0
 -3 4 4 2520.13 30.63 0
 -3 4 6 364.62 12.79 0
 -3 5 2 261.27 9.8 0
 -3 5 5 87.37 7.03 0
 -3 5 6 2.64 3.5 0
 -3 6 -5 307.25 7.9 0
 -3 6 -4 171.68 6.37 0
 -3 6 -3 307.54 8.84 0
 -3 6 -2 41.78 4.36 0
 -3 6 -1 54.23 4.67 0
 -3 6 1 45.39 5.53 0
 -3 6 2 35.11 5.03 0
 -3 6 3 333.91 12.11 0
 -3 6 4 177.37 9.58 0
 -3 6 5 328.96 12.93 0
 -3 7 -6 310.9 6.6 0
 -3 7 -5 14.68 2.28 0
 -3 7 -4 16.47 2.55 0
 -3 7 -3 92.88 5.16 0
 -3 7 -2 334.7 9.84 0
 -3 7 -1 316.35 10.11 0
 -3 7 0 0.24 2.28 0
 -3 7 1 303.61 10.68 0
 -3 7 2 324.81 11.68 0
 -3 7 3 102.33 7.76 0
 -3 7 4 16.96 4.38 0
 -3 8 0 17.82 3.72 0
 -3 8 1 34.71 5.2 0
 -3 8 3 59.89 6.06 0
 -2 -4 10 99.48 5.46 0
 -2 -3 9 350.28 9.85 0
 -2 -3 10 473.98 11.93 0
 -2 -3 11 124.45 6.55 0
 -2 -2 9 558.39 12.96 0
 -2 -2 10 240.71 9.2 0
 -2 -2 11 488.24 12.91 0
 -2 -2 12 40.14 5.01 0
 -2 -1 -13 11.61 4.54 0
 -2 -1 8 261.43 8.98 0
 -2 -1 9 41.71 4.9 0
 -2 -1 11 256.73 10.23 0
 -2 -1 12 15.99 4.04 0
 -2 0 -14 17.16 4.11 0
 -2 0 -12 9.32 3.76 0
 -2 0 8 202.37 8.4 0
 -2 0 9 229.57 9.54 0
 -2 0 10 22.09 4.08 0
 -2 0 11 94.02 7.27 0
 -2 0 12 10.69 3.51 0
 -2 1 -13 8.8 3.45 0
 -2 1 -12 16.9 3.5 0
 -2 1 9 46.75 5.03 0
 -2 1 10 471.96 13.92 0
 -2 1 11 257.29 10.85 0
 -2 2 -13 93.36 5.82 0
 -2 2 -12 51.15 4.5 0
 -2 2 -11 494.6 11.38 0
 -2 2 5 690.2 14.1 0
 -2 2 7 113.48 6.85 0
 -2 2 10 239.11 10.5 0
 -2 3 -12 31.63 3.21 0
 -2 3 -11 120.76 5.12 0
 -2 3 -10 497.18 9.65 0
 -2 3 9 350.17 12.53 0
 -2 3 10 457.3 14.42 0
 -2 4 -10 94.86 3.31 0
 -2 4 -9 22.4 1.95 0
 -2 4 2 150.13 6.49 0
 -2 4 3 330.4 9.77 0
 -2 4 4 176.91 7.7 0
 -2 4 7 298.88 11.21 0
 -2 4 8 22.36 4.73 0
 -2 5 -6 324.9 4.91 0
 -2 5 -5 255.89 5.21 0
 -2 5 -4 161.34 4.6 0
 -2 5 -3 63.83 3.46 0
 -2 5 -2 620.4 10.46 0
 -2 5 -1 183.03 6.21 0
 -2 5 0 7.17 2.22 0
 -2 5 2 604.31 13.09 0
 -2 5 3 60.88 4.95 0
 -2 5 4 153.27 7.88 0
 -2 5 5 250.55 10.08 0
 -2 5 6 327.17 11.72 0
 -2 5 7 1524.98 25.69 0
 -2 6 -4 134.14 4.26 0
 -2 6 -3 220.75 6.16 0
 -2 6 -2 475.83 9.65 0
 -2 6 -1 998.45 15.04 0
 -2 6 0 1.74 2.04 0
 -2 6 1 1035.7 17.17 0
 -2 6 2 481.95 12.57 0
 -2 6 3 209.06 8.72 0
 -2 6 5 666.29 16.06 0
 -1 -11 0 298.86 11.36 0
 -1 -10 -2 256.47 10.86 0
 -1 -6 8 5.51 1.03 0
 -1 -5 -9 509.38 15.34 0
 -1 -5 8 421.9 7.19 0
 -1 -4 8 429.07 8.08 0
 -1 -3 -11 50.11 6.14 0
 -1 -3 -10 117.76 7.96 0
 -1 -3 7 517.41 9.09 0
 -1 -2 -13 170.13 9.74 0
 -1 -2 -12 166.06 9.23 0
 -1 -2 -11 239.07 10.33 0
 -1 -2 7 1376.12 15.47 0
 -1 -1 -14 112.85 7.96 0
 -1 -1 -13 182.31 9.42 0
 -1 -1 -12 100.14 6.82 0
 -1 -1 -11 600.75 14.95 0
 -1 -1 6 879.03 12.72 0
 -1 -1 7 160.1 5.97 0
 -1 -1 9 766.53 14.11 0
 -1 0 -14 539.65 14.84 0
 -1 0 -13 1.59 2.81 0
 -1 0 -12 224.04 9.06 0
 -1 0 -10 146.83 7.1 0
 -1 0 -9 74.4 4.89 0
 -1 0 5 874.92 12.69 0
 -1 0 6 2.5 1.95 0
 -1 0 7 8.82 2.34 0
 -1 1 -13 178.78 8.03 0
 -1 1 -12 93.87 5.82 0
 -1 1 -11 618.13 13.08 0
 -1 1 -10 138.08 6.33 0
 -1 1 -9 741.44 12.89 0
 -1 1 4 147.82 5.31 0
 -1 1 5 946.45 13.9 0
 -1 1 6 848.42 14.01 0
 -1 2 -11 232.85 7.25 0
 -1 2 -10 614.96 10.98 0
 -1 2 -9 447.41 8.92 0
 -1 2 -8 697.25 10.43 0
 -1 2 2 370.93 7.61 0
 -1 2 3 1657.04 16.99 0
 -1 2 4 1005.02 14.36 0
 -1 2 5 1446.44 18.28 0
 -1 2 6 609.81 12.82 0
 -1 3 -8 148.29 3.8 0
 -1 3 -7 497.56 6.11 0
 -1 3 -6 310.92 4.3 0
 -1 3 -1 2233.65 14.88 0
 -1 3 0 5039.69 24.59 0
 -1 3 1 2286.43 18.49 0
 -1 3 2 336.88 7.8 0
 -1 3 3 1098.39 15.02 0
 -1 3 4 722.01 13.01 0
 -1 3 5 406.66 10.64 0
 -1 4 -3 102.85 2.63 0
 -1 4 -1 1100.24 11.64 0
 -1 4 0 5247.39 27.81 0
 -1 4 1 1096.69 14.06 0
 -1 4 3 103.53 5.47 0
 0 -11 -1 15.64 3.73 0
 0 -11 0 0.08 2.31 0
 0 -10 -3 5.14 4.39 0
 0 -10 -2 36.96 5.37 0
 0 -10 -1 442.4 13.13 0
 0 -10 1 432.19 11.31 0
 0 -9 -4 14 4.23 0
 0 -9 -3 2.61 3.67 0
 0 -9 -2 172.32 8.82 0
 0 -9 -1 245.64 9.44 0
 0 -9 0 2.23 2.36 0
 0 -9 1 249.92 8.41 0
 0 -9 3 2.48 1.48 0
 0 -8 -6 19.43 5.51 0
 0 -8 -4 74.07 6.93 0
 0 -8 -3 1031.03 19.6 0
 0 -8 -2 254.14 9.97 0
 0 -8 -1 1091.22 18.4 0
 0 -8 0 319.06 9.43 0
 0 -8 1 1070.67 15.98 0
 0 -8 3 1040.31 12.85 0
 0 -7 -6 13.68 4.36 0
 0 -7 -5 -1.05 2.88 0
 0 -7 -4 621 15.24 0
 0 -7 -3 607.04 14.43 0
 0 -7 -2 1395.21 20.72 0
 0 -7 -1 865.79 15.62 0
 0 -7 0 0.82 2.22 0
 0 -7 1 862.15 13.44 0
 0 -7 4 611.46 7.24 0
 0 -6 -8 82.66 7.53 0
 0 -6 -7 410.08 13.43 0
 0 -6 -6 178.75 8.88 0
 0 -6 -5 18.12 4.3 0
 0 -6 -4 1966.5 25.44 0
 0 -6 -1 28.55 3.64 0
 0 -6 1 27.8 2.93 0
 0 -6 3 29.29 2.1 0
 0 -6 4 1954.61 10.94 0
 0 -5 -10 136.38 8.95 0
 0 -5 -9 84.05 7 0
 0 -5 -8 118.67 7.65 0
 0 -5 -7 579.62 15.01 0
 0 -5 -6 174.63 8.3 0
 0 -5 3 1033.47 8.89 0
 0 -4 -11 63.07 7.85 0
 0 -4 -8 107.26 6.97 0
 0 -4 -5 2402.5 26.08 0
 0 -4 -4 453.11 11.18 0
 0 -3 -12 7.55 3.93 0
 0 -3 -10 517.81 14.64 0
 0 -3 -9 1102.39 20.45 0
 0 -3 -8 432.47 12.34 0
 0 -3 -6 78.35 5.53 0
 0 -3 -5 470.25 10.97 0
 0 -3 -4 521.88 10.86 0
 0 -2 -11 31.94 4.95 0
 0 -2 -9 516.86 13.26 0
 0 -2 -8 479.12 12.19 0
 0 -2 -5 21.31 3.19 0
 0 -2 -4 4304.83 27.84 0
 0 -1 -11 285.2 10.3 0
 0 -1 -10 0.68 2.44 0
 0 -1 -9 293.57 9.38 0
 0 -1 -8 655.31 13.37 0
 0 -1 -5 8256.59 37.7 0
 0 -1 -4 432.53 8.14 0
 0 -1 -3 6.97 1.6 0
 0 0 -10 12.16 3.6 0
 0 0 -9 3.65 2.19 0
 0 0 -8 1663.66 19.22 0
 0 0 -7 -1.14 1.66 0
 0 0 -6 1182.2 14.17 0
 0 0 -5 0.11 1.58 0
 0 0 -3 1.54 1.04 0
 0 0 -2 6126.21 18.41 0
 0 1 -5 8430.82 29.7 0
 1 -8 -6 195.5 10.96 0
 1 -8 -4 400.52 13.48 0
 1 -8 -3 515.31 14.24 0
 1 -7 -7 156.88 9.17 0
 1 -7 -5 345.72 12.3 0
 1 -7 -4 130.83 7.77 0
 1 -6 -8 10.14 4.1 0
 1 -6 -7 638.88 16.63 0
 1 -6 -6 341.3 12.14 0
 1 -6 -5 369.54 11.83 0
 1 -6 -2 324.85 9.67 0
 1 -5 -8 423.94 13.99 0
 1 -5 -7 554.81 14.9 0
 1 -5 -6 484.84 13.51 0
 1 -5 -5 456.53 12.43 0
 1 -5 -4 735.8 15.05 0
 1 -5 -3 309.42 9.26 0
 1 -4 -7 9.11 3.19 0
 1 -4 -6 214.62 9.2 0
 1 -4 -5 1630.32 21.91 0
 1 -4 -4 1338.05 19.35 0
 -8 -4 -2 72.65 9.62 0
 -8 -4 -1 90.81 11.29 0
 -8 -4 0 49.1 8.55 0
 -8 -3 -1 30.21 6.76 0
 -7 -8 -3 130.42 13.31 0
 -7 -8 -2 4.67 7.37 0
 -7 -8 0 -0.33 6.55 0
 -7 -8 1 78.4 11.79 0
 -7 -7 -6 -1.62 5.82 0
 -7 -7 -5 11.65 6.28 0
 -7 -7 -4 30.82 7.9 0
 -7 -7 -3 48.5 9.19 0
 -7 -7 -2 16.97 7.79 0
 -7 -7 -1 21.75 8.38 0
 -7 -7 0 3.94 5.84 0
 -7 -7 1 25.57 8.07 0
 -7 -6 -5 45.13 8.69 0
 -7 -6 -4 6.33 5.9 0
 -7 -6 -3 40.29 8.12 0
 -7 -6 -2 46.27 8.94 0
 -7 -6 -1 1.61 6.13 0
 -7 -6 1 5.79 6.05 0
 -7 -5 -6 91.67 9.94 0
 -7 -5 -5 11.01 6.27 0
 -7 -5 -4 17.51 6.56 0
 -7 -5 -3 2.48 5.53 0
 -7 -5 -2 31.59 7.62 0
 -7 -5 -1 299.1 16.47 0
 -7 -5 0 51.09 9.1 0
 -7 -4 -5 26.11 6.21 0
 -7 -4 -4 43.51 7.37 0
 -7 -4 -3 3.36 4.8 0
 -7 -4 -2 15.69 6.06 0
 -7 -4 -1 159.83 12.36 0
 -7 -3 -4 129.7 9.93 0
 -7 -3 -3 84.6 9.01 0
 -7 -3 -2 117.73 10.33 0
 -7 -2 -4 7.58 4.45 0
 -7 -2 -3 146.22 10.36 0
 -7 -1 -3 158.95 9.9 0
 -6 -10 -5 2.08 6.89 0
 -6 -10 -4 73.77 11.97 0
 -6 -10 -3 17.86 8.59 0
 -6 -10 -1 11.71 7.33 0
 -6 -10 0 13.52 7.26 0
 -6 -10 1 16.06 8.59 0
 -6 -10 2 -3.44 7.44 0
 -6 -10 3 18.11 9.2 0
 -6 -9 -8 7.88 6.81 0
 -6 -9 -7 -0.46 5.24 0
 -6 -9 -5 121.32 12.3 0
 -6 -9 -4 14.65 7.91 0
 -6 -9 -2 139.17 13.28 0
 -6 -9 0 40.73 9.17 0
 -6 -9 2 124.92 13.25 0
 -6 -9 3 95.25 11.93 0
 -6 -9 4 5.17 6.67 0
 -6 -9 6 100.26 12.07 0
 -6 -8 -9 9.19 5.74 0
 -6 -8 -8 39.82 7.84 0
 -6 -8 -7 30.3 7.55 0
 -6 -8 -6 33.64 7.78 0
 -6 -8 -5 65.12 9.83 0
 -6 -8 -4 39.81 8.24 0
 -6 -8 -3 37.17 9.12 0
 -6 -8 -2 8.85 6.78 0
 -6 -8 0 17.76 7.03 0
 -6 -8 2 12.79 6.78 0
 -6 -7 -9 18.82 6.2 0
 -6 -7 -8 21.16 6.48 0
 -6 -7 -7 76.12 9.31 0
 -6 -7 -6 89.28 10.47 0
 -6 -7 -4 92.8 10.2 0
 -6 -7 -3 16.96 7.07 0
 -6 -7 -2 149.9 12.56 0
 -6 -7 -1 53.51 8.48 0
 -6 -7 0 33.45 7.68 0
 -6 -7 1 48.79 9.38 0
 -6 -6 -9 7.65 5.05 0
 -6 -6 -8 5.04 4.82 0
 -6 -6 -6 20.09 5.98 0
 -6 -6 -5 60.13 9.08 0
 -6 -6 -4 193.18 13.13 0
 -6 -6 -3 103.59 10.6 0
 -6 -6 -2 175.29 12.15 0
 -6 -6 -1 295.72 15.37 0
 -6 -5 -8 102.56 9.01 0
 -6 -5 -7 24.48 5.82 0
 -6 -5 -6 4.56 4.68 0
 -6 -5 -5 6.27 5.16 0
 -6 -5 -4 8.09 4.88 0
 -6 -5 -3 82.13 8.68 0
 -6 -5 -2 -0.75 4.45 0
 -6 -4 -7 12.75 5.27 0
 -6 -4 -6 35.22 6.24 0
 -6 -4 -5 29.66 5.82 0
 -6 -4 -4 11.15 5.26 0
 -6 -4 -3 9.74 4.77 0
 -6 -4 -2 72.68 7.89 0
 -6 -3 -7 57.2 6.76 0
 -6 -3 -6 83.5 7.45 0
 -6 -3 -5 15.76 4.84 0
 -6 -3 -4 11.34 4.42 0
 -6 -3 -3 104.54 8.7 0
 -6 -2 -6 61.21 6.39 0
 -6 -2 -5 2.41 3.61 0
 -6 -2 -4 19.09 4.78 0
 -6 -1 -5 34.34 4.82 0
 -6 -1 -4 49.7 6.26 0
 -6 0 -5 16.54 3.81 0
 -6 0 -4 2.29 2.91 0
 -5 -12 -3 40.58 10.22 0
 -5 -12 -2 28.33 8.69 0
 -5 -12 -1 63.85 10.49 0
 -5 -12 0 5.37 7.07 0
 -5 -12 2 21.78 8.57 0
 -5 -12 3 39.24 9.73 0
 -5 -11 -7 14.96 7.74 0
 -5 -11 -6 5 6.13 0
 -5 -11 -4 45.71 9.87 0
 -5 -11 -3 1.57 6.99 0
 -5 -11 -2 204.51 15.08 0
 -5 -11 -1 -3.96 6.06 0
 -5 -11 0 10.36 6.78 0
 -5 -11 1 1.47 5.93 0
 -5 -11 2 212.7 15.71 0
 -5 -11 3 5.49 6.65 0
 -5 -11 4 50.97 9.8 0
 -5 -11 5 33.79 8.77 0
 -5 -11 6 0.42 6.79 0
 -5 -11 7 8.64 7.25 0
 -5 -10 -9 3.82 6.09 0
 -5 -10 -7 133.21 12.18 0
 -5 -10 -5 27.29 8.05 0
 -5 -10 -4 15.82 7.4 0
 -5 -10 -3 103.08 12.07 0
 -5 -10 -1 80.58 10.37 0
 -5 -10 1 86.03 10.91 0
 -5 -10 2 47.21 8.82 0
 -5 -10 3 98.57 12.01 0
 -5 -10 4 27.54 7.97 0
 -5 -10 5 35.38 9.04 0
 -5 -10 6 113.43 11.93 0
 -5 -10 7 134.31 12.85 0
 -5 -10 8 22.24 7.71 0
 -5 -10 9 8.43 6.7 0
 -5 -9 -11 43.67 8.67 0
 -5 -9 -10 21.2 7.4 0
 -5 -9 -8 55.8 9.74 0
 -5 -9 -7 59.15 9.22 0
 -5 -9 -6 47.03 8.73 0
 -5 -9 -5 100.7 11.33 0
 -5 -9 -4 5.05 6.13 0
 -5 -9 -3 110.68 11.37 0
 -5 -9 -1 79.95 10.32 0
 -5 -9 2 1.25 5.09 0
 -5 -9 3 142.58 13 0
 -5 -9 4 8.48 6.58 0
 -5 -9 5 129.93 11.46 0
 -5 -8 -12 0.24 4.6 0
 -5 -8 -10 12.31 6.03 0
 -5 -8 -9 30.74 7.31 0
 -5 -8 -8 91.18 9.84 0
 -5 -8 -7 44.5 7.63 0
 -5 -8 -6 74.49 9.44 0
 -5 -8 -5 -4.03 4.67 0
 -5 -8 -4 116.89 11.27 0
 -5 -8 -3 25.47 6.83 0
 -5 -8 -2 64.63 9.12 0
 -5 -8 -1 30.74 7.27 0
 -5 -8 0 188.18 12.64 0
 -5 -8 1 38.36 7.54 0
 -5 -8 2 64.73 9.33 0
 -5 -7 -12 78.59 9.23 0
 -5 -7 -11 1.29 4.63 0
 -5 -7 -10 18.62 6.23 0
 -5 -7 -9 60.07 8.46 0
 -5 -7 -8 88.95 10.01 0
 -5 -7 -7 148.15 10.92 0
 -5 -7 -5 161.79 11.8 0
 -5 -7 -3 66.52 8.7 0
 -5 -7 -2 158.05 11.83 0
 -5 -7 -1 87.42 8.71 0
 -5 -7 0 24.35 6.17 0
 -5 -6 -11 2.52 4.05 0
 -5 -6 -10 160.16 10.77 0
 -5 -6 -9 33.31 6.4 0
 -5 -6 -8 72.6 8.4 0
 -5 -6 -7 12.14 4.99 0
 -5 -6 -6 19.43 6.22 0
 -5 -6 -5 5.83 4.67 0
 -5 -6 -4 2.79 4.39 0
 -5 -6 -3 76.94 8.42 0
 -5 -6 -2 155.86 10.57 0
 -5 -6 -1 22.74 6.49 0
 -5 -5 -11 39.3 6.49 0
 -5 -5 -10 69.89 7.34 0
 -5 -5 -9 25.04 5.47 0
 -5 -5 -8 11.88 4.59 0
 -5 -5 -7 68.15 7.78 0
 -5 -5 -6 137.4 9.78 0
 -5 -5 -5 7.85 4.35 0
 -5 -5 -3 89.89 8.35 0
 -5 -5 -2 290.66 13.49 0
 -5 -4 -10 32.1 5.49 0
 -5 -4 -8 21.37 4.76 0
 -5 -4 -5 5.57 4.28 0
 -5 -4 -4 64.16 7.56 0
 -5 -4 -3 224.22 11.33 0
 -5 -3 -10 244 9.97 0
 -5 -3 -9 23.71 4.41 0
 -5 -3 -8 101.9 7.06 0
 -5 -3 -7 15.17 4.52 0
 -5 -3 -6 34.47 5.25 0
 -5 -3 -5 150.21 8.77 0
 -5 -3 -3 181.57 9.33 0
 -5 -2 -9 67.64 5.4 0
 -5 -2 -7 19.77 4.01 0
 -5 -2 -5 383.15 12.18 0
 -5 -2 -4 79.44 6.67 0
 -5 0 -7 31.82 3.79 0
 -5 0 -6 138.04 6.38 0
 -5 0 -5 131.71 6.64 0
 -5 1 -6 220.49 6.82 0
 -5 1 -5 12.76 2.89 0
 -5 2 -5 409.57 8.76 0
 -4 -13 -5 41.97 9.32 0
 -4 -13 -4 17.52 8.85 0
 -4 -13 -3 59.75 10.43 0
 -4 -13 -2 11.86 7 0
 -4 -13 -1 26.89 9 0
 -4 -13 0 3.1 7.98 0
 -4 -13 1 40.93 10 0
 -4 -13 2 11.46 6.86 0
 -4 -13 4 7.6 6.83 0
 -4 -13 5 36.42 9.16 0
 -4 -12 -8 5.25 6.61 0
 -4 -12 -7 123.68 12.27 0
 -4 -12 -6 154.17 13.58 0
 -4 -12 -5 40.92 9.54 0
 -4 -12 -3 83.36 10.99 0
 -4 -12 -2 31.19 9.15 0
 -4 -12 -1 114.26 11.62 0
 -4 -12 0 344.77 18.41 0
 -4 -12 1 125.87 12.57 0
 -4 -12 2 29.28 8.31 0
 -4 -12 3 86.85 11.15 0
 -4 -12 4 8.65 6.92 0
 -4 -12 5 34.64 8.1 0
 -4 -12 6 129.08 12.8 0
 -4 -12 8 0.77 7.03 0
 -4 -12 9 47.7 9.53 0
 -4 -11 -10 10.81 7.06 0
 -4 -11 -8 65.98 10.07 0
 -4 -11 -6 55.99 10.26 0
 -4 -11 -4 96.79 12.07 0
 -4 -11 -3 46.02 8.97 0
 -4 -11 -2 45.52 8.57 0
 -4 -11 1 68.05 9.88 0
 -4 -11 2 34.77 8.44 0
 -4 -11 3 33.41 8.43 0
 -4 -11 4 93.86 10.71 0
 -4 -11 5 127.02 12.37 0
 -4 -11 6 76 10.37 0
 -4 -11 7 94.13 11.51 0
 -4 -11 8 67.03 9.87 0
 -4 -11 9 23.58 7.19 0
 -4 -11 10 2.74 5.52 0
 -4 -11 11 84 10.44 0
 -4 -10 -12 12.86 7.08 0
 -4 -10 -11 27.91 7.7 0
 -4 -10 -10 2.69 5.6 0
 -4 -10 -9 18.26 7.9 0
 -4 -10 -8 38.17 7.97 0
 -4 -10 -6 28.76 7.1 0
 -4 -10 -5 0.76 5.16 0
 -4 -10 -3 39.07 8.43 0
 -4 -10 -2 137 11.82 0
 -4 -10 -1 25.35 6.87 0
 -4 -10 2 141.09 12.08 0
 -4 -10 3 31.7 7.62 0
 -4 -10 4 97.26 11.17 0
 -4 -10 5 5.58 6.04 0
 -4 -10 6 35.46 7.58 0
 -4 -10 7 9.84 5.95 0
 -4 -10 8 22.05 7 0
 -4 -9 -12 46.56 8.56 0
 -4 -9 -11 73.89 9.59 0
 -4 -9 -10 11.21 6.02 0
 -4 -9 -9 158.9 11.8 0
 -4 -9 -8 18.7 6.34 0
 -4 -9 -7 44.46 8.32 0
 -4 -9 -6 9.58 5.74 0
 -4 -9 -5 139.12 11.16 0
 -4 -9 -4 114.73 10.41 0
 -4 -9 -3 229.33 14.02 0
 -4 -9 -2 21.07 5.99 0
 -4 -9 -1 32.79 7.1 0
 -4 -9 0 35.25 7.68 0
 -4 -9 1 30.2 7.05 0
 -4 -9 2 21.5 6.06 0
 -4 -9 3 214.41 12.88 0
 -4 -8 -12 25.8 7.32 0
 -4 -8 -11 9.8 5.45 0
 -4 -8 -9 121.99 10.94 0
 -4 -8 -8 66.67 9.26 0
 -4 -8 -7 228.76 13.54 0
 -4 -8 -5 326.41 15.5 0
 -4 -8 -4 101.16 9.04 0
 -4 -8 -3 23.26 5.98 0
 -4 -8 -2 301.05 14.76 0
 -4 -8 -1 90.13 9.33 0
 -4 -8 0 7.72 4.7 0
 -4 -8 1 81.62 8.67 0
 -4 -8 2 328.03 15.21 0
 -4 -7 -12 8 4.92 0
 -4 -7 -11 11.09 5.49 0
 -4 -7 -10 73.98 8.26 0
 -4 -7 -9 30.16 6.85 0
 -4 -7 -8 64.36 7.85 0
 -4 -7 -6 131.03 10.23 0
 -4 -7 -5 0.96 4.14 0
 -4 -7 -4 143.94 9.88 0
 -4 -7 -3 127.22 9.39 0
 -4 -7 -2 62.16 7.55 0
 -4 -7 -1 32.9 6.62 0
 -4 -7 0 230.2 12.09 0
 -4 -7 1 34.75 6.06 0
 -4 -6 -11 28.42 5.9 0
 -4 -6 -9 38.98 6.37 0
 -4 -6 -8 77.67 7.59 0
 -4 -6 -6 82.31 7.9 0
 -4 -6 -5 215.4 11.55 0
 -4 -6 -4 410.5 14.89 0
 -4 -6 -3 209.38 11.2 0
 -4 -6 -1 204.36 11.02 0
 -4 -5 -12 42.66 6.18 0
 -4 -5 -11 5.03 4.14 0
 -4 -5 -10 45.82 6.2 0
 -4 -5 -9 28.76 5.41 0
 -4 -5 -6 66.1 7.12 0
 -4 -5 -5 358.47 13.08 0
 -4 -5 -4 468.51 14.85 0
 -4 -5 -3 253.91 11.28 0
 -4 -5 -2 143.47 8.94 0
 -4 -4 -10 391.65 13.14 0
 -4 -4 -9 104.47 7.57 0
 -4 -4 -8 573.66 15.63 0
 -4 -4 -7 242.84 10.68 0
 -4 -4 -6 11.11 4.58 0
 -4 -4 -5 95.2 7.16 0
 -4 -4 -3 16.97 4.3 0
 -4 -3 -11 18.42 3.8 0
 -4 -3 -10 5.4 3.4 0
 -4 -3 -9 36.24 5.06 0
 -4 -2 -7 26.93 4.06 0
 -4 -1 -10 16.01 2.65 0
 -4 -1 -8 183.07 6.75 0
 -4 -1 -7 45.8 4.19 0
 -4 -1 -6 158.8 6.62 0
 -4 -1 -5 292.93 8.91 0
 -4 0 -9 570.81 9.15 0
 -4 0 -8 645.16 10.28 0
 -4 0 -7 5.97 1.8 0
 -4 0 -6 108.97 5.04 0
 -4 0 -5 190.4 6.63 0
 -4 1 -7 48.26 2.69 0
 -4 1 -6 171.42 5.16 0
 -4 1 -5 294.49 7.09 0
 -4 2 -6 118.68 3.21 0
 -4 2 -5 312.57 6.3 0
 -4 3 -5 67.5 2.38 0
 -3 -14 -5 8.08 7.19 0
 -3 -14 -4 13.26 8.11 0
 -3 -14 -3 31.38 8.56 0
 -3 -14 -1 -2.83 5.81 0
 -3 -14 0 93.24 11.36 0
 -3 -14 1 1.52 5.91 0
 -3 -14 2 4.83 7.27 0
 -3 -14 3 27.98 8.2 0
 -3 -14 4 1.58 5.75 0
 -3 -14 5 15.46 7.81 0
 -3 -13 -8 3.42 6.48 0
 -3 -13 -7 118.55 13.4 0
 -3 -13 -6 33.82 9.3 0
 -3 -13 -4 -1.61 6.04 0
 -3 -13 -3 175.13 13.57 0
 -3 -13 -1 37.32 8.7 0
 -3 -13 0 16.64 7.16 0
 -3 -13 1 21.24 7.73 0
 -3 -13 2 19.07 7.84 0
 -3 -13 3 142.1 12.2 0
 -3 -13 4 -1.08 5.45 0
 -3 -13 6 34.79 7.95 0
 -3 -13 7 116.6 11.48 0
 -3 -13 8 10.71 5.88 0
 -3 -13 9 135.61 12.18 0
 -3 -12 -10 29.61 8.21 0
 -3 -12 -9 0.39 6.12 0
 -3 -12 -8 33.71 8.25 0
 -3 -12 -6 118.67 11.51 0
 -3 -12 -5 226.82 14.76 0
 -3 -12 -4 59.36 9.98 0
 -3 -12 -3 26.65 7.25 0
 -3 -12 -2 48.4 8.74 0
 -3 -12 -1 19.6 6.72 0
 -3 -12 0 1.43 6.59 0
 -3 -12 2 60.33 9.69 0
 -3 -12 3 26.85 8.14 0
 -3 -12 5 242.48 14.81 0
 -3 -12 6 129.51 11.31 0
 -3 -12 7 178.15 12.92 0
 -3 -12 8 26.54 7.07 0
 -3 -12 9 10.2 5.9 0
 -3 -12 10 24.35 7.01 0
 -3 -12 11 61.55 9.37 0
 -3 -11 -10 56.74 9.86 0
 -3 -11 -8 9.18 6.19 0
 -3 -11 -7 22.45 7.73 0
 -3 -11 -5 82.25 10.73 0
 -3 -11 -4 21.88 7.75 0
 -3 -11 -1 14.88 5.92 0
 -3 -11 0 263.74 14.89 0
 -3 -11 1 24.22 7.11 0
 -3 -11 2 223.56 13.45 0
 -3 -11 3 132.5 10.85 0
 -3 -11 4 21.73 6.45 0
 -3 -11 5 94.96 10.52 0
 -3 -11 6 65.61 8.98 0
 -3 -11 7 10.55 5.79 0
 -3 -11 8 3.97 5.08 0
 -3 -11 10 48.69 8.67 0
 -3 -11 11 12.74 5.76 0
 -3 -11 12 15.09 5.86 0
 -3 -10 -11 18.5 7.52 0
 -3 -10 -10 33.85 7.88 0
 -3 -10 -9 108.6 11.72 0
 -3 -10 -8 102.36 10.2 0
 -3 -10 -6 49.95 8.3 0
 -3 -10 -5 354.13 16.31 0
 -3 -10 -4 115.68 11.15 0
 -3 -10 -3 355.23 16.39 0
 -3 -10 -2 234.08 13.84 0
 -3 -10 -1 49.56 8.47 0
 -3 -10 0 43.61 7.45 0
 -3 -10 1 54.96 8.1 0
 -3 -10 2 229.4 12.88 0
 -3 -10 3 363.8 16.42 0
 -3 -10 4 102.74 10 0
 -3 -10 5 360.12 16.25 0
 -3 -10 6 47.34 7.67 0
 -3 -10 7 10.3 6.01 0
 -3 -10 8 93.24 10.02 0
 -3 -10 9 128.3 10.95 0
 -3 -10 10 32.83 7.03 0
 -3 -10 11 10.53 5.34 0
 -3 -10 12 9.04 4.91 0
 -3 -10 13 88.97 9.16 0
 -3 -9 -11 45.78 8.25 0
 -3 -9 -10 18.11 6.05 0
 -3 -9 -8 183.23 12.22 0
 -3 -9 -7 104.76 10.07 0
 -3 -9 -6 67.6 8.28 0
 -3 -9 -5 28.56 6.73 0
 -3 -9 -2 135.14 9.86 0
 -3 -9 -1 109.7 9.24 0
 -3 -9 1 107.28 9 0
 -3 -9 2 144.1 10.46 0
 -3 -9 3 133.99 9.72 0
 -3 -9 5 29.68 6.83 0
 -3 -8 -11 6.91 5.12 0
 -3 -8 -10 44.03 7.5 0
 -3 -8 -9 42.22 7.06 0
 -3 -8 -8 53.19 7.66 0
 -3 -8 -7 54.75 7.43 0
 -3 -8 -5 130.39 9.49 0
 -3 -8 -4 84.47 7.93 0
 -3 -8 -3 68.01 7.42 0
 -3 -8 -2 144.41 9.8 0
 -3 -8 -1 33.1 5.98 0
 -3 -8 0 16.28 4.76 0
 -3 -8 1 31.78 5.82 0
 -3 -8 2 139.83 9.7 0
 -3 -8 3 65.6 7.08 0
 -3 -7 -10 16.15 6.06 0
 -3 -7 -9 35.08 6.27 0
 -3 -7 -7 423.2 15.32 0
 -3 -7 -5 6.86 4.65 0
 -3 -7 -4 17.36 4.67 0
 -3 -7 -3 96.57 7.74 0
 -3 -7 -2 331.71 13 0
 -3 -7 -1 305.97 12.35 0
 -3 -7 0 3.91 3.98 0
 -3 -6 -10 27.09 6.35 0
 -3 -6 -9 87.58 8.2 0
 -3 -6 -8 34.51 5.57 0
 -3 -6 -7 289.78 12.03 0
 -3 -6 -6 157.26 9.14 0
 -3 -6 -5 300.61 12.09 0
 -3 -6 -4 162.97 9.39 0
 -3 -6 -3 313.37 12.06 0
 -3 -6 -2 46.18 5.72 0
 -3 -6 -1 48.62 5.38 0
 -3 -6 0 28.09 4.81 0
 -3 -5 -11 68.62 6.71 0
 -3 -5 -10 495.86 15.15 0
 -3 -5 -9 385.23 13.52 0
 -3 -5 -8 164.85 9.08 0
 -3 -5 -6 2.9 3.43 0
 -3 -5 -5 89.65 6.58 0
 -3 -5 -4 9.1 3.64 0
 -3 -4 -11 7.22 3.54 0
 -3 -4 -10 50.7 5.6 0
 -3 -4 -9 145.88 8.12 0
 -3 -3 -7 431.05 11.58 0
 -3 -3 -6 542.05 12.72 0
 -3 -3 -5 416.08 11.11 0
 -3 -3 -4 157.8 6.98 0
 -3 -3 -3 333.84 9.87 0
 -3 -2 -10 66.62 5.1 0
 -3 -2 -8 557.62 11.89 0
 -3 -2 -7 91.52 5.2 0
 -3 -2 -6 177.12 7.14 0
 -3 -2 -5 154.49 6.59 0
 -3 -2 -4 174.82 6.73 0
 -3 -1 -9 161.54 5.93 0
 -3 -1 -8 59.8 4 0
 -3 -1 -7 624.65 11.15 0
 -3 -1 -6 311.68 7.95 0
 -3 -1 -5 491.24 9.86 0
 -3 -1 -4 521.53 10.32 0
 -3 0 -8 2.16 1.48 0
 -3 0 -7 6.01 1.69 0
 -3 0 -5 1064.97 12.61 0
 -3 0 -4 323.23 7.13 0
 -3 1 -7 597.22 6.71 0
 -3 1 -6 310.51 5.36 0
 -3 1 -5 488.25 7.17 0
 -3 2 -5 144.68 2.93 0
 -3 3 -4 159.81 3.18 0
 -3 4 -4 2539.23 10.92 0
 -3 5 -4 9.82 1.21 0
 -2 -15 -3 11.84 7.54 0
 -2 -15 -2 12.17 7.48 0
 -2 -15 -1 6.44 7.51 0
 -2 -15 0 1.78 5.62 0
 -2 -15 1 5.46 6.75 0
 -2 -15 2 11.24 6.21 0
 -2 -15 3 15.55 6.78 0
 -2 -15 4 76.53 10.38 0
 -2 -15 5 68.16 9.56 0
 -2 -14 -7 39.31 10.08 0
 -2 -14 -5 35.43 9.61 0
 -2 -14 -1 27.69 7.66 0
 -2 -14 0 270.67 16.23 0
 -2 -14 1 29.88 8.34 0
 -2 -14 2 20.07 7.06 0
 -2 -14 3 59.48 10.4 0
 -2 -14 4 147.34 12.27 0
 -2 -14 5 20.12 6.35 0
 -2 -14 6 156.86 12.2 0
 -2 -14 7 38.06 8.13 0
 -2 -13 -8 85.33 10.94 0
 -2 -13 -7 14.33 7.16 0
 -2 -13 -6 71.17 11.25 0
 -2 -13 -5 211.06 14.34 0
 -2 -13 -3 104.05 10.81 0
 -2 -13 -2 26.52 7.44 0
 -2 -13 0 4.22 6.05 0
 -2 -13 1 43.57 7.94 0
 -2 -13 2 28.18 6.86 0
 -2 -13 3 123.77 11.44 0
 -2 -13 5 193.44 13.12 0
 -2 -13 6 76.42 9.42 0
 -2 -13 7 14.14 6.37 0
 -2 -13 8 84.84 9.32 0
 -2 -12 -9 45.9 8.98 0
 -2 -12 -8 25.34 7.56 0
 -2 -12 -7 138.06 12.09 0
 -2 -12 -5 47.72 8.87 0
 -2 -12 -4 4.57 5.65 0
 -2 -12 -3 48.51 8.12 0
 -2 -12 -1 25.91 6.74 0
 -2 -12 0 107.57 10.13 0
 -2 -12 1 20.3 6.05 0
 -2 -12 2 98.47 9.77 0
 -2 -12 4 10.12 5.61 0
 -2 -12 5 58.02 8.48 0
 -2 -12 6 31.22 7.03 0
 -2 -12 7 129.91 10.83 0
 -2 -12 8 32.88 7.22 0
 -2 -12 9 35.55 6.71 0
 -2 -11 -10 7.08 6.51 0
 -2 -11 -8 24.98 6.97 0
 -2 -11 -5 87.9 9.29 0
 -2 -11 -4 180.29 12.04 0
 -2 -11 -3 293.87 14.65 0
 -2 -11 -2 200.73 12.74 0
 -2 -11 0 149.6 10.86 0
 -2 -11 3 305.09 14.64 0
 -2 -11 4 163.47 11.3 0
 -2 -11 5 106.75 9.22 0
 -2 -11 6 11.89 5.44 0
 -2 -11 7 92.88 8.7 0
 -2 -11 8 27.72 6.03 0
 -2 -11 9 190.58 11.39 0
 -2 -11 10 5.33 4.86 0
 -2 -11 11 52.99 7.42 0
 -2 -10 -10 98.69 10.11 0
 -2 -10 -9 1.91 4.92 0
 -2 -10 -7 20.4 5.99 0
 -2 -10 -6 116.36 9.84 0
 -2 -10 -5 113.13 9.92 0
 -2 -10 -4 126 10.34 0
 -2 -10 -3 314.58 14.57 0
 -2 -10 -1 31.4 6.31 0
 -2 -10 0 5.32 4.98 0
 -2 -10 1 27.98 5.94 0
 -2 -10 2 8.27 4.61 0
 -2 -10 3 337.88 14.11 0
 -2 -10 4 129.05 9.52 0
 -2 -10 5 120.11 9.27 0
 -2 -10 6 101.7 8.42 0
 -2 -10 7 15.11 5.64 0
 -2 -10 8 41.47 6.58 0
 -2 -10 9 13.3 5.09 0
 -2 -10 10 97 9.02 0
 -2 -10 11 97.24 8.35 0
 -2 -10 12 176.41 10.66 0
 -2 -9 -9 25.37 6.45 0
 -2 -9 -8 399.76 16.44 0
 -2 -9 -6 62.28 7.44 0
 -2 -9 -3 75.95 8.18 0
 -2 -9 -2 83.68 7.81 0
 -2 -9 0 276.65 12.64 0
 -2 -9 1 168.56 10.32 0
 -2 -9 2 89.93 7.57 0
 -2 -9 3 78.9 7.35 0
 -2 -9 4 141.52 9.46 0
 -2 -9 6 62.32 7.71 0
 -2 -9 8 372.74 14.06 0
 -2 -8 -10 62.54 8.01 0
 -2 -8 -9 112.24 9.08 0
 -2 -8 -8 78.16 7.8 0
 -2 -8 -7 23.6 5.42 0
 -2 -8 -6 19.11 4.97 0
 -2 -8 -4 62.39 7.46 0
 -2 -8 -3 148.77 9.37 0
 -2 -8 -2 44.62 6.18 0
 -2 -8 -1 157.42 9.16 0
 -2 -8 0 200.98 10.33 0
 -2 -8 1 177 9.44 0
 -2 -8 2 47.17 6 0
 -2 -8 3 147.94 8.62 0
 -2 -8 4 64.58 6.44 0
 -2 -7 -10 13.69 5.14 0
 -2 -7 -8 3.49 3.84 0
 -2 -7 -6 324.63 12.84 0
 -2 -7 -5 170.95 9.43 0
 -2 -7 -3 170.86 9.19 0
 -2 -7 -1 157.81 8.41 0
 -2 -7 0 1.23 2.96 0
 -2 -7 1 163.94 8.92 0
 -2 -7 2 214.47 9.53 0
 -2 -6 -10 28.11 5.28 0
 -2 -6 -8 23.04 4.88 0
 -2 -6 -6 23.99 4.71 0
 -2 -5 -10 35.32 5.27 0
 -2 -5 -8 43.28 5.26 0
 -2 -5 -3 61.83 5.59 0
 -2 -5 -2 594.64 13.62 0
 -2 -5 -1 196.98 8.33 0
 -2 -4 -10 102.18 7.07 0
 -2 -4 -6 163.58 7.42 0
 -2 -4 -5 56.89 5.3 0
 -2 -4 -4 176.76 7.36 0
 -2 -4 -2 148.26 6.57 0
 -2 -3 -8 222.81 8.47 0
 -2 -3 -7 3.81 2.43 0
 -2 -3 -6 2078.98 22.6 0
 -2 -3 -4 141.36 6.08 0
 -2 -3 -3 171.1 6.48 0
 -2 -3 -2 2521.5 23.22 0
 -2 -2 -8 237.15 7.58 0
 -2 -2 -7 121.68 5.74 0
 -2 -2 -6 1411.62 16.86 0
 -2 -2 -5 693.07 11.71 0
 -2 -2 -4 547.29 10.17 0
 -2 -2 -3 123.11 5.3 0
 -2 -1 -8 267.54 7.45 0
 -2 -1 -7 26.84 2.73 0
 -2 -1 -6 3.37 1.95 0
 -2 -1 -5 74.61 3.8 0
 -2 -1 -4 1008.8 12.04 0
 -2 -1 -3 1871.47 15.98 0
 -2 0 -6 89.3 3.4 0
 -2 0 -5 645.37 8.2 0
 -2 0 -4 2267.85 14.97 0
 -2 1 -5 63.95 1.99 0
 -2 1 -4 951.9 7.4 0
 -2 3 -3 170.24 2.91 0
 -2 4 -3 330.87 4.8 0
 -1 -15 -5 87.63 13.08 0
 -1 -15 -3 8.49 6.38 0
 -1 -15 -2 59.5 9.6 0
 -1 -15 -1 37.83 8.65 0
 -1 -15 0 28.67 7.87 0
 -1 -15 1 35.96 8.01 0
 -1 -15 2 49.63 8.35 0
 -1 -15 3 15.63 6.28 0
 -1 -14 -6 54.06 9.77 0
 -1 -14 -5 78.96 10.9 0
 -1 -14 -4 66.97 10.24 0
 -1 -14 -3 75.59 10.42 0
 -1 -14 -2 -2.95 5.08 0
 -1 -14 -1 115.16 10.91 0
 -1 -14 0 -0.46 5.11 0
 -1 -14 1 120.37 11.09 0
 -1 -14 2 0.97 4.93 0
 -1 -14 3 92.21 9.22 0
 -1 -14 4 52.92 7.76 0
 -1 -14 5 74.39 8.92 0
 -1 -14 6 65.72 8.45 0
 -1 -13 -7 58.45 10.2 0
 -1 -13 -6 1.49 5.52 0
 -1 -13 -5 109.11 12.01 0
 -1 -13 -3 35.2 7.98 0
 -1 -13 -2 12.14 5.81 0
 -1 -13 -1 81.39 10.11 0
 -1 -13 0 37.62 7.28 0
 -1 -13 1 77.78 9.5 0
 -1 -13 2 17.65 6.33 0
 -1 -13 3 35.84 7.05 0
 -1 -13 4 207 12.56 0
 -1 -13 5 113.08 10.08 0
 -1 -13 6 9.24 5.21 0
 -1 -13 7 63.34 7.7 0
 -1 -12 -8 15.48 7.16 0
 -1 -12 -6 32.99 7.47 0
 -1 -12 -5 52.08 8.44 0
 -1 -12 -3 82.79 9.94 0
 -1 -12 -2 149.43 11.02 0
 -1 -12 -1 52.82 7.97 0
 -1 -12 0 9.33 5.95 0
 -1 -12 1 43.4 7.61 0
 -1 -12 4 68.34 8.41 0
 -1 -12 5 53.55 7.19 0
 -1 -12 6 42.76 6.87 0
 -1 -12 7 127.99 9.37 0
 -1 -12 8 18.79 4.51 0
 -1 -11 -8 52.78 9.19 0
 -1 -11 -7 134.56 11.49 0
 -1 -11 -6 127.31 10.52 0
 -1 -11 -5 9.78 5.17 0
 -1 -11 -4 73.63 9.22 0
 -1 -11 -3 74.96 9.2 0
 -1 -11 -2 65.17 7.51 0
 -1 -11 -1 192.29 11.79 0
 -1 -11 0 286.08 13.24 0
 -1 -11 1 197.82 11.36 0
 -1 -11 2 57.22 7.67 0
 -1 -11 3 71.7 8.05 0
 -1 -11 4 72.52 7.69 0
 -1 -11 5 8.37 4.29 0
 -1 -11 6 148.76 9.75 0
 -1 -11 7 128.42 8.92 0
 -1 -11 8 40.09 5.94 0
 -1 -11 9 32.29 5.58 0
 -1 -10 -8 40.87 7.78 0
 -1 -10 -7 51.8 7.58 0
 -1 -10 -6 42 7.19 0
 -1 -10 -5 69.87 7.84 0
 -1 -10 -4 300.86 13.48 0
 -1 -10 -3 62.93 7.44 0
 -1 -10 -2 252.23 12.44 0
 -1 -10 -1 399.32 15.09 0
 -1 -10 0 121.71 9.14 0
 -1 -10 1 415.98 14.61 0
 -1 -10 2 260.83 12.05 0
 -1 -10 3 62.99 6.68 0
 -1 -10 4 293.76 12.06 0
 -1 -10 5 72.91 6.84 0
 -1 -10 6 37.84 5.54 0
 -1 -10 7 58.85 6.54 0
 -1 -10 8 31.49 5.6 0
 -1 -10 9 30.27 5.34 0
 -1 -10 10 8.33 3.32 0
 -1 -9 -8 47.03 7.35 0
 -1 -9 -7 50.43 7.08 0
 -1 -9 -6 53.25 7.08 0
 -1 -9 -5 120.21 8.83 0
 -1 -9 -3 365.03 13.78 0
 -1 -9 -2 9.74 4.83 0
 -1 -9 -1 585.35 16.62 0
 -1 -9 0 4.04 3.44 0
 -1 -9 1 575.62 16 0
 -1 -9 2 7.53 3.74 0
 -1 -9 3 367.18 12.92 0
 -1 -9 4 98.34 7.11 0
 -1 -9 7 53.23 6.3 0
 -1 -9 8 60.85 5.85 0
 -1 -9 9 134.34 8.05 0
 -1 -9 10 11.37 3.49 0
 -1 -8 -9 31.04 6.38 0
 -1 -8 -8 41.02 6.32 0
 -1 -8 -7 125.35 8.92 0
 -1 -8 -6 200.31 10.91 0
 -1 -8 -5 115.6 8.11 0
 -1 -8 -4 399.82 13.52 0
 -1 -8 -2 157.73 8.93 0
 -1 -8 -1 148.77 8.29 0
 -1 -8 1 123.19 7.42 0
 -1 -8 6 211.13 9.28 0
 -1 -8 7 122.15 7.18 0
 -1 -8 8 35.88 4.75 0
 -1 -7 -9 106.09 8.86 0
 -1 -7 -8 39.38 6.33 0
 -1 -7 -7 155.59 9.19 0
 -1 -7 -4 114.08 7.48 0
 -1 -6 -9 365.2 13.72 0
 -1 -6 -8 8.42 3.39 0
 -1 -6 -7 654.69 16.45 0
 -1 -6 -1 312.45 10.06 0
 -1 -6 1 308.83 9.67 0
 -1 -6 2 335.89 9.74 0
 -1 -5 -5 474.96 12.18 0
 -1 -5 -2 498.82 11.66 0
 -1 -5 -1 1.09 2.49 0
 -1 -5 0 564.16 11.72 0
 -1 -5 1 0.45 1.94 0
 -1 -4 -7 7.66 3.14 0
 -1 -4 -6 212.84 7.95 0
 -1 -4 -5 1667.56 20.61 0
 -1 -4 -4 1339.52 17.92 0
 -1 -4 -2 1966.36 20.49 0
 -1 -4 -1 1062.25 14.74 0
 -1 -4 0 5226.67 31.54 0
 -1 -3 -7 500.48 11.25 0
 -1 -3 -6 301.79 8.58 0
 -1 -3 -5 392.43 9.45 0
 -1 -3 -4 705.34 11.84 0
 -1 -3 -3 1115 14.36 0
 -1 -3 -1 2248.26 18.94 0
 -1 -2 -6 601.42 10.65 0
 -1 -2 -5 1421.81 15.48 0
 -1 -2 -4 1021.71 12.57 0
 -1 -2 -3 1631.36 15.06 0
 -1 -2 -2 372.78 7.2 0
 -1 -2 -1 1472.24 13.03 0
 -1 -1 -5 953 11.11 0
 -1 -1 -3 4104.3 19.69 0
 -1 -1 -2 9801.01 28.86 0
 -1 0 -4 87.23 2.72 0
 -1 0 -3 1453.4 8.97 0
 -1 0 -2 377.61 4.44 0
 -1 3 -2 349.44 4.74 0
 0 -15 -1 89.31 11.52 0
 0 -15 0 1.62 5.74 0
 0 -15 1 89.07 9.96 0
 0 -15 2 0.72 5.05 0
 0 -14 -3 -0.92 5.52 0
 0 -14 -2 52.4 8.95 0
 0 -14 -1 160.56 12.14 0
 0 -14 0 8.94 5.63 0
 0 -14 1 154.31 10.93 0
 0 -14 3 -4.51 3.47 0
 0 -14 4 0.15 3.68 0
 0 -13 -4 101.58 11.07 0
 0 -13 -3 207.75 13.36 0
 0 -13 -2 183 12.63 0
 0 -13 -1 89.19 9.02 0
 0 -13 1 84.36 8.96 0
 0 -13 2 196.11 11.82 0
 0 -13 3 220.44 11.87 0
 0 -13 4 113.26 8.79 0
 0 -13 5 5.45 3.52 0
 0 -12 -5 89.73 11.19 0
 0 -12 -4 -1.16 4.41 0
 0 -12 -1 64.36 8.07 0
 0 -12 3 57.86 7.45 0
 0 -12 4 -0.24 3.23 0
 0 -12 5 85.09 7.12 0
 0 -11 -5 158.21 10.78 0
 0 -11 -4 -0.89 4.7 0
 0 -11 -3 257.03 12.75 0
 0 -11 0 -1.25 3.62 0
 0 -11 1 14.37 5.01 0
 0 -11 2 126.51 8.93 0
 0 -11 3 246.83 11.02 0
 0 -11 4 6.65 3.54 0
 0 -11 5 175.55 9.1 0
 0 -11 6 111.3 7.4 0
 0 -11 7 22.78 4.01 0
 0 -10 -6 19.42 5.54 0
 0 -10 -5 8.31 5.09 0
 0 -10 -4 153.77 9.95 0
 0 -10 -3 1.21 3.7 0
 0 -10 -2 30.99 6.18 0
 0 -10 -1 436.52 14.52 0
 0 -10 1 440.11 14.12 0
 0 -10 2 29.34 4.86 0
 0 -10 3 4.69 3.21 0
 0 -10 4 165.8 8.41 0
 0 -10 5 10.83 3.49 0
 0 -10 6 23.44 4.22 0
 0 -10 7 107.94 6.79 0
 0 -9 -6 160.67 9.81 0
 0 -9 -4 16.49 4.96 0
 0 -9 -3 3.54 4.27 0
 0 -9 -2 174.25 9.68 0
 0 -9 -1 247.4 10.51 0
 0 -9 0 -2.59 2.6 0
 0 -8 -5 58.21 6.63 0
 0 -8 -4 73.35 6.74 0
 0 -8 -3 1005.46 20.13 0
 0 -8 4 65.94 5.02 0
 0 -8 5 50.22 4.6 0
 0 -8 6 18.42 3.48 0
 0 -8 7 132.08 6.41 0
 0 -8 8 190.63 7.45 0
 0 -8 9 44.49 4.08 0
 0 -7 -6 15.35 4.13 0
 0 -7 -5 0.38 2.36 0
 0 -7 -1 842.77 16.28 0
 0 -7 0 2.17 2.79 0
 0 -7 2 1389.63 19.09 0
 0 -7 4 619.08 12.54 0
 0 -7 5 0.96 1.81 0
 0 -7 6 13.02 2.63 0
 0 -7 7 48.48 3.93 0
 0 -7 8 39.36 3.82 0
 0 -7 9 184.91 6.86 0
 0 -6 -3 27.52 3.91 0
 0 -6 -2 123.57 6.28 0
 0 -6 -1 26.28 3.83 0
 0 -6 0 42.11 3.8 0
 0 -6 2 115.02 5.5 0
 0 -6 3 29.76 3.12 0
 0 -6 4 1978.01 20.09 0
 0 -6 5 12.72 2.28 0
 0 -6 6 163.88 5.88 0
 0 -5 -5 642.66 13.87 0
 0 -5 -4 1212.43 18.16 0
 0 -5 -3 1091.9 16.58 0
 0 -5 -1 404.92 9.38 0
 0 -5 0 -1.84 2.23 0
 0 -5 1 396.16 8.81 0
 0 -5 2 141.34 5.48 0
 0 -5 4 1175.15 13.99 0
 0 -4 -5 2402.23 24.23 0
 0 -4 -3 1561.89 17.77 0
 0 -4 -2 9.2 2.66 0
 0 -4 -1 3110.84 22.67 0
 0 -4 0 1097.83 12.95 0
 0 -4 1 3086.16 20.9 0
 0 -4 2 11.32 2.06 0
 0 -4 3 1519.48 13.75 0
 0 -3 -3 4532.86 27.06 0
 0 -3 -2 6971.93 31.11 0
 0 -3 -1 272.34 6.08 0
 0 -3 0 1.31 1.72 0
 0 -3 1 267.02 5.57 0
 0 -2 -3 2750.88 18.45 0
 0 -2 -2 1.05 1.74 0
 0 -2 0 296.06 4.8 0
 0 -2 1 391.24 5.14 0
 0 -1 -2 7.72 1.47 0
 0 1 1 39.39 1.97 0
 0 1 2 7.83 1.53 0
 0 2 0 294.13 4.75 0
 1 -12 1 47.7 6.47 0
 1 -12 2 160.39 9.15 0
 1 -12 3 76.73 6.73 0
 1 -11 -1 185.24 10.98 0
 1 -11 2 59.56 6.12 0
 1 -11 3 68.14 6.12 0
 1 -11 4 66.72 5.6 0
 1 -10 -2 231.71 11.54 0
 1 -10 -1 384.01 13.37 0
 1 -10 0 113.56 7.87 0
 1 -10 1 397.39 12.69 0
 1 -10 3 61.27 5.2 0
 1 -9 -1 570.83 14.8 0
 1 -9 0 1.86 2.72 0
 1 -9 4 92.38 5.38 0
 1 -9 5 109.84 5.55 0
 1 -8 1 134.91 6.92 0
 1 -8 2 151.95 6.94 0
 1 -8 3 493.96 11.2 0
 1 -8 4 418.24 9.86 0
 1 -8 7 117.92 4.58 0
 1 -7 -1 90.91 5.64 0
 1 -7 0 379.56 10.15 0
 1 -7 1 94.17 5.38 0
 1 -7 2 820.91 13.53 0
 1 -7 4 131.89 5.21 0
 1 -7 6 123.96 4.51 0
 1 -7 7 157.32 4.79 0
 1 -7 8 45.71 2.54 0
 1 -6 -2 323.32 9.72 0
 1 -6 0 260.62 7.88 0
 1 -6 1 307.57 7.97 0
 1 -6 2 314.98 7.55 0
 1 -6 3 32.96 2.83 0
 1 -6 5 345.44 6.77 0
 1 -6 6 340.57 6.43 0
 1 -6 7 657.56 8.37 0
 1 -6 8 7.67 1.23 0
 1 -5 -1 0.57 1.93 0
 1 -5 0 544.5 9.94 0
 1 -5 1 1.9 1.48 0
 1 -5 2 496.89 8.3 0
 1 -5 5 474.32 6.65 0
 1 -5 6 482.03 6.38 0
 1 -5 8 404.87 5.58 0
 1 -5 9 470.02 5.99 0
 1 -4 0 5301.77 26.78 0
 1 -4 1 1070.97 11.24 0
 1 -4 4 1332.1 9.37 0
 1 -4 5 1632.91 9.59 0
 1 -4 7 7.08 0.94 0
 1 -3 3 1070.2 6.69 0
 1 -2 6 614.53 5.51 0
 1 -2 7 1402.33 9.95 0
 1 -1 5 991.37 7.39 0
 1 0 3 1522.44 9.17 0
 1 0 4 89.7 2.69 0
 -4 0 8 638.94 14.39 0
 -4 1 7 47.61 5.08 0
 -4 1 8 190.09 8.46 0
 -4 1 9 64.79 5.2 0
 -4 2 7 29.7 4.51 0
 -4 2 8 24.04 4.47 0
 -4 2 9 37.28 4.78 0
 -4 3 4 175.68 8.4 0
 -4 3 6 271.46 10.64 0
 -4 4 2 41.71 5.05 0
 -4 4 4 54.77 6.29 0
 -4 5 -1 248.82 10.21 0
 -4 5 0 228.61 9.84 0
 -3 -1 8 55.17 3.75 0
 -3 -1 9 172.14 6.26 0
 -3 0 7 6.82 2.14 0
 -3 0 8 3.47 2.29 0
 -3 0 9 420.16 10.21 0
 -3 0 10 1.95 1.72 0
 -3 1 6 309.45 9.17 0
 -3 1 8 54.01 4.62 0
 -3 1 9 163.16 7.07 0
 -3 1 10 207.52 7.87 0
 -3 2 5 151.2 6.8 0
 -3 2 7 91.79 5.58 0
 -3 2 8 534.76 12.73 0
 -3 2 9 80.39 5.66 0
 -3 3 3 322.34 9.76 0
 -3 3 5 425.87 11.58 0
 -3 3 6 564.87 13.34 0
 -3 3 7 442.3 12.13 0
 -3 3 8 499.56 13.25 0
 -3 4 3 391.67 11.38 0
 -3 4 4 2462.45 28.04 0
 -3 4 5 228.02 9.31 0
 -3 4 7 528.93 14.02 0
 -3 5 -4 6.73 2.43 0
 -3 5 1 463.83 12.54 0
 -3 5 3 206.37 8.65 0
 -3 5 4 6.62 3.09 0
 -3 5 5 93.54 6.73 0
 -3 5 6 1.05 2.86 0
 -3 6 -5 309.48 10.07 0
 -3 6 -4 158.37 7.36 0
 -3 6 -3 302.95 10.25 0
 -3 6 -2 44.37 5.22 0
 -3 6 0 33.35 4.93 0
 -3 6 1 52.8 5.31 0
 -3 6 2 40.17 4.98 0
 -3 6 3 317.16 11.58 0
 -3 6 4 163.06 8.48 0
 -3 6 5 295.75 11.56 0
 -3 7 -6 294.97 9.98 0
 -3 7 -5 12.51 2.93 0
 -3 7 -4 18.15 3.54 0
 -3 7 -3 88 6.28 0
 -3 7 -2 318.2 11.29 0
 -3 7 -1 310.8 11.32 0
 -3 7 0 2.29 3.01 0
 -3 7 1 317.13 11.53 0
 -3 8 -4 71.02 5.67 0
 -3 8 -3 63.02 5.93 0
 -2 -3 9 350.96 5.11 0
 -2 -2 8 248.9 5.56 0
 -2 -2 9 560.61 7.87 0
 -2 -1 7 27.88 2.45 0
 -2 0 6 91.71 4.19 0
 -2 1 5 68.03 3.81 0
 -2 1 8 254.07 7.42 0
 -2 2 3 126.35 5.23 0
 -2 2 4 551.19 10.77 0
 -2 2 7 130.34 5.99 0
 -2 3 3 174.14 6.45 0
 -2 3 6 2124.83 23.45 0
 -2 4 -11 62.25 3.18 0
 -2 4 -1 101.48 5.19 0
 -2 4 1 109.11 5.42 0
 -2 4 5 60.93 5.08 0
 -2 5 -10 33.71 2.69 0
 -2 5 -8 50.79 3.57 0
 -2 5 -6 317.89 8.31 0
 -2 5 -5 263.98 7.77 0
 -2 5 -4 156.53 6.03 0
 -2 5 -3 57.71 3.99 0
 -2 5 -1 199.7 7.26 0
 -2 5 1 195.43 7.59 0
 -2 5 4 157.58 7.35 0
 -2 6 -9 171.76 5.78 0
 -2 6 -8 28.3 3.2 0
 -2 6 -7 701.44 12.37 0
 -2 6 -6 14.06 2.61 0
 -2 6 -5 660.47 12.56 0
 -2 6 -4 142.31 6.16 0
 -2 6 -3 209.28 7.76 0
 -2 6 -1 999.96 16.94 0
 -2 6 0 0.83 2.25 0
 -2 6 1 1057.15 18.25 0
 -1 -10 1 374.77 12.47 0
 -1 -10 2 234.61 9.82 0
 -1 -10 3 73.26 5.96 0
 -1 -10 4 303.04 10.24 0
 -1 -10 5 67.61 5.02 0
 -1 -9 3 370.13 10.92 0
 -1 -9 4 96.04 5.95 0
 -1 -9 5 107.31 5.75 0
 -1 -8 5 100.7 5.12 0
 -1 -8 7 113.88 4.4 0
 -1 -7 7 144.15 4.32 0
 -1 -6 6 357.55 6.85 0
 -1 -6 7 664 7.6 0
 -1 -3 -14 50.07 4.94 0
 -1 -2 -14 121.4 6.5 0
 -1 -2 6 605.61 5.08 0
 -1 -1 6 868.04 7.88 0
 -1 0 5 881.05 9.2 0
 -1 1 -13 166.24 4.45 0
 -1 1 4 136.69 4.4 0
 -1 1 5 952.97 11.25 0
 -1 2 2 364.82 7.27 0
 -1 2 3 1648.21 15.3 0
 -1 2 4 1045.93 12.79 0
 -1 3 -9 97.97 2.57 0
 -1 3 -3 1058.06 10.91 0
 -1 3 -2 358.17 6.74 0
 -1 3 -1 2277.06 17.28 0
 -1 3 0 4954.6 26.22 0
 -1 3 1 2263.46 18.57 0
 -1 3 2 345.21 7.91 0
 -1 4 -7 6.78 1.3 0
 -1 4 -6 216.53 5.02 0
 -1 4 -5 1686.09 14.25 0
 -1 4 -4 1409.5 13.68 0
 -1 4 -3 95.93 3.96 0
 -1 4 -2 1957.37 17.34 0
 -1 4 -1 1078.38 13.36 0
 -1 4 0 5378.44 30.95 0
 0 -10 1 469.31 13.57 0
 0 -10 2 22.79 4.4 0
 0 -10 3 4.31 2.65 0
 0 -10 4 152.47 7.22 0
 0 -9 -1 248.56 10.23 0
 0 -9 0 -0.63 2.63 0
 0 -9 1 241.58 9.74 0
 0 -9 2 170.77 7.73 0
 0 -9 3 1.86 2.23 0
 0 -9 4 11.27 2.87 0
 0 -9 5 52.93 4.18 0
 0 -8 -5 57.52 5.71 0
 0 -8 -4 67.24 5.96 0
 0 -8 -3 1068.4 20.28 0
 0 -8 -2 249.48 9.89 0
 0 -8 -1 1095.32 19.43 0
 0 -8 0 314.64 10.24 0
 0 -8 1 1064.84 17.89 0
 0 -8 2 260.4 9 0
 0 -8 3 1041.81 16.39 0
 0 -8 4 75.71 4.67 0
 0 -8 5 54.96 3.98 0
 0 -7 -8 39.33 5.96 0
 0 -7 -6 16.52 4.29 0
 0 -7 -5 0.28 2.52 0
 0 -7 -2 1405.16 20.84 0
 0 -7 -1 836.37 15.9 0
 0 -7 0 0.23 2.47 0
 0 -7 1 872.13 15.33 0
 0 -7 2 1421.45 18.55 0
 0 -7 3 624.13 11.78 0
 0 -7 4 632.94 11.4 0
 0 -7 5 2.17 1.35 0
 0 -6 -10 56.75 5.68 0
 0 -6 -9 832.7 18.23 0
 0 -6 1 27.27 3.05 0
 0 -6 3 24.16 2.91 0
 0 -6 4 1967.64 17.88 0
 0 -5 -12 65.7 6.48 0
 0 -5 -10 130.1 7.36 0
 0 -5 -9 90.91 6.16 0
 0 -5 1 403.95 8.63 0
 0 -5 2 152.36 5.43 0
 0 -5 3 1061.66 12.42 0
 0 -4 -14 2.72 2.72 0
 0 -4 -13 -0.7 2.8 0
 0 -4 -12 105.15 6.79 0
 0 -4 -11 61.13 5.03 0
 0 -4 -10 451.27 12.27 0
 0 -4 -9 60.93 4.86 0
 0 -4 2 14.36 1.96 0
 0 -4 3 1528.89 12.75 0
 0 -3 -14 23.2 3.9 0
 0 -3 -13 64.34 5.18 0
 0 -3 -12 5.58 2.73 0
 0 -3 -11 247.18 8.6 0
 0 -3 -10 506.06 11.9 0
 0 -3 2 6762.42 23.83 0
 0 -2 -14 138.86 6.42 0
 0 -2 -13 307.2 8.81 0
 0 -2 -12 84.46 4.96 0
 0 -2 -11 27.39 3.59 0
 0 -2 -10 205.88 7.02 0
 0 -2 -9 519.81 10.43 0
 0 -1 -13 33.12 3.12 0
 0 -1 -12 401.36 8.72 0
 0 -1 -11 296.62 7.49 0
 0 -1 -10 3.86 1.7 0
 0 -1 -9 314.99 7.37 0
 0 0 -12 361.68 6.87 0
 0 0 -11 -0.55 1.16 0
 0 0 -10 10.36 1.74 0
 0 0 -9 1.06 1.05 0
 0 0 -8 1690.61 13.56 0
 0 1 -9 302.24 4.3 0
 0 1 -8 639.31 5.93 0
 0 1 -7 68.86 1.95 0
 0 1 -6 8.32 0.87 0
 1 -9 0 -0.05 2.5 0
 1 -9 1 605.83 14.87 0
 1 -8 -5 96.67 7.17 0
 1 -8 -4 413.3 13.05 0
 1 -8 -3 495.99 13.97 0
 1 -8 -2 162.25 8.26 0
 1 -8 -1 128.57 7.19 0
 1 -8 0 3.21 2.67 0
 1 -8 1 133.3 7.14 0
 1 -7 -7 154.35 8.81 0
 1 -7 -6 127.2 7.56 0
 1 -7 -4 126.94 7.31 0
 1 -7 -3 464.1 12.65 0
 1 -7 -2 834.17 16.57 0
 1 -7 0 378.81 10.95 0
 1 -7 1 88.75 5.59 0
 1 -6 -9 366.5 12.27 0
 1 -6 -8 4.95 3.03 0
 1 -6 -7 650.21 15.21 0
 1 -6 -6 354.84 11.36 0
 1 -6 -5 355.28 11.23 0
 1 -6 -3 30.85 4.65 0
 1 -6 -1 308.47 9.42 0
 1 -6 0 252.08 8.25 0
 1 -5 -12 318.21 11.31 0
 1 -5 -11 30.63 4.65 0
 1 -5 -10 35.37 5.49 0
 1 -5 -9 475.12 12.94 0
 1 -5 -8 429.46 12.04 0
 1 -5 -7 558.25 13.27 0
 1 -5 -5 464.52 11.74 0
 1 -5 -3 313.31 9.11 0
 1 -5 -1 1.46 1.9 0
 1 -5 0 549.72 10.86 0
 1 -4 -12 183.19 8.34 0
 1 -4 -11 169.36 8.04 0
 1 -4 -9 246.9 8.97 0
 1 -4 -8 439.94 11.33 0
 1 -4 -7 9.06 2.64 0
 1 -4 -6 214.36 7.84 0
 1 -4 -5 1679.95 20.21 0
 1 -4 -4 1339.58 17.42 0
 1 -4 -3 93.24 4.84 0
 1 -4 -1 1076.76 14.26 0
 1 -4 0 5307.76 30.03 0
 1 -3 -11 46.59 4.2 0
 1 -3 -10 119.45 5.99 0
 1 -3 -9 102.41 5.8 0
 1 -3 -8 156.24 6.48 0
 1 -3 -7 505.67 10.92 0
 1 -3 -5 383.58 9.07 0
 1 -3 -4 730.62 11.88 0
 1 -3 -3 1105.55 14.27 0
 1 -3 -1 2274.93 18.38 0
 1 -2 -9 432.61 9.61 0
 1 -2 -7 1356.99 15.8 0
 1 -2 -6 607.09 10.59 0
 1 -2 -5 1411.42 15.16 0
 1 -2 -4 1014.59 12.3 0
 1 -2 -3 1677.89 15.12 0
 -4 -2 15 38.09 8.15 0
 -4 -2 16 74.83 10.38 0
 -4 -2 17 184.76 14.19 0
 -4 -1 13 17.4 6.76 0
 -4 -1 14 62.84 9.33 0
 -4 -1 15 9.46 6.57 0
 -4 -1 16 13.19 6.96 0
 -4 -1 17 20.92 7.71 0
 -4 0 14 4.07 6.22 0
 -4 0 15 3.61 6.01 0
 -4 0 16 232.9 15.34 0
 -4 0 17 58.91 10.77 0
 -4 1 12 109.49 10.35 0
 -4 1 13 10.61 6.5 0
 -4 1 14 53.36 8.43 0
 -4 1 16 4.9 6.7 0
 -4 1 17 20.64 7.38 0
 -4 1 18 14.82 8.49 0
 -4 2 13 66.18 8.88 0
 -4 2 14 81.59 9.96 0
 -4 2 15 42.11 8.44 0
 -4 2 16 73.79 9.65 0
 -4 2 17 178.18 13.54 0
 -4 2 18 24.01 8.52 0
 -4 3 13 238.97 13.12 0
 -4 3 14 3.02 5.61 0
 -4 3 15 22.73 7.02 0
 -4 3 16 10.28 6.36 0
 -4 3 17 60.18 9.59 0
 -4 3 18 43.06 8.49 0
 -4 4 14 3.35 4.33 0
 -4 4 15 4.1 5.01 0
 -4 4 16 14.51 5.87 0
 -3 -6 13 94.74 9.78 0
 -3 -6 14 15.88 7.46 0
 -3 -6 15 51.2 9.86 0
 -3 -6 16 42.39 9.36 0
 -3 -6 17 16.86 7.98 0
 -3 -5 11 74.11 8.81 0
 -3 -5 13 1.45 5.23 0
 -3 -5 15 24.55 9.07 0
 -3 -5 16 6.48 8.68 0
 -3 -4 9 135.09 9.59 0
 -3 -4 11 1.85 5.22 0
 -3 -4 12 71.95 9.82 0
 -3 -4 13 16.03 6.07 0
 -3 -4 14 1.71 6.23 0
 -3 -4 15 163.43 13.94 0
 -3 -4 17 49.09 10.65 0
 -3 -3 8 489.46 15.61 0
 -3 -3 9 10.99 4.54 0
 -3 -3 10 87.89 8.94 0
 -3 -3 11 31.09 6.51 0
 -3 -3 12 15.54 6.06 0
 -3 -3 13 23.42 7.96 0
 -3 -3 14 52.61 9.08 0
 -3 -3 15 63 9.99 0
 -3 -3 16 9.5 7.62 0
 -3 -3 17 20.64 8.44 0
 -3 -3 18 47.25 10.93 0
 -3 -2 7 82.53 6.73 0
 -3 -2 9 81.07 7.77 0
 -3 -2 10 73.83 8.57 0
 -3 -2 12 20.79 6.16 0
 -3 -2 13 6.38 5.47 0
 -3 -2 14 11.46 6.94 0
 -3 -2 15 26.43 8.6 0
 -3 -2 16 149.73 14.28 0
 -3 -2 17 13.51 7.51 0
 -3 -1 8 54.83 6.44 0
 -3 -1 9 178.26 10.07 0
 -3 -1 10 201.93 11.69 0
 -3 -1 12 12.03 6.21 0
 -3 -1 13 57.2 8.56 0
 -3 -1 14 130.22 11.49 0
 -3 -1 15 28.1 7.92 0
 -3 -1 16 44.79 9.36 0
 -3 -1 17 24.6 8.3 0
 -3 -1 18 17.57 8.95 0
 -3 0 8 5.29 3.41 0
 -3 0 10 0.56 3.6 0
 -3 0 11 128.8 9.47 0
 -3 0 12 14.58 5.49 0
 -3 0 13 59.39 8.61 0
 -3 0 14 232.69 14.58 0
 -3 0 15 -0.88 5.26 0
 -3 0 16 232.27 15.42 0
 -3 0 17 9.59 7.77 0
 -3 0 18 9.65 7.76 0
 -3 0 19 10.5 8.06 0
 -3 1 10 213.45 11.11 0
 -3 1 11 365.45 14.56 0
 -3 1 12 4.23 4.97 0
 -3 1 13 77.06 8.78 0
 -3 1 14 141.93 11.34 0
 -3 1 15 33.49 7.58 0
 -3 1 18 22.27 8.36 0
 -3 1 19 175.8 15.57 0
 -3 2 7 86.56 6.04 0
 -3 2 9 72.45 6.86 0
 -3 2 10 73.5 7.02 0
 -3 2 11 137.69 9.71 0
 -3 2 12 18.95 5.53 0
 -3 2 13 13.86 5.94 0
 -3 2 14 13.85 6.45 0
 -3 2 15 31.25 8.18 0
 -3 2 17 21.93 8.87 0
 -3 2 18 14.52 8.01 0
 -3 2 19 78.53 11.82 0
 -3 3 7 446.31 11.76 0
 -3 3 11 35.68 5.95 0
 -3 3 12 20.97 5.38 0
 -3 3 13 15.03 6.06 0
 -3 3 14 46.69 8.17 0
 -3 3 15 61.44 9.53 0
 -3 3 16 0.09 5.49 0
 -3 3 17 23.69 8.38 0
 -3 3 18 48.71 9.99 0
 -3 3 19 0.11 6.54 0
 -3 4 7 518.28 11.85 0
 -3 4 8 120.5 6.85 0
 -3 4 10 42.63 5.47 0
 -3 4 12 57.9 7.58 0
 -3 4 13 20.81 5.63 0
 -3 4 14 5.34 4.83 0
 -3 4 17 57.07 9.48 0
 -3 4 18 3.71 5.85 0
 -3 5 8 152.74 7.07 0
 -3 5 11 68.81 6.59 0
 -3 5 12 71 7.23 0
 -3 5 13 -0.99 3.85 0
 -3 5 14 30.73 6.2 0
 -3 5 15 32.15 6.58 0
 -3 5 16 0.5 5.21 0
 -3 6 9 90.78 5.83 0
 -3 6 11 64.63 6.16 0
 -3 6 12 13.16 4.05 0
 -3 6 13 104.24 8.25 0
 -2 -8 12 31.83 7.6 0
 -2 -8 13 85.66 10.48 0
 -2 -8 14 47.9 9.04 0
 -2 -8 15 60.13 9.86 0
 -2 -8 16 20.25 7.96 0
 -2 -7 9 104.11 8.63 0
 -2 -7 10 18.22 5.6 0
 -2 -7 11 62.21 8.76 0
 -2 -7 14 180.26 14.11 0
 -2 -7 15 52.88 10.66 0
 -2 -7 16 12.32 8.56 0
 -2 -7 17 64.44 11 0
 -2 -6 9 168.03 10.3 0
 -2 -6 10 31.42 6.36 0
 -2 -6 11 346.15 15.48 0
 -2 -6 12 94.45 9.4 0
 -2 -6 13 2.83 5.96 0
 -2 -6 14 72.05 10.82 0
 -2 -6 15 34.13 9.15 0
 -2 -6 16 5.49 7.69 0
 -2 -6 17 16.95 8.07 0
 -2 -6 18 33.3 10.56 0
 -2 -5 7 1490.66 25.69 0
 -2 -5 11 52.18 8.24 0
 -2 -5 12 43.66 7.65 0
 -2 -5 14 101.77 11.11 0
 -2 -5 15 54.35 10.01 0
 -2 -5 16 147.03 13.88 0
 -2 -5 18 16.13 8.16 0
 -2 -4 8 23.2 4.91 0
 -2 -4 9 23.45 5.34 0
 -2 -4 10 104.91 9.13 0
 -2 -4 14 108.79 11.49 0
 -2 -4 16 31.21 8.6 0
 -2 -4 17 -3.17 7.25 0
 -2 -4 19 45.52 11.09 0
 -2 -3 5 140.02 7.22 0
 -2 -3 10 483.85 16.57 0
 -2 -3 11 123.68 9.81 0
 -2 -3 12 32.72 6.5 0
 -2 -3 13 27.03 6.87 0
 -2 -3 15 120.74 11.63 0
 -2 -3 16 111.04 13.19 0
 -2 -3 18 176.23 15.63 0
 -2 -3 19 7.81 7.99 0
 -2 -2 4 553.99 12.06 0
 -2 -2 5 693.49 14.46 0
 -2 -2 6 1417.02 21.82 0
 -2 -2 9 575.53 16.63 0
 -2 -2 11 495.29 16.95 0
 -2 -2 12 39.86 7.11 0
 -2 -2 13 99.99 9.98 0
 -2 -2 14 105.28 10.86 0
 -2 -2 15 58.27 9.31 0
 -2 -2 16 182.05 14.77 0
 -2 -2 17 17.66 7.83 0
 -2 -2 18 11.32 7.84 0
 -2 -2 19 31.12 10.25 0
 -2 -1 4 975.68 15.41 0
 -2 -1 5 74.82 4.99 0
 -2 -1 6 2.21 2.46 0
 -2 -1 7 28.02 4.49 0
 -2 -1 9 39.93 5.45 0
 -2 -1 10 485.69 15.47 0
 -2 -1 11 280.71 12.96 0
 -2 -1 12 10.79 4.77 0
 -2 -1 13 6.63 4.83 0
 -2 -1 14 53.5 8.71 0
 -2 -1 15 113.89 10.65 0
 -2 -1 16 195.74 14.61 0
 -2 -1 17 49.8 10.58 0
 -2 -1 18 129.68 14.16 0
 -2 -1 19 170.72 15.44 0
 -2 0 4 2236.07 22.07 0
 -2 0 5 649.09 13.08 0
 -2 0 6 94.47 6.08 0
 -2 0 10 19.33 4.52 0
 -2 0 11 91.99 8.23 0
 -2 0 12 9.07 4.59 0
 -2 0 13 218.26 12.73 0
 -2 0 14 13.87 5.87 0
 -2 0 15 230.01 14.6 0
 -2 0 16 50.79 8.98 0
 -2 0 17 26.31 8.18 0
 -2 0 18 2.52 6.76 0
 -2 0 19 32.09 10.29 0
 -2 1 4 980.6 13.85 0
 -2 1 5 70.41 4.57 0
 -2 1 7 23.3 4.06 0
 -2 1 10 449.02 14.07 0
 -2 1 12 17.65 5.1 0
 -2 1 13 13.88 5.15 0
 -2 1 14 41.73 7.94 0
 -2 1 15 102.78 10.4 0
 -2 1 16 187.98 13.2 0
 -2 1 17 43.59 8.78 0
 -2 1 18 123.02 13.35 0
 -2 2 4 534.5 9.88 0
 -2 2 5 710.09 12.36 0
 -2 2 6 1406.1 18.57 0
 -2 2 8 244.96 9.23 0
 -2 2 10 217.46 9.99 0
 -2 2 11 492.22 15.5 0
 -2 2 12 33.08 6.24 0
 -2 2 13 85.16 8.16 0
 -2 2 14 108.49 10.17 0
 -2 2 16 173.54 13.12 0
 -2 2 17 22.52 7.81 0
 -2 2 18 5.68 7.55 0
 -2 2 19 30.48 8.49 0
 -2 3 5 149.94 5.68 0
 -2 3 6 2078.01 21.49 0
 -2 3 7 5.28 2.59 0
 -2 3 8 230.92 8.67 0
 -2 3 11 114.77 7.82 0
 -2 3 12 32.02 5.53 0
 -2 3 13 25.61 6.05 0
 -2 3 14 253.12 12.98 0
 -2 3 15 121.9 10.55 0
 -2 3 16 101.09 10.09 0
 -2 3 17 99.02 10.55 0
 -2 3 18 185.39 14.55 0
 -2 3 19 10.61 7.29 0
 -2 4 4 178.5 4.91 0
 -2 4 5 54.98 3.46 0
 -2 4 6 170.18 6.2 0
 -2 4 7 289.01 8.71 0
 -2 4 8 22.83 3.57 0
 -2 4 11 60.71 6.44 0
 -2 4 12 334.09 13.11 0
 -2 4 13 4.29 4.19 0
 -2 4 14 99.44 8.77 0
 -2 4 15 50.85 7.63 0
 -2 4 16 22.85 6.76 0
 -2 4 17 6.23 5.63 0
 -2 4 19 57.34 9.66 0
 -2 5 5 248.9 5.99 0
 -2 5 6 323.43 7.8 0
 -2 5 7 1511.9 18.19 0
 -2 5 8 49.06 4.45 0
 -2 5 9 485.59 12.4 0
 -2 5 11 40.96 5.21 0
 -2 5 13 153.02 9.94 0
 -2 5 14 114.47 9.58 0
 -2 5 15 50.93 7.6 0
 -2 5 16 131.16 11.34 0
 -2 5 17 2.77 6.66 0
 -2 5 18 16.92 6.58 0
 -2 5 19 46.04 9.41 0
 -2 6 5 679.71 8.08 0
 -2 6 6 16.87 2.28 0
 -2 6 7 710.5 11.83 0
 -2 6 8 32.22 3.67 0
 -2 6 9 172.1 7.29 0
 -2 6 12 86.04 7.4 0
 -2 6 13 7.08 3.89 0
 -2 6 14 69.56 8.45 0
 -2 6 15 21.74 6.04 0
 -2 6 16 4.21 4.97 0
 -2 6 17 21 7.25 0
 -2 7 6 328.83 5.77 0
 -2 7 7 129.61 4.81 0
 -2 7 8 2.45 2 0
 -2 7 12 27.71 5.05 0
 -2 7 13 43.93 6.12 0
 -2 7 14 194.52 10.67 0
 -1 -10 15 29.97 7.02 0
 -1 -9 10 9.51 5.19 0
 -1 -9 11 101.44 9.24 0
 -1 -9 13 77.29 9.79 0
 -1 -9 14 41.75 8.71 0
 -1 -9 15 6.27 6.83 0
 -1 -9 16 1.98 7.49 0
 -1 -8 8 35.41 6.29 0
 -1 -8 11 150.99 10.67 0
 -1 -8 12 57.64 8.27 0
 -1 -8 13 70.56 10.16 0
 -1 -8 14 118.83 11.91 0
 -1 -8 15 167.55 13.9 0
 -1 -8 16 32.5 9.44 0
 -1 -8 17 40.94 9.62 0
 -1 -7 9 128.4 8.98 0
 -1 -7 10 357.96 15.04 0
 -1 -7 11 119.64 10.52 0
 -1 -7 12 199.52 13.09 0
 -1 -7 13 35.66 7.93 0
 -1 -7 14 254.62 15.64 0
 -1 -7 15 27.28 8.2 0
 -1 -7 17 18.95 8.28 0
 -1 -7 18 78.47 12.16 0
 -1 -6 5 380.91 11.08 0
 -1 -6 9 365.26 14.05 0
 -1 -6 10 89.42 8.1 0
 -1 -6 11 32.5 6.29 0
 -1 -6 12 30.11 7.37 0
 -1 -6 13 186.57 13.17 0
 -1 -6 14 100.73 11.45 0
 -1 -6 15 33.96 8.8 0
 -1 -6 16 66.41 10.47 0
 -1 -6 17 7.72 7.26 0
 -1 -6 18 34.6 9.44 0
 -1 -5 4 735.86 14.29 0
 -1 -5 5 463.43 12.09 0
 -1 -5 6 487.39 13.18 0
 -1 -5 9 476.16 15.31 0
 -1 -5 10 37.05 6.45 0
 -1 -5 11 25.33 5.8 0
 -1 -5 12 329.33 15.3 0
 -1 -5 13 88.06 9.88 0
 -1 -5 14 48.67 8.26 0
 -1 -5 15 38.86 8.34 0
 -1 -5 16 79.82 11.3 0
 -1 -5 17 2.71 6.76 0
 -1 -5 18 188.22 16.11 0
 -1 -5 19 5.11 7.54 0
 -1 -4 3 103.66 4.98 0
 -1 -4 4 1386.49 18.23 0
 -1 -4 6 224.25 8.91 0
 -1 -4 9 264.34 11.23 0
 -1 -4 10 38.76 6.32 0
 -1 -4 12 185.57 11.35 0
 -1 -4 13 204.13 12.28 0
 -1 -4 14 12.02 6.44 0
 -1 -4 15 12.35 6 0
 -1 -4 16 13.65 6.85 0
 -1 -4 17 87.86 11.66 0
 -1 -4 18 26.96 8.39 0
 -1 -4 19 33.34 9.74 0
 -1 -3 3 1086.85 14.61 0
 -1 -3 4 738.01 13.2 0
 -1 -3 5 377.62 10.11 0
 -1 -3 6 321.07 9.78 0
 -1 -3 7 506.75 13.01 0
 -1 -3 10 110.71 8.37 0
 -1 -3 12 80.5 8.69 0
 -1 -3 13 12.93 5.25 0
 -1 -3 16 12.46 6.9 0
 -1 -3 17 47.28 9.13 0
 -1 -3 19 103.99 13.4 0
 -1 -2 2 384.35 7.85 0
 -1 -2 3 1660.06 16.87 0
 -1 -2 4 1050.73 14.71 0
 -1 -2 5 1373.07 17.77 0
 -1 -2 7 1426.26 20.84 0
 -1 -2 11 243.77 11.5 0
 -1 -2 12 158.68 10.35 0
 -1 -2 15 72.46 9.55 0
 -1 -2 16 50.28 8.83 0
 -1 -2 17 55.91 9.47 0
 -1 -2 18 23.5 8.02 0
 -1 -2 19 8.14 7.95 0
 -1 -2 20 79.1 12.83 0
 -1 -1 2 9892.33 34.36 0
 -1 -1 3 4138.84 24.89 0
 -1 -1 4 140.96 5.44 0
 -1 -1 5 943.7 14.26 0
 -1 -1 7 158.9 7.04 0
 -1 -1 8 45.81 4.83 0
 -1 -1 11 600.59 17.07 0
 -1 -1 12 91.01 8.32 0
 -1 -1 13 184.12 11.57 0
 -1 -1 14 122.4 10.51 0
 -1 -1 16 58.02 9.74 0
 -1 -1 18 70.89 11.46 0
 -1 -1 19 13.63 7.65 0
 -1 -1 20 20.68 9.76 0
 -1 0 2 388.92 6.59 0
 -1 0 3 1507.62 14.03 0
 -1 0 5 928.23 13.65 0
 -1 0 6 4.75 2.45 0
 -1 0 7 10.53 2.98 0
 -1 0 8 256.52 9.59 0
 -1 0 10 144.89 8.27 0
 -1 0 12 235.14 11.58 0
 -1 0 13 -1.99 3.9 0
 -1 0 14 526.69 18.62 0
 -1 0 15 31.22 7.42 0
 -1 0 16 442.87 18.99 0
 -1 0 18 29.27 8.39 0
 -1 0 19 1.38 7.12 0
 -1 0 20 2.45 6.86 0
 -1 1 2 9653.04 28.14 0
 -1 1 3 4086.93 20.87 0
 -1 1 5 970.55 13.37 0
 -1 1 6 873.83 14.04 0
 -1 1 7 148.47 6.72 0
 -1 1 8 52.96 5.31 0
 -1 1 12 93.41 7.96 0
 -1 1 13 187.97 11.04 0
 -1 1 15 33.76 7.33 0
 -1 1 16 54.23 8.57 0
 -1 1 17 39.7 8.21 0
 -1 1 18 79.49 11.66 0
 -1 1 19 15.11 7.34 0
 -1 1 20 21.62 8.02 0
 -1 2 2 361.98 4.98 0
 -1 2 3 1611.67 12.29 0
 -1 2 4 1039.59 11.75 0
 -1 2 6 604.36 11.29 0
 -1 2 7 1367.74 18.36 0
 -1 2 8 675.66 14.08 0
 -1 2 11 238.99 10.95 0
 -1 2 12 176.59 10.32 0
 -1 2 14 110.47 9.3 0
 -1 2 15 67.49 9.35 0
 -1 2 16 46.49 7.98 0
 -1 2 17 65.17 9.67 0
 -1 2 18 22.97 8.13 0
 -1 2 19 15.04 7.74 0
 -1 2 20 61.89 10.93 0
 -1 3 2 334.01 4.03 0
 -1 3 4 704.98 9.23 0
 -1 3 5 385.64 7.94 0
 -1 3 6 309.35 8.07 0
 -1 3 7 491.51 11.01 0
 -1 3 8 153.82 7.02 0
 -1 3 9 93.51 6.46 0
 -1 3 11 44.15 5.62 0
 -1 3 12 85.27 7.5 0
 -1 3 15 207.24 13 0
 -1 3 16 18.46 6.78 0
 -1 3 18 14.6 6.71 0
 -1 3 19 124.93 12.93 0
 -1 4 4 1340.82 11.99 0
 -1 4 5 1690.35 15.81 0
 -1 4 6 210.7 6.69 0
 -1 4 7 10.52 2.65 0
 -1 4 8 441.64 11.25 0
 -1 4 9 262.4 9.65 0
 -1 4 11 164.97 8.92 0
 -1 4 12 179.13 10.27 0
 -1 4 13 178.3 10.31 0
 -1 4 14 4.58 5.32 0
 -1 4 15 22.08 6.14 0
 -1 4 16 7.56 5.82 0
 -1 4 18 24.52 8.22 0
 -1 4 19 36.44 9.26 0
 -1 4 20 116.32 13.98 0
 -1 5 3 298.54 4.22 0
 -1 5 5 460.5 8.11 0
 -1 5 6 495.06 9.53 0
 -1 5 7 570.43 11.38 0
 -1 5 11 25.53 4.7 0
 -1 5 14 40.61 7.12 0
 -1 5 15 38.34 7 0
 -1 5 16 89.65 9.48 0
 -1 5 17 1.42 5.24 0
 -1 5 18 194.87 14.12 0
 -1 5 19 9.63 6.59 0
 -1 6 3 33.27 1.37 0
 -1 6 4 141.05 3.65 0
 -1 6 5 356.09 6.88 0
 -1 6 7 659.04 11.9 0
 -1 6 8 7.94 2.72 0
 -1 6 9 358.08 10.75 0
 -1 6 11 33.54 4.95 0
 -1 6 12 36 5.76 0
 -1 6 14 92.23 8.23 0
 -1 6 15 35.68 7.29 0
 -1 6 16 54.27 8.44 0
 -1 6 17 11.73 6 0
 -1 6 19 11.6 6.74 0
 -1 7 4 123.08 3.03 0
 -1 7 5 367.41 6.53 0
 -1 7 6 120.01 4.58 0
 -1 7 7 146.88 5.76 0
 -1 7 8 41.27 4.15 0
 -1 7 9 118.45 6.53 0
 -1 7 11 125.51 7.65 0
 -1 7 13 40.35 6.21 0
 -1 7 15 25.02 5.97 0
 -1 7 16 107.6 10.15 0
 -1 7 17 16.83 6.34 0
 -1 8 5 103.74 3.18 0
 -1 8 6 204.48 5.38 0
 -1 8 7 117.17 4.95 0
 -1 8 8 40.58 3.74 0
 -1 8 9 31.98 3.83 0
 -1 8 11 173.09 8.46 0
 -1 8 12 54.44 6.11 0
 -1 8 13 57.7 6.97 0
 -1 8 14 117.97 8.9 0
 0 -10 10 14.79 4.61 0
 0 -10 11 105.27 9.02 0
 0 -10 12 315.09 14.56 0
 0 -10 13 -3.31 4.59 0
 0 -10 15 2.06 6.72 0
 0 -10 16 18.44 7.12 0
 0 -9 8 8.7 3.6 0
 0 -9 9 3.15 4.04 0
 0 -9 10 3.34 4.8 0
 0 -9 11 46.86 7.29 0
 0 -9 12 42.63 7.44 0
 0 -9 13 492.81 19.22 0
 0 -9 14 8.33 6.67 0
 0 -9 15 28.04 8.11 0
 0 -9 16 24.11 7.63 0
 0 -9 17 101.78 12.63 0
 0 -8 9 57 6.35 0
 0 -8 12 187.67 11.86 0
 0 -8 13 146.59 12.07 0
 0 -8 14 0.17 6.82 0
 0 -8 15 12.14 6.89 0
 0 -8 16 25.39 8.24 0
 0 -8 17 16.12 7.48 0
 0 -7 5 0.48 2.16 0
 0 -7 6 17.58 3.98 0
 0 -7 8 45.31 5.56 0
 0 -7 10 6.56 4.17 0
 0 -7 11 38.06 6.41 0
 0 -7 12 -1.25 4.03 0
 0 -7 13 84.55 9.65 0
 0 -7 14 -2.6 4.95 0
 0 -7 16 17.94 7.28 0
 0 -7 17 5.8 6.63 0
 0 -7 18 -1.39 6.37 0
 0 -6 3 30.2 2.88 0
 0 -6 4 1908.8 20.25 0
 0 -6 5 15.87 3.26 0
 0 -6 9 806.72 18.6 0
 0 -6 11 238.16 11.76 0
 0 -6 12 559.46 18.4 0
 0 -6 13 7.96 5.15 0
 0 -6 14 4.72 5.5 0
 0 -6 15 8.28 6.42 0
 0 -6 16 109.1 11.95 0
 0 -6 17 16.03 7.41 0
 0 -6 18 7.67 7.56 0
 0 -6 19 11.14 9.55 0
 0 -5 3 1110.11 13.8 0
 0 -5 4 1177.71 15.61 0
 0 -5 5 673.43 12.98 0
 0 -5 6 170.55 7.22 0
 0 -5 7 591.73 13.82 0
 0 -5 10 116.49 8.14 0
 0 -5 11 130.27 8.96 0
 0 -5 12 74.77 8.96 0
 0 -5 13 19.7 5.55 0
 0 -5 14 10.48 5.85 0
 0 -5 15 14.22 7.31 0
 0 -5 16 5.41 7.16 0
 0 -4 3 1567.79 15.55 0
 0 -4 4 473.58 9.83 0
 0 -4 5 2385.74 22.69 0
 0 -4 6 199.64 7.53 0
 0 -4 7 55.14 5.19 0
 0 -4 10 448.01 14.44 0
 0 -4 12 103.29 8.47 0
 0 -4 13 1.52 4.38 0
 0 -4 14 2.62 4.88 0
 0 -4 15 22.55 6.71 0
 0 -4 16 241.41 15.48 0
 0 -4 17 248.87 16.5 0
 0 -4 18 148.42 13.23 0
 0 -4 19 12.78 8.86 0
 0 -3 2 6980.77 26.84 0
 0 -3 3 4691.97 24.64 0
 0 -3 4 511.09 9.6 0
 0 -3 5 484.73 10.37 0
 0 -3 6 78.8 5.07 0
 0 -3 7 20.47 3.52 0
 0 -3 10 510.11 15.23 0
 0 -3 12 5.19 4.08 0
 0 -3 13 74.01 8.72 0
 0 -3 14 21.42 6.9 0
 0 -3 15 297.38 15.47 0
 0 -3 17 -0.69 5.96 0
 0 -3 20 32.27 9.83 0
 0 -2 3 2732.08 17.81 0
 0 -2 4 4444.89 25.98 0
 0 -2 5 18.08 2.87 0
 0 -2 6 3.73 2.3 0
 0 -2 7 1589.89 20.75 0
 0 -2 8 485.41 12.55 0
 0 -2 10 207.21 9.92 0
 0 -2 11 35.15 6.04 0
 0 -2 12 89.27 8.27 0
 0 -2 15 115.06 10.46 0
 0 -2 16 4.22 6.83 0
 0 -2 18 0.86 6.51 0
 0 -2 19 3.25 7.57 0
 0 -2 20 8.46 8.32 0
 0 -1 2 7.3 1.55 0
 0 -1 3 6.58 2.4 0
 0 -1 4 430.07 8.18 0
 0 -1 5 8291.33 38.04 0
 0 -1 6 8.49 2.5 0
 0 -1 7 65.6 4.65 0
 0 -1 8 650.77 14.23 0
 0 -1 11 286.88 11.87 0
 0 -1 12 410.58 14.9 0
 0 -1 13 35.65 6.25 0
 0 -1 14 590 19.84 0
 0 -1 17 10.46 6.79 0
 0 -1 18 28.23 8.57 0
 0 -1 19 33.7 9.46 0
 0 -1 20 0.04 8.24 0
 0 0 8 1756.74 22.98 0
 0 0 11 -3.2 3.14 0
 0 0 12 360.72 14.23 0
 0 0 13 -0.34 3.68 0
 0 0 14 6.85 4.61 0
 0 0 17 1.95 5.74 0
 0 0 19 -0.15 6.32 0
 0 0 20 164.32 14.58 0
 0 1 11 283.91 11.49 0
 0 1 12 425.81 14.84 0
 0 1 13 34.78 6.4 0
 0 1 15 9.01 5.09 0
 0 1 16 65.85 9.02 0
 0 1 17 0.97 5.78 0
 0 1 19 25.19 9.22 0
 0 1 20 -1.31 8.01 0
 0 2 -1 408.92 5 0
 0 2 11 25.82 4.89 0
 0 2 12 91.18 7.67 0
 0 2 13 302.43 13.62 0
 0 2 14 130.58 10.64 0
 0 2 15 100.91 10.16 0
 0 2 16 6.92 5.53 0
 0 2 17 19.38 6.97 0
 0 2 18 -2.1 5.88 0
 0 2 19 3.44 7.28 0
 0 2 20 7.02 8.13 0
 0 3 -1 272 4.62 0
 0 3 0 -0.92 0.91 0
 0 3 12 8.03 4.73 0
 0 3 13 61.69 7.39 0
 0 3 14 14.9 5.41 0
 0 3 15 302.21 15.25 0
 0 3 16 30.72 7.32 0
 0 3 17 2.91 5.66 0
 0 3 18 19.73 7.87 0
 0 3 19 15.22 8.84 0
 0 3 20 31.76 9.07 0
 0 4 13 -1.05 3.88 0
 0 4 14 5.18 5.03 0
 0 4 15 17.09 5.76 0
 0 4 16 246.29 14.17 0
 0 4 17 239.15 15.26 0
 0 4 19 11.68 6.94 0
 0 5 12 66.67 6.93 0
 0 5 13 25.99 6.45 0
 0 5 14 9.21 5 0
 0 5 15 9.48 5.81 0
 0 5 16 5.19 5.3 0
 0 5 18 -1.46 5.74 0
 0 5 19 8.08 6.64 0
 0 6 12 538.84 16.45 0
 0 6 13 9.05 5.02 0
 0 6 14 2.79 4.44 0
 0 6 15 10.67 6.26 0
 0 6 16 97.77 9.65 0
 0 6 17 10.94 7.34 0
 0 6 18 1.45 5.48 0
 0 6 19 7.11 7.37 0
 0 7 12 1.38 3.8 0
 0 7 13 89.24 7.87 0
 0 7 14 -0.65 4.74 0
 0 7 15 44.49 7.48 0
 0 7 16 14.11 6.11 0
 0 7 17 2.08 5.55 0
 0 7 18 -3.13 5.09 0
 0 7 19 -5.29 5.4 0
 0 8 12 158.54 9.54 0
 0 8 13 149.46 9.88 0
 0 8 14 -2.42 3.75 0
 0 8 15 8.28 5.28 0
 0 8 16 24.38 6.01 0
 0 9 11 52.44 6.13 0
 0 9 12 56.69 7 0
 0 9 13 480.24 15.67 0
 0 9 14 1.23 4.51 0
 1 -10 12 3.75 4.07 0
 1 -10 13 45.97 7.15 0
 1 -10 15 37.8 7.99 0
 1 -9 8 43.36 5.27 0
 1 -9 9 142.59 8.51 0
 1 -9 10 7.55 3.87 0
 1 -9 11 102.22 8.7 0
 1 -9 12 216.7 12.06 0
 1 -9 13 74.53 8.85 0
 1 -9 14 43.28 7.76 0
 1 -9 15 3.02 5.18 0
 1 -9 17 6.3 6.48 0
 1 -8 6 210.58 7.78 0
 1 -8 9 30.14 4.82 0
 1 -8 10 134.05 8.9 0
 1 -8 12 69.07 8.38 0
 1 -8 13 61.77 8.48 0
 1 -8 14 123.61 11.24 0
 1 -8 15 164.46 12.43 0
 1 -8 16 42.11 8.94 0
 1 -8 17 48.66 9.85 0
 1 -7 3 476.64 7.76 0
 1 -7 5 360.22 9.15 0
 1 -7 6 121.4 6.2 0
 1 -7 9 114.08 7.78 0
 1 -7 11 119.51 8.84 0
 1 -7 12 197.76 11.51 0
 1 -7 13 51.12 8.17 0
 1 -7 14 257.34 14.49 0
 1 -7 15 34.19 7.63 0
 1 -7 16 97.75 11.4 0
 1 -7 17 16.41 7.1 0
 1 -7 18 80.58 12.23 0
 1 -6 2 329.51 5.26 0
 1 -6 5 348.68 8.65 0
 1 -6 6 337.64 9.38 0
 1 -6 7 649.91 14.15 0
 1 -6 10 94.17 7.41 0
 1 -6 11 31.15 5.74 0
 1 -6 12 30.86 6.29 0
 1 -6 13 182.14 11.95 0
 1 -6 16 52.17 8.8 0
 1 -6 18 22.77 8.78 0
 1 -5 2 510.38 6.72 0
 1 -5 4 745.89 11.19 0
 1 -5 5 466.42 10 0
 1 -5 6 480.25 10.97 0
 1 -5 12 336.65 14.15 0
 1 -5 13 85.49 8.43 0
 1 -5 14 37.82 7.09 0
 1 -5 15 45.19 9.24 0
 1 -5 16 83.18 10.25 0
 1 -5 17 11.79 7.64 0
 1 -5 19 14.07 7.68 0
 1 -4 4 1374.8 14.86 0
 1 -4 5 1662.95 18.21 0
 1 -4 6 212.55 7.6 0
 1 -4 7 5.71 2.69 0
 1 -4 11 158.36 9.43 0
 1 -4 12 173.41 10.24 0
 1 -4 13 182.16 11.69 0
 1 -4 14 9.93 5.34 0
 1 -4 15 14.86 6.4 0
 1 -4 17 97.92 11.1 0
 1 -4 18 23.48 7.78 0
 1 -4 19 35.95 9.66 0
 1 -3 7 490.73 11.92 0
 1 -3 10 115.15 8.27 0
 1 -3 11 53.38 6.55 0
 1 -3 12 88.53 7.93 0
 1 -3 13 4.65 5.18 0
 1 -3 15 223.41 13.74 0
 1 -3 17 42.75 8.7 0
 1 -3 18 16.33 7.47 0
 1 -3 19 111.39 12.92 0
 1 -2 -2 374.34 4.98 0
 1 -2 -1 1550.2 7.86 0
 1 -2 10 591.21 15.88 0
 1 -2 11 224.01 10.69 0
 1 -2 12 167.12 10.08 0
 1 -2 15 53.86 8.31 0
 1 -2 16 59.52 8.88 0
 1 -2 17 62.07 9.78 0
 1 -2 18 25.75 8.33 0
 1 -2 19 13.34 8.31 0
 1 -2 20 70.29 12.48 0
 1 -1 -2 9701.75 27.3 0
 1 -1 12 95.29 8.65 0
 1 -1 14 117.66 9.74 0
 1 -1 15 23.15 6.67 0
 1 -1 16 54.71 9.68 0
 1 -1 17 46 8.72 0
 1 -1 18 83.25 11.03 0
 1 -1 19 25.53 8.57 0
 1 0 -1 864.88 8.52 0
 1 0 13 2 3.86 0
 1 0 17 241.75 15.49 0
 1 0 18 29.22 8.29 0
 1 0 19 0.9 6.46 0
 1 0 20 7.15 7.57 0
 1 1 14 125.96 10.31 0
 1 1 17 46.77 8.66 0
 1 1 18 69.63 10.97 0
 1 1 19 22.72 7.84 0
 1 1 20 29.72 9.39 0
 1 2 15 65.33 8.87 0
 1 2 16 51.14 8.55 0
 1 2 17 63.23 10.65 0
 1 2 18 32.89 8.37 0
 1 3 15 221.34 13.28 0
 1 3 16 6.79 6.8 0
 1 3 17 47.92 9.13 0
 1 3 18 22.45 7.89 0
 1 3 20 36.34 9.55 0
 1 4 15 25.47 6.87 0
 1 4 16 11.73 6.24 0
 1 4 18 23.29 8.16 0
 1 4 19 42.52 9.2 0
 1 5 17 9.11 6.56 0
 1 5 18 187.88 14.01 0
 1 6 17 17.38 6.93 0
 1 6 18 30.41 7.97 0
 1 6 19 6.7 6.74 0
 1 7 16 94.38 11.3 0
 1 8 16 32.95 7.98 0
 1 8 17 40.58 8.97 0
 1 8 18 4.74 7.2 0
 1 9 15 9.22 5.25 0
 1 9 16 5.19 4.97 0
 2 -9 13 201.79 11.78 0
 2 -9 15 90.06 10.39 0
 2 -8 4 57.91 2.72 0
 2 -8 5 257.88 6.87 0
 2 -8 9 109.15 7.02 0
 2 -8 10 71.09 6.67 0
 2 -8 11 19.16 5.06 0
 2 -8 12 27.35 6.11 0
 2 -8 14 41.49 7.16 0
 2 -8 15 50.27 8.35 0
 2 -8 16 17.33 6.46 0
 2 -8 17 38.6 8.68 0
 2 -7 3 164.65 3.91 0
 2 -7 4 371.1 7.31 0
 2 -7 6 320.18 8.95 0
 2 -7 7 123.28 6.37 0
 2 -7 10 13.59 3.99 0
 2 -7 11 49.36 6.98 0
 2 -7 12 26.29 5.86 0
 2 -7 13 44.82 7.16 0
 2 -7 14 181.75 12.49 0
 2 -7 16 12.51 6.63 0
 2 -7 17 58.75 10.34 0
 2 -7 18 8.85 6.76 0
 2 -6 2 459.65 5.15 0
 2 -6 3 211.14 4.91 0
 2 -6 5 666.46 11.61 0
 2 -6 6 21.18 3.38 0
 2 -6 7 695.24 14.38 0
 2 -6 9 170.09 8.88 0
 2 -6 10 28.98 5.18 0
 2 -6 11 351.41 13.82 0
 2 -6 12 85.4 8.77 0
 2 -6 13 3.26 4.62 0
 2 -6 14 68.08 8.89 0
 2 -6 15 26.53 7.6 0
 2 -6 16 10.71 6.51 0
 2 -6 18 32.81 8.77 0
 2 -5 1 192.46 2.92 0
 2 -5 2 581.93 7.04 0
 2 -5 5 256.81 7.55 0
 2 -5 6 309.45 9.06 0
 2 -5 7 1472.46 20.75 0
 2 -5 9 487.94 14.28 0
 2 -5 10 25.9 5.04 0
 2 -5 11 48.82 7.11 0
 2 -5 12 47.44 6.85 0
 2 -5 14 107.32 10.65 0
 2 -5 15 60.22 9.25 0
 2 -5 16 136.27 12.35 0
 2 -5 17 9.33 6.32 0
 2 -5 18 16.43 7.5 0
 2 -4 -2 159.36 3.24 0
 2 -4 -1 112.79 2.49 0
 2 -4 0 475.24 5.2 0
 2 -4 10 90.39 7.21 0
 2 -4 11 65.66 7.37 0
 2 -4 12 330.44 14.12 0
 2 -4 13 5.2 4.69 0
 2 -4 14 97.35 9.97 0
 2 -4 15 48.48 8.37 0
 2 -4 16 14.89 6.92 0
 2 -4 17 8.16 7.23 0
 2 -4 18 94.17 12.79 0
 2 -3 12 31.66 6.13 0
 2 -3 14 265.75 14.57 0
 2 -3 15 108 11.3 0
 2 -3 16 108.96 10.92 0
 2 -3 19 22.02 8.73 0
 2 -2 14 106.35 9.53 0
 2 -2 15 51.94 9.26 0
 2 -2 16 195.41 13.69 0
 2 -2 17 22.48 7.96 0
 2 -2 19 29.26 8.6 0
 2 -1 16 198.33 13.63 0
 2 -1 17 42.28 8.88 0
 2 -1 18 143.04 13.88 0
 2 -1 19 128.73 13.38 0
 2 0 16 56.16 9.05 0
 2 0 17 16.54 7.83 0
 2 0 18 6.37 6.99 0
 2 1 17 45.01 9.5 0
 2 1 18 116.97 13.83 0
 2 2 18 15.55 7.19 0
 2 2 19 22.15 8.71 0
 2 3 17 115.24 12.12 0
 2 3 18 184.66 14.41 0
 2 3 19 8.75 7.37 0
 2 4 18 111.77 12.32 0
 2 4 19 61.71 10.74 0
 2 5 18 7.09 6.97 0
 2 6 18 26.54 8.49 0
 2 7 18 3.56 6.42 0
 3 -8 11 5.05 3.53 0
 3 -8 12 426.96 15.24 0
 3 -8 13 61.9 7.41 0
 3 -8 14 10.3 5.09 0
 3 -8 15 24.26 6.81 0
 3 -7 4 21.3 2.08 0
 3 -7 5 12.91 2.28 0
 3 -7 9 33.37 4.85 0
 3 -7 10 14.66 4.24 0
 3 -7 12 133.96 9.83 0
 3 -7 14 9.96 5.91 0
 3 -7 15 8.09 5.73 0
 3 -7 17 78.07 11.55 0
 3 -6 1 48.89 1.8 0
 3 -6 8 31.06 4.61 0
 3 -6 9 98.72 7.16 0
 3 -6 10 34.06 5.63 0
 3 -6 11 65.3 8.02 0
 3 -6 12 11.5 5.35 0
 3 -6 13 111.73 9.84 0
 3 -6 14 17.35 6.03 0
 3 -6 16 43 8.31 0
 3 -6 17 19.04 6.96 0
 3 -5 11 82.08 8.09 0
 3 -5 12 62.85 7.75 0
 3 -5 13 0.99 4.37 0
 3 -5 14 28.63 6.84 0
 3 -5 16 0.86 6.28 0
 3 -5 17 25.64 7.96 0
 3 -5 18 54.36 9.68 0
 3 -4 13 12.31 5.87 0
 3 -4 14 10.16 5.52 0
 3 -4 15 155.05 12.57 0
 3 -4 16 87.96 12 0
 3 -4 17 54.95 9.67 0
 3 -4 18 -2.85 6.07 0
 3 -3 14 57.05 8.52 0
 3 -3 16 3.48 6.03 0
 3 -3 17 24.68 9.21 0
 3 -3 18 63.36 10.57 0
 3 -2 17 28.16 8.92 0
 3 -2 18 17.92 8.44 0
 3 -1 18 30.19 8.48 0
 3 0 18 19.06 8.36 0
 3 1 18 24.29 8.52 0
 4 -7 11 9.93 4.24 0
 4 -6 10 43.84 6.44 0
 4 -6 11 23.85 5.32 0
 4 -6 12 77.07 7.8 0
 4 -6 13 11.24 5.19 0
 4 -6 14 15.1 6.17 0
 4 -6 15 69.07 10.08 0
 4 -6 16 65.2 9.87 0
 4 -5 13 35.85 6.95 0
 4 -5 15 82.68 10.65 0
 4 -5 16 -1.73 5.49 0
 4 -5 17 55.86 10 0
 4 -4 15 -2.31 6.02 0
 4 -4 16 11.92 6.65 0
 4 -4 17 14.25 7.57 0
 4 -3 17 66.91 11.12 0
 4 -2 17 173.22 15.04 0
 5 -5 15 0.44 6.12 0
 5 -4 15 20.94 7.49 0
 -6 -8 7 31.61 7.35 0
 -6 -8 8 34.24 8.02 0
 -6 -8 9 15.61 7.19 0
 -6 -8 10 66.85 10.24 0
 -6 -7 7 83.94 10.03 0
 -6 -7 9 21.75 6.63 0
 -6 -7 10 211.45 13.77 0
 -6 -6 6 15.47 5.74 0
 -6 -6 7 27.98 6.54 0
 -6 -6 8 5.45 5.01 0
 -6 -6 9 5.22 4.75 0
 -6 -6 10 44.3 7.58 0
 -6 -5 6 5.03 4.67 0
 -6 -5 7 24.27 5.55 0
 -6 -5 8 101.91 8.91 0
 -6 -5 9 21.99 5.95 0
 -5 -11 7 13.34 8.39 0
 -5 -11 8 38.91 9.96 0
 -5 -10 6 109.03 12.83 0
 -5 -10 7 138.24 12.42 0
 -5 -10 8 28.7 8.39 0
 -5 -10 9 10.08 7.03 0
 -5 -10 10 10.72 7.59 0
 -5 -9 6 48.91 8.88 0
 -5 -9 7 48.51 9.1 0
 -5 -9 8 46.87 8.64 0
 -5 -9 9 29.6 7.87 0
 -5 -9 10 31.64 8.66 0
 -5 -9 11 53.74 9.35 0
 -5 -8 4 134.94 11.23 0
 -5 -8 5 7.46 5.54 0
 -5 -8 6 67.53 9.24 0
 -5 -8 7 59.15 8.62 0
 -5 -8 8 107.68 11.45 0
 -5 -8 9 18.96 6.85 0
 -5 -8 10 13.56 6.73 0
 -5 -8 11 84.31 10.98 0
 -5 -8 12 0.97 6.9 0
 -5 -7 4 90.74 9.29 0
 -5 -7 5 141.54 10.7 0
 -5 -7 6 156.03 10.79 0
 -5 -7 7 134.25 10.93 0
 -5 -7 9 63.06 9.31 0
 -5 -7 10 19.8 6.96 0
 -5 -7 11 2.01 5.4 0
 -5 -7 12 76.61 10.45 0
 -5 -7 13 110.16 11.84 0
 -5 -7 14 77.37 11.23 0
 -5 -6 5 2.55 4.37 0
 -5 -6 6 13.43 5.03 0
 -5 -6 7 12.22 5.34 0
 -5 -6 8 64.79 8.3 0
 -5 -6 9 21.98 6.86 0
 -5 -6 11 7.13 5.68 0
 -5 -6 12 225.42 14.15 0
 -5 -6 13 23.6 7.08 0
 -5 -6 14 22.41 7.38 0
 -5 -5 3 80.11 7.39 0
 -5 -5 4 192.14 10.23 0
 -5 -5 5 4.83 4.52 0
 -5 -5 6 129.17 9.19 0
 -5 -5 8 10.01 4.83 0
 -5 -5 10 76.85 9.31 0
 -5 -5 11 26.37 6.93 0
 -5 -5 12 84.06 10.09 0
 -5 -5 13 39.39 7.48 0
 -5 -5 14 151.04 12.37 0
 -5 -5 15 1.94 6.5 0
 -5 -4 3 232.2 9.83 0
 -5 -4 4 39.02 5.37 0
 -5 -4 5 1.81 2.95 0
 -5 -4 6 74.24 7.02 0
 -5 -4 7 31.47 5.25 0
 -5 -4 8 17.75 5.28 0
 -5 -4 9 221.68 11.39 0
 -5 -4 10 36.67 7.23 0
 -5 -4 11 126.21 10 0
 -5 -4 14 6.62 5.25 0
 -5 -4 15 21.6 7.47 0
 -5 -4 16 14.46 7.15 0
 -5 -3 7 8.43 4 0
 -5 -3 8 90.34 7.01 0
 -5 -3 9 25.07 5.03 0
 -5 -3 11 30.36 6.37 0
 -5 -3 12 47.76 7.01 0
 -5 -3 13 40.14 6.99 0
 -5 -3 15 50.35 8.89 0
 -5 -3 16 20.12 6.63 0
 -5 -2 4 66.22 5.01 0
 -5 -2 7 20.6 4.31 0
 -5 -2 8 35.4 5.37 0
 -5 -2 9 72.59 6.71 0
 -5 -2 11 116.11 8.85 0
 -5 -2 12 23 5.28 0
 -5 -2 13 45.28 6.86 0
 -5 -2 14 5.03 4.59 0
 -5 -2 15 182.81 12.28 0
 -5 -2 16 31.11 7.35 0
 -5 -1 4 44.17 3.7 0
 -5 -1 5 8.62 2.68 0
 -5 -1 6 222.27 7.99 0
 -5 -1 9 46.49 5.69 0
 -5 -1 10 260.6 10.74 0
 -5 -1 11 51.86 6.51 0
 -5 -1 13 235.36 11.84 0
 -5 -1 14 129.68 9.76 0
 -5 0 4 5.27 1.68 0
 -5 0 5 133 5.12 0
 -5 0 6 137.92 5.69 0
 -5 0 7 38.16 3.93 0
 -5 0 10 1.38 3.02 0
 -5 0 11 -1.62 3.28 0
 -5 0 12 113.91 8.01 0
 -5 0 13 1.2 3.73 0
 -4 -12 6 142.14 14.4 0
 -4 -12 7 118.48 14.16 0
 -4 -12 8 -6 6.12 0
 -4 -11 5 130.66 12.18 0
 -4 -11 6 77.57 11.32 0
 -4 -11 7 93.8 11.86 0
 -4 -11 8 92.76 11.8 0
 -4 -11 9 13.92 7.74 0
 -4 -11 10 4.11 7.36 0
 -4 -10 4 91.57 10.08 0
 -4 -10 5 2.26 5.55 0
 -4 -10 6 41.14 9.36 0
 -4 -10 7 10.36 6.29 0
 -4 -10 8 29.79 7.91 0
 -4 -10 9 11.8 6.81 0
 -4 -10 10 15.51 7.55 0
 -4 -10 11 22.21 7.62 0
 -4 -10 12 10.41 7.87 0
 -4 -9 3 210.34 13.52 0
 -4 -9 4 106.57 10.7 0
 -4 -9 5 144.54 11.56 0
 -4 -9 7 50.45 8.52 0
 -4 -9 8 19.46 7.33 0
 -4 -9 9 156.79 13.18 0
 -4 -9 10 14.34 6.82 0
 -4 -9 11 60.1 10.55 0
 -4 -9 12 58.88 10.14 0
 -4 -8 2 332.13 14.95 0
 -4 -8 3 21.37 5.8 0
 -4 -8 5 336.94 15.47 0
 -4 -8 7 221.35 13.53 0
 -4 -8 8 64.26 8.95 0
 -4 -8 11 15.24 6.52 0
 -4 -8 12 20.93 8.33 0
 -4 -8 13 84.63 11.83 0
 -4 -7 3 109.65 8.63 0
 -4 -7 4 153.8 10.44 0
 -4 -7 5 3.38 4.4 0
 -4 -7 6 129.89 10.16 0
 -4 -7 7 99.3 9.78 0
 -4 -7 8 52.95 7.7 0
 -4 -7 9 34.68 7.1 0
 -4 -7 11 20.41 6.51 0
 -4 -7 12 16.07 6.57 0
 -4 -7 13 26.33 7.41 0
 -4 -7 14 6.84 6.3 0
 -4 -7 15 1.38 6.81 0
 -4 -6 2 33.83 5.56 0
 -4 -6 3 198.58 10.17 0
 -4 -6 4 404.14 14.24 0
 -4 -6 5 233.52 11.19 0
 -4 -6 6 86.53 8.24 0
 -4 -6 7 -2.13 3.66 0
 -4 -6 8 62.15 8.36 0
 -4 -6 9 41.86 6.91 0
 -4 -6 10 46.72 7.46 0
 -4 -6 11 22.04 7.26 0
 -4 -6 14 14.52 7.62 0
 -4 -6 15 57.15 9.47 0
 -4 -6 16 63.58 9.59 0
 -4 -5 2 154.24 8.85 0
 -4 -5 3 256.66 10.59 0
 -4 -5 4 453.01 14.23 0
 -4 -5 5 353.3 12.65 0
 -4 -5 6 57.87 6.52 0
 -4 -5 7 63.61 6.71 0
 -4 -5 8 63.93 7.26 0
 -4 -5 10 61.4 8.55 0
 -4 -5 11 4.86 4.72 0
 -4 -5 14 27.43 6.92 0
 -4 -5 15 91.46 11.69 0
 -4 -5 16 10.02 6.83 0
 -4 -4 5 100.77 7.19 0
 -4 -4 6 5.46 3.45 0
 -4 -4 7 251.18 10.96 0
 -4 -4 8 567.91 16.46 0
 -4 -4 9 103.14 8.53 0
 -4 -4 11 125.87 9.36 0
 -4 -4 12 196.3 12.09 0
 -4 -4 13 143.87 10.77 0
 -4 -4 14 1.42 5.18 0
 -4 -4 15 1.57 5.07 0
 -4 -4 16 20.56 6.96 0
 -4 -4 17 7.28 6.11 0
 -4 -3 2 193.23 7.62 0
 -4 -3 3 112.78 6.2 0
 -4 -3 7 516.1 14.21 0
 -4 -3 9 40.25 5.65 0
 -4 -3 10 3.14 3.87 0
 -4 -3 11 28.03 5.59 0
 -4 -3 12 32.83 6.12 0
 -4 -3 13 220.49 12.45 0
 -4 -3 14 10.39 6.15 0
 -4 -3 15 19.96 6.86 0
 -4 -3 16 7.53 6.56 0
 -4 -3 17 47.87 9.16 0
 -4 -2 2 297.83 8.41 0
 -4 -2 3 185.62 6.84 0
 -4 -2 4 153.37 6.76 0
 -4 -2 5 302.79 9.48 0
 -4 -2 9 37.93 5.47 0
 -4 -2 10 96.88 7.71 0
 -4 -2 11 -1.01 3.53 0
 -4 -2 13 61.36 7.83 0
 -4 -2 14 79.98 8.34 0
 -4 -2 15 41.44 7.34 0
 -4 -2 16 73.63 9.37 0
 -4 -2 18 30.08 7.58 0
 -4 -1 2 212.37 6.21 0
 -4 -1 3 614.47 10.71 0
 -4 -1 4 189.28 6.61 0
 -4 -1 6 166.13 7.11 0
 -4 -1 9 71 6.32 0
 -4 -1 10 22.67 4.72 0
 -4 -1 11 10.5 4.07 0
 -4 -1 13 17.87 5.62 0
 -4 -1 14 53.49 7.67 0
 -4 -1 15 1.77 4.84 0
 -4 -1 16 2.98 5.66 0
 -4 -1 17 23.08 6.77 0
 -4 -1 18 8.11 5.66 0
 -4 0 3 85.73 3.67 0
 -4 0 4 617.71 9.98 0
 -4 0 5 192.48 6.29 0
 -4 0 6 104.94 5.25 0
 -4 0 7 3.62 2.38 0
 -4 0 10 0.79 2.8 0
 -4 0 11 19.97 4.33 0
 -4 0 12 69.98 7.16 0
 -4 0 16 244.33 14.13 0
 -4 0 17 60.73 8.45 0
 -4 0 18 16.52 6.2 0
 -4 1 4 194.94 4.86 0
 -4 1 5 294.12 6.73 0
 -4 1 6 166.33 5.88 0
 -4 1 7 45.46 3.93 0
 -4 1 8 170.06 7.22 0
 -4 2 4 147.08 3.35 0
 -4 2 5 297.43 6.07 0
 -4 2 6 119.8 4.68 0
 -4 3 5 75.8 2.85 0
 -4 4 5 99.73 2.88 0
 -3 -13 5 69.69 10.77 0
 -3 -13 6 28.48 8.84 0
 -3 -13 7 101.34 12.58 0
 -3 -13 8 1.02 7.08 0
 -3 -12 4 57.87 10.91 0
 -3 -12 5 226.74 15.34 0
 -3 -12 6 115.93 12.95 0
 -3 -12 7 173.07 14.68 0
 -3 -12 8 31.27 8.89 0
 -3 -12 9 14.35 8.23 0
 -3 -12 10 35.68 9.58 0
 -3 -11 3 157.27 12.96 0
 -3 -11 4 22.47 7.22 0
 -3 -11 5 98.13 12.18 0
 -3 -11 6 75.91 10.17 0
 -3 -11 7 24.31 7.62 0
 -3 -11 10 53.71 9.89 0
 -3 -11 11 15.92 7.87 0
 -3 -11 12 12.24 8.64 0
 -3 -10 2 220.98 13.19 0
 -3 -10 3 384.77 17.35 0
 -3 -10 4 98.86 10.4 0
 -3 -10 5 358.63 17.28 0
 -3 -10 7 19.18 6.52 0
 -3 -10 8 91.85 10.2 0
 -3 -10 9 131.59 11.91 0
 -3 -10 10 47.9 9.72 0
 -3 -10 11 22.5 7.61 0
 -3 -10 12 15.39 7.54 0
 -3 -10 13 99.49 12.34 0
 -3 -9 2 160.58 11.52 0
 -3 -9 3 122.96 9.86 0
 -3 -9 4 301.66 14.86 0
 -3 -9 5 19.43 5.87 0
 -3 -9 6 69.76 8.83 0
 -3 -9 7 118.23 11 0
 -3 -9 9 63.27 8.92 0
 -3 -9 10 23.36 7.53 0
 -3 -9 11 33.41 7.92 0
 -3 -9 12 -0.61 5.83 0
 -3 -9 13 10.34 6.81 0
 -3 -9 14 20.71 7.92 0
 -3 -8 2 139.32 9.56 0
 -3 -8 3 63.3 7.23 0
 -3 -8 4 85.77 8.44 0
 -3 -8 5 136.76 10.07 0
 -3 -8 6 234.37 12.64 0
 -3 -8 7 56.91 7.9 0
 -3 -8 8 54.72 8.41 0
 -3 -8 10 53.73 9.15 0
 -3 -8 11 1.71 5.32 0
 -3 -8 12 434.76 19.26 0
 -3 -8 13 60.92 9.66 0
 -3 -8 15 25.47 8.3 0
 -3 -7 1 326.15 13.16 0
 -3 -7 2 317.07 12.94 0
 -3 -7 3 95.2 7.6 0
 -3 -7 4 19.16 4.83 0
 -3 -7 6 314.52 13.31 0
 -3 -7 7 421.31 15.59 0
 -3 -7 8 139.8 10.53 0
 -3 -7 9 26.41 6.12 0
 -3 -7 10 17.36 6.2 0
 -3 -7 12 140.02 12.17 0
 -3 -7 14 8.37 6.07 0
 -3 -7 15 12.88 6.68 0
 -3 -7 16 17.32 8.37 0
 -3 -6 2 38.89 5.18 0
 -3 -6 3 305.66 11.87 0
 -3 -6 5 319.56 12.64 0
 -3 -6 6 154.08 9.07 0
 -3 -6 7 276.55 12.16 0
 -3 -6 9 91.61 8.14 0
 -3 -6 11 46.55 7.78 0
 -3 -6 12 9.24 6.18 0
 -3 -6 13 105.51 10.93 0
 -3 -6 14 35.52 7.85 0
 -3 -6 15 58.14 9.43 0
 -3 -6 16 44.27 9.08 0
 -3 -6 17 16.91 7.48 0
 -3 -5 5 83.82 6.61 0
 -3 -5 6 4.09 3.47 0
 -3 -5 7 14.93 4.64 0
 -3 -5 8 160.45 9.31 0
 -3 -5 9 395.24 14.63 0
 -3 -5 10 520.07 17.31 0
 -3 -5 11 71.35 8.88 0
 -3 -5 12 70.84 8.58 0
 -3 -5 13 -4.05 4.63 0
 -3 -5 14 40.42 7.72 0
 -3 -5 15 28.62 7.51 0
 -3 -5 16 1.86 5.56 0
 -3 -5 17 7.56 6.22 0
 -3 -5 18 55.6 10.32 0
 -3 -4 1 90.41 5.94 0
 -3 -4 2 77.23 5.64 0
 -3 -4 3 399.38 11.35 0
 -3 -4 7 509.74 14.22 0
 -3 -4 8 118.74 7.71 0
 -3 -4 9 145.87 8.84 0
 -3 -4 11 5.83 4.39 0
 -3 -4 13 25.55 6.17 0
 -3 -4 14 2.44 4.81 0
 -3 -4 15 177.36 13.08 0
 -3 -4 16 75.74 10.32 0
 -3 -4 17 50.14 9.44 0
 -3 -4 18 -4.79 5.63 0
 -3 -3 1 546.9 11.51 0
 -3 -3 2 522.97 11.42 0
 -3 -3 3 333.91 9.37 0
 -3 -3 4 157.03 7.24 0
 -3 -3 5 442.8 11.53 0
 -3 -3 8 487.26 13.77 0
 -3 -3 9 7.62 3.51 0
 -3 -3 10 91.03 7.57 0
 -3 -3 11 34.89 6.04 0
 -3 -3 12 15.39 4.95 0
 -3 -3 16 -0.01 4.96 0
 -3 -3 17 24.2 8.32 0
 -3 -3 18 48.07 9.19 0
 -3 -2 1 1041.51 13.99 0
 -3 -2 2 464.99 9.62 0
 -3 -2 3 429.09 9.56 0
 -3 -2 4 172.7 6.56 0
 -3 -2 5 154.72 6.47 0
 -3 -2 6 175.71 7.58 0
 -3 -2 9 84.77 6.97 0
 -3 -2 10 69.7 6.6 0
 -3 -2 18 20.28 7.19 0
 -3 -2 19 70.93 10.34 0
 -3 -1 1 680.36 9.64 0
 -3 -1 2 336.98 7.18 0
 -3 -1 3 12.07 2.3 0
 -3 -1 4 543.19 10.08 0
 -3 -1 5 506.89 10.57 0
 -3 -1 6 314.19 9.02 0
 -3 -1 7 606.35 13.2 0
 -3 0 1 1206.97 10.23 0
 -3 0 2 161.65 4.21 0
 -3 0 3 729.44 9.49 0
 -3 0 4 316.98 7.03 0
 -3 1 2 324.6 4.42 0
 -3 1 3 10.74 1.52 0
 -3 1 4 515.93 8.02 0
 -3 2 3 406.03 5.15 0
 -2 -14 7 28.66 8.85 0
 -2 -13 9 64.35 11.01 0
 -2 -13 10 86.27 12.29 0
 -2 -12 4 9.87 6.66 0
 -2 -12 5 55.89 9.18 0
 -2 -12 6 33.13 9.25 0
 -2 -12 7 134.51 12.72 0
 -2 -12 8 25.4 7.94 0
 -2 -12 10 101.61 12.7 0
 -2 -12 11 31.14 9.04 0
 -2 -12 12 1.59 6.39 0
 -2 -11 2 205.76 12.97 0
 -2 -11 3 296.53 15.76 0
 -2 -11 4 155.45 12.69 0
 -2 -11 5 96.61 11.15 0
 -2 -11 6 13.36 6.47 0
 -2 -11 7 86.04 11.03 0
 -2 -11 8 24.46 7.41 0
 -2 -11 10 8.86 6.89 0
 -2 -11 11 57.92 9.98 0
 -2 -11 12 178.22 14.14 0
 -2 -11 13 2.13 6.35 0
 -2 -10 3 318.97 15.37 0
 -2 -10 4 116.3 9.88 0
 -2 -10 5 120.03 9.75 0
 -2 -10 9 2.25 5.33 0
 -2 -10 11 122.62 11.44 0
 -2 -10 12 180.64 13.82 0
 -2 -10 14 31.39 8.51 0
 -2 -9 2 83.75 7.58 0
 -2 -9 3 88.06 7.99 0
 -2 -9 4 144.03 10.57 0
 -2 -9 5 126.9 9.57 0
 -2 -9 7 64.74 8.63 0
 -2 -9 8 395.34 16.62 0
 -2 -9 9 27.38 6.82 0
 -2 -9 13 170.56 14.04 0
 -2 -9 15 82.1 12.28 0
 -2 -8 1 168.18 9.71 0
 -2 -8 2 50.65 6.26 0
 -2 -8 3 153.85 9.36 0
 -2 -8 5 270.23 12.32 0
 -2 -8 6 31.91 5.75 0
 -2 -8 7 28 5.88 0
 -2 -8 8 82.1 8.96 0
 -2 -8 9 112.04 10.18 0
 -2 -8 10 81.35 9.59 0
 -2 -8 11 25.52 6.37 0
 -2 -8 12 38.21 7.63 0
 -2 -8 13 88.58 10.85 0
 -2 -8 14 47.96 9.55 0
 -2 -8 15 56.87 9.63 0
 -2 -8 16 15.63 7.21 0
 -2 -7 0 1.7 2.94 0
 -2 -7 1 158.01 8.83 0
 -2 -7 2 217.96 9.93 0
 -2 -7 3 172.52 9.47 0
 -2 -7 4 391.05 13.43 0
 -2 -7 5 164.5 9.29 0
 -2 -7 6 345.31 13.26 0
 -2 -7 7 127.16 9.39 0
 -2 -7 8 -0.2 3.55 0
 -2 -7 10 18.85 5.5 0
 -2 -7 11 55.54 8.29 0
 -2 -7 12 26.06 7.54 0
 -2 -7 13 45.53 8.06 0
 -2 -7 14 189.98 13.65 0
 -2 -7 15 36.37 7.84 0
 -2 -7 16 6.2 6.5 0
 -2 -7 17 52.12 9.65 0
 -2 -6 6 22.53 4.41 0
 -2 -6 7 660.27 17.4 0
 -2 -6 8 24.15 4.92 0
 -2 -6 10 37.4 6.27 0
 -2 -6 11 329.75 14.36 0
 -2 -6 12 83.85 8.58 0
 -2 -6 13 8.99 5.2 0
 -2 -6 14 64.52 9.36 0
 -2 -6 15 17.41 7.64 0
 -2 -6 16 3.75 6.58 0
 -2 -6 17 18.81 7.23 0
 -2 -6 18 21.6 8.06 0
 -2 -5 0 5.63 3.43 0
 -2 -5 1 186.45 8.04 0
 -2 -5 2 642.42 14.05 0
 -2 -5 3 60.18 5.02 0
 -2 -5 7 1467.67 24.09 0
 -2 -5 8 56.4 5.76 0
 -2 -5 9 495.02 15.57 0
 -2 -5 10 39.87 6.08 0
 -2 -5 11 49.49 6.91 0
 -2 -5 14 109.81 10.03 0
 -2 -5 15 57.39 8.95 0
 -2 -5 16 147.53 12.89 0
 -2 -5 17 7.76 6.38 0
 -2 -5 18 15.94 7.94 0
 -2 -4 0 457.94 10.82 0
 -2 -4 2 149.74 6.45 0
 -2 -4 3 327.1 9.44 0
 -2 -4 4 173.13 7.3 0
 -2 -4 5 58.88 4.81 0
 -2 -4 8 29.67 4.68 0
 -2 -4 9 18.63 4.43 0
 -2 -4 10 89.76 7.62 0
 -2 -4 11 60.68 7.55 0
 -2 -4 13 5.77 4.91 0
 -2 -4 15 56.15 8.72 0
 -2 -4 16 23.43 7.06 0
 -2 -4 17 3.34 5.93 0
 -2 -4 19 48.18 9.96 0
 -2 -3 0 21.89 3.16 0
 -2 -3 2 2561.62 22.6 0
 -2 -3 3 178.11 6.48 0
 -2 -3 4 146.97 6.38 0
 -2 -3 5 144.32 6.43 0
 -2 -3 6 2118.3 24.43 0
 -2 -2 1 1267.56 13.73 0
 -2 -2 2 204.54 6.09 0
 -2 -2 3 125.86 4.99 0
 -2 -2 4 547.63 10.55 0
 -2 -2 5 712.18 12.67 0
 -2 -1 0 373.04 6.53 0
 -2 -1 1 1728.1 13.38 0
 -2 -1 2 2101.78 15.56 0
 -2 -1 3 1849.89 15.9 0
 -2 -1 4 977.58 12.76 0
 -2 0 2 1596.32 11.37 0
 -2 3 2 2506.87 13.54 0
 -1 -14 6 54.28 10 0
 -1 -14 7 17.46 8.54 0
 -1 -14 8 87.18 12.72 0
 -1 -13 4 203.4 14.16 0
 -1 -13 5 135.08 13.15 0
 -1 -13 6 8.58 6.51 0
 -1 -13 7 63.85 10.53 0
 -1 -13 8 83.53 12.12 0
 -1 -13 9 5.64 6.88 0
 -1 -13 10 6.17 6.97 0
 -1 -13 11 49.89 10.73 0
 -1 -12 3 68.9 9.6 0
 -1 -12 4 76.51 10.59 0
 -1 -12 5 48.72 9.1 0
 -1 -12 6 49.99 8.43 0
 -1 -12 7 133.7 12.67 0
 -1 -12 8 13.84 7.01 0
 -1 -12 9 103.55 11.94 0
 -1 -12 10 52.13 9.71 0
 -1 -12 11 63.97 10.85 0
 -1 -12 12 71.19 11.2 0
 -1 -11 3 81.22 9.37 0
 -1 -11 4 68.85 8.4 0
 -1 -11 5 2.85 4.8 0
 -1 -11 6 138.42 10.96 0
 -1 -11 7 132.11 11.59 0
 -1 -11 9 32.19 7.63 0
 -1 -11 10 48.47 9.04 0
 -1 -11 11 35.67 8.1 0
 -1 -11 12 61.68 10.5 0
 -1 -11 13 134.75 13.77 0
 -1 -11 14 90.53 12.39 0
 -1 -10 2 238.57 12.84 0
 -1 -10 4 313.72 14.09 0
 -1 -10 5 80.23 8.54 0
 -1 -10 6 38.94 7.33 0
 -1 -10 9 28.01 7.59 0
 -1 -10 10 10.73 6.08 0
 -1 -10 11 223.3 14.48 0
 -1 -10 12 17.13 6.88 0
 -1 -10 13 53.67 9.39 0
 -1 -10 14 82.65 11.81 0
 -1 -10 15 41.95 9.18 0
 -1 -9 1 604.81 17.55 0
 -1 -9 2 6.27 3.93 0
 -1 -9 3 379.72 14.18 0
 -1 -9 4 100.01 7.89 0
 -1 -9 6 44.77 6.8 0
 -1 -9 7 43.3 7.13 0
 -1 -9 8 55.63 7.89 0
 -1 -9 9 147.5 10.67 0
 -1 -9 11 98.93 10.69 0
 -1 -9 12 200.55 13.85 0
 -1 -9 13 86.79 11.87 0
 -1 -9 14 53.51 9.25 0
 -1 -9 15 -0.3 6.42 0
 -1 -9 16 4.23 6.76 0
 -1 -8 0 3.74 3.25 0
 -1 -8 3 496.36 14.94 0
 -1 -8 4 412.94 13.9 0
 -1 -8 5 106.82 7.68 0
 -1 -8 7 131.52 9.61 0
 -1 -8 8 49.04 6.8 0
 -1 -8 9 40.02 6.6 0
 -1 -8 11 169.89 11.98 0
 -1 -8 12 53.24 8.77 0
 -1 -8 13 68.93 9.48 0
 -1 -8 15 173.22 13.4 0
 -1 -8 16 39.16 8.81 0
 -1 -8 17 50.6 9.68 0
 -1 -7 4 117.01 7.52 0
 -1 -7 5 358.86 12.32 0
 -1 -7 6 126.12 8.22 0
 -1 -7 7 147.98 9.02 0
 -1 -7 8 43.42 6.02 0
 -1 -7 9 125.52 9.54 0
 -1 -7 11 116.05 9.62 0
 -1 -7 12 190.02 12.09 0
 -1 -7 13 34.01 7.18 0
 -1 -7 14 264.7 15.25 0
 -1 -7 15 27.15 7.67 0
 -1 -7 16 102.31 11.9 0
 -1 -7 18 90.52 12.04 0
 -1 -6 0 244.91 9.04 0
 -1 -6 2 323.25 10.49 0
 -1 -6 8 6.01 3.6 0
 -1 -6 9 374.08 13.64 0
 -1 -6 11 33.91 6.17 0
 -1 -6 12 25.29 6.46 0
 -1 -6 13 192.69 11.98 0
 -1 -6 14 90.78 10.49 0
 -1 -6 16 53.32 9.33 0
 -1 -6 17 8.14 6.86 0
 -1 -5 0 545.36 11.99 0
 -1 -5 1 -0.62 2.61 0
 -1 -5 4 715.25 14.42 0
 -1 -5 5 445.7 11.74 0
 -1 -5 10 23.33 4.6 0
 -1 -5 11 24.02 5.41 0
 -1 -5 12 319.52 13.77 0
 -1 -5 13 95.94 9.56 0
 -1 -5 15 45.41 7.94 0
 -1 -5 16 77.5 9.74 0
 -1 -5 17 4.51 6.64 0
 -1 -5 18 182.12 14.84 0
 -1 -5 19 19.54 8.76 0
 -1 -4 0 5322.69 32.78 0
 -1 -4 1 1092.42 14.87 0
 -1 -4 2 1878.45 19.81 0
 -1 -4 3 102.79 5.67 0
 -1 -4 4 1413.18 18.38 0
 -1 -4 5 1680.43 21.01 0
 -1 -3 0 5077.56 28 0
 -1 -3 1 2246.4 18.73 0
 -1 -3 2 345.76 7.68 0
 -1 -3 3 1068.28 13.84 0
 -1 -3 4 737.92 12.27 0
 -1 -3 5 401.62 9.73 0
 -1 -2 0 3131.01 18.72 0
 -1 -2 1 1478.18 13.04 0
 -1 -2 2 376.13 7.15 0
 -1 -2 3 1697 15.72 0
 -1 -1 0 5108.06 18.91 0
 -1 -1 2 9737.44 29.25 0
 -1 0 1 887.48 6.04 0
 -1 2 0 3233.75 11.68 0
 0 -14 6 368.31 18.48 0
 0 -14 7 42.6 8.95 0
 0 -14 9 37.72 8.83 0
 0 -13 5 3.98 6.58 0
 0 -13 6 11.21 6.21 0
 0 -13 7 18.34 7.79 0
 0 -13 8 3.91 6.1 0
 0 -13 9 4.97 6.51 0
 0 -13 11 36.36 8.81 0
 0 -12 5 95.46 10.63 0
 0 -12 8 248.42 14.92 0
 0 -12 9 42.43 8.58 0
 0 -12 11 -2.01 6.17 0
 0 -12 12 9.14 6.62 0
 0 -12 13 16.9 7.25 0
 0 -11 2 124.91 9.78 0
 0 -11 3 246.89 13.12 0
 0 -11 4 6.63 4.84 0
 0 -11 6 122.51 10.57 0
 0 -11 7 26.67 7.2 0
 0 -11 8 11.43 5.5 0
 0 -11 9 61.76 8.8 0
 0 -11 10 4.2 5.33 0
 0 -11 11 1.54 6.35 0
 0 -11 12 39.49 9.18 0
 0 -11 14 224.68 15.95 0
 0 -10 2 30.66 5.91 0
 0 -10 3 7.9 5.04 0
 0 -10 4 154.11 10.23 0
 0 -10 5 8.09 4.59 0
 0 -10 6 26.48 5.97 0
 0 -10 7 92.08 8.65 0
 0 -10 8 1.64 4.4 0
 0 -10 9 0.3 4.88 0
 0 -10 10 15.06 6.26 0
 0 -10 11 99.93 10.62 0
 0 -10 12 305.93 16.73 0
 0 -10 13 -4.76 5.99 0
 0 -10 14 206.23 14.73 0
 0 -9 1 235.46 10.7 0
 0 -9 2 179.21 9.45 0
 0 -9 3 3.54 4.17 0
 0 -9 4 8.98 4.17 0
 0 -9 5 43.7 6.21 0
 0 -9 6 153.94 9.55 0
 0 -9 7 587.64 17.79 0
 0 -9 8 10.31 4.79 0
 0 -9 9 1.38 4.23 0
 0 -9 10 -2.2 4.26 0
 0 -9 11 47.46 8.37 0
 0 -9 13 503.08 20.47 0
 0 -9 15 30.91 8.87 0
 0 -9 16 20.32 8.29 0
 0 -8 4 74.09 7.07 0
 0 -8 5 50.74 6.08 0
 0 -8 6 28.53 5.23 0
 0 -8 7 134.28 9.24 0
 0 -8 8 191.08 10.68 0
 0 -8 10 1.71 4.22 0
 0 -8 11 394.55 16.26 0
 0 -8 12 188.68 11.99 0
 0 -8 13 154.73 12.06 0
 0 -8 14 1.43 5.41 0
 0 -8 15 12.5 7.11 0
 0 -8 16 23.11 7.85 0
 0 -8 17 11 6.94 0
 0 -7 0 -0.26 2.92 0
 0 -7 6 13.94 3.82 0
 0 -7 7 46.34 6.13 0
 0 -7 10 9.27 4.44 0
 0 -7 11 31.23 6.09 0
 0 -7 12 7.27 4.93 0
 0 -7 13 80.39 8.52 0
 0 -7 16 21.99 6.92 0
 0 -7 17 0.03 5.63 0
 0 -7 18 -0.06 6.62 0
 0 -6 2 115.46 5.88 0
 0 -6 3 26.48 3.76 0
 0 -6 4 1938.74 24.05 0
 0 -6 8 85.48 6.97 0
 0 -6 9 795.53 19.04 0
 0 -6 10 67.13 6.87 0
 0 -6 13 13.4 5.26 0
 0 -6 14 -2.09 5.61 0
 0 -6 15 10.78 6.12 0
 0 -6 16 111.95 10.78 0
 0 -6 17 12.33 7.09 0
 0 -6 18 5.45 6.1 0
 0 -5 2 154.24 6.42 0
 0 -5 3 1098.51 16.08 0
 0 -5 4 1191.38 17.39 0
 0 -5 5 661.88 13.69 0
 0 -5 6 159.28 7.47 0
 0 -5 8 100.45 6.66 0
 0 -5 9 91.74 6.77 0
 0 -5 19 -0.31 6.88 0
 0 -4 0 1098.92 13.48 0
 0 -4 1 3112.79 22.63 0
 0 -4 2 15.17 2.7 0
 0 -4 3 1550.85 17.12 0
 0 -4 4 440.62 9.89 0
 0 -4 5 2462.6 23.88 0
 0 -3 1 282.34 6.32 0
 0 -3 2 7019.5 30.19 0
 0 -3 3 4649.2 26.24 0
 0 -2 0 296.43 5.1 0
 0 -2 1 393.97 5.72 0
 0 -2 2 2.59 1.65 0
 0 -1 1 43.58 1.73 0
 0 1 0 0.91 0.73 0
 0 2 0 287.45 4.82 0
 1 -14 9 3.99 6.03 0
 1 -13 6 3.36 6.08 0
 1 -13 8 99.44 10.86 0
 1 -13 9 8.48 6.34 0
 1 -13 11 44.95 8.66 0
 1 -12 4 72.66 9.14 0
 1 -12 5 55.36 8.22 0
 1 -12 6 47.05 7.65 0
 1 -12 8 19.02 6.42 0
 1 -12 9 104.13 10.68 0
 1 -12 10 64.44 9.88 0
 1 -11 3 76.52 8.26 0
 1 -11 4 71.79 8.54 0
 1 -11 7 138 10.59 0
 1 -11 8 40.92 6.94 0
 1 -11 9 31.55 7.56 0
 1 -11 10 44.51 8.52 0
 1 -11 13 126.05 12.37 0
 1 -11 14 76.08 10.93 0
 1 -10 2 234.68 11.06 0
 1 -10 4 291.93 12.23 0
 1 -10 5 69.48 6.89 0
 1 -10 6 44.87 7.02 0
 1 -10 7 48.61 7.34 0
 1 -10 8 31.58 6.73 0
 1 -10 9 24.48 6.09 0
 1 -10 10 9.19 5.2 0
 1 -10 12 6.63 5.7 0
 1 -10 13 38.68 7.78 0
 1 -10 14 68.53 10.21 0
 1 -10 15 43.93 8.51 0
 1 -9 2 8.83 3.91 0
 1 -9 3 358.6 12.39 0
 1 -9 5 113.26 7.79 0
 1 -9 6 46.81 6.44 0
 1 -9 7 44.14 6.1 0
 1 -9 8 48.79 6.57 0
 1 -9 10 12.1 5.39 0
 1 -9 11 93.86 8.84 0
 1 -9 12 189.19 12.14 0
 1 -9 14 56.14 8.92 0
 1 -9 15 5.83 5.73 0
 1 -9 16 1.13 5.74 0
 1 -8 6 221.76 10.28 0
 1 -8 7 116.17 7.88 0
 1 -8 8 39.17 5.89 0
 1 -8 9 35.87 5.9 0
 1 -8 11 164.35 11.02 0
 1 -8 12 50.29 7.53 0
 1 -8 13 56.53 8.42 0
 1 -8 14 115.34 10.48 0
 1 -8 15 163.32 13.12 0
 1 -8 16 45.77 9.03 0
 1 -8 17 49.33 9.08 0
 1 -7 1 86.86 5.68 0
 1 -7 2 788.09 15.04 0
 1 -7 3 487.53 12.3 0
 1 -7 7 156.19 8.54 0
 1 -7 10 360.06 13.87 0
 1 -7 11 111.19 9.32 0
 1 -7 12 220.54 12.43 0
 1 -7 13 46.2 7.56 0
 1 -7 15 24.04 7.34 0
 1 -7 16 96.65 11.88 0
 1 -7 17 11.24 6.58 0
 1 -7 18 83.53 11.73 0
 1 -6 0 255.02 7.91 0
 1 -6 1 310.06 8.65 0
 1 -6 2 318.44 8.77 0
 1 -6 4 135.43 6.29 0
 1 -6 5 356.97 10.44 0
 1 -6 8 6.42 3.31 0
 1 -6 9 360.34 12.59 0
 1 -6 11 32.29 5.49 0
 1 -6 12 35.59 7.15 0
 1 -6 13 190.03 11.29 0
 1 -6 14 80.61 8.65 0
 1 -6 15 35.64 7.6 0
 1 -6 16 55.63 9.48 0
 1 -6 18 35.69 8.35 0
 1 -5 0 567.03 10.18 0
 1 -5 1 0.51 2.15 0
 1 -5 2 503.79 9.8 0
 1 -5 3 301.21 7.99 0
 1 -5 4 726.36 12.68 0
 1 -5 5 471.07 11.01 0
 1 -5 6 478.48 11.52 0
 1 -4 0 5307.84 25.91 0
 1 -4 1 1102.63 12.13 0
 1 -4 2 1924.56 16.47 0
 1 -4 3 103.76 4.51 0
 1 -4 4 1349.05 15.75 0
 1 -4 5 1673.21 18.88 0
 1 -3 0 4887.24 20.37 0
 1 -3 1 2258.55 14.16 0
 1 -3 2 350.29 6.28 0
 1 -3 3 1125.84 12.11 0
 1 1 -1 1079.37 8.73 0
 1 1 0 5190.82 18.3 0
 1 1 1 1073.95 9.26 0
 2 -13 6 71.72 8.9 0
 2 -13 7 12.1 5.77 0
 2 -13 8 100.97 9.29 0
 2 -13 9 70.58 9.23 0
 2 -12 5 50.7 7.4 0
 2 -12 6 29.22 5.79 0
 2 -12 8 24.08 5.77 0
 2 -12 9 29.23 6.85 0
 2 -12 10 103.84 9.95 0
 2 -12 11 37.01 7.83 0
 2 -12 12 -3.97 4.11 0
 2 -11 5 95.74 8.12 0
 2 -11 6 10.91 4.34 0
 2 -11 7 84.7 8.45 0
 2 -11 8 20.49 5.92 0
 2 -11 11 54.19 7.83 0
 2 -11 12 190.34 12.77 0
 2 -11 13 13.46 6.27 0
 2 -11 14 26.58 7.64 0
 2 -10 3 327.78 11.91 0
 2 -10 4 130.63 8.3 0
 2 -10 5 130.25 8.43 0
 2 -10 6 108.86 8.14 0
 2 -10 7 20.03 4.74 0
 2 -10 8 43.15 6.39 0
 2 -10 9 7.83 4.54 0
 2 -10 11 103.59 9.66 0
 2 -10 12 213.28 12.9 0
 2 -10 13 101.55 10.34 0
 2 -10 14 32.81 7.36 0
 2 -10 15 6.27 6.01 0
 2 -9 4 132.73 7.74 0
 2 -9 5 123.19 7.72 0
 2 -9 6 59.2 5.92 0
 2 -9 7 61.34 6.68 0
 2 -9 8 387.24 13.71 0
 2 -9 10 142.91 9.74 0
 2 -9 11 26.21 6.27 0
 2 -9 12 71.35 8.45 0
 2 -9 13 182.08 11.67 0
 2 -9 14 132.79 11.29 0
 2 -9 15 87.4 10.84 0
 2 -9 16 5.51 6.45 0
 2 -8 2 52.65 4.67 0
 2 -8 6 26 4.2 0
 2 -8 7 23 4.4 0
 2 -8 8 77.35 6.83 0
 2 -8 9 108.35 7.88 0
 2 -8 10 64.31 6.84 0
 2 -8 11 17.36 5.01 0
 2 -8 12 31.54 6.17 0
 2 -8 13 98.92 9.04 0
 2 -8 14 38.39 8.08 0
 2 -8 15 57.26 8.58 0
 2 -8 16 9.65 6.1 0
 2 -7 2 227.53 7.49 0
 2 -7 3 159.9 6.56 0
 2 -7 4 377.94 10.17 0
 2 -7 9 91.94 7.16 0
 2 -7 10 15.19 4.54 0
 2 -7 11 51.96 6.67 0
 2 -7 12 30.38 6.1 0
 2 -7 13 44.4 6.8 0
 2 -7 14 178.58 11.88 0
 2 -7 15 39.56 8.02 0
 2 -7 16 11.44 5.89 0
 2 -6 1 1045.49 13.83 0
 2 -6 2 467.71 9.49 0
 2 -6 3 233.46 7.08 0
 2 -6 4 144.27 5.93 0
 2 -6 6 14.64 3.26 0
 2 -6 8 28.2 4.4 0
 2 -6 9 163.57 8.4 0
 2 -6 10 23.71 4.75 0
 2 -6 11 343.76 12.96 0
 2 -6 12 94.62 8.4 0
 2 -6 14 66.18 8.13 0
 2 -6 15 26.39 6.4 0
 2 -6 16 9 6.1 0
 2 -6 18 25.91 7.45 0
 2 -5 3 58.48 3.42 0
 2 -5 4 157.41 5.63 0
 2 -5 5 262.62 7.81 0
 2 -5 6 309.44 8.95 0
 2 -5 7 1472.02 20.39 0
 2 -4 1 108.45 3.31 0
 2 -4 4 173.49 5.3 0
 2 -3 1 374.99 4.44 0
 2 -3 2 2451.27 13.28 0
 2 0 0 541.39 5.46 0
 2 0 1 889.23 7.7 0
 3 -9 8 163.38 8.35 0
 3 -9 10 18.06 4.26 0
 3 -9 11 33.03 5.33 0
 3 -9 12 5.24 3.71 0
 3 -8 7 55.17 5.1 0
 3 -8 8 48.13 5.12 0
 3 -8 9 38.19 5.12 0
 3 -8 10 38.28 5.88 0
 3 -8 11 6.93 3.86 0
 3 -8 12 445.83 15.41 0
 3 -8 13 70.8 8.26 0
 3 -8 14 13.95 5.01 0
 3 -8 15 35.83 7.3 0
 3 -8 16 -3.47 4.9 0
 3 -7 3 95.25 4.49 0
 3 -7 8 135.14 7.12 0
 3 -7 9 27.15 4.54 0
 3 -7 10 12.57 3.54 0
 3 -7 11 51.58 6.35 0
 3 -7 12 141.41 9.12 0
 3 -7 13 78.35 8.18 0
 3 -7 14 10.48 4.88 0
 3 -7 15 6.37 5.43 0
 3 -6 3 315.15 6.9 0
 3 -6 6 150.6 6.26 0
 3 -6 9 96.83 6.58 0
 3 -6 10 27.62 4.82 0
 3 -6 11 60.48 6.17 0
 3 -6 12 12.8 4.41 0
 3 -6 13 106.81 8.7 0
 3 -6 14 22.77 6.29 0
 3 -6 15 47.42 8 0
 3 -6 16 41.42 7.32 0
 3 -6 17 19.34 7.07 0
 3 -6 18 89.91 10.9 0
 3 -5 3 194.22 4.69 0
 3 -5 4 10.04 1.85 0
 3 -5 6 4.22 2.16 0
 3 -5 7 18.68 2.97 0
 3 -4 3 403.89 5.84 0
 3 -4 4 2514.34 17.16 0
 3 -3 3 330.68 4.83 0
 3 -1 2 336.31 4.77 0
 4 -4 6 2.2 1.04 0
 -8 -4 -1 80.6 11.29 0
 -8 -4 0 50.32 9.47 0
 -8 -3 -1 17.13 6.64 0
 -7 -8 -2 10.83 7.9 0
 -7 -8 -1 51.47 11.01 0
 -7 -8 0 4.47 7.28 0
 -7 -7 -6 1.12 6.51 0
 -7 -7 -3 44.87 9.56 0
 -7 -7 -2 13.26 7.61 0
 -7 -7 -1 13.56 8.24 0
 -7 -7 0 -2.6 5.98 0
 -7 -7 1 34.47 9.27 0
 -7 -7 2 15.73 7.87 0
 -7 -6 -6 52.51 9.08 0
 -7 -6 -5 47.8 9.04 0
 -7 -6 -4 15.54 7.24 0
 -7 -6 -3 37.41 8.34 0
 -7 -6 -2 64.51 10.6 0
 -7 -6 -1 1.57 6.94 0
 -7 -6 0 15.75 8.46 0
 -7 -6 1 2.28 6.24 0
 -7 -5 -6 82.17 10.16 0
 -7 -5 -5 12.17 7.01 0
 -7 -5 -4 24.36 7.39 0
 -7 -5 -3 6.69 6.1 0
 -7 -5 -2 33.68 7.88 0
 -7 -4 -5 24.7 6.37 0
 -7 -4 -4 39.19 7.8 0
 -7 -4 -3 10.16 5.74 0
 -7 -4 -2 18.29 6.58 0
 -7 -4 -1 163.14 13.12 0
 -7 -3 -4 142.94 10.88 0
 -7 -3 -3 81.38 10 0
 -7 -2 -4 6.52 5.14 0
 -7 -2 -3 141.61 10.81 0
 -7 -1 -3 172.37 10.73 0
 -6 -10 -5 10.83 8.47 0
 -6 -10 -4 79.41 12.71 0
 -6 -10 -3 18.6 8.8 0
 -6 -10 -2 1.59 7.03 0
 -6 -10 -1 3.51 6.83 0
 -6 -10 0 16.67 7.86 0
 -6 -10 2 1.95 8.1 0
 -6 -10 3 15.73 9.08 0
 -6 -9 -8 5.86 7.23 0
 -6 -9 -7 6.66 6.58 0
 -6 -9 -6 126.57 13.25 0
 -6 -9 -5 107.36 13.3 0
 -6 -9 -3 83.98 12.3 0
 -6 -9 -1 122.24 12.78 0
 -6 -9 0 34.59 9.19 0
 -6 -9 1 112.27 12.36 0
 -6 -9 2 118.05 14.36 0
 -6 -9 3 98.08 13.04 0
 -6 -9 4 9.31 7.93 0
 -6 -9 5 104.98 13.99 0
 -6 -8 -9 14.83 6.19 0
 -6 -8 -8 48.98 8.94 0
 -6 -8 -7 33.42 7.98 0
 -6 -8 -6 32.14 7.81 0
 -6 -8 -5 54.08 9.64 0
 -6 -8 -4 22.31 7.47 0
 -6 -8 -3 47.35 10.4 0
 -6 -8 -2 9.14 7.1 0
 -6 -8 -1 31.75 9.29 0
 -6 -8 0 24.44 8.11 0
 -6 -8 1 27.55 8.44 0
 -6 -8 2 15.41 7.23 0
 -6 -8 3 35.79 8.73 0
 -6 -7 -9 14.69 6.41 0
 -6 -7 -8 38.41 8.23 0
 -6 -7 -7 72.91 9.55 0
 -6 -7 -6 67.62 9.39 0
 -6 -7 -5 42.95 8.25 0
 -6 -7 -3 20.64 8.3 0
 -6 -7 -2 151.42 13.27 0
 -6 -7 -1 54.19 9.02 0
 -6 -7 1 57.74 10.16 0
 -6 -6 -9 10.65 5.71 0
 -6 -6 -8 6.15 5.1 0
 -6 -6 -7 20.85 6.59 0
 -6 -6 -6 15.44 6.15 0
 -6 -6 -5 61.63 9.46 0
 -6 -6 -4 192.28 13.73 0
 -6 -6 -2 166.75 12.53 0
 -6 -6 -1 285.5 16.06 0
 -6 -6 0 6.37 6.15 0
 -6 -5 -8 101.97 9.53 0
 -6 -5 -7 17.5 5.67 0
 -6 -5 -6 2.97 4.5 0
 -6 -5 -5 5.2 5 0
 -6 -5 -2 0.22 4.76 0
 -6 -4 -8 76.61 8.82 0
 -6 -4 -6 34.09 6.54 0
 -6 -4 -4 14.32 5.95 0
 -6 -4 -3 3.22 4.59 0
 -6 -3 -7 48.81 6.72 0
 -6 -3 -6 77.87 7.68 0
 -6 -3 -5 8.9 4.6 0
 -6 -3 -4 20.52 5.31 0
 -6 -2 -6 61.76 6.76 0
 -6 -2 -4 18.8 5.09 0
 -6 -1 -6 295.43 11.34 0
 -6 -1 -5 41.16 5.43 0
 -6 -1 -4 50.17 6.52 0
 -6 0 -5 17.06 4.29 0
 -6 0 -4 3.09 3.19 0
 -5 -12 -2 33.49 9.21 0
 -5 -12 -1 66.17 11.41 0
 -5 -12 0 9.53 8.75 0
 -5 -12 1 57.93 12.07 0
 -5 -12 2 28.26 9.82 0
 -5 -12 3 29.95 9.04 0
 -5 -11 -7 13.86 7.69 0
 -5 -11 -6 -0.66 6.24 0
 -5 -11 -5 33.09 8.86 0
 -5 -11 -4 44.45 10.19 0
 -5 -11 -3 -2.29 7.29 0
 -5 -11 -2 201.99 15.87 0
 -5 -11 -1 -0.13 6.53 0
 -5 -11 0 9.67 7.39 0
 -5 -11 1 -2.5 6.06 0
 -5 -11 2 199.27 16.04 0
 -5 -11 3 3.29 6.69 0
 -5 -11 4 53.08 10.45 0
 -5 -11 6 7.35 7.64 0
 -5 -11 7 19.27 8.73 0
 -5 -10 -10 21.54 7.47 0
 -5 -10 -9 10.96 6.32 0
 -5 -10 -8 33.62 9.25 0
 -5 -10 -7 136.44 12.81 0
 -5 -10 -6 117.13 13.21 0
 -5 -10 -4 17.06 7.75 0
 -5 -10 -2 57.46 11.19 0
 -5 -10 -1 85.76 11.63 0
 -5 -10 0 162.34 14.35 0
 -5 -10 1 76.66 11.26 0
 -5 -10 2 50.93 9.25 0
 -5 -10 3 104.18 12.86 0
 -5 -10 4 18.09 7.95 0
 -5 -10 6 100.82 12.28 0
 -5 -10 7 139.64 13.97 0
 -5 -9 -12 58.78 9.74 0
 -5 -9 -10 16.44 6.96 0
 -5 -9 -8 53.18 9.95 0
 -5 -9 -7 59.88 9.92 0
 -5 -9 -5 101.05 12.1 0
 -5 -9 -4 11.54 7.43 0
 -5 -9 -3 122.06 11.93 0
 -5 -9 -2 -2.33 5.26 0
 -5 -9 -1 82.82 10.97 0
 -5 -9 0 33.91 9.08 0
 -5 -9 1 104.83 11.29 0
 -5 -9 2 -3.98 5.1 0
 -5 -9 4 6.53 6.88 0
 -5 -9 5 119.26 11.91 0
 -5 -8 -12 5.15 5.19 0
 -5 -8 -11 99.64 11.55 0
 -5 -8 -9 27.45 7.31 0
 -5 -8 -8 99.71 10.7 0
 -5 -8 -7 49 8.5 0
 -5 -8 -6 68.34 9.42 0
 -5 -8 -5 -4.77 4.66 0
 -5 -8 -4 117.35 12.01 0
 -5 -8 -3 14.15 6.35 0
 -5 -8 -2 63.58 9.49 0
 -5 -8 -1 37.32 8.09 0
 -5 -8 0 199.03 13.94 0
 -5 -8 1 43.23 8.22 0
 -5 -8 2 56.72 9.71 0
 -5 -7 -12 79.57 9.23 0
 -5 -7 -11 1.79 4.76 0
 -5 -7 -10 13.93 6.15 0
 -5 -7 -9 64.56 8.89 0
 -5 -7 -8 69.85 9.11 0
 -5 -7 -7 147.91 11.53 0
 -5 -7 -6 154.39 12.24 0
 -5 -7 -5 164.98 12.56 0
 -5 -7 -3 50.05 7.99 0
 -5 -7 -1 71.61 9.4 0
 -5 -7 0 19.29 6.24 0
 -5 -7 1 93.44 9.53 0
 -5 -6 -11 11.98 4.88 0
 -5 -6 -10 164.33 11.29 0
 -5 -6 -9 23.03 6.07 0
 -5 -6 -8 58.64 8.14 0
 -5 -6 -6 12.65 6.16 0
 -5 -6 -5 3.51 4.66 0
 -5 -6 -4 5.55 4.98 0
 -5 -6 -3 76.08 9.36 0
 -5 -6 -2 132.65 10.51 0
 -5 -6 -1 17.51 5.8 0
 -5 -5 -11 23.66 5.75 0
 -5 -5 -10 74.48 7.9 0
 -5 -5 -9 31.9 6.35 0
 -5 -5 -8 10.34 4.87 0
 -5 -5 -7 63.04 8.1 0
 -5 -5 -6 149.61 10.68 0
 -5 -5 -5 2.86 4.33 0
 -5 -5 -4 202.5 11.72 0
 -5 -5 -2 275.41 13.87 0
 -5 -4 -10 32.49 5.65 0
 -5 -4 -8 23.77 5.4 0
 -5 -4 -7 27.79 5.73 0
 -5 -4 -6 70.96 7.44 0
 -5 -4 -4 55.7 7.2 0
 -5 -4 -3 224.89 11.91 0
 -5 -3 -9 21.54 4.47 0
 -5 -3 -7 7.46 4.31 0
 -5 -3 -6 33.13 5.51 0
 -5 -3 -5 156.21 9.34 0
 -5 -3 -4 11.16 4.92 0
 -5 -3 -3 184.86 9.89 0
 -5 -2 -8 36.5 5.08 0
 -5 -2 -7 16.13 3.9 0
 -5 -2 -5 399.8 13 0
 -5 -2 -4 70.69 6.82 0
 -5 0 -7 33.65 4.1 0
 -5 0 -6 135.61 6.62 0
 -5 0 -5 138.05 7.15 0
 -5 1 -6 237.73 7.34 0
 -5 1 -5 12.93 2.98 0
 -5 2 -5 393.97 9.01 0
 -4 -13 -5 48.09 10.51 0
 -4 -13 -4 18.34 9.47 0
 -4 -13 -3 62.63 11.37 0
 -4 -13 -2 18.49 8.56 0
 -4 -13 -1 39.61 10.94 0
 -4 -13 0 2.94 8.39 0
 -4 -13 1 43.49 10.82 0
 -4 -13 2 11.48 7.4 0
 -4 -13 3 63.43 10.94 0
 -4 -13 4 16.83 8.41 0
 -4 -13 5 54.73 10.95 0
 -4 -12 -7 122.97 12.84 0
 -4 -12 -6 154.62 13.87 0
 -4 -12 -5 29.08 9.04 0
 -4 -12 -4 23.47 9.54 0
 -4 -12 -3 92.24 12.05 0
 -4 -12 -2 24.31 9.11 0
 -4 -12 -1 126.38 12.79 0
 -4 -12 0 336.69 19.11 0
 -4 -12 1 129.15 13.35 0
 -4 -12 2 36.98 9.16 0
 -4 -12 3 80.38 11.57 0
 -4 -12 4 16.84 7.58 0
 -4 -12 5 33.44 8.18 0
 -4 -12 8 0.81 7.83 0
 -4 -12 9 46.89 9.67 0
 -4 -11 -10 8.31 7.31 0
 -4 -11 -9 18.48 8.17 0
 -4 -11 -8 75.65 10.8 0
 -4 -11 -7 96.73 12.11 0
 -4 -11 -6 83.72 12.09 0
 -4 -11 -5 124.08 13.13 0
 -4 -11 -3 55.59 9.9 0
 -4 -11 -2 50.07 9.3 0
 -4 -11 0 -0.05 6.23 0
 -4 -11 1 68.93 10.42 0
 -4 -11 2 34.59 8.99 0
 -4 -11 3 24.76 8.4 0
 -4 -11 4 90.6 11.68 0
 -4 -11 8 72.28 10.76 0
 -4 -11 9 19.24 7.29 0
 -4 -11 10 7.84 6.6 0
 -4 -11 11 86.1 11.5 0
 -4 -10 -12 11.52 7.16 0
 -4 -10 -11 36.6 8.41 0
 -4 -10 -10 10.94 6.48 0
 -4 -10 -9 9.78 7.59 0
 -4 -10 -8 33.62 8.24 0
 -4 -10 -7 5.45 7.01 0
 -4 -10 -6 22.68 7.09 0
 -4 -10 -4 81.23 11.48 0
 -4 -10 -3 35.2 9.11 0
 -4 -10 -2 138.56 12.49 0
 -4 -10 0 131.85 11.87 0
 -4 -10 1 30.09 7.58 0
 -4 -10 2 125.95 12.39 0
 -4 -10 3 36.03 8.35 0
 -4 -10 4 81.8 11.19 0
 -4 -10 5 9.78 6.83 0
 -4 -10 6 31.26 8.03 0
 -4 -10 7 1.96 5.8 0
 -4 -10 8 34.3 8.45 0
 -4 -9 -12 58.86 9.15 0
 -4 -9 -10 8.66 5.93 0
 -4 -9 -9 170.24 12.83 0
 -4 -9 -8 20.61 6.75 0
 -4 -9 -7 42.37 8.55 0
 -4 -9 -5 135.85 11.55 0
 -4 -9 -4 107.96 11.04 0
 -4 -9 -3 225.81 14.58 0
 -4 -9 -1 25.14 6.66 0
 -4 -9 1 33.5 7.78 0
 -4 -9 2 12.54 5.92 0
 -4 -9 3 209 13.36 0
 -4 -9 5 121.99 10.99 0
 -4 -8 -12 25.12 7.02 0
 -4 -8 -9 110.13 11.02 0
 -4 -8 -7 207.16 13.41 0
 -4 -8 -6 153.03 12.08 0
 -4 -8 -5 330.75 16.28 0
 -4 -8 -3 26.65 6.42 0
 -4 -8 -2 310.68 15.6 0
 -4 -8 -1 85.89 9.68 0
 -4 -8 0 8.96 4.99 0
 -4 -8 1 85.33 9.85 0
 -4 -7 -12 3.65 4.8 0
 -4 -7 -11 21.8 6.81 0
 -4 -7 -10 87.34 8.97 0
 -4 -7 -9 29.76 7.05 0
 -4 -7 -8 61.97 8.23 0
 -4 -7 -7 95.34 9.78 0
 -4 -7 -6 141.84 10.97 0
 -4 -7 -5 7.01 4.89 0
 -4 -7 -3 119.66 9.56 0
 -4 -7 -2 71.9 7.97 0
 -4 -7 -1 32.91 7 0
 -4 -7 0 237.32 12.84 0
 -4 -6 -12 80.44 8.55 0
 -4 -6 -11 28.42 6.62 0
 -4 -6 -10 38.63 6.92 0
 -4 -6 -9 44.88 6.93 0
 -4 -6 -8 76.4 8.28 0
 -4 -6 -5 233.62 12.58 0
 -4 -6 -4 416.37 15.64 0
 -4 -6 -3 213.29 11.85 0
 -4 -6 -2 43.76 7.48 0
 -4 -6 -1 197.84 11.6 0
 -4 -5 -12 45.18 6.24 0
 -4 -5 -10 49.06 6.51 0
 -4 -5 -9 28.83 5.96 0
 -4 -5 -8 50.28 6.74 0
 -4 -5 -7 62.27 7.68 0
 -4 -5 -6 64.14 7.36 0
 -4 -5 -5 358.93 13.64 0
 -4 -5 -4 478.38 15.65 0
 -4 -5 -3 260.03 11.87 0
 -4 -5 -2 143.67 9.54 0
 -4 -4 -11 109.6 7.84 0
 -4 -4 -8 560.31 16.11 0
 -4 -4 -7 243.39 11.25 0
 -4 -4 -6 9.85 4.59 0
 -4 -4 -5 95.62 7.72 0
 -4 -4 -3 16.52 4.5 0
 -4 -3 -11 20.21 3.77 0
 -4 -3 -9 30.56 4.87 0
 -4 -2 -7 25.2 4.09 0
 -4 -2 -6 114.18 6.62 0
 -4 -1 -10 15.55 2.64 0
 -4 -1 -9 68.83 4.71 0
 -4 -1 -8 185.57 7.04 0
 -4 -1 -7 41.1 4.26 0
 -4 -1 -6 171.64 7.15 0
 -4 -1 -5 298.2 9.42 0
 -4 0 -8 629.41 10.5 0
 -4 0 -7 3.13 1.78 0
 -4 0 -6 97.37 5.06 0
 -4 0 -5 194.76 7.04 0
 -4 1 -6 162.59 5.26 0
 -4 1 -5 285.78 7.33 0
 -4 2 -6 119.63 3.36 0
 -4 2 -5 313.65 6.63 0
 -4 3 -5 66.96 2.5 0
 -3 -14 -4 2.07 7.29 0
 -3 -14 -3 33.3 9.22 0
 -3 -14 -2 0.25 6.51 0
 -3 -14 -1 3.01 6.6 0
 -3 -14 0 96.02 12.47 0
 -3 -14 1 -0.02 6.17 0
 -3 -14 2 -4.16 7.33 0
 -3 -14 3 33.73 8.92 0
 -3 -14 4 -4.93 5.66 0
 -3 -14 6 15.68 8.05 0
 -3 -13 -8 7.68 7.22 0
 -3 -13 -7 108.44 13.35 0
 -3 -13 -5 87.12 11.56 0
 -3 -13 -3 167.35 13.92 0
 -3 -13 -1 30.3 8.69 0
 -3 -13 0 18.89 7.61 0
 -3 -13 1 25.17 7.89 0
 -3 -13 2 8.24 7.53 0
 -3 -13 3 143.85 13.19 0
 -3 -13 4 -1.4 5.59 0
 -3 -13 5 77.28 10.74 0
 -3 -13 6 41.32 8.83 0
 -3 -13 7 122.26 12.22 0
 -3 -13 8 4.17 5.86 0
 -3 -13 9 125.4 12.36 0
 -3 -12 -10 26.11 8.3 0
 -3 -12 -9 2.25 6.6 0
 -3 -12 -8 25.98 8.34 0
 -3 -12 -5 247.18 15.97 0
 -3 -12 -4 52.68 9.9 0
 -3 -12 -3 17.84 7.29 0
 -3 -12 -2 44.24 8.54 0
 -3 -12 -1 30.05 8.03 0
 -3 -12 0 5.92 7.19 0
 -3 -12 1 25.25 7.89 0
 -3 -12 2 61.61 10.16 0
 -3 -12 3 26.62 8.21 0
 -3 -12 4 49.34 8.61 0
 -3 -12 5 215.26 15.01 0
 -3 -12 6 115.87 11.43 0
 -3 -12 7 167.74 13.24 0
 -3 -12 8 19.27 6.66 0
 -3 -12 9 3.45 5.89 0
 -3 -12 10 23.17 7.26 0
 -3 -11 -11 8.63 6.82 0
 -3 -11 -10 50.53 9.88 0
 -3 -11 -8 11.4 6.77 0
 -3 -11 -7 17.1 8.1 0
 -3 -11 -6 61.01 10.32 0
 -3 -11 -5 85.74 11.47 0
 -3 -11 -4 25.95 8.27 0
 -3 -11 -2 254.83 15.31 0
 -3 -11 0 252.33 15.29 0
 -3 -11 1 17.52 6.65 0
 -3 -11 2 230.6 14.18 0
 -3 -11 3 143.12 11.68 0
 -3 -11 5 85.96 11.19 0
 -3 -11 7 17.67 6.71 0
 -3 -11 8 2.42 5.83 0
 -3 -11 9 90.8 10.95 0
 -3 -11 10 50.57 8.94 0
 -3 -11 11 9.62 5.93 0
 -3 -11 12 13.55 6.62 0
 -3 -10 -11 16.2 7.73 0
 -3 -10 -10 31.29 7.72 0
 -3 -10 -9 120.02 12.42 0
 -3 -10 -8 108.49 10.92 0
 -3 -10 -7 20.77 7.48 0
 -3 -10 -6 53.4 8.89 0
 -3 -10 -5 372.48 17.41 0
 -3 -10 -3 356.58 17.03 0
 -3 -10 -2 231.86 14.54 0
 -3 -10 -1 57.51 9.08 0
 -3 -10 0 47.6 7.9 0
 -3 -10 1 59.61 8.59 0
 -3 -10 2 220.37 13.52 0
 -3 -10 4 97.21 11.15 0
 -3 -10 5 355.48 16.93 0
 -3 -10 6 41.6 7.52 0
 -3 -10 7 10.45 6.71 0
 -3 -10 9 131.75 11.58 0
 -3 -10 10 36.27 7.72 0
 -3 -10 11 16.58 6.33 0
 -3 -10 12 4.89 5.27 0
 -3 -10 13 87 9.7 0
 -3 -9 -11 46.17 8.57 0
 -3 -9 -10 19.63 6.43 0
 -3 -9 -9 57.93 8.64 0
 -3 -9 -8 165.4 12.23 0
 -3 -9 -7 117.2 10.88 0
 -3 -9 -4 328.05 15.5 0
 -3 -9 -2 157.47 10.87 0
 -3 -9 0 89.76 8.79 0
 -3 -9 1 111.39 9.52 0
 -3 -9 2 146.7 10.98 0
 -3 -9 3 120.67 10.01 0
 -3 -9 4 301.01 15.13 0
 -3 -8 -11 2.88 4.82 0
 -3 -8 -10 42.66 7.54 0
 -3 -8 -9 34.03 6.63 0
 -3 -8 -8 54.83 8.03 0
 -3 -8 -7 46.84 7.32 0
 -3 -8 -6 218.9 12.66 0
 -3 -8 -5 122.83 9.81 0
 -3 -8 -4 89.3 8.48 0
 -3 -8 -3 70.56 7.89 0
 -3 -8 -2 145.2 10.46 0
 -3 -8 -1 33.09 6.32 0
 -3 -8 1 24.35 5.94 0
 -3 -8 3 66.31 7.54 0
 -3 -7 -11 61.95 8.3 0
 -3 -7 -10 13.64 5.74 0
 -3 -7 -9 29.01 6.12 0
 -3 -7 -6 319.67 14.02 0
 -3 -7 -2 335.19 13.64 0
 -3 -7 -1 313.26 13.07 0
 -3 -7 0 0.42 3.92 0
 -3 -7 1 323.92 13.22 0
 -3 -6 -11 55.52 7.25 0
 -3 -6 -10 37.01 6.8 0
 -3 -6 -8 27.71 5.48 0
 -3 -6 -4 171.17 9.99 0
 -3 -6 -3 334.15 13.14 0
 -3 -6 -1 51.62 6.3 0
 -3 -6 0 27.54 5 0
 -3 -5 -11 65.96 6.58 0
 -3 -5 -9 401.97 14.23 0
 -3 -5 -8 160.13 9.36 0
 -3 -5 -7 21.46 4.64 0
 -3 -5 -6 5.91 3.88 0
 -3 -5 -5 93.82 7.01 0
 -3 -5 -4 5.48 3.9 0
 -3 -4 -11 7.3 3.35 0
 -3 -4 -10 45.69 5.44 0
 -3 -4 -9 139.68 8.31 0
 -3 -3 -7 423.16 11.91 0
 -3 -3 -6 591.52 13.83 0
 -3 -3 -5 432.58 11.79 0
 -3 -3 -4 165.58 7.49 0
 -3 -2 -10 80.55 5.39 0
 -3 -2 -9 77.1 5.28 0
 -3 -2 -7 85.56 5.31 0
 -3 -2 -6 175.56 7.4 0
 -3 -2 -5 153.66 6.78 0
 -3 -2 -4 172.51 7.04 0
 -3 -1 -9 174.93 6.24 0
 -3 -1 -8 64.84 4.29 0
 -3 -1 -7 623.71 11.58 0
 -3 -1 -6 311.86 8.28 0
 -3 -1 -5 487.04 10.23 0
 -3 -1 -4 519.79 10.84 0
 -3 0 -8 1.36 1.44 0
 -3 0 -7 8.72 1.85 0
 -3 0 -6 323.61 7.25 0
 -3 0 -5 1060.17 13.13 0
 -3 1 -7 609.02 6.92 0
 -3 1 -6 321.16 5.67 0
 -3 1 -5 483.39 7.5 0
 -3 2 -5 143.34 3.04 0
 -3 3 -4 163.74 3.24 0
 -3 4 -4 2502.7 11.15 0
 -3 5 -4 8 1.05 0
 -2 -15 -3 16.27 8.39 0
 -2 -15 -2 13.52 8.13 0
 -2 -15 -1 -4.54 6.79 0
 -2 -15 0 6.96 6.9 0
 -2 -15 1 0.97 6.42 0
 -2 -15 2 7.71 6.55 0
 -2 -15 3 14.78 7.23 0
 -2 -15 5 81.56 10.75 0
 -2 -14 -7 33.21 9.27 0
 -2 -14 -6 160.81 14.16 0
 -2 -14 -5 34.19 9.98 0
 -2 -14 -4 154.06 14.32 0
 -2 -14 -3 58.85 10.01 0
 -2 -14 -2 20.22 7.66 0
 -2 -14 -1 16.76 7.34 0
 -2 -14 0 265.96 16.72 0
 -2 -14 1 28.01 8.63 0
 -2 -14 2 18.31 7.12 0
 -2 -14 3 50.62 9.98 0
 -2 -14 4 147.29 12.94 0
 -2 -14 5 16.36 6.6 0
 -2 -14 6 162.74 13.08 0
 -2 -14 7 20.96 6.89 0
 -2 -13 -9 79.89 12.31 0
 -2 -13 -8 83.15 11.19 0
 -2 -13 -7 16.31 7.66 0
 -2 -13 -6 60.18 10.59 0
 -2 -13 -5 210.46 14.72 0
 -2 -13 -4 102.92 12.83 0
 -2 -13 -1 56.38 9.79 0
 -2 -13 0 6.63 6.93 0
 -2 -13 1 54.81 9.61 0
 -2 -13 2 25.92 7.42 0
 -2 -13 3 122.2 12.08 0
 -2 -13 4 100.47 10.7 0
 -2 -13 5 195.73 13.91 0
 -2 -13 6 64.83 9.7 0
 -2 -13 7 9.1 5.79 0
 -2 -13 8 80.6 9.97 0
 -2 -12 -9 33.92 8.67 0
 -2 -12 -8 27.85 8.03 0
 -2 -12 -7 137.29 12.34 0
 -2 -12 -6 39.2 8.5 0
 -2 -12 -5 43.63 9.21 0
 -2 -12 -4 6.41 6.59 0
 -2 -12 -3 43.46 8.33 0
 -2 -12 -2 99.89 11.38 0
 -2 -12 -1 22.34 7.04 0
 -2 -12 3 52.19 8.61 0
 -2 -12 4 3.07 5.24 0
 -2 -12 5 55.58 8.63 0
 -2 -12 6 32.58 7.57 0
 -2 -12 7 127.99 11.24 0
 -2 -12 8 23.77 6.44 0
 -2 -12 9 28.03 6.62 0
 -2 -11 -10 11.07 6.59 0
 -2 -11 -9 189.53 13.53 0
 -2 -11 -8 28.58 7.62 0
 -2 -11 -6 5.23 5.5 0
 -2 -11 -5 95.77 9.99 0
 -2 -11 -4 170.57 12.26 0
 -2 -11 -2 204.22 13.48 0
 -2 -11 -1 82.42 9.41 0
 -2 -11 0 151.23 11.61 0
 -2 -11 1 78.4 9.47 0
 -2 -11 2 206.32 13.18 0
 -2 -11 3 301.16 15.22 0
 -2 -11 5 104.5 9.59 0
 -2 -11 6 9.85 5.51 0
 -2 -11 7 105.62 9.53 0
 -2 -11 8 20.11 5.9 0
 -2 -11 9 168.81 11.34 0
 -2 -11 10 4.93 5.22 0
 -2 -10 -10 104.55 10.38 0
 -2 -10 -7 28.32 6.75 0
 -2 -10 -6 115.52 10.2 0
 -2 -10 -4 129.3 11.17 0
 -2 -10 -3 326.14 15.36 0
 -2 -10 -2 7.3 4.93 0
 -2 -10 -1 32.52 6.7 0
 -2 -10 0 0.36 4.88 0
 -2 -10 1 19.6 5.62 0
 -2 -10 2 11.92 5.24 0
 -2 -10 3 319.62 14.34 0
 -2 -10 4 125.44 9.75 0
 -2 -10 6 109.04 9.15 0
 -2 -10 7 24.69 6.54 0
 -2 -10 8 32.43 6.47 0
 -2 -10 9 12.57 5.5 0
 -2 -10 12 171.96 11.05 0
 -2 -9 -10 137.98 11.17 0
 -2 -9 -8 371.74 16.33 0
 -2 -9 -7 58.45 8.49 0
 -2 -9 -6 65.73 7.9 0
 -2 -9 -4 141.8 9.83 0
 -2 -9 -3 82.54 8.84 0
 -2 -9 -1 184.66 10.9 0
 -2 -9 1 181.77 11.11 0
 -2 -9 2 80.67 7.61 0
 -2 -9 3 73.39 7.58 0
 -2 -9 4 152.67 10.24 0
 -2 -9 7 58.65 7.63 0
 -2 -9 8 388.95 15.11 0
 -2 -8 -8 86.7 8.4 0
 -2 -8 -7 26.05 5.56 0
 -2 -8 -4 68.35 7.75 0
 -2 -8 -2 42.16 6.29 0
 -2 -8 -1 175.91 10.06 0
 -2 -8 0 202.51 10.9 0
 -2 -8 1 175.97 9.88 0
 -2 -8 2 44.35 6.15 0
 -2 -8 3 165.01 9.6 0
 -2 -8 4 58.81 7.08 0
 -2 -7 -10 18.9 5.88 0
 -2 -7 -9 96.67 8.73 0
 -2 -7 -8 -0.33 3.38 0
 -2 -7 -7 130.99 8.91 0
 -2 -7 -6 319.61 13.22 0
 -2 -7 -5 173.66 9.87 0
 -2 -7 -4 371.6 13.61 0
 -2 -7 -3 160.8 9.38 0
 -2 -7 -1 158.64 8.83 0
 -2 -7 1 157.93 9.25 0
 -2 -6 -10 30.07 5.47 0
 -2 -6 -8 22.9 4.93 0
 -2 -6 -7 672.57 17.56 0
 -2 -6 -6 18.8 4.53 0
 -2 -6 -5 679.78 17.26 0
 -2 -5 -10 29.76 5.1 0
 -2 -5 -9 495.16 14.73 0
 -2 -5 -8 55.8 5.88 0
 -2 -5 -3 65.5 6.02 0
 -2 -5 -2 582.86 14.11 0
 -2 -5 -1 190.26 8.63 0
 -2 -4 -10 91.8 6.62 0
 -2 -4 -6 175.8 8 0
 -2 -4 -5 55.27 5.39 0
 -2 -4 -3 326.77 10.08 0
 -2 -4 -2 157.62 7.1 0
 -2 -3 -9 329.18 10.29 0
 -2 -3 -8 223.94 8.69 0
 -2 -3 -7 3.12 2.45 0
 -2 -3 -6 2085.16 23.54 0
 -2 -3 -5 145.1 6.83 0
 -2 -3 -4 135.56 6.25 0
 -2 -3 -3 174.5 6.85 0
 -2 -3 -2 2536.63 24.36 0
 -2 -2 -8 237.3 7.78 0
 -2 -2 -6 1414.31 17.58 0
 -2 -2 -5 696.19 12.2 0
 -2 -2 -4 551.9 10.63 0
 -2 -2 -3 125.47 5.57 0
 -2 -1 -8 261.33 7.11 0
 -2 -1 -7 30.65 2.92 0
 -2 -1 -6 -0.33 1.76 0
 -2 -1 -5 71.74 3.99 0
 -2 -1 -4 996.85 12.49 0
 -2 -1 -3 1830.95 16.49 0
 -2 0 -6 86.64 3.45 0
 -2 0 -5 640.61 8.51 0
 -2 0 -4 2240.6 15.49 0
 -2 1 -5 69.19 2.13 0
 -2 1 -4 953.29 7.7 0
 -2 3 -3 178.19 3.11 0
 -2 4 -3 332.79 5.01 0
 -1 -15 -3 12.25 7.36 0
 -1 -15 -2 57.56 9.9 0
 -1 -15 -1 42.51 9.38 0
 -1 -15 0 26.63 7.2 0
 -1 -15 1 39.32 8.65 0
 -1 -15 2 53.96 8.88 0
 -1 -15 3 15.33 6.19 0
 -1 -15 4 41.11 8.16 0
 -1 -14 -6 73.25 10.46 0
 -1 -14 -4 60.26 10.43 0
 -1 -14 -3 91.76 11.58 0
 -1 -14 -2 4.53 5.66 0
 -1 -14 -1 109.78 10.99 0
 -1 -14 0 3.13 5.77 0
 -1 -14 1 121.53 11.57 0
 -1 -14 2 3.39 5.68 0
 -1 -14 3 87.63 10.07 0
 -1 -14 4 56.63 8.49 0
 -1 -14 5 89.08 9.06 0
 -1 -13 -7 82.66 11.18 0
 -1 -13 -6 7.05 5.92 0
 -1 -13 -5 122.48 12.69 0
 -1 -13 -4 178.38 13.27 0
 -1 -13 -3 37.22 8.03 0
 -1 -13 -2 19.29 6.91 0
 -1 -13 -1 85.02 10.35 0
 -1 -13 0 40.99 7.76 0
 -1 -13 1 74.9 9.32 0
 -1 -13 2 15.09 6.57 0
 -1 -13 3 27.37 6.49 0
 -1 -13 4 196.42 12.84 0
 -1 -13 5 131.9 10.98 0
 -1 -13 6 10.11 5.01 0
 -1 -13 7 77.35 8.34 0
 -1 -12 -8 17.71 7.04 0
 -1 -12 -7 129.77 12.05 0
 -1 -12 -6 44.37 8.24 0
 -1 -12 -5 57.3 8.93 0
 -1 -12 -4 70.43 9.77 0
 -1 -12 -3 70.39 9.64 0
 -1 -12 -2 144.69 11.36 0
 -1 -12 -1 40.64 7.72 0
 -1 -12 0 11.94 6.36 0
 -1 -12 2 163.26 11.72 0
 -1 -12 3 67.26 8.18 0
 -1 -12 4 75.97 8.99 0
 -1 -12 5 41.41 6.97 0
 -1 -12 6 42.16 7.44 0
 -1 -12 7 133.13 9.83 0
 -1 -12 8 22.26 5.16 0
 -1 -11 -8 50.73 8.99 0
 -1 -11 -6 137.3 11.15 0
 -1 -11 -5 9.82 5.55 0
 -1 -11 -3 73.09 9 0
 -1 -11 -2 62.47 7.77 0
 -1 -11 -1 184.12 12.23 0
 -1 -11 0 289.98 13.89 0
 -1 -11 1 189.34 11.73 0
 -1 -11 2 52.61 8.02 0
 -1 -11 3 75.13 9.12 0
 -1 -11 4 59.15 7.67 0
 -1 -11 5 6.63 4.42 0
 -1 -11 6 138.69 10.01 0
 -1 -11 7 121.72 9.15 0
 -1 -11 8 42.82 6.27 0
 -1 -11 9 40.85 6.3 0
 -1 -10 -8 26.5 6.75 0
 -1 -10 -7 60.9 8.31 0
 -1 -10 -6 43.33 7.4 0
 -1 -10 -5 77.88 8.4 0
 -1 -10 -3 69.95 7.68 0
 -1 -10 -2 245.94 12.68 0
 -1 -10 -1 384.75 15.57 0
 -1 -10 0 119.29 9.5 0
 -1 -10 1 375.88 14.6 0
 -1 -10 3 68.09 7.14 0
 -1 -10 4 289.23 12.5 0
 -1 -10 5 70.36 7.07 0
 -1 -10 6 40.85 5.94 0
 -1 -10 7 50.5 6.87 0
 -1 -10 8 30.68 5.69 0
 -1 -10 9 34.18 5.57 0
 -1 -10 10 5.69 3.65 0
 -1 -9 -9 159.91 11.4 0
 -1 -9 -8 53.47 7.94 0
 -1 -9 -7 49.15 7.26 0
 -1 -9 -6 47.51 7.11 0
 -1 -9 -5 100.73 8.58 0
 -1 -9 -4 90.14 7.98 0
 -1 -9 -3 388.03 14.82 0
 -1 -9 -2 10.16 4.75 0
 -1 -9 -1 617.82 17.78 0
 -1 -9 0 5.06 3.92 0
 -1 -9 1 589.95 16.83 0
 -1 -9 2 16.51 4.4 0
 -1 -9 4 105.74 7.62 0
 -1 -9 5 109.9 8.22 0
 -1 -9 6 49.66 6.83 0
 -1 -9 7 46.23 6.29 0
 -1 -9 9 138.68 8.62 0
 -1 -9 10 12.81 3.93 0
 -1 -9 11 95.85 7.21 0
 -1 -8 -9 38.42 6.58 0
 -1 -8 -8 35.23 6.1 0
 -1 -8 -7 121.79 9.06 0
 -1 -8 -6 220.2 11.94 0
 -1 -8 -5 108.45 8.2 0
 -1 -8 -4 423.91 14.43 0
 -1 -8 -1 135.98 8.38 0
 -1 -8 1 129.62 7.89 0
 -1 -8 5 94.95 7.3 0
 -1 -8 7 116.53 7.43 0
 -1 -8 8 40.35 5.34 0
 -1 -7 -9 122.71 9.04 0
 -1 -7 -8 39.4 6.36 0
 -1 -7 -7 144.3 9.3 0
 -1 -7 -4 113.62 7.87 0
 -1 -6 -9 364.58 13.2 0
 -1 -6 -8 7.2 3.44 0
 -1 -6 -2 330.5 10.77 0
 -1 -6 0 242.91 9.26 0
 -1 -5 -5 461.05 12.46 0
 -1 -5 -2 521.02 12.38 0
 -1 -5 0 534.86 11.92 0
 -1 -5 1 0.49 2.04 0
 -1 -4 -7 8.97 3.49 0
 -1 -4 -6 207.54 8.11 0
 -1 -4 -5 1657.24 21.25 0
 -1 -4 -4 1391.09 18.91 0
 -1 -4 -3 102.36 5.76 0
 -1 -4 -2 1969.29 21.34 0
 -1 -4 -1 1060.11 15.39 0
 -1 -4 0 5253.33 33.07 0
 -1 -3 -7 500.26 11.47 0
 -1 -3 -6 309.27 8.91 0
 -1 -3 -5 400.29 9.89 0
 -1 -3 -4 711.69 12.39 0
 -1 -3 -1 2320.05 20.15 0
 -1 -2 -6 613.31 11.03 0
 -1 -2 -5 1406.59 15.91 0
 -1 -2 -4 1007.65 12.97 0
 -1 -2 -3 1658.65 15.77 0
 -1 -2 -2 372.43 7.56 0
 -1 -2 -1 1487.01 13.75 0
 -1 -1 -5 945.5 11.35 0
 -1 -1 -3 4027.21 20.29 0
 -1 -1 -2 9760.73 30.14 0
 -1 0 -4 89.87 2.79 0
 -1 0 -3 1457.77 9.36 0
 -1 0 -2 374.55 4.63 0
 -1 3 -2 358.56 5.03 0
 0 -15 -1 92.86 11.24 0
 0 -15 0 -4.99 4.76 0
 0 -15 1 94.92 10.3 0
 0 -15 2 0.9 4.63 0
 0 -15 3 15.95 5.36 0
 0 -14 -3 1.6 5.32 0
 0 -14 -2 48.53 8.78 0
 0 -14 0 7.91 5.52 0
 0 -14 2 55.78 7.98 0
 0 -14 3 -1.99 3.76 0
 0 -13 -4 95.6 10.91 0
 0 -13 -3 210.28 13.86 0
 0 -13 -2 204.92 13.49 0
 0 -13 -1 91.73 9.56 0
 0 -13 0 -3.11 4.07 0
 0 -13 1 89.35 9.5 0
 0 -13 2 189.42 12 0
 0 -13 4 112.64 9.09 0
 0 -13 5 6.75 4.16 0
 0 -12 -5 86.75 10.82 0
 0 -12 -4 -5.17 4.27 0
 0 -12 -3 60.76 8.34 0
 0 -12 -2 434.54 17.18 0
 0 -12 -1 51.92 7.43 0
 0 -12 0 41.15 7.03 0
 0 -12 1 64.2 8.28 0
 0 -12 3 53.41 7.41 0
 0 -12 4 -0.49 3.19 0
 0 -12 5 81.29 7.22 0
 0 -12 6 92.32 7.35 0
 0 -11 -5 167.66 11.22 0
 0 -11 -2 132.26 10.32 0
 0 -11 -1 18 5.91 0
 0 -11 0 -3.78 3.74 0
 0 -11 1 15.06 4.97 0
 0 -11 2 132.87 9.33 0
 0 -11 4 2.79 3.42 0
 0 -11 5 165.1 9.33 0
 0 -11 6 116.38 7.88 0
 0 -11 7 24.54 4.28 0
 0 -10 -6 18.71 5.3 0
 0 -10 -5 9.55 5.14 0
 0 -10 -4 159.83 10.65 0
 0 -10 -3 2.38 3.77 0
 0 -10 -2 30.83 6.56 0
 0 -10 -1 442.59 15.11 0
 0 -10 0 183 10.41 0
 0 -10 1 453.99 14.88 0
 0 -10 2 24.99 4.9 0
 0 -10 3 3.03 3.29 0
 0 -10 5 5.02 3.31 0
 0 -10 6 31.95 4.92 0
 0 -10 7 100.03 6.89 0
 0 -9 -6 166.85 9.97 0
 0 -9 -5 50.35 6.9 0
 0 -9 -4 11.64 4.47 0
 0 -9 -2 173.69 10.02 0
 0 -9 -1 246.07 11 0
 0 -9 0 -1.59 2.81 0
 0 -9 1 253.94 10.54 0
 0 -8 -6 24.64 4.86 0
 0 -8 -5 42.82 6.2 0
 0 -8 -4 76.5 6.74 0
 0 -8 -3 1039.15 21.06 0
 0 -8 -2 246.24 10.34 0
 0 -8 4 64.71 5.42 0
 0 -8 5 56.95 4.92 0
 0 -8 6 28.32 4.21 0
 0 -8 7 136.66 6.81 0
 0 -8 9 47.47 4.4 0
 0 -7 -6 18.15 4.55 0
 0 -7 -5 -0.13 2.43 0
 0 -7 0 1.64 2.88 0
 0 -7 1 867.21 16.36 0
 0 -7 2 1408.98 20.03 0
 0 -7 3 629.92 13.32 0
 0 -7 4 637.94 13.24 0
 0 -7 5 -1.09 1.89 0
 0 -7 6 14.46 2.81 0
 0 -7 7 46.86 4.15 0
 0 -7 8 50.3 4.39 0
 0 -7 9 190.4 7.3 0
 0 -6 -3 29.51 4.15 0
 0 -6 -2 125.37 6.57 0
 0 -6 0 41.91 3.99 0
 0 -6 1 28.62 3.64 0
 0 -6 2 123.31 5.92 0
 0 -6 3 30.03 3.5 0
 0 -6 4 1963.93 20.94 0
 0 -6 5 14.92 2.71 0
 0 -6 6 163.36 6.15 0
 0 -5 -5 675.78 14.53 0
 0 -5 -4 1212.01 18.64 0
 0 -5 -3 1107.76 17.09 0
 0 -5 -2 151.6 6.45 0
 0 -5 -1 406.99 9.8 0
 0 -5 0 0.33 2.38 0
 0 -5 1 393.41 9.18 0
 0 -5 3 1044.16 13.89 0
 0 -5 4 1164.53 14.58 0
 0 -4 -5 2414.71 24.64 0
 0 -4 -4 463.19 10.76 0
 0 -4 -3 1540.95 18.19 0
 0 -4 -2 15.37 2.98 0
 0 -4 -1 3089.54 23.52 0
 0 -4 0 1129.96 13.69 0
 0 -4 1 3096.9 21.79 0
 0 -4 2 15.55 2.33 0
 0 -4 3 1494.64 14.35 0
 0 -3 -4 493.71 10.08 0
 0 -3 -3 4485.52 27.59 0
 0 -3 -2 7010.3 32.29 0
 0 -3 -1 279.77 6.43 0
 0 -2 -3 2740.25 18.84 0
 0 -2 -2 1.42 1.87 0
 0 -2 0 300.11 5.02 0
 0 -2 1 391.2 5.43 0
 0 -1 -2 7.65 1.51 0
 0 2 0 291.38 4.94 0
 1 -12 2 163.91 9.28 0
 1 -12 3 71.4 6.66 0
 1 -11 0 288.6 12.24 0
 1 -11 1 176.65 9.59 0
 1 -11 2 61.56 6.43 0
 1 -11 3 62.58 6.19 0
 1 -11 4 73.19 6.02 0
 1 -10 -2 260.61 11.61 0
 1 -10 0 115.17 8.08 0
 1 -10 1 380.93 12.77 0
 1 -10 2 241.46 9.99 0
 1 -10 3 64.42 5.62 0
 1 -9 -2 11 4 0
 1 -9 -1 575.1 15.07 0
 1 -9 0 3.23 2.97 0
 1 -9 4 96.8 5.66 0
 1 -9 5 107 5.7 0
 1 -8 1 142.3 7.39 0
 1 -8 2 150 7.09 0
 1 -8 3 493.99 11.54 0
 1 -8 4 416.78 10.17 0
 1 -8 7 120.99 4.83 0
 1 -7 -1 86.66 5.68 0
 1 -7 0 378.28 10.39 0
 1 -7 1 82.62 5.36 0
 1 -7 2 806.02 13.81 0
 1 -7 3 486.52 10.4 0
 1 -7 4 126.22 5.31 0
 1 -7 6 113.8 4.52 0
 1 -7 7 152.31 4.91 0
 1 -7 8 42.49 2.58 0
 1 -6 -2 330.69 9.62 0
 1 -6 -1 300.66 8.93 0
 1 -6 1 310.09 8.19 0
 1 -6 2 326.68 7.91 0
 1 -6 3 33.52 2.96 0
 1 -6 6 352.41 6.84 0
 1 -6 7 644.19 8.6 0
 1 -6 8 6.21 1.23 0
 1 -5 -1 0.26 1.93 0
 1 -5 0 536.43 10.14 0
 1 -5 1 1.32 1.5 0
 1 -5 2 493.63 8.54 0
 1 -5 5 468.21 6.9 0
 1 -5 6 473.96 6.56 0
 1 -5 7 557.92 6.86 0
 1 -5 8 408.65 5.85 0
 1 -5 9 472.85 6.27 0
 1 -4 0 5236.3 26.76 0
 1 -4 1 1086.99 11.6 0
 1 -4 4 1342.62 9.79 0
 1 -4 6 201.77 3.51 0
 1 -4 7 9.73 1.17 0
 1 -3 3 1082.61 6.91 0
 1 -3 8 152.81 3.43 0
 1 -2 6 619.86 5.7 0
 1 -2 7 1388.57 10.17 0
 1 0 3 1523.32 9.63 0
 1 0 4 91.55 2.85 0
 -1 -1 5 980.39 8.15 0
 0 -6 2 113.72 5.12 0
 0 -6 3 26.28 2.75 0
 0 -6 4 1924.57 17.14 0
 0 -6 5 10.83 1.77 0
 0 -6 7 411.87 6.07 0
 0 -5 1 393.17 8.41 0
 0 -5 2 146.85 4.98 0
 0 -5 3 1052.43 12.13 0
 0 -5 4 1173.19 11.93 0
 0 -5 5 676 8.47 0
 0 -5 6 160.8 3.88 0
 0 -5 7 579.42 6.51 0
 0 -5 8 116.88 2.68 0
 0 -4 0 1064.78 12.78 0
 0 -4 1 3020.3 20 0
 0 -4 2 13.88 1.92 0
 0 -4 3 1554.18 12.46 0
 0 -4 4 441.67 6.26 0
 0 -4 5 2470.86 13.75 0
 0 -4 6 207.84 3.92 0
 0 -4 7 52.06 2.03 0
 0 -4 8 111.01 2.88 0
 0 -4 9 61.55 2.23 0
 0 -4 10 456.63 5.88 0
 0 -3 0 0.51 1.92 0
 0 -3 1 276.64 5.36 0
 0 -3 2 6762.12 22.89 0
 0 -3 4 510.21 5.6 0
 0 -3 5 456.14 5.35 0
 0 -3 6 73.01 2.44 0
 0 -2 1 392.3 4.78 0
 0 -2 3 2649.6 10.58 0
 0 1 1 43.19 1.98 0
 0 2 -2 -0.04 0.85 0
 0 3 -2 7114.33 23.36 0
 1 -10 2 241.87 10.6 0
 1 -9 0 2.58 3.76 0
 1 -9 5 111.54 6.56 0
 1 -9 6 49.22 4.43 0
 1 -8 2 151.12 7.69 0
 1 -8 4 407.01 11.39 0
 1 -8 5 109.64 6.2 0
 1 -8 6 197.36 7.65 0
 1 -8 7 113.13 5.54 0
 1 -7 -1 92.01 6.61 0
 1 -7 0 387.23 11.83 0
 1 -7 1 83.59 5.69 0
 1 -7 2 786.21 15.58 0
 1 -7 3 470.68 11.61 0
 1 -7 4 121.33 6.1 0
 1 -7 5 362.62 9.74 0
 1 -7 7 157.89 6.18 0
 1 -7 8 46.5 3.53 0
 1 -6 6 341.99 8.63 0
 1 -6 7 659.66 11.7 0
 1 -6 8 5.39 1.91 0
 1 -5 -3 308.51 9.75 0
 1 -5 -2 509.81 12.07 0
 1 -5 -1 -1.9 2.36 0
 1 -5 0 561.9 11.74 0
 1 -5 1 1.29 1.99 0
 1 -5 2 510.87 10.68 0
 1 -5 3 303.04 7.98 0
 1 -5 4 727.23 11.98 0
 1 -5 8 407.2 9.01 0
 1 -5 9 488.62 9.81 0
 1 -5 10 30.36 2.92 0
 1 -4 -5 1701.76 22.07 0
 1 -4 -2 1832.44 20.67 0
 1 -4 -1 1119.76 15.37 0
 1 -4 0 5307.29 32.26 0
 1 -4 1 1058.54 14.16 0
 1 -4 2 1905.2 18.35 0
 1 -4 3 98.26 4.81 0
 1 -4 4 1337.58 15.17 0
 1 -4 6 204.1 6.24 0
 1 -4 9 259.28 7.43 0
 1 -4 11 158.41 6.08 0
 1 -3 -5 397.63 9.94 0
 1 -3 -4 710.04 12.91 0
 1 -3 -2 351.82 8.29 0
 1 -3 -1 2215.29 19.45 0
 1 -3 0 5037.38 28.24 0
 1 -3 1 2300.09 18.71 0
 1 -3 2 356.08 7.52 0
 1 -3 3 1066.03 12.57 0
 1 -3 5 387.18 7.99 0
 1 -2 -5 1427.57 16.82 0
 1 -2 -4 1029.05 13.85 0
 1 -2 -3 1692.22 16.59 0
 1 -2 -2 369.25 7.56 0
 1 -2 -1 1528.91 14.48 0
 1 -2 0 3042.07 19.49 0
 1 -2 1 1456.52 13.46 0
 1 -2 2 373.3 7.19 0
 1 -1 -5 924.35 11.93 0
 1 -1 -4 142.23 4.79 0
 1 -1 -3 4239.9 22.45 0
 1 -1 -2 9846.82 32.01 0
 1 -1 -1 1075.07 10.58 0
 1 -1 0 5091.65 22.4 0
 1 0 -5 871.78 9.82 0
 1 0 -3 1492.19 11.12 0
 1 0 -2 376.36 5.48 0
 1 0 -1 896.88 8.49 0
 1 1 -4 143.29 3.11 0
 1 1 -3 4008.43 14 0
 1 1 -2 9591.27 22.46 0
 2 -12 2 108.62 9.51 0
 2 -12 3 55.37 7.28 0
 2 -12 4 1.07 3.47 0
 2 -11 0 147.1 10.91 0
 2 -11 1 73.38 8.21 0
 2 -11 2 205.32 11.77 0
 2 -11 3 304.62 13.57 0
 2 -11 4 176.93 10.15 0
 2 -10 -3 334.74 14.81 0
 2 -10 -2 15.2 5.07 0
 2 -10 -1 22.94 5.67 0
 2 -10 0 4.41 4.36 0
 2 -10 1 25.7 5.75 0
 2 -10 2 13.42 5 0
 2 -10 3 328.58 13.39 0
 2 -10 5 133.59 8.6 0
 2 -10 6 104.25 7.4 0
 2 -9 -4 148.05 10.44 0
 2 -9 -1 169.69 10.73 0
 2 -9 1 170.7 10.06 0
 2 -9 2 87.76 7.84 0
 2 -9 4 152.54 8.73 0
 2 -9 5 135.62 8.22 0
 2 -9 6 68.42 6.05 0
 2 -9 7 65.92 5.64 0
 2 -8 -5 267.37 12.78 0
 2 -8 -4 68.19 7.24 0
 2 -8 -3 161.06 10.06 0
 2 -8 -2 49.76 6.5 0
 2 -8 -1 176.22 9.78 0
 2 -8 0 211.92 10.77 0
 2 -7 -6 349.96 13.92 0
 2 -7 -5 167.19 9.9 0
 2 -7 -4 402.1 14.16 0
 2 -7 -3 171.56 9.38 0
 2 -7 5 159.44 8.13 0
 2 -6 -7 711.49 18.48 0
 2 -6 -6 24.52 4.86 0
 2 -6 0 2.63 2.82 0
 2 -6 1 1012.61 18.66 0
 2 -6 2 466.1 12.55 0
 2 -6 3 233.54 9.09 0
 2 -6 4 140.33 7.08 0
 2 -6 5 679.05 14.81 0
 2 -6 6 17.71 3.48 0
 2 -6 7 705.08 15.12 0
 2 -6 8 24.68 3.71 0
 2 -6 9 176.08 7.86 0
 2 -6 10 33.59 3.99 0
 2 -5 3 66.76 4.93 0
 2 -5 4 161.21 7.5 0
 2 -5 5 248.06 8.98 0
 2 -5 7 1549.08 21.75 0
 2 -5 8 43.72 4.31 0
 2 -5 10 31.53 4.08 0
 2 -4 -6 173.97 8.31 0
 2 -4 -5 53.4 5.13 0
 2 -4 1 107.84 5.82 0
 2 -4 6 170.33 7.25 0
 2 -4 7 306.08 9.87 0
 2 -4 8 26.43 3.77 0
 2 -4 9 18 3.57 0
 2 -4 10 100.56 6.16 0
 2 -3 -8 211.5 8.86 0
 2 -3 -7 6.87 3.44 0
 2 -3 -6 2051.26 24.98 0
 2 -3 -4 153.54 6.86 0
 2 -3 -3 170.96 6.89 0
 2 -3 -2 2516.04 24.84 0
 2 -3 -1 374.21 9.72 0
 2 -3 1 382.38 9.65 0
 2 -3 2 2608.58 24.94 0
 2 -3 3 172.2 6.89 0
 2 -3 4 133.28 6.31 0
 2 -2 -8 248.94 8.78 0
 2 -2 -7 117.2 6.36 0
 2 -2 -6 1424.79 19.29 0
 2 -2 -5 698.32 13.14 0
 2 -2 -3 120.77 5.83 0
 2 -2 -1 1251.68 16.3 0
 2 -2 0 342.47 8.81 0
 2 -2 1 1271.56 16.83 0
 2 -2 2 203.73 7.42 0
 2 -1 -8 265.16 8.36 0
 2 -1 -7 23.17 3.15 0
 2 -1 -6 1.37 1.95 0
 2 -1 -5 68.64 4.37 0
 2 -1 -4 986.1 13.96 0
 2 -1 -2 2112.43 19.62 0
 2 -1 -1 1833.73 18.41 0
 2 -1 0 377.89 8.78 0
 2 0 -7 778.42 12.13 0
 2 0 -6 95.97 4.5 0
 2 0 -5 630.71 10.16 0
 2 0 -4 2229.78 18.61 0
 2 0 -3 571.79 9.88 0
 2 0 -2 1662.07 16.29 0
 2 1 -7 27.84 2.5 0
 2 1 -6 0.99 1.34 0
 2 1 -5 73.06 3.45 0
 2 1 -4 962.96 11.18 0
 2 2 -6 1393.86 10.99 0
 2 2 -5 711.16 8.23 0
 2 2 -4 548.64 7.66 0
 2 3 -5 147.51 3.27 0
 2 3 -4 140.34 3.8 0
 2 4 -5 52.97 1.76 0
 2 5 -5 266.82 3.73 0
 3 -13 0 18.73 6.86 0
 3 -13 1 35.2 8.33 0
 3 -13 2 24.45 7.2 0
 3 -13 3 154.98 11.45 0
 3 -12 -2 49.34 9.22 0
 3 -12 -1 25.38 7.21 0
 3 -12 0 -3.48 5.04 0
 3 -12 1 25.51 6.9 0
 3 -12 2 54.37 8.72 0
 3 -12 3 26.32 6.65 0
 3 -12 4 59.16 8.2 0
 3 -11 -3 142.34 12.23 0
 3 -11 -2 223.04 14.53 0
 3 -11 -1 16.72 7.14 0
 3 -11 1 18.84 6.21 0
 3 -11 2 258.22 13.95 0
 3 -11 4 18.18 6.27 0
 3 -11 5 90.38 8.71 0
 3 -10 -6 51.88 8.41 0
 3 -10 -5 358.35 17.09 0
 3 -10 -4 111.77 10.39 0
 3 -10 -3 386.71 17.83 0
 3 -10 -1 49.5 7.52 0
 3 -10 0 54.14 7.95 0
 3 -10 1 54.4 8.68 0
 3 -10 2 218.86 12.69 0
 3 -10 3 380.31 15.64 0
 3 -10 4 108.06 8.93 0
 3 -10 5 373.7 14.96 0
 3 -10 6 48.08 6.64 0
 3 -10 7 11.51 4.64 0
 3 -9 -7 115.5 11.22 0
 3 -9 -6 65.89 8.86 0
 3 -9 -5 18.47 5.97 0
 3 -9 -1 109.51 9.51 0
 3 -9 0 95.91 9.37 0
 3 -9 2 157.69 10.82 0
 3 -9 3 133.96 9.96 0
 3 -9 4 316.33 13.51 0
 3 -9 5 17.19 4.95 0
 3 -9 6 63.89 7.71 0
 3 -9 7 109.43 8.41 0
 3 -8 -8 57.14 8.1 0
 3 -8 -7 62.36 8.48 0
 3 -8 -4 77.02 8.76 0
 3 -8 -3 66.25 8.01 0
 3 -8 -2 132.12 9.47 0
 3 -8 -1 36.52 6.3 0
 3 -8 0 21.78 5.45 0
 3 -8 1 34.48 6.06 0
 3 -8 4 86.52 7.53 0
 3 -8 5 127.17 9.24 0
 3 -8 6 235.27 11.15 0
 3 -8 9 37.94 5.7 0
 3 -7 -7 420.27 16.47 0
 3 -7 -5 11.2 4.52 0
 3 -7 -4 17.15 4.89 0
 3 -7 -3 100.87 8.75 0
 3 -7 -1 333.87 13.42 0
 3 -7 0 -1.54 3.91 0
 3 -7 2 336.97 12.95 0
 3 -7 3 104.14 7.7 0
 3 -7 5 15.7 4.28 0
 3 -7 6 295.36 11.97 0
 3 -7 7 429.08 14.32 0
 3 -7 8 146.4 9.03 0
 3 -7 9 26.83 4.93 0
 3 -7 10 20.39 4.53 0
 3 -6 -9 89.46 8.74 0
 3 -6 -7 276.37 13.36 0
 3 -6 -6 142.26 9.95 0
 3 -6 -2 33.45 5.45 0
 3 -6 0 37.86 5.44 0
 3 -6 5 296.86 11.85 0
 3 -6 6 145.81 8.61 0
 3 -6 7 294.33 12.04 0
 3 -6 8 27.83 5.02 0
 3 -6 9 99.18 7.58 0
 3 -6 10 35.01 5.44 0
 3 -6 11 67.1 6.43 0
 3 -5 -9 406.61 15.41 0
 3 -5 -7 18.95 4.86 0
 3 -5 -6 2.76 4.13 0
 3 -5 -4 8.4 3.36 0
 3 -5 8 156.51 9.21 0
 3 -5 9 394.62 13.77 0
 3 -5 10 514.79 15.43 0
 3 -5 12 64.87 6.48 0
 3 -4 -9 157.1 9.23 0
 3 -4 -8 125.84 8.68 0
 3 -4 -7 507.23 15.4 0
 3 -4 1 87 6.08 0
 3 -4 10 51.51 6 0
 3 -4 11 3.99 3.38 0
 3 -4 12 61.91 6.52 0
 3 -4 13 18.14 4.38 0
 3 -3 -9 6.24 3.47 0
 3 -3 -5 403.85 12.24 0
 3 -3 -4 161.48 8.15 0
 3 -3 -2 546.76 13.65 0
 3 -3 3 336.23 11.22 0
 3 -3 4 165.94 8.37 0
 3 -2 -7 85.44 6.22 0
 3 -2 -6 167.7 8 0
 3 -2 -5 148.74 7.4 0
 3 -2 -4 170.07 7.58 0
 3 -2 -3 412.14 11.36 0
 3 -2 -2 470.85 12.11 0
 3 -2 -1 1059.81 18.17 0
 3 -1 -8 55.65 5.2 0
 3 -1 -7 617.24 13.6 0
 3 -1 -5 469.84 11.51 0
 3 -1 -4 532.75 12.15 0
 3 -1 -3 15.72 3.2 0
 3 -1 -2 325.06 9.82 0
 3 -1 -1 695.88 14.35 0
 3 -1 0 101.12 5.83 0
 3 0 -9 411.23 10.5 0
 3 0 -8 0.34 2.28 0
 3 0 -7 6.49 2.44 0
 3 0 -6 320.77 9.11 0
 3 0 -5 1022.73 15.72 0
 3 0 -3 735.34 13.66 0
 3 0 -2 164.14 7 0
 3 0 -1 1246.71 18.21 0
 3 1 -9 162.49 6.04 0
 3 1 -8 67.45 4.42 0
 3 1 -6 328.25 8.38 0
 3 1 -5 494.61 10.45 0
 3 1 -4 521.78 10.92 0
 3 1 -3 12.51 2.72 0
 3 1 -2 329.61 9.12 0
 3 2 -8 559.56 9.39 0
 3 2 -7 84.53 4.06 0
 3 2 -6 174.84 5.77 0
 3 2 -5 151.4 5.61 0
 3 2 -3 430.7 9.73 0
 3 3 -8 469.71 6.54 0
 3 3 -7 444.8 7.38 0
 3 3 -6 551.01 8.94 0
 3 3 -5 421.39 8.47 0
 3 3 -4 170.14 6.01 0
 3 4 -7 518.79 5.84 0
 3 4 -6 356.26 6.46 0
 3 4 -5 222.7 5.91 0
 3 5 -6 5.81 1.17 0
 3 5 -5 94.12 3.97 0
 3 6 -6 140.37 2.97 0
 4 -14 0 0.11 6.3 0
 4 -14 1 13.35 6.6 0
 4 -14 2 106.41 11.98 0
 4 -13 -3 62.63 10.4 0
 4 -13 -2 6.78 6.78 0
 4 -13 -1 41.31 9.25 0
 4 -13 0 5.79 6.75 0
 4 -13 1 44.86 9.31 0
 4 -13 2 23.42 7.73 0
 4 -13 3 63.55 10.25 0
 4 -13 4 17.07 7.08 0
 4 -12 -5 48.31 10.14 0
 4 -12 -4 18.05 7.3 0
 4 -12 -3 83.47 11.04 0
 4 -12 -1 139.69 13.55 0
 4 -12 0 342.87 17.98 0
 4 -12 2 31.73 8.44 0
 4 -12 3 86.8 11.11 0
 4 -12 4 19.84 7.23 0
 4 -12 5 31.11 7.22 0
 4 -11 -5 122.9 12.95 0
 4 -11 -3 34.83 8.36 0
 4 -11 0 7.11 7.26 0
 4 -11 1 71.21 9.83 0
 4 -11 2 36.7 8.54 0
 4 -11 3 44.74 8.39 0
 4 -11 4 91.66 10.65 0
 4 -11 5 132.87 11.52 0
 4 -11 6 80.76 10.02 0
 4 -10 -7 7.46 6.83 0
 4 -10 -5 -1.17 5.02 0
 4 -10 -3 27.55 7.56 0
 4 -10 -2 156.04 12.3 0
 4 -10 -1 30.17 7.37 0
 4 -10 0 138.18 11.28 0
 4 -10 1 32.45 7.66 0
 4 -10 2 134.9 11.85 0
 4 -10 3 30.92 7.24 0
 4 -10 4 93.44 9.56 0
 4 -10 5 1.6 4.66 0
 4 -10 7 1.38 4.33 0
 4 -9 -7 51.76 8.86 0
 4 -9 -6 6.58 6.07 0
 4 -9 -5 125.59 11.73 0
 4 -9 -4 115.99 10.42 0
 4 -9 -3 197.91 13.41 0
 4 -9 -2 18.52 6.34 0
 4 -9 -1 20.15 6.96 0
 4 -9 0 19.04 7.05 0
 4 -9 2 18.22 6.82 0
 4 -9 3 217.1 12.75 0
 4 -9 4 100.27 10.1 0
 4 -9 5 143.6 10.71 0
 4 -9 6 -0.12 4.3 0
 4 -9 7 43.81 7.41 0
 4 -9 8 16.3 5.97 0
 4 -8 -9 114.11 11.17 0
 4 -8 -8 67.2 10.08 0
 4 -8 -7 238.45 14.93 0
 4 -8 -4 91.34 9.64 0
 4 -8 -3 26.82 6.76 0
 4 -8 -2 324.55 15.62 0
 4 -8 -1 92.75 8.75 0
 4 -8 0 9.01 5.09 0
 4 -8 1 91.83 9.66 0
 4 -8 3 24.78 6.82 0
 4 -8 4 98.65 9.14 0
 4 -8 7 225 12.37 0
 4 -8 8 76.71 8.66 0
 4 -8 9 108.7 9.23 0
 4 -7 -7 87.65 9.99 0
 4 -7 -6 131.38 10.42 0
 4 -7 -5 -4.79 3.55 0
 4 -7 -4 134.13 10.73 0
 4 -7 -3 112.97 9.66 0
 4 -7 -2 72.53 8.69 0
 4 -7 -1 32.75 6.75 0
 4 -7 0 238.32 12.54 0
 4 -7 1 31.49 6.52 0
 4 -7 2 62.18 7.78 0
 4 -7 3 141.25 9.86 0
 4 -7 4 138.12 9.91 0
 4 -7 9 38.73 6.79 0
 4 -7 10 94.8 8.37 0
 4 -7 11 17.05 4.77 0
 4 -6 -7 -2.95 4.69 0
 4 -6 -6 97.61 8.89 0
 4 -6 -5 241.07 13.05 0
 4 -6 -4 407.52 15.94 0
 4 -6 -3 191.56 11.39 0
 4 -6 -2 44.53 6.55 0
 4 -6 -1 200.91 11.1 0
 4 -6 0 323.79 13.75 0
 4 -6 1 196.68 11.06 0
 4 -6 2 46.24 6.98 0
 4 -6 3 214.12 11.8 0
 4 -6 4 418.16 15.85 0
 4 -6 5 218.03 11.94 0
 4 -6 6 90.84 8.13 0
 4 -6 7 0.1 4.51 0
 4 -6 9 49.68 7.01 0
 4 -6 10 43.39 7.36 0
 4 -6 11 20.69 5.32 0
 4 -5 -10 50.31 7.93 0
 4 -5 -9 33.09 6.74 0
 4 -5 -8 70.71 7.86 0
 4 -5 -7 64.92 7.86 0
 4 -5 -6 52.11 7.29 0
 4 -5 -4 459.16 16.03 0
 4 -5 -3 268.36 12.29 0
 4 -5 -2 142.74 9.85 0
 4 -5 -1 269.75 12.15 0
 4 -5 0 229.14 11.25 0
 4 -5 1 278.17 12.4 0
 4 -5 3 272.6 12.6 0
 4 -5 4 467.76 16.25 0
 4 -5 5 346 14.23 0
 4 -5 6 57.13 7.21 0
 4 -5 9 39.46 7.21 0
 4 -5 10 56.48 7.55 0
 4 -5 11 1.6 4.51 0
 4 -5 12 53.48 7.37 0
 4 -4 -11 122.28 9.2 0
 4 -4 -10 436.13 15.97 0
 4 -4 -9 102.84 9.19 0
 4 -4 -7 251.72 12.01 0
 4 -4 -6 6.43 4.7 0
 4 -4 -4 58.71 6.78 0
 4 -4 -3 14.72 4.3 0
 4 -4 -2 45.18 6.09 0
 4 -4 -1 274.5 11.89 0
 4 -4 0 139.64 9.06 0
 4 -4 1 252.33 11.41 0
 4 -4 2 48.58 6.44 0
 4 -4 3 19.01 4.57 0
 4 -4 4 59.35 6.99 0
 4 -4 5 97.24 8.1 0
 4 -4 6 5.39 4.57 0
 4 -4 7 255.82 12.41 0
 4 -4 9 104.53 8.96 0
 4 -4 12 229.02 13.03 0
 4 -4 13 151.2 10.9 0
 4 -4 14 1.62 4.07 0
 4 -3 -11 27.18 5.51 0
 4 -3 -10 0.53 3.72 0
 4 -3 -9 32.15 5.81 0
 4 -3 -8 36.81 6.29 0
 4 -3 -7 537.92 16.42 0
 4 -3 -6 283.12 12.29 0
 4 -3 -5 75.67 7.4 0
 4 -3 -3 122.32 8.32 0
 4 -3 -2 183.58 9.44 0
 4 -3 -1 499.74 15.06 0
 4 -3 0 2.11 2.79 0
 4 -3 3 104.62 7.99 0
 4 -3 5 65.37 6.81 0
 4 -3 6 260.78 12.38 0
 4 -3 7 508.09 16.47 0
 4 -2 -11 -0.26 3.1 0
 4 -2 -10 106.09 7.87 0
 4 -2 -8 28.53 5.44 0
 4 -2 -7 27.83 4.94 0
 4 -2 3 186.52 9.8 0
 4 -2 4 142.49 8.36 0
 4 -1 -11 4.74 3.78 0
 4 -1 -10 15.3 3.76 0
 4 0 -7 4.64 3.03 0
 4 0 -5 181.73 8.41 0
 4 0 -3 79.29 6.15 0
 4 1 -10 15.2 3.06 0
 4 1 -9 78.05 5.39 0
 4 1 -8 182.43 7.58 0
 4 1 -7 41.11 4.59 0
 4 1 -6 172.07 7.69 0
 4 1 -5 309.62 10.26 0
 4 1 -4 187.19 8.35 0
 4 1 -2 206.6 8.97 0
 4 2 -9 43.17 3.83 0
 4 2 -8 24.03 3.47 0
 4 2 -7 33.48 4.05 0
 4 2 -4 155.31 7.36 0
 4 2 -3 182.98 8.15 0
 4 3 -8 43.03 3.45 0
 4 3 -7 507.94 10.63 0
 4 3 -6 271.2 8.3 0
 4 3 -5 69.03 5.16 0
 4 3 -4 177.99 7.59 0
 4 3 -3 113.08 6.32 0
 4 4 -7 239.87 6.75 0
 4 4 -6 9.5 2.33 0
 4 4 -5 94.9 5.4 0
 4 4 -4 47.83 4.63 0
 4 5 -6 58.65 3.86 0
 4 5 -5 350.18 9.22 0
 4 6 -5 234.52 7.51 0
 5 -12 -4 4.3 7.05 0
 5 -12 -3 43.43 11.29 0
 5 -12 -2 31.72 9.32 0
 5 -12 -1 55.99 10.38 0
 5 -12 0 13.55 8.53 0
 5 -12 1 59.19 10.19 0
 5 -12 2 34.7 8.75 0
 5 -12 3 39.11 9.06 0
 5 -12 5 -3.83 5.23 0
 5 -11 -7 14.75 7.54 0
 5 -11 -6 4.02 7.28 0
 5 -11 -5 46.09 9.6 0
 5 -11 -4 54.82 10.35 0
 5 -11 -3 4.77 7.1 0
 5 -11 -2 212.32 16.13 0
 5 -11 -1 -1.41 6.19 0
 5 -11 0 7.83 6.83 0
 5 -11 1 2.08 7.13 0
 5 -11 3 8.06 6.66 0
 5 -11 4 44.74 8.65 0
 5 -11 6 -0.84 5.41 0
 5 -11 7 15.93 6.43 0
 5 -10 -8 31.63 9.18 0
 5 -10 -7 144.86 13.87 0
 5 -10 -6 121.93 12.46 0
 5 -10 -5 31.15 9.94 0
 5 -10 -4 23.08 7.61 0
 5 -10 -3 95.76 11.62 0
 5 -10 -1 84.17 11.54 0
 5 -10 0 158.4 13.08 0
 5 -10 1 77.17 10.67 0
 5 -10 2 47.7 9.83 0
 5 -10 3 120.46 12.15 0
 5 -10 4 26.77 7.54 0
 5 -10 5 22.79 7.11 0
 5 -10 6 102.43 10.53 0
 5 -10 8 30.6 7.35 0
 5 -9 -9 23.72 8.77 0
 5 -9 -8 38.8 10.11 0
 5 -9 -7 54.2 10.22 0
 5 -9 -6 62.9 10.42 0
 5 -9 -5 129.84 12.3 0
 5 -9 -4 6.89 7.22 0
 5 -9 -3 128.47 11.96 0
 5 -9 -2 5.45 5.77 0
 5 -9 -1 113.21 11.97 0
 5 -9 0 38.71 8.53 0
 5 -9 1 96.94 11.68 0
 5 -9 2 -1.63 4.98 0
 5 -9 3 111.88 11.59 0
 5 -9 4 13.36 6.39 0
 5 -9 6 50.44 8.51 0
 5 -9 7 46.74 8.51 0
 5 -9 8 40.39 8.36 0
 5 -8 -10 14.02 7.51 0
 5 -8 -8 102.75 12.13 0
 5 -8 -4 139.68 11.92 0
 5 -8 -3 19.9 6.7 0
 5 -8 -1 41.21 8.87 0
 5 -8 0 187.22 12.96 0
 5 -8 1 36.84 7.61 0
 5 -8 2 57.39 8.75 0
 5 -8 4 122.02 10.88 0
 5 -8 5 4.21 6.54 0
 5 -8 6 71.05 9.88 0
 5 -8 7 55.62 9.17 0
 5 -8 8 95.12 10.26 0
 5 -8 10 8.28 5.3 0
 5 -7 -10 23.53 7.5 0
 5 -7 -9 52.34 9.38 0
 5 -7 -6 169.35 13.23 0
 5 -7 -5 151.64 12.57 0
 5 -7 -4 87.86 11.02 0
 5 -7 -3 71.33 9.97 0
 5 -7 -1 76.35 9.43 0
 5 -7 0 20.25 6.01 0
 5 -7 1 85.47 10.57 0
 5 -7 2 159.15 12.49 0
 5 -7 3 55.79 9.37 0
 5 -7 4 95.6 9.67 0
 5 -7 5 162.93 12.51 0
 5 -7 7 152.11 11.58 0
 5 -7 9 63.99 9.17 0
 5 -7 10 15.88 6.22 0
 5 -7 11 -0.04 4.54 0
 5 -6 -11 9.26 6.01 0
 5 -6 -10 164.07 12.91 0
 5 -6 -9 22.25 7.28 0
 5 -6 -8 56.09 9.57 0
 5 -6 -7 13.34 5.99 0
 5 -6 -6 13.86 6.59 0
 5 -6 -5 4.75 5.2 0
 5 -6 -4 10.83 5.34 0
 5 -6 -3 80.07 9.64 0
 5 -6 -2 132.67 11.08 0
 5 -6 -1 23.15 5.87 0
 5 -6 0 261.04 14.25 0
 5 -6 1 14.86 5.62 0
 5 -6 2 143.42 11.33 0
 5 -6 3 83.49 10.37 0
 5 -6 4 4.69 4.89 0
 5 -6 5 0.24 4.56 0
 5 -6 6 16.99 5.96 0
 5 -6 7 9.81 5.85 0
 5 -6 10 168.22 12.46 0
 5 -6 11 10.43 6.23 0
 5 -5 -11 32.71 7.46 0
 5 -5 -10 74.09 9.66 0
 5 -5 -9 27.43 6.83 0
 5 -5 -8 6.03 4.97 0
 5 -5 -5 0.09 4.55 0
 5 -5 -4 191.22 12.01 0
 5 -5 -3 91.99 9.02 0
 5 -5 -2 278.2 14.38 0
 5 -5 -1 74.17 9.19 0
 5 -5 0 34.2 6.45 0
 5 -5 2 289.81 14.38 0
 5 -5 3 101.16 10.11 0
 5 -5 4 200.58 12.88 0
 5 -5 5 11.81 5.46 0
 5 -5 6 157.29 12.06 0
 5 -5 7 55.34 8.38 0
 5 -5 8 7.56 5.64 0
 5 -5 9 19.56 6.47 0
 5 -5 10 66.44 9.51 0
 5 -5 11 30.58 7.1 0
 5 -5 13 41.11 8.01 0
 5 -4 -11 127.97 10.79 0
 5 -4 -10 30.52 6.71 0
 5 -4 -9 213.15 12.75 0
 5 -4 -8 15.12 5.5 0
 5 -4 -6 74.23 8.89 0
 5 -4 -5 -1.26 4.15 0
 5 -4 -4 38.41 7.14 0
 5 -4 -3 229.18 12.37 0
 5 -4 -1 33.26 6.21 0
 5 -4 0 10.95 4.97 0
 5 -4 1 35.18 6.6 0
 5 -4 2 55.31 7.57 0
 5 -4 3 230.08 13.03 0
 5 -4 4 55.12 8.22 0
 5 -4 5 3.51 4.41 0
 5 -4 7 31.59 6.58 0
 5 -4 8 13.83 5.85 0
 5 -4 9 206.2 13.66 0
 5 -4 10 44.78 7.86 0
 5 -4 11 133.82 11.68 0
 5 -4 12 31.24 7.42 0
 5 -4 13 14.16 6.16 0
 5 -4 14 9.49 6.76 0
 5 -3 -11 39.62 7.22 0
 5 -3 -9 29.9 6.59 0
 5 -3 -8 87.72 8.94 0
 5 -3 -7 6.48 4.42 0
 5 -3 -6 35.59 6.58 0
 5 -3 -5 167.86 10.34 0
 5 -3 -4 4.96 4.34 0
 5 -3 -3 187.48 11.09 0
 5 -3 -2 7.67 4.58 0
 5 -3 -1 330.32 14.28 0
 5 -3 0 58.84 7.75 0
 5 -3 1 307.26 14.17 0
 5 -3 2 9.05 4.3 0
 5 -3 3 182.45 11.37 0
 5 -3 4 7.45 5.28 0
 5 -3 5 143.92 11.07 0
 5 -3 8 102.71 9.93 0
 5 -3 9 20.81 6.39 0
 5 -3 10 237.55 14.17 0
 5 -3 11 37.08 8.35 0
 5 -3 12 48.79 9.06 0
 5 -3 13 40.9 8.28 0
 5 -3 14 59.59 9.65 0
 5 -3 15 62.74 9.72 0
 5 -2 -11 107.61 8.69 0
 5 -2 -10 0.86 3.88 0
 5 -2 -9 82.38 8.22 0
 5 -2 -8 37.01 6.53 0
 5 -2 -7 22.16 5.43 0
 5 -2 -6 53.03 7.33 0
 5 -2 -5 374.2 14.53 0
 5 -2 -4 64.23 7.64 0
 5 -2 -3 24.08 5.35 0
 5 -2 -2 134.56 9.33 0
 5 -2 -1 420.98 15.59 0
 5 -2 0 164.28 10.19 0
 5 -2 1 433.15 15.9 0
 5 -2 2 151.07 10.02 0
 5 -2 3 20.03 5.28 0
 5 -2 4 68.42 8.93 0
 5 -2 5 414.05 16.66 0
 5 -2 6 43.63 7.13 0
 5 -2 7 19.92 5.79 0
 5 -2 16 33.55 8.16 0
 5 -1 -11 45 6.12 0
 5 -1 -9 49.95 6.77 0
 5 -1 -8 58.72 6.98 0
 5 -1 -6 232.58 11.55 0
 5 -1 -5 11.26 4.57 0
 5 -1 -4 35.11 6.21 0
 5 -1 -3 159.9 9.58 0
 5 -1 -2 131.6 9.26 0
 5 -1 0 114.68 8.91 0
 5 -1 1 107.94 8.75 0
 5 -1 2 147.95 10.37 0
 5 -1 3 156.68 10.21 0
 5 0 -10 -1.66 3.06 0
 5 0 -9 24.4 5 0
 5 0 -8 537.95 15.35 0
 5 0 -7 36.21 5.89 0
 5 0 -5 131.43 8.29 0
 5 0 -4 6.17 3.85 0
 5 0 -2 -3.44 3.85 0
 5 0 -1 201.42 11.3 0
 5 0 0 1.17 3.83 0
 5 0 1 189.95 11.21 0
 5 1 -9 60.59 5.69 0
 5 1 -8 74.54 6.44 0
 5 1 -7 32.59 5.16 0
 5 1 -6 245.44 10.3 0
 5 1 -5 11.19 3.77 0
 5 1 -4 34.24 5.58 0
 5 1 -3 158.03 9.03 0
 5 1 -2 138.14 9.11 0
 5 1 -1 101.13 8.34 0
 5 2 -5 395.15 12.79 0
 5 2 -4 77.07 6.57 0
 5 2 -3 19.13 4.88 0
 5 2 -2 140.79 9.27 0
 5 2 -1 412.21 14.17 0
 5 3 -4 6.42 3.89 0
 5 4 -3 229.3 10.48 0
 5 5 -3 80.29 6.85 0
 6 -10 -4 93.34 12.93 0
 6 -10 -3 9.39 7.37 0
 6 -10 -2 5.31 7.15 0
 6 -10 -1 20.03 8.1 0
 6 -10 0 16.78 8.17 0
 6 -10 1 11.95 7.47 0
 6 -10 2 1.74 6.59 0
 6 -10 3 25.95 8.37 0
 6 -10 4 68.28 10.76 0
 6 -10 5 8.99 6.8 0
 6 -9 -7 -2.54 7.96 0
 6 -9 -6 117.94 13.68 0
 6 -9 -5 94.28 12.76 0
 6 -9 -4 3.19 6.8 0
 6 -9 -2 135.93 13.59 0
 6 -9 0 34.95 8.85 0
 6 -9 1 128.67 13.39 0
 6 -9 2 121.63 12.39 0
 6 -9 5 117.6 12.12 0
 6 -9 6 126.21 12.54 0
 6 -9 7 3.36 6.79 0
 6 -9 8 14.84 6.75 0
 6 -8 -9 7.28 7.16 0
 6 -8 -8 36.74 9.19 0
 6 -8 -7 47.39 10.29 0
 6 -8 -6 29.39 8.22 0
 6 -8 -5 54.81 10.03 0
 6 -8 -4 29.53 9.42 0
 6 -8 -3 41.96 9.12 0
 6 -8 -2 14.79 8.12 0
 6 -8 -1 23.43 7.95 0
 6 -8 0 13.32 7.02 0
 6 -8 1 35.04 8.77 0
 6 -8 2 10.37 7.8 0
 6 -8 5 53.92 10.24 0
 6 -8 6 25.95 8.25 0
 6 -8 7 37.2 9.43 0
 6 -8 8 47.56 8.67 0
 6 -8 10 52.95 9.55 0
 6 -7 -11 48.62 10.01 0
 6 -7 -10 219.07 14.98 0
 6 -7 -9 17.2 8.38 0
 6 -7 -7 81.94 11.03 0
 6 -7 -5 52.91 9.62 0
 6 -7 -4 93.61 11.36 0
 6 -7 -1 58.38 10.15 0
 6 -7 0 49.75 9.07 0
 6 -7 2 164.26 13.41 0
 6 -7 3 21.96 8.36 0
 6 -7 4 92.25 10.67 0
 6 -7 5 49.55 9.08 0
 6 -7 6 75.51 11.11 0
 6 -7 7 87.74 11.29 0
 6 -7 8 24.8 7.68 0
 6 -7 9 17.12 8.38 0
 6 -7 10 201.65 14.9 0
 6 -7 11 45.05 9.29 0
 6 -6 -11 5.47 5.56 0
 6 -6 -10 37.39 8.34 0
 6 -6 -9 1.92 5.85 0
 6 -6 -8 5.28 7.39 0
 6 -6 -7 22.11 7.35 0
 6 -6 -6 21.47 7.31 0
 6 -6 -5 80.11 11.32 0
 6 -6 -4 206.2 15 0
 6 -6 -3 94.53 11.64 0
 6 -6 -2 179.38 13.22 0
 6 -6 0 9.72 6.17 0
 6 -6 1 287 16.1 0
 6 -6 2 175.91 13.07 0
 6 -6 3 96.84 10.57 0
 6 -6 4 197.7 14.69 0
 6 -6 5 73.93 10.59 0
 6 -6 6 14.46 6.92 0
 6 -6 7 30.75 7.75 0
 6 -6 8 5.12 6.1 0
 6 -6 9 11.15 6.96 0
 6 -6 10 37.13 9.2 0
 6 -6 11 9.91 6.88 0
 6 -5 -11 104.71 11.23 0
 6 -5 -10 3.51 5.62 0
 6 -5 -9 15.13 6.18 0
 6 -5 -8 108.23 11.2 0
 6 -5 -6 0.27 5.28 0
 6 -5 -5 8.63 7.01 0
 6 -5 -2 -0.24 5.28 0
 6 -5 0 194.44 13.27 0
 6 -5 1 56.03 8.74 0
 6 -5 2 5.01 5.51 0
 6 -5 4 9.29 5.84 0
 6 -5 5 0.83 6.11 0
 6 -5 6 6.93 6.6 0
 6 -5 8 111.27 12.27 0
 6 -5 9 16.77 7.04 0
 6 -5 10 5.4 7.31 0
 6 -5 11 85.64 12.11 0
 6 -5 12 47.54 9.61 0
 6 -5 13 71.62 10.26 0
 6 -4 -12 51.21 8.74 0
 6 -4 -11 4.86 5.13 0
 6 -4 -10 54.41 8.85 0
 6 -4 -9 91.02 10.73 0
 6 -4 -8 59.3 8.9 0
 6 -4 -6 38.72 7.85 0
 6 -4 -5 37.04 8.43 0
 6 -4 -4 11.66 5.99 0
 6 -4 -3 4.85 5.35 0
 6 -4 0 10.97 5.76 0
 6 -4 2 75.03 10.47 0
 6 -4 3 7.92 5.94 0
 6 -4 5 25.46 7.12 0
 6 -4 6 35.66 7.84 0
 6 -4 7 5.58 5.95 0
 6 -4 8 47.66 8.93 0
 6 -4 9 111.03 11.97 0
 6 -4 10 59.59 9.61 0
 6 -4 11 -0.52 5.8 0
 6 -4 12 37.51 8.62 0
 6 -4 13 38.2 8.63 0
 6 -3 -11 142.6 11.14 0
 6 -3 -10 120.2 10.29 0
 6 -3 -9 30.26 7.08 0
 6 -3 -8 94.96 9.88 0
 6 -3 -6 78.5 9.82 0
 6 -3 -5 7.73 5.66 0
 6 -3 -4 10.74 5.62 0
 6 -3 -3 93.9 10.08 0
 6 -3 -2 90.69 9.33 0
 6 -3 -1 5.91 5.16 0
 6 -3 0 25.75 6.8 0
 6 -3 1 4.67 5.91 0
 6 -3 2 94.54 10.27 0
 6 -3 3 107.04 10.54 0
 6 -3 4 16.73 6.42 0
 6 -3 5 16.81 6.42 0
 6 -3 6 75.11 10.79 0
 6 -3 7 45.24 8.86 0
 6 -3 8 85.31 11.6 0
 6 -3 9 33.28 8.11 0
 6 -3 10 116.43 12.65 0
 6 -3 11 140.43 13.2 0
 6 -3 12 110.5 13.31 0
 6 -3 13 -3.32 6.92 0
 6 -2 -10 2.62 4.49 0
 6 -2 -9 10.3 5.69 0
 6 -2 -8 13.43 5.31 0
 6 -2 -7 -2 4.13 0
 6 -2 -6 61.72 8.43 0
 6 -2 -5 4.57 5.76 0
 6 -2 -4 13.95 6.18 0
 6 -2 -3 287.8 14.37 0
 6 -2 -2 113.03 10.73 0
 6 -2 -1 75.96 9.52 0
 6 -2 2 104.52 10.27 0
 6 -2 4 19.04 6.23 0
 6 -2 5 4.19 5.82 0
 6 -2 6 63.34 9.19 0
 6 -2 7 1.14 5.37 0
 6 -2 8 7.46 6.61 0
 6 -2 9 7.75 7.27 0
 6 -2 10 6.06 6.56 0
 6 -2 12 52.88 9.73 0
 6 -2 13 76.58 11.65 0
 6 -2 14 59.28 10.24 0
 6 -1 -10 -2.1 3.58 0
 6 -1 -9 46.25 7.19 0
 6 -1 -8 70.25 8.25 0
 6 -1 -7 100.3 8.63 0
 6 -1 -6 310.81 14.3 0
 6 -1 -5 33.94 6.57 0
 6 -1 -4 58.13 8.35 0
 6 -1 -3 221.42 12.88 0
 6 -1 -2 28.02 6.29 0
 6 -1 -1 295.17 15.02 0
 6 -1 0 22.67 6.67 0
 6 -1 1 307.61 15.59 0
 6 -1 2 31.57 7.03 0
 6 -1 3 205.17 13.13 0
 6 -1 5 45.78 8.88 0
 6 -1 6 304.81 16.25 0
 6 -1 7 115.68 10.51 0
 6 -1 8 75.85 10.15 0
 6 0 -9 6.99 4.47 0
 6 0 -7 18.82 4.83 0
 6 0 -6 13.49 5 0
 6 0 -5 20.26 5.47 0
 6 0 -4 4.42 5.13 0
 6 0 -3 7.24 5.44 0
 6 0 -2 3.91 5.35 0
 6 0 0 114.72 9.84 0
 6 0 1 191.96 12.28 0
 6 0 2 7.41 5.96 0
 6 0 3 8.5 5.56 0
 6 0 4 5.36 5.45 0
 6 1 -8 71.15 7.2 0
 6 1 -7 112.4 8.67 0
 6 1 -6 314.42 13.4 0
 6 1 -5 40.82 6.82 0
 6 1 -3 214.62 12.09 0
 6 1 -2 42.25 6.83 0
 6 1 -1 317.64 14.89 0
 6 1 1 288.72 15.1 0
 6 1 2 25.02 6.64 0
 6 2 -7 0.06 3.41 0
 6 2 -6 56.68 7.08 0
 6 2 -5 7.48 4.16 0
 6 2 -4 22.48 5.33 0
 6 2 -3 286.24 13.41 0
 6 2 -2 109.23 9.18 0
 6 2 -1 83.77 9.08 0
 6 2 0 143.94 10.7 0
 6 2 1 76.29 8.84 0
 6 3 -6 87.49 7.13 0
 6 3 -5 15.49 4.51 0
 6 3 -4 12.1 4.85 0
 6 3 -3 112.89 9.21 0
 6 3 -1 -0.62 4.45 0
 6 3 0 13.66 5.35 0
 6 4 -5 28.87 5.13 0
 6 4 -4 12.92 4.69 0
 6 4 -3 11.05 4.46 0
 6 4 -2 67.64 8.04 0
 6 4 -1 82.65 8.55 0
 6 5 -4 16.3 5.1 0
 6 5 -3 95.94 8.16 0
 6 5 -2 6.55 4.55 0
 6 6 -3 90.93 8.11 0
 6 6 -2 169.26 10.53 0
 7 -7 -5 15.1 9.11 0
 7 -7 -4 22.59 8.22 0
 7 -7 -3 43.3 10 0
 7 -7 -2 13.53 7.8 0
 7 -7 0 4.41 6.9 0
 7 -7 1 25.29 8.47 0
 7 -7 2 21.66 8.02 0
 7 -7 3 39.3 9.26 0
 7 -7 4 29.11 9.01 0
 7 -7 5 19.22 8.15 0
 7 -6 -7 0.81 6.06 0
 7 -6 -6 47.05 10.38 0
 7 -6 -5 33.77 9.18 0
 7 -6 -4 16.59 7.55 0
 7 -6 -3 38.09 9.33 0
 7 -6 -2 52.45 10.64 0
 7 -6 -1 -4.69 5.92 0
 7 -6 0 14.76 7.1 0
 7 -6 3 48.32 9.85 0
 7 -6 4 17.57 7.83 0
 7 -6 5 47.28 9.49 0
 7 -6 7 -3.87 6.47 0
 7 -5 -9 4.41 7.17 0
 7 -5 -8 31.08 8.24 0
 7 -5 -7 66.94 10.82 0
 7 -5 -6 72.64 10.22 0
 7 -5 -5 5.13 6.09 0
 7 -5 -4 17.72 7.28 0
 7 -5 -3 4.51 6.11 0
 7 -5 -2 30.92 8.43 0
 7 -5 -1 292.86 17.13 0
 7 -5 0 62.27 11.04 0
 7 -5 3 -1.34 6.04 0
 7 -5 4 26.23 8.16 0
 7 -5 5 11.48 6.89 0
 7 -5 7 68.45 10.79 0
 7 -5 8 26.64 8.73 0
 7 -4 -9 21.37 7.72 0
 7 -4 -8 -2.52 5.48 0
 7 -4 -7 6.86 5.95 0
 7 -4 -6 148.62 13.32 0
 7 -4 -5 23.21 7.36 0
 7 -4 -4 23.17 7.26 0
 7 -4 -3 -0.42 5.57 0
 7 -4 -2 17.41 6.93 0
 7 -4 -1 190.84 14.85 0
 7 -4 0 79.13 10.79 0
 7 -4 1 172.57 13.81 0
 7 -4 2 23.66 7.39 0
 7 -4 3 8.1 6.61 0
 7 -4 5 33.38 8.65 0
 7 -4 6 180.23 14.23 0
 7 -4 7 6.85 6.93 0
 7 -4 8 3.75 6.98 0
 7 -4 9 14.89 8.03 0
 7 -3 -9 55.86 8.87 0
 7 -3 -8 30.04 7.54 0
 7 -3 -7 21.45 6.82 0
 7 -3 -6 -2.67 4.77 0
 7 -3 -5 5.5 5.89 0
 7 -3 -4 147.77 12.19 0
 7 -3 -3 64.04 9.41 0
 7 -3 -2 99.1 11.5 0
 7 -3 -1 72.95 10.31 0
 7 -3 0 5.99 7.16 0
 7 -3 1 65.37 10.47 0
 7 -3 2 113.34 12.15 0
 7 -3 4 127.27 12.78 0
 7 -3 5 2.8 6.56 0
 7 -3 6 3.93 6.35 0
 7 -3 7 14.72 7.33 0
 7 -3 8 34.42 9.35 0
 7 -3 9 32.14 8.79 0
 7 -2 -8 215.03 13.06 0
 7 -2 -7 -3.32 5.2 0
 7 -2 -6 19.24 7.12 0
 7 -2 -5 7.7 5.57 0
 7 -2 -4 15.56 6.56 0
 7 -2 -3 160.91 12.48 0
 7 -2 -2 77.35 10.29 0
 7 -2 1 46.84 9.02 0
 7 -2 2 68.6 9.96 0
 7 -2 3 148.67 12.69 0
 7 -2 4 13.18 6.82 0
 7 -2 5 12.69 6.85 0
 7 -2 6 8.33 7.61 0
 7 -2 8 212.68 16.38 0
 7 -2 9 35.32 9.23 0
 7 -2 10 32.13 9.07 0
 7 -1 -7 2.82 5.16 0
 7 -1 -6 31.93 7.45 0
 7 -1 -5 22.42 7.2 0
 7 -1 -4 4.73 6.54 0
 7 -1 -2 71.88 9.55 0
 7 -1 -1 23.39 6.88 0
 7 -1 0 95.67 10.52 0
 7 -1 2 54.1 10 0
 7 -1 4 8.5 6.64 0
 7 -1 5 24.15 7.71 0
 7 -1 6 41.84 9.05 0
 7 -1 7 0.6 6.27 0
 7 -1 8 80.63 11.6 0
 7 -1 9 52.55 11.32 0
 7 -1 10 32.77 9.61 0
 7 0 -7 209.3 12.46 0
 7 0 -6 139.02 11.17 0
 7 0 -5 183.13 12.42 0
 7 0 -4 63.22 8.77 0
 7 0 -3 29.52 7.26 0
 7 0 -2 -6.16 4.29 0
 7 0 -1 88.07 10.34 0
 7 0 0 1.22 5.42 0
 7 0 1 95.05 12.09 0
 7 0 2 -0.33 5.6 0
 7 0 3 37.53 8.39 0
 7 0 4 76.99 11.41 0
 7 0 5 192.84 14.34 0
 7 0 6 142.2 13.67 0
 7 0 7 204.72 16.16 0
 7 0 8 1.53 7.06 0
 7 0 9 2.7 6.86 0
 7 0 10 -5.52 6.12 0
 7 1 -6 49.05 7.73 0
 7 1 -5 31.47 6.52 0
 7 1 -4 10.08 5.34 0
 7 1 -3 157.32 11.44 0
 7 1 -2 64.18 9.51 0
 7 1 -1 29.96 7.14 0
 7 1 0 95 11.39 0
 7 1 1 21.83 7.95 0
 7 1 2 60.41 9.68 0
 7 1 3 170.62 13.98 0
 7 1 5 22.36 7.78 0
 7 1 6 40.15 9.25 0
 7 1 7 2.71 7.28 0
 7 1 8 82.15 11.23 0
 7 2 -5 8.42 4.92 0
 7 2 -3 147.15 11.52 0
 7 2 -2 61.62 8.76 0
 7 2 -1 56.34 9.25 0
 7 2 1 50.82 8.81 0
 7 2 2 67.93 10.67 0
 7 2 3 152.22 13.89 0
 7 2 4 10.99 7.11 0
 7 2 5 11.53 6.71 0
 7 3 -4 133.86 10.11 0
 7 3 -3 81.77 9.92 0
 7 3 -2 121.08 10.75 0
 7 3 -1 63.73 8.71 0
 7 3 0 11.79 5.99 0
 7 3 1 70.58 10.36 0
 7 3 2 105.11 10.81 0
 7 3 3 58.59 9.5 0
 7 4 -3 6.14 5.02 0
 7 4 -2 14.17 5.49 0
 7 4 -1 179.91 12.58 0
 7 4 0 70.83 9.28 0
 7 4 2 9.89 6.25 0
 7 5 -2 26.02 6.01 0
 7 5 -1 305.1 15.45 0
 7 5 0 65.65 9.2 0
 7 6 -1 7.13 4.97 0
 7 6 0 13.74 6.64 0
 7 7 0 -0.04 4.49 0
 8 -3 -1 21.2 7.77 0
 8 -3 0 20.59 7.79 0
 8 -2 -5 58.53 9.79 0
 8 -2 -4 26.61 7.72 0
 8 -2 -3 58.97 9.95 0
 8 -2 -2 18.99 7.59 0
 8 -2 -1 1.63 7.13 0
 8 -2 1 0.54 6.22 0
 8 -2 2 10.04 7.6 0
 8 -1 -4 11.98 7.11 0
 8 -1 -3 25.55 8.23 0
 8 -1 -2 6.61 7.12 0
 8 -1 -1 26.36 7.93 0
 8 -1 0 20.37 7.73 0
 8 -1 1 24.74 8.13 0
 8 -1 2 3.08 6.57 0
 8 -1 3 26.67 8.82 0
 8 0 -4 57.13 9.7 0
 8 0 -3 101.81 12.05 0
 8 0 -2 1.9 5.75 0
 8 0 -1 55.95 10 0
 8 0 0 4.34 6.72 0
 8 0 1 74.27 11.85 0
 8 0 2 -0.26 6.34 0
 8 0 3 118.37 14.56 0
 8 1 -3 28.48 7.65 0
 8 1 -2 6.79 5.88 0
 8 1 -1 36.1 8.38 0
 8 1 0 26.35 7.84 0
 8 1 1 37.65 8.99 0
 8 1 2 -0.48 6.3 0
 8 1 3 15.21 7.62 0
 8 2 -2 17.12 6.64 0
 8 2 -1 -3.93 4.62 0
 8 2 0 13.22 6.36 0
 8 2 2 22.68 8.64 0
 8 2 3 55.59 10.71 0
 8 3 0 13.91 6.52 0
 8 3 2 25.94 8.47 0
 8 4 1 101.24 12.17 0
 -4 4 9 89.73 6.78 0
 -4 4 10 398.46 13.48 0
 -4 5 8 58.79 5.24 0
 -4 6 -5 242.98 10.57 0
 -4 7 -5 -2.33 3 0
 -3 -2 9 74.97 7.77 0
 -3 0 9 408.02 13.64 0
 -3 0 10 -0.46 3.35 0
 -3 1 10 215.89 10.71 0
 -3 2 8 556.67 14.16 0
 -3 2 9 84.13 6.95 0
 -3 2 10 74.26 6.8 0
 -3 3 8 468.11 12.78 0
 -3 3 9 3.37 2.8 0
 -3 3 10 80.01 6.22 0
 -3 3 11 31.14 5.53 0
 -3 4 -7 524.83 15.29 0
 -3 4 7 501.95 11.86 0
 -3 4 8 126.45 7 0
 -3 4 9 135.51 7.26 0
 -3 4 10 50.62 5.32 0
 -3 4 11 2.41 2.78 0
 -3 4 12 69.92 6.37 0
 -3 5 -7 22.5 4.62 0
 -3 5 -6 2.21 3.14 0
 -3 5 -5 85.61 6.76 0
 -3 5 7 17 3.02 0
 -3 5 9 401.59 10.89 0
 -3 6 -7 281.32 11.79 0
 -3 6 -6 153.34 8.54 0
 -3 6 -3 314.41 9.88 0
 -3 6 6 142.49 5.38 0
 -3 6 7 279.29 7.46 0
 -3 7 -7 415.62 13.9 0
 -3 7 -6 321.17 11.62 0
 -3 7 -5 14.47 3.33 0
 -3 7 -4 21.12 3.81 0
 -3 7 -3 100.56 5.84 0
 -3 7 -2 310.68 8.94 0
 -3 7 -1 308.91 8.44 0
 -3 7 0 1.85 1.69 0
 -3 7 4 18.23 1.92 0
 -3 7 5 10.03 1.46 0
 -3 7 6 288.04 5.25 0
 -3 8 -6 228.66 9.98 0
 -3 8 -5 132.06 7.4 0
 -3 8 -4 78.17 5.45 0
 -3 8 -3 64.56 4.77 0
 -3 8 -2 147.07 6.25 0
 -3 8 -1 31.98 3.26 0
 -3 8 0 15.07 2.3 0
 -3 8 1 29.63 2.3 0
 -2 -10 4 127 7.73 0
 -2 -9 3 81.7 6.03 0
 -2 -9 5 117.55 8.05 0
 -2 -8 5 261.23 10.92 0
 -2 -8 6 28.87 5.49 0
 -2 -7 -11 54.91 5.93 0
 -2 -7 -10 15.34 3.52 0
 -2 -7 -9 92.24 6.39 0
 -2 -7 5 168.17 8.84 0
 -2 -7 6 336.08 12.5 0
 -2 -7 7 129.35 8.57 0
 -2 -6 -11 350.33 12.35 0
 -2 -6 -10 25.39 4.6 0
 -2 -6 -9 184.45 8.51 0
 -2 -6 6 25.57 4.99 0
 -2 -5 -11 52.62 6.18 0
 -2 -5 -10 28.78 4.67 0
 -2 -5 7 1506.22 25.62 0
 -2 -4 -11 66.34 7.04 0
 -2 -4 -10 87.4 6.83 0
 -2 -4 7 292.35 11 0
 -2 -4 9 16.43 4.53 0
 -2 -3 -11 111.36 8.6 0
 -2 -3 -10 460.39 14.22 0
 -2 -3 8 209.22 9.85 0
 -2 -3 9 347.99 13.01 0
 -2 -2 -11 500.75 15.54 0
 -2 -2 -10 239.67 10.55 0
 -2 -2 8 257.14 10.37 0
 -2 -2 9 552.64 15.84 0
 -2 -2 10 226.7 10.96 0
 -2 -1 -11 267.68 12.16 0
 -2 -1 -10 468.03 14.78 0
 -2 -1 -9 37.93 5.27 0
 -2 -1 9 42.99 5.35 0
 -2 -1 10 446.54 14.06 0
 -2 -1 11 257.96 11.4 0
 -2 0 -10 27.69 5.07 0
 -2 0 -9 235.41 10.29 0
 -2 0 7 754.64 15.28 0
 -2 0 8 195.53 8.89 0
 -2 0 9 226.75 9.65 0
 -2 0 10 19.69 4.82 0
 -2 0 11 100.61 8.13 0
 -2 1 -10 471.5 15.28 0
 -2 1 -9 46.6 5.4 0
 -2 1 -8 269.9 10.47 0
 -2 1 7 26.18 4.16 0
 -2 1 9 42.73 5.02 0
 -2 1 12 13.68 4.56 0
 -2 2 -9 556.58 15.5 0
 -2 2 -7 130.51 7.39 0
 -2 2 7 129.58 6.68 0
 -2 2 8 245.81 8.82 0
 -2 2 9 543.61 13.42 0
 -2 2 10 243.2 10.08 0
 -2 2 11 483.61 14.2 0
 -2 2 12 34.69 5.23 0
 -2 3 -9 362.42 12.93 0
 -2 3 -8 229.67 9.93 0
 -2 3 -7 4.97 3.73 0
 -2 3 -6 2130.28 26.44 0
 -2 3 6 2083.95 21.03 0
 -2 3 7 8.87 2.67 0
 -2 3 8 221.21 8.17 0
 -2 3 10 481.21 12.99 0
 -2 3 11 117.57 7.46 0
 -2 3 12 31.99 4.78 0
 -2 4 -8 27.75 4.82 0
 -2 4 -7 302.44 10.78 0
 -2 4 -6 178.99 8.03 0
 -2 4 -5 59.97 5.57 0
 -2 4 -4 178.15 7.34 0
 -2 4 5 60.63 3.49 0
 -2 4 7 296.96 7.98 0
 -2 4 8 24.28 3.47 0
 -2 4 9 18.81 3.23 0
 -2 4 10 95.82 5.83 0
 -2 4 11 67.03 5.87 0
 -2 4 12 329.63 11.25 0
 -2 5 -9 495.93 15.44 0
 -2 5 -8 53.87 6.64 0
 -2 5 -7 1515.48 24.13 0
 -2 5 -6 317.93 10.97 0
 -2 5 -3 62.65 4.33 0
 -2 5 -2 606.83 10.87 0
 -2 5 4 165.48 4.35 0
 -2 5 5 262.29 5.91 0
 -2 5 6 317.7 6.97 0
 -2 5 7 1494.09 16.09 0
 -2 5 8 51.25 3.66 0
 -2 5 9 489.04 10.86 0
 -2 5 10 35.02 4.17 0
 -2 6 -8 34.92 5.98 0
 -2 6 -7 721 17.1 0
 -2 6 -6 13.86 3.52 0
 -2 6 -3 222.89 7.32 0
 -2 6 -2 465.08 9.6 0
 -2 6 -1 1000.15 12.66 0
 -2 6 0 -0.09 1.13 0
 -2 6 1 1021.6 9.71 0
 -2 6 2 475.19 5.4 0
 -2 6 5 702.3 6.39 0
 -2 7 -8 3.41 3.51 0
 -2 7 -5 167.18 7.59 0
 -2 7 -4 369.59 10.23 0
 -2 7 -3 160.62 6.43 0
 -2 7 -2 235.9 7.02 0
 -2 7 -1 156.6 5.09 0
 -2 7 0 0.13 1 0
 -2 8 -8 71.33 7.22 0
 -2 8 -7 22.27 4.66 0
 -2 8 -6 26.19 4.17 0
 -2 8 -5 266.06 9.61 0
 -2 8 -4 69.82 4.85 0
 -2 8 -3 144.1 6.08 0
 -2 8 -2 46.84 3.44 0
 -1 -10 6 34.04 4.62 0
 -1 -9 -1 624.99 10.58 0
 -1 -9 0 2.96 1.48 0
 -1 -9 1 613.73 12.12 0
 -1 -9 2 8.58 2.23 0
 -1 -9 4 100.56 6.31 0
 -1 -9 5 116.11 7.1 0
 -1 -9 6 46.35 5.29 0
 -1 -8 -6 204.24 5.87 0
 -1 -8 1 124.07 5.64 0
 -1 -8 2 161.09 6.85 0
 -1 -8 3 506.81 12.23 0
 -1 -8 4 412.24 11.49 0
 -1 -8 5 93.95 6.23 0
 -1 -8 6 205.48 9.45 0
 -1 -7 -10 358.69 10.32 0
 -1 -7 2 804.98 13.87 0
 -1 -7 3 484.04 11.76 0
 -1 -7 4 125.07 6.58 0
 -1 -7 5 353.11 11.23 0
 -1 -7 6 123.51 7.41 0
 -1 -7 7 154.08 8.67 0
 -1 -7 8 36.93 5.99 0
 -1 -6 -12 29.52 4.76 0
 -1 -6 -11 28.44 4.13 0
 -1 -6 -10 92.69 5.83 0
 -1 -6 -8 5.93 2.25 0
 -1 -6 -7 671.14 12.42 0
 -1 -6 4 149.96 7.24 0
 -1 -6 5 377.43 11.44 0
 -1 -6 6 324.15 10.89 0
 -1 -6 7 662.76 16.28 0
 -1 -6 8 3.5 3.46 0
 -1 -6 9 344.45 13.21 0
 -1 -5 -12 342.19 12.26 0
 -1 -5 -11 30.01 4.44 0
 -1 -5 -9 485.34 12.23 0
 -1 -5 -8 427.62 10.83 0
 -1 -5 -7 567.84 11.71 0
 -1 -5 6 482.6 12.77 0
 -1 -5 7 555.86 14.3 0
 -1 -5 9 507.27 15.31 0
 -1 -4 -12 182.1 9.81 0
 -1 -4 -11 168.6 8.62 0
 -1 -4 -10 41.09 4.79 0
 -1 -4 -9 256.06 9.18 0
 -1 -4 -8 414.94 10.77 0
 -1 -4 -7 10.64 2.98 0
 -1 -4 4 1394.55 18.3 0
 -1 -4 7 5.81 2.97 0
 -1 -4 8 436.1 13.08 0
 -1 -4 9 264.4 11.27 0
 -1 -4 10 35.62 5.52 0
 -1 -3 -12 79.59 6.85 0
 -1 -3 -11 54.06 6.59 0
 -1 -3 -9 96.63 6.22 0
 -1 -3 -7 503.05 11.38 0
 -1 -3 5 399.7 10.33 0
 -1 -3 6 309.76 9.87 0
 -1 -3 9 100.02 7.22 0
 -1 -3 11 47.96 6.17 0
 -1 -2 -12 154.63 9.15 0
 -1 -2 -8 674.32 14.46 0
 -1 -2 -7 1411.09 19.51 0
 -1 -2 5 1402.46 18.24 0
 -1 -2 9 451.17 13.22 0
 -1 -2 10 624.42 16.17 0
 -1 -2 11 220.56 10.44 0
 -1 -1 -12 101.47 7.95 0
 -1 -1 -11 599.07 16.3 0
 -1 -1 -10 133.93 8.23 0
 -1 -1 -9 764.51 16.35 0
 -1 -1 -8 42.46 4.38 0
 -1 -1 -7 146.31 7.18 0
 -1 -1 5 947.26 14.79 0
 -1 -1 6 872.07 14.93 0
 -1 -1 8 45.04 4.49 0
 -1 0 -11 17.12 4.48 0
 -1 0 -10 147.98 8.34 0
 -1 0 -9 68.37 5.75 0
 -1 0 -7 8.73 2.8 0
 -1 0 -6 4.84 2.51 0
 -1 0 5 905 13.55 0
 -1 0 6 4.56 2.31 0
 -1 0 9 72.57 5.88 0
 -1 0 10 146.85 7.9 0
 -1 0 11 17.2 4.1 0
 -1 0 12 225.06 10.65 0
 -1 1 -11 605.58 16.91 0
 -1 1 -10 133.96 7.95 0
 -1 1 -9 763.23 17.09 0
 -1 1 -8 52.79 5.17 0
 -1 1 -7 158.56 7.57 0
 -1 1 -6 847.85 14.9 0
 -1 1 4 140.38 4.77 0
 -1 1 5 979.21 13.37 0
 -1 1 6 849.14 13.4 0
 -1 1 7 159.15 6.59 0
 -1 1 8 52.89 4.38 0
 -1 1 9 777.68 16.02 0
 -1 1 12 86.23 7.21 0
 -1 2 -11 230.37 11.12 0
 -1 2 -10 614.23 16.79 0
 -1 2 -9 450.55 13.51 0
 -1 2 -6 595.61 12.74 0
 -1 2 -5 1448.32 18.39 0
 -1 2 4 1045.93 11.71 0
 -1 2 5 1402.05 14.73 0
 -1 2 7 1442.44 18.08 0
 -1 2 9 454.46 11.83 0
 -1 2 10 591.1 14.36 0
 -1 2 11 233.46 9.88 0
 -1 3 -10 114.79 8.55 0
 -1 3 -9 89.94 6.82 0
 -1 3 -8 150.38 7.85 0
 -1 3 -7 498.63 12.98 0
 -1 3 -6 304.48 9.57 0
 -1 3 -5 385.88 9.83 0
 -1 3 -4 714.16 12.11 0
 -1 3 -3 1059.62 13.47 0
 -1 3 -2 336.06 6.84 0
 -1 3 3 1117.5 9.2 0
 -1 3 4 726.91 8.7 0
 -1 3 6 311 7.24 0
 -1 3 9 100.54 5.97 0
 -1 4 -9 248.15 11.16 0
 -1 4 -8 443.49 13.21 0
 -1 4 -7 4.89 2.88 0
 -1 4 -6 219.36 8.34 0
 -1 4 -5 1679.75 20.83 0
 -1 4 -2 1909.22 16.51 0
 -1 4 -1 1105.62 10.95 0
 -1 4 4 1383.08 9.86 0
 -1 4 5 1687.52 13.37 0
 -1 4 6 213.29 5.65 0
 -1 5 -10 26.44 5.54 0
 -1 5 -9 500.85 15.68 0
 -1 5 -8 415.76 13.26 0
 -1 5 -7 562.92 14.41 0
 -1 5 -5 455.43 11.49 0
 -1 5 -4 741.17 13.14 0
 -1 5 -3 305.11 7.86 0
 -1 5 -2 523.18 9.09 0
 -1 5 -1 0.89 1.03 0
 -1 5 0 547.25 6.34 0
 -1 6 -9 345.32 13.22 0
 -1 6 -8 8.11 3.67 0
 -1 6 -5 369.08 10.56 0
 -1 6 -4 146.89 6.52 0
 -1 6 -3 36.54 3.28 0
 -1 6 -2 317.31 7.17 0
 0 -9 2 176.96 5.97 0
 0 -9 3 -1.02 1.33 0
 0 -9 4 8.96 2.58 0
 0 -9 5 53.55 4.64 0
 0 -9 6 167.57 8.08 0
 0 -8 3 1056.04 15.56 0
 0 -8 4 71.04 4.97 0
 0 -8 5 57.67 5.04 0
 0 -8 6 22.83 3.82 0
 0 -8 7 131.86 7.63 0
 0 -8 8 211.36 10.25 0
 0 -7 -1 854.73 7.22 0
 0 -7 0 -0.77 0.68 0
 0 -7 1 845.68 10.94 0
 0 -7 4 623.31 12.66 0
 0 -7 5 0.36 2.11 0
 0 -7 6 14.9 3.39 0
 0 -7 8 41.87 5.86 0
 0 -7 9 195.89 10 0
 0 -6 -7 425.82 8.07 0
 0 -6 -6 174.45 4.58 0
 0 -6 -5 13.76 1.34 0
 0 -6 -1 31.69 1.61 0
 0 -6 0 41.34 2.17 0
 0 -6 1 33.26 2.54 0
 0 -6 2 115.01 4.53 0
 0 -6 6 170.42 7.69 0
 0 -6 7 424.21 12.35 0
 0 -6 8 80.27 6.36 0
 0 -6 9 802.8 18.82 0
 0 -5 -11 139.87 7.32 0
 0 -5 -10 131.9 6.76 0
 0 -5 -9 92.48 5.32 0
 0 -5 -8 122.41 5.49 0
 0 -5 -5 656.61 8.3 0
 0 -5 -4 1164.09 9.1 0
 0 -5 -3 1086.89 6.96 0
 0 -5 -1 408.39 4.88 0
 0 -5 0 0.6 0.85 0
 0 -5 1 399.36 6.99 0
 0 -5 3 1097.67 14.53 0
 0 -5 4 1184.76 16.4 0
 0 -5 6 174.71 7.49 0
 0 -5 7 592.31 14.12 0
 0 -5 8 100.6 6.8 0
 0 -5 9 95.17 6.97 0
 0 -5 10 121.99 8.11 0
 0 -4 -12 105.28 7.26 0
 0 -4 -11 56.59 5.73 0
 0 -4 -10 459.75 12.29 0
 0 -4 -9 59.54 4.63 0
 0 -4 -8 116.36 5.71 0
 0 -4 -7 56.45 3.74 0
 0 -4 -6 209.2 5.96 0
 0 -4 -4 445.17 6.33 0
 0 -4 -3 1553.4 9.58 0
 0 -4 0 1136.47 9.21 0
 0 -4 1 3037.72 17.71 0
 0 -4 2 11.42 2.16 0
 0 -4 3 1575.89 16.51 0
 0 -4 5 2400.37 23.98 0
 0 -4 7 61.64 5.49 0
 0 -4 9 61.25 6.63 0
 0 -4 10 437.62 14.27 0
 0 -3 -12 6.89 4.12 0
 0 -3 -11 243.09 10.2 0
 0 -3 -10 515.53 13.38 0
 0 -3 -8 428.81 10.58 0
 0 -3 -7 20.13 3.04 0
 0 -3 -6 69.63 3.93 0
 0 -3 -5 463.33 8.12 0
 0 -3 1 275.3 5.15 0
 0 -3 2 7113.88 28.94 0
 0 -3 3 4694.18 26.68 0
 0 -3 4 518.41 10.09 0
 0 -3 5 455.94 10.32 0
 0 -3 6 64.92 4.73 0
 0 -3 8 437.7 12.28 0
 0 -3 9 1060.21 20.09 0
 0 -3 10 506.84 14.75 0
 0 -3 11 241.09 10.86 0
 0 -2 -12 80.95 6.88 0
 0 -2 -11 34.28 5.01 0
 0 -2 -9 522.18 13.09 0
 0 -2 -8 466.45 11.37 0
 0 -2 -7 1603.04 19.18 0
 0 -2 -6 2.75 1.81 0
 0 -2 -5 22.66 2.57 0
 0 -2 -4 4302.16 22.22 0
 0 -2 2 -0.09 1.3 0
 0 -2 3 2707.88 19.26 0
 0 -2 4 4456.8 27.71 0
 0 -2 6 1.27 2.11 0
 0 -2 10 213.05 9.5 0
 0 -1 -12 408.19 13.98 0
 0 -1 -9 290.33 10.08 0
 0 -1 -6 8.51 2.86 0
 0 -1 -5 8170.69 36.42 0
 0 -1 -4 422.87 7.62 0
 0 -1 -3 5.44 1.25 0
 0 -1 -2 11.29 1.28 0
 0 -1 1 42.46 1.85 0
 0 -1 2 8.85 1.82 0
 0 -1 3 7.71 2.06 0
 0 -1 5 8358.18 39.65 0
 0 -1 6 8.25 2.78 0
 0 -1 7 67.89 5.57 0
 0 -1 8 660 14.55 0
 0 -1 9 311.55 10.77 0
 0 0 -12 352.73 13.32 0
 0 0 -11 -3.31 2.88 0
 0 0 -10 13.29 3.93 0
 0 0 -9 -0.64 2.69 0
 0 0 -8 1735.37 23.31 0
 0 0 -7 0.72 2.99 0
 0 0 -6 1200 16.51 0
 0 0 -5 1.91 1.79 0
 0 0 -2 6075.57 20.75 0
 0 0 2 6267.82 20.8 0
 0 0 4 109.56 4.22 0
 0 0 5 0.9 1.77 0
 0 0 6 1166.82 16.08 0
 0 0 7 2.07 2.32 0
 0 0 8 1654.54 21.71 0
 0 1 -11 286.08 11.81 0
 0 1 -10 0.81 3.89 0
 0 1 -7 68.84 5.02 0
 0 1 -6 9.52 3.41 0
 0 1 -5 8067.24 39.9 0
 0 1 -4 442.94 8.89 0
 0 1 -3 6.62 1.8 0
 0 1 -2 8.33 1.49 0
 0 1 -1 43.23 1.7 0
 0 1 3 5.2 1.39 0
 0 1 4 442.5 7.6 0
 0 1 5 8336.83 36.26 0
 0 2 -11 29.65 5.46 0
 0 2 -10 198.06 10.19 0
 0 2 -7 1593.28 21.88 0
 0 2 -6 3.15 2.55 0
 0 2 -5 20.9 3.55 0
 0 2 -4 4330.56 28.08 0
 0 2 -2 0.33 1.68 0
 0 3 -9 1081.95 20.87 0
 0 3 -7 21.07 3.88 0
 0 3 -6 66.48 4.97 0
 0 3 -5 478.65 10.77 0
 0 3 -4 509.51 10.24 0
 -5 -3 -7 18.43 4.52 0
 -5 -3 -6 44.37 5.9 0
 -5 -3 -5 145.21 8.95 0
 -5 -2 -7 23.8 4.18 0
 -5 -1 -7 30.78 4.57 0
 -5 -1 -6 242.96 9.79 0
 -5 -1 -5 8.62 3.34 0
 -5 0 -6 128.9 6.73 0
 -5 1 -6 205.08 7.58 0
 -4 -5 -4 458.95 15.41 0
 -4 -5 -3 243.86 11.74 0
 -4 -4 -7 239.88 10.82 0
 -4 -4 -6 11.86 3.83 0
 -4 -4 -5 98.51 7.85 0
 -4 -4 -4 52.09 5.95 0
 -4 -3 -7 526.33 14.49 0
 -4 -3 -6 279.9 10.79 0
 -4 -3 -5 74.89 6.57 0
 -4 -2 -7 26.13 4.25 0
 -4 -2 -6 119.91 7.02 0
 -4 -2 -5 315.23 10.6 0
 -4 -1 -7 45.7 4.49 0
 -4 -1 -6 169.09 7.51 0
 -4 -1 -5 306.92 10.02 0
 -4 0 -7 3.77 2.09 0
 -4 0 -6 111.3 5.67 0
 -4 1 -7 43.55 3.03 0
 -4 1 -6 162.01 5.75 0
 -4 2 -6 113.53 4.12 0
 -4 6 -4 414.07 7.84 0
 -3 -6 -6 153.27 9.71 0
 -3 -6 -5 314.98 12.62 0
 -3 -6 -4 176.08 9.68 0
 -3 -6 -3 314.17 12.69 0
 -3 -6 -2 36.89 5.48 0
 -3 -6 -1 50.33 6.21 0
 -3 -5 -4 5.86 3.39 0
 -3 -5 -3 199.97 9.58 0
 -3 -5 -2 253.52 10.71 0
 -3 -4 -6 371.42 12.01 0
 -3 -4 -5 227.26 9.56 0
 -3 -3 -6 576.6 13.87 0
 -3 -3 -5 425 12.04 0
 -3 -3 -4 157.02 7.81 0
 -3 -2 -6 177.77 7.27 0
 -3 -2 -5 147 6.67 0
 -3 -2 -4 175.94 7.39 0
 -3 -1 -5 483.02 10.64 0
 -3 0 -6 314.83 7.55 0
 -3 0 -5 1048.12 13.88 0
 -3 1 -6 319.13 6.31 0
 -3 2 -5 145.42 3.87 0
 -3 5 -4 6.93 1.35 0
 -3 6 -4 163.7 4.61 0
 -3 6 -3 321.76 7.61 0
 -3 7 -3 90.09 4.65 0
 -3 7 -2 316.42 8.93 0
 -3 8 -3 73.53 4.64 0
 -3 8 -2 137.33 6.56 0
 -3 8 -1 26.32 3.87 0
 -3 8 0 13.28 2.92 0
 -3 9 1 105.91 7.03 0
 -2 -8 -2 45.36 6.57 0
 -2 -8 -1 166.12 9.67 0
 -2 -8 0 210.08 10.64 0
 -2 -8 3 157.05 9.16 0
 -2 -7 -4 376.25 13.41 0
 -2 -7 -3 171.02 9.35 0
 -2 -7 -1 159.21 8.89 0
 -2 -7 0 0.8 3.3 0
 -2 -7 1 149.49 8.5 0
 -2 -7 2 224.64 10.36 0
 -2 -6 -4 150.22 8.6 0
 -2 -6 -3 233.43 10.09 0
 -2 -6 -2 465 13.87 0
 -2 -6 -1 1008.08 19.67 0
 -2 -6 0 -0.76 3.61 0
 -2 -5 -5 243.4 10.1 0
 -2 -5 -4 158.02 8.01 0
 -2 -5 -3 61.96 5.75 0
 -2 -5 -1 188.06 8.45 0
 -2 -4 -5 52.91 4.74 0
 -2 -4 -4 174.16 8.05 0
 -2 -4 -3 331.56 10.25 0
 -2 -2 -5 705.31 12.6 0
 -2 -2 -4 558.09 11.23 0
 -2 -2 -3 126.06 5.62 0
 -2 -1 -5 71.3 4.11 0
 -2 -1 -4 991.23 12.97 0
 -2 0 -5 664.79 9.14 0
 -2 0 -4 2279.48 16.66 0
 -2 1 -4 967.57 8.81 0
 -2 4 -3 348.99 5.87 0
 -2 5 -3 61.69 3.12 0
 -2 5 -2 629.79 10.25 0
 -2 6 -3 214.64 6.15 0
 -2 6 -2 484.92 9.96 0
 -2 6 -1 1042.75 15.31 0
 -2 7 -1 151.01 6.58 0
 -2 7 0 0.82 1.9 0
 -2 8 -2 49.74 4.45 0
 -2 8 0 207.37 8.68 0
 -2 8 1 168.64 8.38 0
 -2 9 -1 172.22 8.2 0
 -2 9 0 261.65 10.08 0
 -2 9 1 174.83 8.8 0
 -2 9 2 92.03 7.07 0
 -2 10 0 2.43 2.64 0
 -1 -9 0 4.88 3.72 0
 -1 -9 1 610.85 16.7 0
 -1 -9 2 12.95 4.83 0
 -1 -9 3 374.99 13.21 0
 -1 -9 4 91.88 7.34 0
 -1 -9 5 104.08 7.76 0
 -1 -9 6 54.99 6.11 0
 -1 -9 7 40.79 5.45 0
 -1 -9 8 53.82 5.39 0
 -1 -8 -1 129.43 8.8 0
 -1 -8 0 5.67 3.4 0
 -1 -8 2 152.83 8.3 0
 -1 -8 3 491.74 14.13 0
 -1 -8 5 101.48 6.9 0
 -1 -8 6 220.59 9.86 0
 -1 -8 7 122.48 7.72 0
 -1 -7 -2 814.45 18.02 0
 -1 -7 0 370.24 11.95 0
 -1 -7 2 794.63 16.74 0
 -1 -7 3 471.14 13.12 0
 -1 -7 4 135.67 7.29 0
 -1 -6 -2 323.64 10.54 0
 -1 -6 0 263.87 9.46 0
 -1 -6 1 305.13 10.13 0
 -1 -6 2 319.7 10.16 0
 -1 -5 -3 297.01 9.72 0
 -1 -5 -2 494.81 12.1 0
 -1 -5 -1 0.12 2.71 0
 -1 -5 1 1.44 2.24 0
 -1 -4 -3 98.27 5.53 0
 -1 -4 -2 1859.76 21.17 0
 -1 -4 -1 1054.73 15.83 0
 -1 -3 -3 1072.4 14.82 0
 -1 -3 -1 2182.37 20.1 0
 -1 -2 -3 1646.78 16.2 0
 -1 -2 -2 372.41 7.67 0
 -1 -1 -3 4151.23 21.79 0
 -1 -1 -2 9820.92 31.98 0
 -1 3 -2 355.54 5.4 0
 -1 4 -2 1873.97 14.9 0
 -1 4 -1 1080.24 12.38 0
 -1 5 -1 0.15 1.6 0
 -1 5 0 543.52 10.78 0
 -1 5 1 2.53 2.13 0
 -1 6 -1 307.49 8.45 0
 -1 6 0 251.84 8.37 0
 -1 6 1 322.44 9.71 0
 -1 6 2 327.67 10 0
 -1 6 3 35.34 4.62 0
 -1 7 -1 97.21 5.69 0
 -1 7 0 391.75 10.98 0
 -1 7 1 88.24 5.83 0
 -1 7 3 472.06 13.55 0
 -1 7 4 116.84 7.73 0
 -1 7 5 353.17 12.26 0
 -1 7 6 116.8 8.38 0
 -1 8 0 6.73 2.89 0
 -1 8 1 132.73 7.42 0
 -1 8 2 161.44 8.85 0
 -1 8 3 481.84 14.53 0
 -1 8 5 104.68 7.79 0
 -1 9 1 584.9 15.94 0
 -1 9 3 371.68 13.64 0
 0 -9 6 168.18 7.85 0
 0 -9 7 581.17 13.66 0
 0 -8 3 1039.69 18.58 0
 0 -8 5 44.73 4.6 0
 0 -8 6 23.18 3.48 0
 0 -8 8 202.12 7.71 0
 0 -7 2 1414.81 20.21 0
 0 -7 3 641.04 13.55 0
 0 -7 4 651.4 13.67 0
 0 -7 5 1.15 2.34 0
 0 -7 6 12.78 2.48 0
 0 -7 7 45.25 4.07 0
 0 -7 8 43.01 3.8 0
 0 -6 2 113.91 5.59 0
 0 -6 3 26.3 3.49 0
 0 -6 4 1999.05 21.49 0
 0 -6 5 17.9 2.85 0
 0 -6 6 175.07 6.38 0
 0 -5 1 394.42 9.36 0
 0 -5 2 159.23 5.99 0
 0 -5 3 1082.16 14.52 0
 0 -5 4 1171.94 14.85 0
 0 -4 0 1072.01 13.79 0
 0 -4 1 2976.73 22.16 0
 0 -4 2 11.05 2.07 0
 0 -4 3 1530.2 15.19 0
 0 -3 0 -0.57 1.27 0
 0 -2 0 294.92 5.26 0
 0 -2 1 411.93 5.91 0
 0 2 1 401.56 6.56 0
 0 3 0 -0.91 1.33 0
 0 3 1 279.17 6.7 0
 0 3 2 6986.29 33.56 0
 0 4 0 1073.91 13.95 0
 0 4 1 2965.43 23.97 0
 0 4 2 10.82 2.82 0
 0 4 3 1528.72 18.67 0
 0 4 4 465.23 10.9 0
 0 5 0 -0.5 2.05 0
 0 5 1 389.81 9.84 0
 0 5 2 156.64 6.88 0
 0 5 3 1044.61 17.06 0
 0 5 6 171.19 8.37 0
 0 5 8 104.89 7.07 0
 0 5 9 82.73 6.71 0
 0 5 10 118.07 7.95 0
 0 6 1 32.94 4.53 0
 0 6 2 110.12 6.26 0
 0 6 3 28.05 4.89 0
 0 6 6 167.88 8.56 0
 0 6 8 84.98 6.8 0
 0 7 2 1440.54 22.79 0
 0 7 3 594.13 15.12 0
 0 7 4 632.92 15.99 0
 0 7 5 -2.11 3.35 0
 0 7 6 13.02 3.93 0
 0 7 7 48.29 6.1 0
 0 8 2 253.63 10.52 0
 0 8 3 1040.43 21.1 0
 0 8 4 64.27 7.25 0
 0 8 5 47.31 6.43 0
 1 -1 5 983.58 7.52 0
 1 -1 6 886.51 8.47 0
 1 -1 12 87.7 4.53 0
 1 0 4 93.27 2.85 0
 1 0 5 934.57 9.88 0
 1 0 6 6.05 1.53 0
 1 0 7 11.44 1.93 0
 1 0 8 253.83 6.68 0
 1 0 10 148.85 5.95 0
 1 0 12 224.38 7.75 0
 1 1 4 144.69 4.62 0
 1 1 5 977.04 12.07 0
 1 1 6 887.67 12.21 0
 1 1 7 162.9 5.78 0
 1 1 10 137.13 6.1 0
 1 1 13 166.13 7.51 0
 1 2 3 1700.61 16.74 0
 1 2 4 1008.3 13.31 0
 1 2 6 632.74 11.82 0
 1 2 9 438.52 11.2 0
 1 2 10 613.91 13.72 0
 1 2 11 231.53 8.89 0
 1 2 12 158.7 7.93 0
 1 2 13 173.53 8.36 0
 1 3 3 1102.43 15.33 0
 1 3 4 718.12 12.56 0
 1 3 5 387.68 9.77 0
 1 3 8 151.29 7.05 0
 1 3 9 97.73 6.37 0
 1 3 10 112.32 6.78 0
 1 3 12 74.68 5.95 0
 1 3 13 7.55 3.17 0
 1 4 4 1380.71 19.43 0
 1 4 7 7.86 2.88 0
 1 4 8 435.54 12.48 0
 1 4 9 262.02 10.2 0
 1 4 10 32.23 4.64 0
 1 4 12 173.49 9.36 0
 1 5 6 498.5 13.55 0
 1 5 7 560.67 14.56 0
 1 5 8 415.25 13.24 0
 1 5 9 494.11 14.54 0
 1 5 10 26.39 5.33 0
 1 5 11 22.94 5.32 0
 1 6 6 343.31 11.92 0
 1 6 7 649.99 16.71 0
 1 6 8 7.48 3.72 0
 1 6 9 361.2 13.52 0
 1 7 6 124.42 8.76 0
 1 7 7 155.87 9.23 0
 -6 -10 4 82.21 11.1 0
 -6 -10 5 -4.46 5.57 0
 -6 -9 3 91.67 11.6 0
 -6 -9 4 -1.15 5.35 0
 -6 -9 5 99.67 12.34 0
 -6 -9 7 -3.33 5.32 0
 -6 -9 8 3.76 6.38 0
 -6 -8 3 48.36 8.95 0
 -6 -8 4 32.8 7.62 0
 -6 -8 5 48.69 8.94 0
 -6 -8 6 39.39 9.13 0
 -6 -8 8 46.05 8.89 0
 -6 -8 9 14.55 7.05 0
 -6 -7 2 149.27 11.33 0
 -6 -7 3 21.81 6.06 0
 -6 -7 5 42.25 7.72 0
 -6 -7 6 92.79 10.37 0
 -6 -7 7 74.79 10.66 0
 -6 -7 8 31.82 7.51 0
 -6 -7 9 17.11 6.86 0
 -6 -7 11 48.63 9.32 0
 -6 -6 2 181.39 11.31 0
 -6 -6 3 82.77 8.68 0
 -6 -6 4 210.95 12.61 0
 -6 -6 5 77.58 9.05 0
 -6 -6 6 10.11 5.33 0
 -6 -6 7 23.31 6.33 0
 -6 -6 8 5 5.77 0
 -6 -6 9 9.08 6.21 0
 -6 -6 10 36.22 8.59 0
 -6 -6 11 1.23 5.62 0
 -6 -6 12 34.96 9.03 0
 -6 -5 2 7.99 4.64 0
 -6 -5 3 81.88 7.72 0
 -6 -5 4 11.22 4.69 0
 -6 -5 5 7.43 4.56 0
 -6 -5 6 6.75 5.43 0
 -6 -5 7 18.62 6.22 0
 -6 -5 8 104.7 10.22 0
 -6 -5 9 13.75 6.28 0
 -6 -5 10 6.8 5.79 0
 -6 -5 12 29.25 8.41 0
 -6 -5 13 62.05 10.47 0
 -6 -4 2 65.44 6.53 0
 -6 -4 3 8.4 4.06 0
 -6 -4 4 7.38 4.38 0
 -6 -4 5 19.63 5.13 0
 -6 -4 6 36.45 6.26 0
 -6 -4 7 8.04 4.49 0
 -6 -4 9 107.69 10.49 0
 -6 -4 10 59.89 9.29 0
 -6 -4 11 5.15 5.28 0
 -6 -3 2 90.48 6.53 0
 -6 -3 3 94.05 6.91 0
 -6 -3 4 13.33 4.24 0
 -6 -3 5 11.97 4.57 0
 -6 -3 6 81.78 7.62 0
 -6 -3 7 68 8.16 0
 -6 -3 8 95.33 9.14 0
 -6 -3 9 26.62 6.13 0
 -6 -3 11 136.93 10.98 0
 -6 -3 12 119.21 11.45 0
 -6 -3 13 4.88 6.17 0
 -6 -3 14 127.89 12.39 0
 -6 -2 4 12.98 3.88 0
 -6 -2 5 -0.41 2.87 0
 -6 -2 6 62.43 6.56 0
 -6 -2 7 1.43 3.74 0
 -6 -2 8 9.98 4.4 0
 -6 -2 9 8.33 4.55 0
 -6 -2 10 10.08 4.73 0
 -6 -2 11 29.24 6.34 0
 -6 -2 12 34.8 7.42 0
 -6 -2 13 52.36 8.71 0
 -6 -2 14 51.88 8.6 0
 -6 -1 8 70.99 7.15 0
 -6 -1 9 33 6.14 0
 -6 -1 10 0.97 3.94 0
 -6 -1 11 43.81 7.17 0
 -5 -12 4 7.73 7.42 0
 -5 -11 3 1.03 6.13 0
 -5 -11 4 55.74 9.72 0
 -5 -11 5 25.98 9.2 0
 -5 -11 6 7.77 7.58 0
 -5 -11 7 19.56 8.04 0
 -5 -10 2 44.34 9 0
 -5 -10 3 87.44 10.95 0
 -5 -10 4 20.14 7.73 0
 -5 -10 5 29.72 8.85 0
 -5 -10 7 135.24 12.95 0
 -5 -10 8 28.77 8.5 0
 -5 -10 9 -1.47 6.33 0
 -5 -9 2 -1.28 4.99 0
 -5 -9 3 131.29 11.74 0
 -5 -9 4 15.05 7.23 0
 -5 -9 5 113.1 11.68 0
 -5 -9 6 43.64 8.63 0
 -5 -9 7 58.01 9.7 0
 -5 -9 8 42.44 9.49 0
 -5 -9 9 32.04 8.26 0
 -5 -9 10 30.02 8.6 0
 -5 -9 11 53.74 10.39 0
 -5 -8 1 29.67 6.89 0
 -5 -8 3 15.96 6.32 0
 -5 -8 4 123.99 10.74 0
 -5 -8 5 6.15 5.63 0
 -5 -8 6 70.19 9.59 0
 -5 -8 7 59.22 10.08 0
 -5 -8 8 94.09 12.01 0
 -5 -8 9 28.36 8.95 0
 -5 -8 10 10.3 6.94 0
 -5 -8 11 94.95 12.76 0
 -5 -8 12 2.03 6.82 0
 -5 -7 1 92.37 8.61 0
 -5 -7 3 67.87 8.32 0
 -5 -7 4 96.17 10.22 0
 -5 -7 5 143.05 10.75 0
 -5 -7 6 168.03 11.95 0
 -5 -7 7 152.98 12.58 0
 -5 -7 8 81.13 10.22 0
 -5 -7 9 63.41 9.42 0
 -5 -7 11 -1.63 6.07 0
 -5 -7 12 78.44 12.2 0
 -5 -7 13 133.4 14.18 0
 -5 -6 2 137.64 9.52 0
 -5 -6 3 68.42 7.99 0
 -5 -6 4 7.41 4.52 0
 -5 -6 5 0.98 4.45 0
 -5 -6 6 9.36 5.29 0
 -5 -6 7 13.11 5.55 0
 -5 -6 9 30.55 8.34 0
 -5 -6 10 165.15 13.11 0
 -5 -6 11 8.42 6.73 0
 -5 -6 12 237.07 15.37 0
 -5 -6 13 23.73 7.92 0
 -5 -6 14 22.96 8.94 0
 -5 -5 0 38.68 5.62 0
 -5 -5 1 59.83 6.66 0
 -5 -5 2 283.84 12.32 0
 -5 -5 3 88.57 8.15 0
 -5 -5 4 196.98 11.13 0
 -5 -5 5 4.64 4.57 0
 -5 -5 6 145.57 10.06 0
 -5 -5 7 68.07 8.39 0
 -5 -5 8 10.61 5.85 0
 -5 -5 9 21.16 6.3 0
 -5 -5 11 26.45 7.39 0
 -5 -5 12 72.06 10.99 0
 -5 -5 13 47.71 10.02 0
 -5 -5 14 177.54 13.92 0
 -5 -5 15 6.02 8.12 0
 -5 -4 0 12.46 3.82 0
 -5 -4 2 49.59 5.82 0
 -5 -4 3 218.28 10.43 0
 -5 -4 4 38.15 5.67 0
 -5 -4 8 17.94 5.38 0
 -5 -4 9 213.07 12.9 0
 -5 -4 10 44.69 7.98 0
 -5 -4 11 128.59 11.05 0
 -5 -4 12 37.38 7.74 0
 -5 -4 13 15.77 6.84 0
 -5 -4 14 5.97 7.1 0
 -5 -4 15 20.08 7.58 0
 -5 -3 4 5.64 3.97 0
 -5 -3 5 163.98 9.33 0
 -5 -3 6 31.7 5.72 0
 -5 -3 7 5.56 4.1 0
 -5 -3 8 87.54 8.48 0
 -5 -3 10 281.67 13.94 0
 -5 -3 11 35 7.81 0
 -5 -3 12 38.81 8.24 0
 -5 -3 13 33.25 8.35 0
 -5 -3 14 55.06 9.07 0
 -5 -3 15 48.15 9.25 0
 -5 -3 16 17.38 8.05 0
 -5 -2 1 417.86 10.69 0
 -5 -2 2 126.41 6.8 0
 -5 -2 6 49.56 6.37 0
 -5 -2 9 71.46 8.33 0
 -5 -2 10 2.85 4.69 0
 -5 -2 11 117.59 9.83 0
 -5 -2 13 39.87 7.65 0
 -5 -2 14 9.15 6.89 0
 -5 -2 15 197.26 14.55 0
 -5 -1 1 89.27 4.71 0
 -5 -1 2 144.53 6.29 0
 -5 -1 3 149.6 6.63 0
 -5 -1 4 41.72 5.01 0
 -5 -1 6 206.44 9.04 0
 -5 -1 7 27.61 4.71 0
 -5 -1 8 67.01 6.59 0
 -5 -1 10 281.39 13.24 0
 -5 -1 11 46.7 7.2 0
 -5 -1 12 5.85 4.97 0
 -5 -1 13 247.07 14.27 0
 -5 -1 14 121.72 11.66 0
 -5 -1 15 32.21 7.95 0
 -5 -1 16 68.16 10.52 0
 -5 0 2 0.39 1.43 0
 -5 0 3 182.32 6.4 0
 -5 0 4 7.72 2.74 0
 -5 0 5 131.01 6.56 0
 -5 0 7 30.18 4.86 0
 -5 0 8 499.76 14.74 0
 -5 0 9 27.27 5.22 0
 -5 0 10 2.02 3.59 0
 -5 1 3 151.89 4.99 0
 -5 1 5 10.97 2.7 0
 -5 1 8 67.43 6.23 0
 -5 2 4 74.71 3.77 0
 -5 2 6 46.68 4.3 0
 -5 3 6 32.28 3.76 0
 -4 -13 5 46.24 10.16 0
 -4 -12 3 88.89 11.54 0
 -4 -12 4 22.11 8.01 0
 -4 -12 5 31.37 8.67 0
 -4 -12 6 139.24 14.6 0
 -4 -12 7 143.12 14.78 0
 -4 -12 8 8.46 7.98 0
 -4 -11 2 35.8 8.16 0
 -4 -11 3 37.12 8.39 0
 -4 -11 4 101.04 12.21 0
 -4 -11 5 130.38 13.17 0
 -4 -11 6 68.18 10.88 0
 -4 -11 7 95.8 12.57 0
 -4 -11 8 76.99 11.34 0
 -4 -11 9 25.68 9.45 0
 -4 -11 10 1.65 7.16 0
 -4 -10 2 119.5 11.51 0
 -4 -10 3 29.88 7.32 0
 -4 -10 4 89.57 10.8 0
 -4 -10 5 -1.12 5.58 0
 -4 -10 6 32.41 8.3 0
 -4 -10 7 5.23 7.54 0
 -4 -10 10 14.83 7.38 0
 -4 -10 11 32.92 9.45 0
 -4 -10 12 10.56 9.07 0
 -4 -9 1 26.36 7.14 0
 -4 -9 2 21.34 6.41 0
 -4 -9 5 150.52 11.88 0
 -4 -9 6 8.7 6.35 0
 -4 -9 7 60.58 9.71 0
 -4 -9 8 21.92 7.43 0
 -4 -9 9 173.55 13.7 0
 -4 -9 10 13.73 7.41 0
 -4 -9 11 80.95 11.46 0
 -4 -9 13 37.64 9.76 0
 -4 -8 0 2.88 4.45 0
 -4 -8 1 84.37 8.44 0
 -4 -8 2 304.32 14.41 0
 -4 -8 3 23.69 6.61 0
 -4 -8 6 156.39 11.46 0
 -4 -8 7 246.01 15.02 0
 -4 -8 9 119.16 11.38 0
 -4 -8 10 177.29 14.62 0
 -4 -8 11 14.15 7.11 0
 -4 -8 12 21.98 8.15 0
 -4 -8 13 75.69 11.25 0
 -4 -7 0 249.39 12.36 0
 -4 -7 1 27.94 5.72 0
 -4 -7 2 60.93 7.99 0
 -4 -7 3 115.17 9.53 0
 -4 -7 4 133.03 10.18 0
 -4 -7 5 3.77 4.68 0
 -4 -7 6 138.61 10.91 0
 -4 -7 7 87.71 10.58 0
 -4 -7 8 59.03 8.58 0
 -4 -7 9 46.16 8.25 0
 -4 -7 10 83.21 10.66 0
 -4 -7 12 15.65 6.93 0
 -4 -7 13 15.73 7.35 0
 -4 -7 14 4.33 6.83 0
 -4 -7 15 7.5 7.45 0
 -4 -6 1 212.79 10.71 0
 -4 -6 2 39.34 5.99 0
 -4 -6 6 77.62 8.8 0
 -4 -6 7 0.54 4.85 0
 -4 -6 8 59.69 8.04 0
 -4 -6 9 40.84 7.68 0
 -4 -6 11 26.82 7.42 0
 -4 -6 12 82.55 10.51 0
 -4 -6 13 9.36 6.64 0
 -4 -6 14 25.1 8.58 0
 -4 -6 15 61.47 10.81 0
 -4 -6 16 70.74 11.3 0
 -4 -5 0 215.82 9.91 0
 -4 -5 1 249.3 10.61 0
 -4 -5 2 141.52 8.69 0
 -4 -5 4 465.2 15.07 0
 -4 -5 5 362.69 13.82 0
 -4 -5 6 50.22 7.1 0
 -4 -5 7 68.45 8.53 0
 -4 -5 9 36.42 6.63 0
 -4 -5 10 52.44 8.12 0
 -4 -5 11 -1.69 4.87 0
 -4 -5 13 40.35 8.55 0
 -4 -5 15 86.05 12 0
 -4 -5 16 9.67 7.27 0
 -4 -4 4 55.5 6.75 0
 -4 -4 5 101.46 7.84 0
 -4 -4 6 4.55 4.48 0
 -4 -4 7 232.9 11.67 0
 -4 -4 8 592.94 18.25 0
 -4 -4 10 449.74 17.28 0
 -4 -4 11 108.4 10.55 0
 -4 -4 12 199.31 13.62 0
 -4 -4 13 131.18 11.65 0
 -4 -4 14 5.34 7.36 0
 -4 -4 15 2.17 6.62 0
 -4 -4 16 7.8 7.53 0
 -4 -4 17 9.86 7.77 0
 -4 -3 1 509.25 12.59 0
 -4 -3 2 190.28 8.36 0
 -4 -3 6 292.2 11.73 0
 -4 -3 7 520.05 15.65 0
 -4 -3 8 38.35 6.1 0
 -4 -3 9 33.11 5.92 0
 -4 -3 10 5.29 5.34 0
 -4 -3 11 24.19 6.17 0
 -4 -3 12 40.84 7.94 0
 -4 -3 13 259.34 14.46 0
 -4 -3 15 17.01 7.93 0
 -4 -3 16 9.05 6.54 0
 -4 -3 17 52.34 9.84 0
 -4 -2 0 38.55 3.67 0
 -4 -2 1 625.65 12.47 0
 -4 -2 4 146.57 7.27 0
 -4 -2 7 22.64 4.8 0
 -4 -2 8 22.12 4.87 0
 -4 -2 9 40.66 6.48 0
 -4 -1 0 1030.99 13.25 0
 -4 -1 1 13.35 2.56 0
 -4 -1 3 612.04 12.35 0
 -4 -1 5 307.26 9.91 0
 -4 0 1 74.35 3.57 0
 -4 0 2 408.22 8.49 0
 -4 0 3 82.08 4.64 0
 -4 0 5 193.33 7.53 0
 -4 1 2 205.63 5.19 0
 -4 1 3 615.37 10.05 0
 -4 1 4 195.22 6.52 0
 -4 2 2 300.77 4.9 0
 -4 2 3 180.7 5.05 0
 -3 -14 4 3.34 8.26 0
 -3 -13 3 170.83 13.92 0
 -3 -13 4 -3.27 6.38 0
 -3 -13 5 76.75 11.02 0
 -3 -13 6 21.75 9.06 0
 -3 -13 8 1.82 7.14 0
 -3 -12 3 28.4 8.16 0
 -3 -12 4 69.28 10.13 0
 -3 -12 5 236.61 16.57 0
 -3 -12 6 130.33 12.59 0
 -3 -12 9 8.32 7.47 0
 -3 -12 10 36.41 10.39 0
 -3 -11 1 15.17 6.77 0
 -3 -11 2 244.39 15.25 0
 -3 -11 3 138.94 12.68 0
 -3 -11 4 15.99 7.41 0
 -3 -11 5 84.91 10.64 0
 -3 -11 6 72.96 10.72 0
 -3 -11 7 22.02 7.65 0
 -3 -11 8 5.09 6.93 0
 -3 -11 10 45.1 10.39 0
 -3 -11 11 12.47 7.57 0
 -3 -11 12 18.99 8.55 0
 -3 -10 0 42.98 7.5 0
 -3 -10 1 43.75 7.5 0
 -3 -10 2 229.93 14.1 0
 -3 -10 3 364.99 17.14 0
 -3 -10 4 115.59 10.74 0
 -3 -10 7 18.22 6.39 0
 -3 -10 8 85.6 10.59 0
 -3 -10 9 141.42 12.64 0
 -3 -10 10 45.64 9.98 0
 -3 -10 12 5.42 6.88 0
 -3 -10 13 125.12 13.56 0
 -3 -9 0 90.9 9.39 0
 -3 -9 2 143.7 11 0
 -3 -9 3 128.4 10.18 0
 -3 -9 4 293.09 14.89 0
 -3 -9 5 24.9 7.11 0
 -3 -9 7 109.71 10.43 0
 -3 -9 8 184.78 13.12 0
 -3 -9 9 69.49 9.78 0
 -3 -9 10 18.59 7.31 0
 -3 -9 12 -5.43 6.38 0
 -3 -9 13 22.59 8.55 0
 -3 -9 14 18.83 8.08 0
 -3 -8 -1 30.61 5.65 0
 -3 -8 0 21.29 5.8 0
 -3 -8 1 31.74 5.83 0
 -3 -8 2 137.72 9.94 0
 -3 -8 3 67.16 8.38 0
 -3 -8 4 86.34 8.29 0
 -3 -8 5 131.95 9.96 0
 -3 -8 7 55.86 8.34 0
 -3 -8 8 47.74 8.47 0
 -3 -8 9 41.09 8.33 0
 -3 -8 11 6.68 7.39 0
 -3 -8 12 446.09 20.79 0
 -3 -8 14 5.81 6.82 0
 -3 -8 15 30.78 9.78 0
 -3 -7 -1 324.59 12.9 0
 -3 -7 0 -2.02 3.37 0
 -3 -7 1 338.96 13.4 0
 -3 -7 2 310.92 13.11 0
 -3 -7 3 90.27 8.2 0
 -3 -7 4 24.27 5.4 0
 -3 -7 5 14.2 5.12 0
 -3 -7 6 319.94 14.44 0
 -3 -7 7 417.74 16.71 0
 -3 -7 8 136.14 10.44 0
 -3 -7 9 30.61 6.74 0
 -3 -7 10 9.7 6.28 0
 -3 -7 12 140.57 11.97 0
 -3 -7 13 65.61 9.96 0
 -3 -7 14 12.31 7.23 0
 -3 -7 15 5.12 6.93 0
 -3 -7 16 8.21 7.23 0
 -3 -6 -1 52.26 5.53 0
 -3 -6 0 35.57 5.23 0
 -3 -6 1 54.51 6.33 0
 -3 -6 2 36.21 5.79 0
 -3 -6 3 318 12.43 0
 -3 -6 4 174.47 9.95 0
 -3 -6 5 309.36 13.09 0
 -3 -6 6 139.74 9.3 0
 -3 -6 8 27.63 6.42 0
 -3 -6 9 98.07 9.71 0
 -3 -6 10 35.17 7.06 0
 -3 -6 11 62.91 9.58 0
 -3 -6 12 9.03 6.86 0
 -3 -6 13 117.76 11.8 0
 -3 -6 14 28.57 8.35 0
 -3 -6 16 44.34 9.61 0
 -3 -6 17 10.42 8.15 0
 -3 -5 4 7.82 3.42 0
 -3 -5 5 95.57 7.26 0
 -3 -5 6 6.95 3.76 0
 -3 -5 7 14.18 4.53 0
 -3 -5 8 169.33 10.39 0
 -3 -5 9 400.44 15.71 0
 -3 -5 10 518.55 18.23 0
 -3 -5 13 1.46 5.26 0
 -3 -5 14 46.65 8.48 0
 -3 -5 15 29.62 7.7 0
 -3 -5 16 0.58 6.15 0
 -3 -5 17 4.83 6.92 0
 -3 -4 -1 84.81 5.57 0
 -3 -4 0 129.74 7.1 0
 -3 -4 1 91.22 6.33 0
 -3 -4 6 356.16 12.58 0
 -3 -4 7 537.4 15.82 0
 -3 -4 8 120.88 9.12 0
 -3 -4 9 136.08 9.43 0
 -3 -4 10 51.53 7.2 0
 -3 -4 11 3.03 4.37 0
 -3 -4 18 0.5 6.27 0
 -3 -3 1 540.83 11.9 0
 -3 -3 2 553.46 12.38 0
 -3 -3 3 332.93 9.96 0
 -3 -3 4 165.15 7.82 0
 -3 -3 7 423.62 13.41 0
 -3 -2 -1 1011.7 13.88 0
 -3 -2 0 2827.6 23.48 0
 -3 -2 1 1016.61 14.49 0
 -3 -2 2 486.88 10.7 0
 -3 -2 3 416.89 10.15 0
 -3 -2 4 166.52 7.29 0
 -3 -2 5 145.25 7.28 0
 -3 -1 -1 709.7 10.05 0
 -3 -1 0 97.95 4.14 0
 -3 -1 1 715.28 10.73 0
 -3 -1 2 316.75 7.67 0
 -3 0 0 0.76 1.06 0
 -3 0 1 1246.83 12.16 0
 -3 0 2 157.1 5.07 0
 -3 0 3 738.45 11.29 0
 -3 1 0 100 2.19 0
 -3 1 1 685.83 7.31 0
 -3 1 2 320.4 6.03 0
 -3 2 1 1003.82 6.55 0
 -3 4 1 87.43 2.34 0
 -2 -14 4 150.29 13.51 0
 -2 -14 5 16.55 8.89 0
 -2 -14 7 20.03 8.61 0
 -2 -13 3 110.66 11.36 0
 -2 -13 4 94.76 12.16 0
 -2 -13 5 185.02 14.3 0
 -2 -13 6 70 11.34 0
 -2 -13 7 12.68 7.72 0
 -2 -13 9 67.69 11.55 0
 -2 -13 10 85.54 11.98 0
 -2 -12 2 125.71 11.61 0
 -2 -12 4 7.47 6.37 0
 -2 -12 5 65.92 9.77 0
 -2 -12 6 24.92 8.45 0
 -2 -12 7 118.73 12.67 0
 -2 -12 8 25.02 8.27 0
 -2 -12 9 37.83 9.59 0
 -2 -12 10 105.69 12.02 0
 -2 -12 11 27.66 9.72 0
 -2 -12 12 -1.01 7.5 0
 -2 -11 1 82.7 9.05 0
 -2 -11 2 198.38 13.29 0
 -2 -11 4 161.85 12.09 0
 -2 -11 5 82.73 10.1 0
 -2 -11 6 3.01 6.46 0
 -2 -11 7 97.74 11.13 0
 -2 -11 8 21.94 7.19 0
 -2 -11 9 176.67 13.68 0
 -2 -11 10 4.22 7.43 0
 -2 -11 12 166.07 14.26 0
 -2 -11 13 11.38 7.63 0
 -2 -10 1 23.66 6.23 0
 -2 -10 2 10.36 5.46 0
 -2 -10 3 303.84 14.91 0
 -2 -10 4 129.81 11.34 0
 -2 -10 5 129.8 11.15 0
 -2 -10 7 20.85 6.68 0
 -2 -10 9 9.25 6.45 0
 -2 -10 10 96.22 10.86 0
 -2 -10 11 98.86 12.5 0
 -2 -10 12 198.48 15.72 0
 -2 -10 13 106.47 13.84 0
 -2 -9 1 172.92 10.36 0
 -2 -9 2 87.08 7.83 0
 -2 -9 3 84.31 8.04 0
 -2 -9 8 376.47 16.84 0
 -2 -9 9 20.24 6.83 0
 -2 -9 10 138.23 12.7 0
 -2 -9 11 20.34 7.08 0
 -2 -9 12 66.04 10.15 0
 -2 -9 13 169.78 13.77 0
 -2 -9 14 117.85 13.89 0
 -2 -9 15 84.9 12.21 0
 -2 -8 -1 179.99 9.78 0
 -2 -8 0 211.61 10.51 0
 -2 -8 1 162.96 9.78 0
 -2 -8 3 151.35 9.8 0
 -2 -8 6 29.38 6.28 0
 -2 -8 7 18.47 5.54 0
 -2 -8 8 82.42 9.49 0
 -2 -8 9 124.02 10.97 0
 -2 -8 10 78.56 10.13 0
 -2 -8 12 32.21 7.68 0
 -2 -8 13 100.42 11.2 0
 -2 -8 14 42.76 9.59 0
 -2 -8 15 55.56 10.14 0
 -2 -8 16 15.09 7.77 0
 -2 -7 -1 159.58 8.62 0
 -2 -7 0 2.22 3.01 0
 -2 -7 1 146.39 8.54 0
 -2 -7 2 226.64 10.44 0
 -2 -7 3 168.22 9.63 0
 -2 -7 4 398.89 14.06 0
 -2 -7 6 332.29 13.55 0
 -2 -7 7 114.46 8.96 0
 -2 -7 8 6.56 4.87 0
 -2 -7 10 21.54 6.54 0
 -2 -7 11 62.65 8.68 0
 -2 -7 12 25.84 6.93 0
 -2 -7 13 37.05 9.12 0
 -2 -7 15 52.38 9.45 0
 -2 -7 16 6.12 7.15 0
 -2 -7 17 44.08 10 0
 -2 -6 5 678.45 17.41 0
 -2 -6 6 13.07 4.12 0
 -2 -6 7 683.62 18.54 0
 -2 -6 8 32.02 5.84 0
 -2 -6 9 164.32 10.34 0
 -2 -6 10 37.59 7.37 0
 -2 -6 12 76.98 9.19 0
 -2 -6 13 1.01 6.26 0
 -2 -6 14 79.68 9.99 0
 -2 -6 15 27.3 7.85 0
 -2 -6 16 6.6 6.34 0
 -2 -6 17 22.86 9.43 0
 -2 -6 18 30.96 9.22 0
 -2 -5 0 8.26 3.01 0
 -2 -5 1 203.36 8.29 0
 -2 -5 2 633.43 14.76 0
 -2 -5 3 62.1 6.14 0
 -2 -5 7 1540.39 26.08 0
 -2 -5 8 58.33 7.13 0
 -2 -5 9 507.58 16.58 0
 -2 -5 10 35.39 5.98 0
 -2 -5 11 41.31 6.78 0
 -2 -4 -1 114.03 5.8 0
 -2 -4 0 487.86 11.4 0
 -2 -4 1 109.47 5.86 0
 -2 -4 2 158.4 7.03 0
 -2 -4 3 323.99 9.85 0
 -2 -4 4 173.84 8.06 0
 -2 -4 5 56.22 5.4 0
 -2 -3 -1 378.26 9.19 0
 -2 -3 0 21.51 3.16 0
 -2 -3 1 386.34 9.26 0
 -2 -3 2 2551.11 23.83 0
 -2 -3 3 171.59 6.79 0
 -2 -3 4 141.09 6.61 0
 -2 -3 5 150.33 6.95 0
 -2 -2 -1 1277.84 14.12 0
 -2 -2 1 1282.26 14.79 0
 -2 -2 2 210.38 6.45 0
 -2 -2 3 124.35 5.68 0
 -2 -1 -1 1740.76 13.59 0
 -2 -1 0 369.72 6.59 0
 -2 -1 1 1748.94 14.7 0
 -2 -1 2 2081.6 17.09 0
 -2 0 0 542.43 6.25 0
 -2 0 1 872.2 8.71 0
 -2 3 0 19.71 1.33 0
 -2 3 1 363.73 5.13 0
 -1 -15 6 135.13 12.95 0
 -1 -14 5 69.38 10.5 0
 -1 -14 7 24.59 8.22 0
 -1 -14 8 99.08 12.54 0
 -1 -14 9 6.95 6.84 0
 -1 -13 3 30.98 7.66 0
 -1 -13 4 195.63 13.4 0
 -1 -13 5 117.81 11.92 0
 -1 -13 6 8.88 6.56 0
 -1 -13 7 57.36 10.4 0
 -1 -13 8 80.85 11.75 0
 -1 -13 9 3.93 7.54 0
 -1 -13 10 8.16 6.84 0
 -1 -13 11 57.57 11.63 0
 -1 -12 2 165.46 12.48 0
 -1 -12 4 67.32 9.06 0
 -1 -12 5 45.68 8.16 0
 -1 -12 6 45.82 9.44 0
 -1 -12 7 141.02 12.07 0
 -1 -12 8 12.01 6.63 0
 -1 -12 9 114.76 11.43 0
 -1 -12 10 48.54 9.45 0
 -1 -12 11 73.22 10.64 0
 -1 -12 12 54.02 10.47 0
 -1 -12 13 22.48 8.28 0
 -1 -11 1 183.94 11.65 0
 -1 -11 2 56.49 7.78 0
 -1 -11 3 83.72 10.24 0
 -1 -11 5 7.06 5.4 0
 -1 -11 6 144.75 11.82 0
 -1 -11 7 123.35 11.22 0
 -1 -11 9 30.6 8.26 0
 -1 -11 10 53.71 9.64 0
 -1 -11 11 45.57 9.02 0
 -1 -11 12 66.81 10.42 0
 -1 -11 13 139.39 12.99 0
 -1 -11 14 86.44 11.87 0
 -1 -10 0 111.35 8.91 0
 -1 -10 1 400.98 15.53 0
 -1 -10 2 245.77 12.73 0
 -1 -10 3 71.65 8.19 0
 -1 -10 4 305.26 14.2 0
 -1 -10 5 71.53 8.49 0
 -1 -10 6 40.44 6.96 0
 -1 -10 7 61.74 8.47 0
 -1 -10 8 31.57 7.3 0
 -1 -10 10 7.32 5.63 0
 -1 -10 11 245.11 15.48 0
 -1 -10 12 5.08 6.26 0
 -1 -10 13 63.22 10.22 0
 -1 -10 14 76.69 11.26 0
 -1 -10 15 40.14 9.01 0
 -1 -9 0 4.18 3.67 0
 -1 -9 1 591.72 17.67 0
 -1 -9 2 15.95 4.79 0
 -1 -9 4 90.89 7.95 0
 -1 -9 6 53.44 7.23 0
 -1 -9 8 56.24 8.23 0
 -1 -9 9 146.23 11.49 0
 -1 -9 10 14.36 6.15 0
 -1 -9 11 100.17 10.53 0
 -1 -9 12 217.52 14.06 0
 -1 -9 14 50.59 10.09 0
 -1 -9 15 10.7 6.98 0
 -1 -9 16 7.4 6.63 0
 -1 -8 -1 144.02 8.58 0
 -1 -8 2 155.49 9.39 0
 -1 -8 4 402.76 14.31 0
 -1 -8 5 97.96 8.55 0
 -1 -8 6 215.53 11.13 0
 -1 -8 7 126.18 9.07 0
 -1 -8 8 39.53 7 0
 -1 -8 10 131.56 10.79 0
 -1 -8 11 159.15 11.35 0
 -1 -8 12 54.38 8.72 0
 -1 -8 13 62.58 9.21 0
 -1 -8 16 28.6 8.38 0
 -1 -7 5 370.18 13.12 0
 -1 -7 6 114.5 7.92 0
 -1 -7 8 38.98 6 0
 -1 -7 10 374.58 15.4 0
 -1 -7 11 108.96 10.07 0
 -1 -7 12 195.35 13.22 0
 -1 -7 14 258.75 15.68 0
 -1 -7 15 24.52 7.63 0
 -1 -7 17 9.79 8.24 0
 -1 -6 -1 308.67 10.19 0
 -1 -6 0 253.17 9.51 0
 -1 -6 1 305.77 10.22 0
 -1 -6 2 331.94 10.67 0
 -1 -6 7 653.67 17.25 0
 -1 -6 8 12.2 4.31 0
 -1 -6 9 383.98 14.24 0
 -1 -6 10 88.08 7.82 0
 -1 -6 11 34.56 6.07 0
 -1 -6 12 36.78 6.67 0
 -1 -6 13 186.21 12.63 0
 -1 -6 14 97.89 10.3 0
 -1 -6 15 30.88 7.78 0
 -1 -6 16 46.78 8.98 0
 -1 -6 17 13.15 7.42 0
 -1 -6 18 24.09 9.25 0
 -1 -5 -1 -0.48 2.48 0
 -1 -5 0 552.72 12.17 0
 -1 -5 1 2.99 2.63 0
 -1 -5 3 314.58 9.7 0
 -1 -5 5 450.67 12.34 0
 -1 -5 8 402.86 13.45 0
 -1 -4 -1 1071.28 14.97 0
 -1 -4 0 5175.69 32.72 0
 -1 -4 1 1097.27 15.51 0
 -1 -4 2 1910.73 20.79 0
 -1 -4 3 97.24 5.35 0
 -1 -4 4 1355.2 18.87 0
 -1 -4 5 1630.44 21.34 0
 -1 -3 -1 2242.7 19.26 0
 -1 -3 0 4948.88 28.04 0
 -1 -3 1 2226.73 19.29 0
 -1 -3 3 1075.25 14.62 0
 -1 -2 -1 1417.17 12.93 0
 -1 -2 0 3213.88 19.26 0
 -1 -2 1 1506.03 13.6 0
 -1 -2 2 373.77 7.45 0
 -1 -1 0 5028.58 19.14 0
 -1 -1 1 1097.24 9.7 0
 -1 2 0 3246.82 12.32 0
 0 -15 7 1.54 5.47 0
 0 -14 5 3.6 5.79 0
 0 -14 6 374.59 17.88 0
 0 -14 7 33.87 8.73 0
 0 -14 8 117.82 12.33 0
 0 -14 9 34.4 8.97 0
 0 -14 10 88.92 11.53 0
 0 -13 4 117.49 10.56 0
 0 -13 5 6.75 5.66 0
 0 -13 6 4.7 6.56 0
 0 -13 8 -0.04 5.27 0
 0 -13 9 -0.9 5.46 0
 0 -13 10 65.79 9.94 0
 0 -13 11 42.26 8.76 0
 0 -13 12 164.74 14.14 0
 0 -12 3 53.3 8.24 0
 0 -12 4 0.44 4.49 0
 0 -12 5 89.38 9.05 0
 0 -12 6 83.11 10.25 0
 0 -12 7 28.34 8.01 0
 0 -12 8 235.43 14.55 0
 0 -12 9 40.05 8.01 0
 0 -12 10 152.2 12.81 0
 0 -12 11 -1.07 5.6 0
 0 -12 13 18.03 7.84 0
 0 -11 2 126.98 10.08 0
 0 -11 3 241.54 12.82 0
 0 -11 4 0.86 4.26 0
 0 -11 5 164.03 11.21 0
 0 -11 6 117.18 10.34 0
 0 -11 7 30.98 6.94 0
 0 -11 8 10.79 6.13 0
 0 -11 9 58.77 8.81 0
 0 -11 11 -4.05 5.31 0
 0 -11 12 34.71 8.56 0
 0 -11 13 50.26 9.63 0
 0 -11 14 227.43 16.07 0
 0 -11 15 5.31 6.62 0
 0 -10 1 450.4 15.5 0
 0 -10 2 28.73 5.55 0
 0 -10 4 174.02 10.41 0
 0 -10 5 7.57 4.4 0
 0 -10 6 23.45 5.83 0
 0 -10 7 91.59 8.34 0
 0 -10 8 2.82 4.79 0
 0 -10 9 4.15 4.81 0
 0 -10 10 7.67 5.51 0
 0 -10 14 187.76 14.53 0
 0 -10 15 -1.71 5.83 0
 0 -10 16 22.46 8.96 0
 0 -9 2 176.28 9.87 0
 0 -9 3 -1.62 3.13 0
 0 -9 5 44.91 6.76 0
 0 -9 6 159.41 9.71 0
 0 -9 7 586.46 18.24 0
 0 -9 9 -2.51 4.95 0
 0 -9 11 40.74 6.96 0
 0 -9 12 51.28 8.63 0
 0 -9 13 497.27 20.02 0
 0 -9 14 4.76 5.62 0
 0 -9 15 20.66 8.27 0
 0 -9 17 122.36 14.03 0
 0 -8 4 65.1 6.66 0
 0 -8 5 48.21 5.85 0
 0 -8 6 28.5 5.61 0
 0 -8 7 144.96 9.23 0
 0 -8 8 198.05 10.66 0
 0 -8 9 46.4 6.64 0
 0 -8 10 0.58 3.91 0
 0 -8 13 132.17 11.46 0
 0 -8 14 -0.8 5.97 0
 0 -8 15 14.92 6.91 0
 0 -8 16 35.79 8.58 0
 0 -8 17 19.45 8.08 0
 0 -7 6 14.01 3.97 0
 0 -7 7 39.76 5.27 0
 0 -7 8 44.26 6.3 0
 0 -7 9 193.38 10.87 0
 0 -7 10 4.71 4.04 0
 0 -7 11 36.62 6.85 0
 0 -7 13 91.13 10.04 0
 0 -7 14 4.92 4.97 0
 0 -7 15 31.32 7.23 0
 0 -7 16 15.59 6.56 0
 0 -7 17 1.51 6.1 0
 0 -7 18 -2.49 5.75 0
 0 -6 0 36.82 4.2 0
 0 -6 1 28.86 3.81 0
 0 -6 3 27.16 3.95 0
 0 -6 4 1983.41 24.57 0
 0 -6 5 14.84 3.68 0
 0 -6 8 81.23 6.9 0
 0 -6 11 254.56 12.22 0
 0 -6 18 6.12 6.24 0
 0 -6 19 14.29 7.06 0
 0 -5 0 -2.03 1.86 0
 0 -5 1 389.91 9.39 0
 0 -5 2 147.64 6.52 0
 0 -5 3 1094.37 16.43 0
 0 -5 4 1169.94 17.28 0
 0 -5 5 671.96 14.2 0
 0 -5 6 166.98 7.64 0
 0 -4 -1 3049.33 22.77 0
 0 -4 0 1120.17 13.92 0
 0 -4 1 3090.89 23.12 0
 0 -4 2 13.85 2.66 0
 0 -4 3 1560.82 17.43 0
 0 -4 4 446.95 10.1 0
 0 -3 0 1.14 2.26 0
 0 -3 1 273.22 6.17 0
 0 -3 2 6956.14 30.7 0
 0 -3 3 4702.63 26.75 0
 0 -2 0 290.03 5.04 0
 0 -2 1 400.99 6.18 0
 0 1 0 1.73 0.75 0
 1 -14 7 22.73 7.02 0
 1 -14 8 93.3 10.23 0
 1 -13 5 119.48 10.59 0
 1 -13 6 13.1 6.14 0
 1 -13 7 54.54 8.02 0
 1 -13 8 94.32 10.63 0
 1 -13 9 1.22 4.96 0
 1 -13 10 1.22 4.94 0
 1 -13 11 53.07 8.59 0
 1 -12 4 84.74 8.72 0
 1 -12 5 60.93 7.72 0
 1 -12 6 42.71 6.84 0
 1 -12 8 19.1 6.76 0
 1 -12 9 93.35 9.69 0
 1 -12 11 76.31 10.37 0
 1 -12 12 62.94 9.02 0
 1 -12 13 15.68 6.11 0
 1 -11 3 63.78 7.46 0
 1 -11 4 66.79 7.97 0
 1 -11 5 6.52 4.72 0
 1 -11 6 137.02 10.06 0
 1 -11 7 140.69 10.27 0
 1 -11 8 40.24 7.23 0
 1 -11 9 37.56 6.78 0
 1 -11 10 44.45 7.75 0
 1 -11 11 36.75 7.6 0
 1 -11 12 78.58 10.52 0
 1 -11 13 121.63 11.55 0
 1 -11 14 80.53 10.85 0
 1 -10 2 252.91 10.91 0
 1 -10 4 283.18 11.92 0
 1 -10 5 74.82 6.89 0
 1 -10 7 53.15 6.78 0
 1 -10 8 30.96 6.26 0
 1 -10 10 3.64 4.65 0
 1 -10 11 213.98 13.13 0
 1 -10 12 3.68 4.99 0
 1 -10 13 46 8.23 0
 1 -10 14 68.13 9.52 0
 1 -10 15 46.84 9.38 0
 1 -10 16 70.96 9.92 0
 1 -9 3 355.12 12.35 0
 1 -9 4 103.39 7.74 0
 1 -9 5 105.92 7.44 0
 1 -9 6 56.18 6.23 0
 1 -9 7 46.04 6.41 0
 1 -9 8 53.62 6.83 0
 1 -9 9 153.34 10.38 0
 1 -9 11 87.73 9.43 0
 1 -9 12 208.89 12.27 0
 1 -9 13 91.52 9.24 0
 1 -9 14 58.43 9.03 0
 1 -9 15 9.68 6.74 0
 1 -9 16 11.48 6.91 0
 1 -9 17 8.17 6.64 0
 1 -8 6 201.38 9.42 0
 1 -8 7 113.52 8.03 0
 1 -8 9 25.38 5.27 0
 1 -8 10 128.91 9.06 0
 1 -8 11 158.26 10.59 0
 1 -8 12 49.01 7.17 0
 1 -8 13 71.03 8.73 0
 1 -8 15 185.57 12.68 0
 1 -8 16 46.46 8.29 0
 1 -8 17 50.66 8.81 0
 1 -8 18 9.66 6.85 0
 1 -7 1 95.57 5.54 0
 1 -7 2 834.17 15.37 0
 1 -7 4 118.02 6.49 0
 1 -7 10 367.75 13.88 0
 1 -7 11 124.68 9.23 0
 1 -7 12 205.34 11.98 0
 1 -7 13 47 7.03 0
 1 -7 14 263.72 14.26 0
 1 -7 16 96.33 11.36 0
 1 -7 17 15.9 7.67 0
 1 -7 18 73.04 10.57 0
 1 -6 1 309.39 8.44 0
 1 -6 3 33.89 3.94 0
 1 -6 4 136.22 6.47 0
 1 -6 5 361.5 10.29 0
 1 -6 9 346.37 12.1 0
 1 -6 10 97.19 7.78 0
 1 -6 11 32.96 5.59 0
 1 -6 19 -1.02 5.74 0
 1 -5 0 562.79 10.03 0
 1 -5 1 -0.04 1.61 0
 1 -5 2 510.84 9.82 0
 1 -5 3 314.08 8.06 0
 1 -5 5 465.74 10.65 0
 1 -5 6 482.76 11.56 0
 1 -5 7 559.75 12.91 0
 1 -4 0 5343.53 26.01 0
 1 -4 1 1065.29 11.79 0
 1 -4 2 1912.14 16.21 0
 1 -4 4 1388.25 15.64 0
 1 -3 2 336.84 5.83 0
 1 -3 3 1099.88 11.36 0
 1 1 0 5183.22 19.19 0
 1 1 1 1070.46 9.06 0
 2 -11 5 85.13 6.76 0
 2 -11 6 8.68 3.58 0
 2 -11 7 109.35 8.07 0
 2 -11 8 21.29 5.02 0
 2 -10 4 134.22 7.52 0
 2 -10 5 116.02 7.47 0
 2 -10 6 107.69 7.29 0
 2 -10 7 17.42 3.94 0
 2 -10 9 7.39 4.03 0
 2 -10 10 97.56 7.87 0
 2 -10 11 104.96 8.44 0
 2 -9 6 63.53 5.78 0
 2 -9 7 57.46 5.85 0
 2 -9 8 381.18 12.88 0
 2 -9 10 128.93 8.72 0
 2 -9 11 19.59 5.21 0
 2 -9 12 68.23 7.44 0
 2 -9 13 188.55 11.39 0
 2 -8 3 157.96 7 0
 2 -8 4 58.58 4.69 0
 2 -8 8 75.83 6 0
 2 -8 9 113.94 7.68 0
 2 -8 10 73.86 6.47 0
 2 -8 11 16.52 4.54 0
 2 -8 12 32.37 5.69 0
 2 -8 13 93.75 8.15 0
 2 -8 14 42.17 6.67 0
 2 -8 15 49.29 8.07 0
 2 -7 2 240.47 7.47 0
 2 -7 3 161.76 6.39 0
 2 -7 4 382.14 9.76 0
 2 -7 5 166.06 6.9 0
 2 -7 6 340.39 10.14 0
 2 -7 9 94.79 6.77 0
 2 -7 11 57.65 6.43 0
 2 -7 12 24.58 5.23 0
 2 -7 13 36.81 6 0
 2 -7 14 173.78 11.17 0
 2 -7 15 44.69 7.51 0
 2 -7 16 13.25 5.66 0
 2 -7 17 49.48 8.47 0
 2 -6 4 137.59 5.46 0
 2 -6 6 18.3 3.22 0
 2 -6 7 684.69 13.82 0
 2 -6 10 34.98 4.86 0
 2 -6 11 326.66 12.01 0
 2 -6 12 89.87 7.1 0
 2 -6 13 5.83 3.94 0
 2 -6 16 11.04 5.25 0
 2 -6 17 20.36 6.52 0
 2 -6 18 29.69 7.26 0
 2 -5 5 256.19 6.97 0
 2 -5 6 331.15 8.54 0
 2 -5 7 1493.94 19.11 0
 2 -5 8 47.12 4.31 0
 2 -4 2 153.25 3.75 0
 2 -4 3 336.14 5.95 0
 2 -3 2 2489.65 10.61 0
 2 -3 3 168.6 3.63 0
 2 0 1 906.97 7.57 0
 2 0 2 1654.01 11.16 0
 3 -7 5 11.69 1.86 0
 3 -6 5 313.76 6.53 0
 3 -6 6 149.44 5.12 0
 3 -6 7 277.35 7.55 0
 3 -5 4 7.3 1 0
 3 -5 5 91.22 3.28 0
 3 -5 6 5.06 1.47 0
 3 -5 7 22.92 2.68 0
 3 -4 5 224.73 4.53 0
 3 -4 6 353.24 6.9 0
 3 -4 7 510.18 9.28 0
 3 -2 4 168.52 3.12 0
 3 -1 3 12.31 1.14 0
 4 -1 4 195.71 3.22 0
 -5 0 -8 505.46 16.56 0
 -5 0 -7 31.77 5.3 0
 -5 1 -7 21.43 4.96 0
 -4 -3 -6 275.98 12.95 0
 -4 -2 -9 38.27 6.3 0
 -4 -2 -8 21.56 5.17 0
 -4 -1 -10 18.73 5.06 0
 -4 -1 -9 71.73 7.62 0
 -4 -1 -8 187.87 10.38 0
 -4 -1 -7 47.2 6.16 0
 -4 0 -10 2.6 3.33 0
 -4 0 -9 589.23 16.32 0
 -4 0 -8 654.63 17.13 0
 -4 0 -7 1.9 3.16 0
 -4 1 -9 69.08 5.77 0
 -4 1 -8 184.78 9.01 0
 -4 1 -7 50.73 5.88 0
 -4 2 -9 46.39 4.93 0
 -4 2 -8 21.74 4.13 0
 -4 2 -7 25.74 3.99 0
 -4 3 -8 41.15 4.03 0
 -4 3 -7 536.22 11.91 0
 -4 4 -7 235.14 6.75 0
 -4 5 -6 53.07 3.17 0
 -3 -6 -4 172.06 11.47 0
 -3 -6 -3 316.84 13.44 0
 -3 -5 -6 2.7 4.38 0
 -3 -5 -5 91.14 8.1 0
 -3 -5 -4 12.3 4.54 0
 -3 -4 -8 121.22 9.17 0
 -3 -4 -7 525.14 17.19 0
 -3 -4 -5 235.36 11.18 0
 -3 -3 -9 6.98 4.01 0
 -3 -3 -8 492.72 16.14 0
 -3 -3 -7 426.88 15.13 0
 -3 -3 -6 569.78 16.5 0
 -3 -2 -9 73.87 7.07 0
 -3 -2 -8 538.43 16.19 0
 -3 -2 -7 91.89 7.7 0
 -3 -1 -9 172.42 9.13 0
 -3 -1 -8 60.75 6.43 0
 -3 -1 -7 635.87 15.81 0
 -3 -1 -6 328.71 11.15 0
 -3 0 -8 0.96 3.21 0
 -3 0 -7 4.39 2.62 0
 -3 0 -6 318.67 10.13 0
 -3 1 -8 60.52 4.82 0
 -3 1 -7 602.23 13.2 0
 -3 1 -6 317.54 9.53 0
 -3 2 -7 87.25 4.89 0
 -3 2 -6 178.04 6.57 0
 -3 3 -7 413.83 8.28 0
 -3 3 -6 555.64 9.81 0
 -3 4 -6 350.23 5.94 0
 -3 6 -4 181.32 4.34 0
 -3 7 -3 97.46 4.17 0
 -3 8 -3 64.05 3.31 0
 -3 8 -2 150.24 6.05 0
 -3 8 -1 32.86 3.89 0
 -3 8 0 18.56 3.37 0
 -3 9 0 82.74 5.84 0
 -3 9 2 135.66 8.73 0
 -3 9 3 112.18 8.47 0
 -2 -10 5 120.34 8.66 0
 -2 -9 0 262.68 12.86 0
 -2 -9 2 80.98 7.61 0
 -2 -9 3 82.2 7.18 0
 -2 -8 -3 163.8 11.08 0
 -2 -8 -2 47.71 7.08 0
 -2 -8 -1 168.93 10.29 0
 -2 -8 0 208.89 11.2 0
 -2 -8 1 161.95 9.11 0
 -2 -7 -4 394.1 15.59 0
 -2 -7 -2 242.84 11.5 0
 -2 -6 -7 681.87 20.39 0
 -2 -6 -4 144.85 9.77 0
 -2 -6 -3 226.86 10.86 0
 -2 -6 -2 469.23 14.6 0
 -2 -5 -7 1513.54 28.52 0
 -2 -5 -6 331.09 13.15 0
 -2 -5 -5 244.06 11.21 0
 -2 -5 -3 63.96 6.95 0
 -2 -4 -6 177.34 9.37 0
 -2 -4 -5 54.26 5.98 0
 -2 -4 -4 183.24 9.44 0
 -2 -3 -7 4.56 3.42 0
 -2 -3 -6 2113.86 28.96 0
 -2 -3 -4 135.04 7.77 0
 -2 -2 -7 116.14 7.16 0
 -2 -2 -6 1432.08 22.44 0
 -2 -2 -5 686.74 14.97 0
 -2 -1 -7 27.78 4.22 0
 -2 -1 -6 -1.29 2.63 0
 -2 -1 -5 71.76 5.55 0
 -2 0 -7 763.95 14.71 0
 -2 0 -6 94.77 5.3 0
 -2 0 -5 637.48 12.23 0
 -2 1 -6 0.19 1.6 0
 -2 1 -5 72.95 3.95 0
 -2 2 -6 1413.55 14.26 0
 -2 2 -5 692.78 9.64 0
 -2 3 -5 132.83 3.26 0
 -2 5 -3 59.52 2.54 0
 -2 6 -3 223.3 4.84 0
 -2 6 -2 478.08 8.96 0
 -2 7 -2 227.83 6.56 0
 -2 7 -1 156.09 6.35 0
 -2 7 0 1.43 2.25 0
 -2 7 2 215.54 9.4 0
 -2 8 -1 177.42 6.99 0
 -2 8 1 177.94 8.54 0
 -2 8 2 52.5 6.43 0
 -2 8 3 155.23 9.15 0
 -2 8 5 255.14 12.11 0
 -2 9 0 269.52 9.53 0
 -2 9 1 173.86 8.91 0
 -2 9 2 96 7.59 0
 -2 9 3 85.86 7.36 0
 -2 9 4 136.72 9.81 0
 -2 10 2 10.95 3.74 0
 -2 10 3 303.63 13.07 0
 -1 -10 0 129.32 9 0
 -1 -10 1 398.03 14.27 0
 -1 -10 2 255.09 11.14 0
 -1 -10 3 75.05 6.55 0
 -1 -10 4 286.21 11.05 0
 -1 -9 -1 622.53 17.86 0
 -1 -9 0 0.74 3.92 0
 -1 -9 1 614.08 16.55 0
 -1 -9 2 12.11 4.26 0
 -1 -9 4 105.55 6.72 0
 -1 -9 5 106.86 6.58 0
 -1 -9 6 57.1 4.82 0
 -1 -8 -2 154.03 9.26 0
 -1 -8 0 4.11 3.34 0
 -1 -8 1 134.68 7.94 0
 -1 -8 2 163.37 8.43 0
 -1 -8 3 490.9 13.46 0
 -1 -8 4 414.77 11.93 0
 -1 -7 -3 488.39 15.16 0
 -1 -7 -2 797.56 18.61 0
 -1 -7 -1 84.7 6.72 0
 -1 -7 1 88.33 6.73 0
 -1 -6 -4 140.89 8.33 0
 -1 -6 -3 37.7 5.23 0
 -1 -6 -2 336.1 11.5 0
 -1 -6 -1 323.69 11.18 0
 -1 -6 1 303.56 9.57 0
 -1 -5 -3 298.64 10.69 0
 -1 -5 -2 492.32 13.04 0
 -1 -4 -5 1646.37 24.74 0
 -1 -4 -4 1389.06 21.48 0
 -1 -4 -2 1910.83 23.16 0
 -1 -4 -1 1069.13 15.77 0
 -1 -3 -5 382.26 11.47 0
 -1 -3 -4 729.39 14.53 0
 -1 -3 -3 1050.98 16.54 0
 -1 -2 -4 1030.64 15.77 0
 -1 -2 -3 1616.95 18.45 0
 -1 -1 -3 4121.06 26.11 0
 -1 0 -3 1455.69 13.23 0
 -1 1 -3 4130.86 17.82 0
 -1 4 -1 1078.21 11.52 0
 -1 5 -1 0.92 1.19 0
 -1 5 1 -0.56 1.88 0
 -1 5 2 509.06 12.06 0
 -1 6 -1 299.07 7.39 0
 -1 6 0 255.6 8.09 0
 -1 6 2 325.63 10.51 0
 -1 6 3 31.93 4.5 0
 -1 6 5 345.57 12.48 0
 -1 6 6 340.62 13.03 0
 -1 6 7 670.27 18.6 0
 -1 7 0 380.53 10.2 0
 -1 7 1 82.62 5.83 0
 -1 7 5 353.59 13.6 0
 -1 7 6 111.45 8.32 0
 -1 7 7 152.28 10.67 0
 -1 8 1 137.99 7.45 0
 -1 8 2 151.31 8.55 0
 -1 8 6 214.41 12.19 0
 -1 9 3 389.48 13.47 0
 -1 9 4 95.81 7.89 0
 -1 9 5 113.42 9.38 0
 0 -8 5 51.2 3.57 0
 0 -8 6 23.91 2.41 0
 0 -7 2 1432.07 19.15 0
 0 -7 5 -1.07 1 0
 0 -7 6 18.69 2.24 0
 0 -7 7 46.37 2.66 0
 0 -6 1 28.45 3.54 0
 0 -6 5 15.46 1.92 0
 0 -5 0 -0.99 2.21 0
 0 -5 2 150.58 5.35 0
 0 -4 -1 3030.9 24.88 0
 0 -4 0 1128.4 14.19 0
 0 -4 1 3001.78 21.17 0
 0 -3 -1 271.32 6.89 0
 0 -3 0 1.03 2.12 0
 0 -3 1 274.5 5.53 0
 0 -2 -1 404.26 7.19 0
 0 -2 0 308.11 5.46 0
 0 -2 13 292.83 10.8 0
 0 -1 13 27.09 4.63 0
 0 0 12 361.86 13.05 0
 0 0 14 4.67 3.78 0
 0 1 1 42.45 2.13 0
 0 1 12 399.98 14.39 0
 0 1 13 30.65 5.84 0
 0 2 0 300.75 5.1 0
 0 2 1 408.53 7.14 0
 0 2 2 1.66 1.96 0
 0 2 3 2625.3 21.97 0
 0 2 9 522.37 14.72 0
 0 2 10 208.26 10.53 0
 0 2 11 29.98 5.2 0
 0 2 12 94.55 8.17 0
 0 3 1 272.83 7.02 0
 0 3 2 6884.08 35.92 0
 0 3 3 4613.44 31.63 0
 0 3 4 505.14 11.65 0
 0 3 5 454.51 11.94 0
 0 3 6 69.86 5.48 0
 0 3 8 438.6 13.63 0
 0 3 9 1095.47 22.22 0
 0 3 10 501.97 16.08 0
 0 3 11 242.06 12.02 0
 0 3 12 2.41 3.88 0
 0 4 1 3068.98 24.62 0
 0 4 3 1569.77 20.4 0
 0 4 5 2437.58 28.27 0
 0 4 8 109.01 7.68 0
 0 4 9 55.3 6.86 0
 0 4 10 442.83 15.84 0
 0 4 11 51.25 7.39 0
 0 5 2 145.85 7.2 0
 0 5 3 1087.59 18.37 0
 0 5 4 1213.82 20.51 0
 0 5 5 672.23 16.37 0
 0 5 9 81.84 7.55 0
 0 5 10 134.42 10.29 0
 0 6 3 31.19 4.54 0
 0 6 4 2017.62 27.92 0
 0 6 5 15.84 4.26 0
 0 6 6 169.67 9.92 0
 0 6 7 412 14.53 0
 0 6 8 78.27 8.06 0
 0 6 9 779.87 21.54 0
 0 7 4 615.04 16.09 0
 0 7 5 -0.87 3.12 0
 0 7 6 12.68 4.55 0
 1 -2 7 1419.58 13.69 0
 1 -2 8 697.02 10.9 0
 1 -2 12 156.35 6.92 0
 1 -1 6 871.93 11.41 0
 1 -1 7 158.84 5.55 0
 1 -1 8 49.08 3.91 0
 1 -1 10 124.35 6.41 0
 1 -1 11 590.28 13.76 0
 1 -1 12 90.34 6.21 0
 1 0 5 928.56 12.15 0
 1 0 6 2.06 1.8 0
 1 0 7 11.28 2.47 0
 1 0 9 75.45 5.13 0
 1 0 10 145.64 7.27 0
 1 0 12 219.57 9.64 0
 1 0 13 0.97 2.41 0
 1 1 5 945.31 13.8 0
 1 1 6 864.84 14.69 0
 1 1 7 156.84 7.25 0
 1 1 9 749.58 16.18 0
 1 1 10 130.86 7.86 0
 1 1 11 601.55 15.83 0
 1 1 12 102.04 7.44 0
 1 1 13 174.04 9.62 0
 1 1 14 121.28 8.63 0
 1 2 5 1395.76 18.42 0
 1 2 6 619.94 13.42 0
 1 2 11 234.7 10.85 0
 1 2 12 166.56 9.8 0
 1 3 8 154.87 8.67 0
 1 3 9 93.5 7.17 0
 1 3 10 116.39 8.17 0
 1 3 11 44.9 6.43 0
 1 3 12 74.85 7.34 0
 1 4 7 10.78 3.37 0
 1 4 8 434.6 13.87 0
 1 4 9 253.58 11.29 0
 1 4 10 32.66 5.81 0
 1 4 11 155.3 9.86 0
 1 5 9 492.8 15.66 0
 1 5 10 25.81 5.74 0
 0 -10 -3 5.13 4.91 0
 0 -10 -2 25.6 6.68 0
 0 -10 0 167.15 11.12 0
 0 -10 1 450.97 17.07 0
 0 -10 2 30.16 6.83 0
 0 -9 -3 -2.38 3.99 0
 0 -9 -2 172.3 10.71 0
 0 -9 -1 255.3 13.23 0
 0 -9 0 0.89 3.98 0
 0 -9 2 177.52 10.4 0
 0 -9 3 1.34 3.44 0
 0 -8 -5 48.63 7.37 0
 0 -8 -4 65.61 6.91 0
 0 -7 0 2.28 3.17 0
 0 -7 1 832.95 18.23 0
 0 -7 2 1390.61 22.77 0
 0 -7 3 613.72 14.93 0
 0 -7 4 632.85 15.01 0
 0 -7 5 0.41 2.37 0
 0 -7 6 18.75 3.3 0
 0 -6 -5 17.74 4.4 0
 0 -6 -4 1986.86 28.19 0
 0 -5 -6 172.12 8.54 0
 0 -5 -5 637.96 15.06 0
 0 -5 -3 1034.21 18.09 0
 0 -5 -2 145.09 6.85 0
 0 -5 -1 398.14 10.79 0
 0 -5 0 2.66 2.4 0
 0 -5 2 158.98 6.62 0
 0 -5 3 1082.31 15.77 0
 0 -5 4 1176.41 16 0
 0 -5 5 658 11.84 0
 0 -5 6 167.11 5.89 0
 0 -4 -6 220.39 8.74 0
 0 -4 -5 2517.38 26.57 0
 0 -4 -4 446.02 11.21 0
 0 -4 -3 1533.25 19.58 0
 0 -4 -2 12.08 3.19 0
 0 -4 -1 3031.45 25.9 0
 0 -4 0 1134.52 15.61 0
 0 -4 1 3020.19 24.27 0
 0 -4 2 15.3 2.99 0
 0 -4 3 1533.63 16.32 0
 0 -4 4 456.27 8.88 0
 0 -4 5 2406.51 18.64 0
 0 -4 6 211.21 5.4 0
 0 -3 -6 71.85 4.77 0
 0 -3 -4 495.29 10.49 0
 0 -3 -3 4660.2 29.58 0
 0 -3 -2 7117.62 35.23 0
 0 -3 1 278.67 6.66 0
 0 -3 2 6856.41 29.55 0
 0 -3 3 4696.41 23.43 0
 0 -3 4 503.06 7.42 0
 0 -2 -5 18.48 2.79 0
 0 -2 -4 4436.86 25.53 0
 0 -2 -3 2640.27 18.86 0
 0 -2 -2 0.82 1.98 0
 0 -2 -1 390.66 7.14 0
 0 -2 0 292.44 5.66 0
 0 -2 1 401.17 6.24 0
 0 -2 2 1.35 1.28 0
 0 -2 3 2632.62 13.04 0
 0 -2 4 4387.69 15.25 0
 0 -1 -4 423.63 6.48 0
 0 -1 -2 10.8 1.54 0
 0 -1 -1 39.89 2 0
 0 -1 0 2.1 0.88 0
 0 0 5 0.16 0.67 0
 0 0 7 0.25 0.59 0
 0 0 9 0.96 0.51 0
 0 1 3 9 1.65 0
 0 2 -2 0.25 1.22 0
 0 2 -1 408.48 6.06 0
 0 3 -5 466.98 6.33 0
 1 -13 -4 187.69 15.36 0
 1 -13 -3 31.43 8.89 0
 1 -13 -2 21.18 9.15 0
 1 -13 -1 74.68 11.03 0
 1 -13 0 42.08 8.97 0
 1 -13 1 76.29 10.8 0
 1 -13 3 31.11 8.04 0
 1 -12 -6 44.73 9.24 0
 1 -12 -5 48.63 9.37 0
 1 -12 -2 152.76 13.48 0
 1 -12 1 56.9 9.27 0
 1 -12 3 81.58 10.42 0
 1 -12 4 89.03 10.6 0
 1 -12 6 43.03 7.66 0
 1 -11 -8 41.87 8.61 0
 1 -11 -7 125.79 12.31 0
 1 -11 -6 142.82 13.23 0
 1 -11 -5 7.11 6.2 0
 1 -11 -4 67.98 9.74 0
 1 -11 -2 50.46 8.44 0
 1 -11 0 301.89 16.14 0
 1 -11 3 67.55 8.76 0
 1 -11 5 2.7 4.42 0
 1 -11 6 135.63 9.92 0
 1 -10 -9 28.31 7.59 0
 1 -10 -8 26.02 8.29 0
 1 -10 -7 52.27 9.29 0
 1 -10 -6 39.96 7.8 0
 1 -10 -4 301.63 15.14 0
 1 -10 -1 405.53 17.26 0
 1 -10 1 388.58 16.17 0
 1 -10 2 261.11 13.42 0
 1 -10 3 73.6 9.09 0
 1 -10 4 311.76 14.18 0
 1 -10 5 71.53 8.46 0
 1 -10 6 50.48 6.78 0
 1 -9 -9 135 12.12 0
 1 -9 -8 54.43 8.86 0
 1 -9 -7 57.01 8.39 0
 1 -9 -5 116.23 10.46 0
 1 -9 -4 101.79 8.76 0
 1 -9 -2 14.45 5.37 0
 1 -9 -1 588.38 18.75 0
 1 -9 0 1.23 4.01 0
 1 -9 1 601.08 18.45 0
 1 -9 2 14.1 4.82 0
 1 -9 3 381.92 14.84 0
 1 -9 4 104.36 8.54 0
 1 -9 5 122.28 8.71 0
 1 -8 -10 144.5 11.38 0
 1 -8 -9 32.57 7.05 0
 1 -8 -8 41.94 7 0
 1 -8 -7 133.77 10.48 0
 1 -8 -6 211.4 12.29 0
 1 -8 -5 104.76 9.08 0
 1 -8 -4 406.25 15.33 0
 1 -8 -3 499.11 16.76 0
 1 -8 -2 152.46 9.56 0
 1 -8 7 109.25 7.15 0
 1 -8 8 38.83 4.7 0
 1 -7 -10 382.37 15.36 0
 1 -7 -9 130.19 9.56 0
 1 -7 -8 37.28 6.26 0
 1 -7 -7 152.92 10.04 0
 1 -7 -6 116.82 8.53 0
 1 -7 1 83.4 6.53 0
 1 -7 2 827.99 18.19 0
 1 -7 5 373.34 11.75 0
 1 -7 6 119.09 6.93 0
 1 -7 7 155.27 7.28 0
 1 -7 8 38.14 4.03 0
 1 -6 -11 34.89 5.8 0
 1 -6 -10 95.85 8 0
 1 -6 4 137.8 6.8 0
 1 -6 5 350.23 10.36 0
 1 -6 6 339.2 9.82 0
 1 -6 7 675.65 13.42 0
 1 -6 8 6.94 2.27 0
 1 -6 9 358.03 8.91 0
 1 -5 -8 420.94 13.08 0
 1 -5 -7 577.14 15.15 0
 1 -5 -6 475.51 13.33 0
 1 -5 -5 452.78 12.69 0
 1 -5 -4 743.66 15.75 0
 1 -5 -2 500.81 12.65 0
 1 -5 -1 0.61 2.43 0
 1 -5 0 557.19 12.66 0
 1 -5 1 -1.33 2.4 0
 1 -5 3 302.37 8.98 0
 1 -4 -10 37.75 4.72 0
 1 -4 -9 246.24 9.37 0
 1 -4 -8 430.19 12.18 0
 1 -4 -7 8.06 3.11 0
 1 -4 -6 207.9 8.18 0
 1 -4 -5 1694.36 21.9 0
 1 -4 -4 1336.7 18.95 0
 1 -4 -3 102.81 5.55 0
 1 -4 -2 1895.55 21.57 0
 1 -4 0 5292.27 34.43 0
 1 -4 1 1078.21 15.42 0
 1 -4 2 1907.71 20.14 0
 1 -4 3 98.13 4.84 0
 1 -4 4 1368.86 16.3 0
 1 -4 5 1657.01 17.47 0
 1 -4 6 203.91 6.2 0
 1 -4 7 6.17 1.82 0
 1 -4 8 459.13 8.39 0
 1 -4 9 247.93 5.66 0
 1 -4 10 39.27 2.06 0
 1 -3 -10 118.95 6.27 0
 1 -3 -9 92.8 5.6 0
 1 -3 -8 152.18 6.76 0
 1 -3 -7 513.81 11.37 0
 1 -3 -6 313.52 8.77 0
 1 -3 -5 382.54 9.42 0
 1 -3 -3 1109.41 15.17 0
 1 -3 -2 340.84 8.43 0
 1 -3 -1 2297.59 20.32 0
 1 -3 1 2257.2 19.35 0
 1 -3 2 343.71 7.6 0
 1 -3 3 1116.44 13.21 0
 1 -3 4 717.09 10.53 0
 1 -3 5 382.33 7.51 0
 1 -3 6 310.97 6.66 0
 1 -3 7 508.8 8.15 0
 1 -3 8 153.88 4.35 0
 1 -3 9 98.36 3.2 0
 1 -3 10 111.14 2.6 0
 1 -2 -10 602.65 11.24 0
 1 -2 -9 433.76 9.52 0
 1 -2 -8 684.31 11.77 0
 1 -2 -7 1414.22 16.42 0
 1 -2 -5 1414.19 15.5 0
 1 -2 -2 364.09 7.52 0
 1 -2 -1 1486.62 14.39 0
 1 -2 0 3088.87 20.44 0
 1 -2 1 1457.88 13.71 0
 1 -2 2 377.08 7.13 0
 1 -2 3 1639.6 14.4 0
 1 -2 7 1387.31 12.24 0
 1 -2 8 679.45 8.35 0
 1 -2 9 448.79 6.28 0
 1 -2 10 586.93 5.84 0
 1 -1 -9 768.09 10.4 0
 1 -1 -8 50.44 3.14 0
 1 -1 -5 948.67 10.87 0
 1 -1 -4 140.89 4.43 0
 1 -1 -3 4199.52 21.66 0
 1 -1 -2 9630.55 31.79 0
 1 -1 11 597.37 6.05 0
 1 0 -8 262.84 4.61 0
 1 0 -7 13.47 1.65 0
 1 0 -6 3.17 1.2 0
 1 0 -5 869.39 8.49 0
 1 0 -4 90.29 3.09 0
 1 1 -6 850.26 6.59 0
 1 4 -8 468.44 5.47 0
 2 -15 -3 14 8.74 0
 2 -15 -1 2.07 7.57 0
 2 -15 0 2.03 7.26 0
 2 -15 1 -4.31 6.84 0
 2 -15 2 6.28 8.25 0
 2 -14 -7 26.45 9.36 0
 2 -14 -6 154.85 16.38 0
 2 -14 -3 62.59 12.54 0
 2 -14 -1 29.04 10.22 0
 2 -14 0 259.3 18.45 0
 2 -14 1 20.39 9.32 0
 2 -14 2 27.13 8.98 0
 2 -14 3 52.48 10.46 0
 2 -14 4 144.72 13.39 0
 2 -14 5 36.72 8.7 0
 2 -13 -8 90.6 13.45 0
 2 -13 -7 9.21 7.67 0
 2 -13 -4 88.42 12.36 0
 2 -13 -3 105.03 13.06 0
 2 -13 -1 58.5 10.51 0
 2 -13 0 6.01 6.84 0
 2 -13 1 58.64 11.06 0
 2 -13 2 32.53 8.67 0
 2 -13 3 114.47 13.3 0
 2 -13 4 111.35 11.61 0
 2 -13 5 206.4 14.22 0
 2 -12 -10 112.49 15.05 0
 2 -12 -9 32.57 9.86 0
 2 -12 -8 17.1 8.67 0
 2 -12 -6 32.76 8.58 0
 2 -12 -5 58.55 10.59 0
 2 -12 -4 8.84 7.51 0
 2 -12 -3 58.89 10.8 0
 2 -12 -2 124.26 12.76 0
 2 -12 0 97.96 11.93 0
 2 -12 1 16.79 7.12 0
 2 -12 2 115.64 11.46 0
 2 -12 3 56.35 9.51 0
 2 -12 4 9.9 5.88 0
 2 -12 6 36.31 7.27 0
 2 -11 -11 59.14 10.91 0
 2 -11 -10 9.57 7.12 0
 2 -11 -9 157.9 14.49 0
 2 -11 -8 29.51 9.18 0
 2 -11 -7 97.29 12.8 0
 2 -11 -6 1.3 5.74 0
 2 -11 -5 96.39 11.64 0
 2 -11 -4 187.02 13.66 0
 2 -11 -3 282.98 15.9 0
 2 -11 0 149.81 12.06 0
 2 -11 1 92.4 11.11 0
 2 -11 2 196.26 13.52 0
 2 -11 3 286.28 15.24 0
 2 -11 4 173.56 12.8 0
 2 -11 5 97.56 10.33 0
 2 -11 6 7.23 4.81 0
 2 -11 7 100.03 9.23 0
 2 -10 -12 183.2 13.48 0
 2 -10 -11 127.03 12.14 0
 2 -10 -8 37.05 8.57 0
 2 -10 -7 16.22 7.31 0
 2 -10 -6 115.7 12.14 0
 2 -10 -5 116.27 10.88 0
 2 -10 -4 127.08 11.19 0
 2 -10 -3 302.81 15.59 0
 2 -10 -2 8.37 5.48 0
 2 -10 0 6.44 5.11 0
 2 -10 1 31.48 7.3 0
 2 -10 2 6.52 5.41 0
 2 -10 3 336.65 15.6 0
 2 -10 4 125.73 10.01 0
 2 -10 5 115.22 9.43 0
 2 -10 6 98.93 8.86 0
 2 -10 7 20.09 5.21 0
 2 -9 -11 22.18 6.94 0
 2 -9 -10 154.33 12.64 0
 2 -9 -9 29.14 7.08 0
 2 -9 -8 389.42 18.06 0
 2 -9 -7 58.95 8.51 0
 2 -9 -6 60.44 8.62 0
 2 -9 -5 128.28 10.67 0
 2 -9 -4 154.27 11.45 0
 2 -9 -2 94.76 8.69 0
 2 -9 -1 178.94 11.02 0
 2 -9 1 180.13 10.98 0
 2 -9 2 97.31 8.73 0
 2 -9 3 81.37 8.15 0
 2 -9 4 150.64 10.4 0
 2 -9 5 120.19 8.95 0
 2 -9 6 72.55 7.53 0
 2 -9 7 64.05 6.65 0
 2 -9 8 368.92 13.58 0
 2 -8 -13 103.81 9.96 0
 2 -8 -11 18.52 7.13 0
 2 -8 -10 78.1 9.51 0
 2 -8 -9 110.47 10.35 0
 2 -8 -6 26.64 6.54 0
 2 -8 -4 58.59 7.58 0
 2 -8 -3 145.73 9.81 0
 2 -8 -2 54.2 7.5 0
 2 -8 -1 184.24 10.89 0
 2 -8 2 42.91 6.64 0
 2 -8 3 156.41 9.65 0
 2 -8 4 67.02 6.84 0
 2 -8 5 262.46 11.64 0
 2 -8 6 22.87 4.44 0
 2 -7 -13 50.98 8.12 0
 2 -7 -12 29.63 7.06 0
 2 -7 -10 11.3 4.91 0
 2 -7 -9 105.55 9.78 0
 2 -7 -8 3.42 4.74 0
 2 -7 -7 128.51 10.22 0
 2 -7 -6 353.04 14.13 0
 2 -7 -4 383.57 14.44 0
 2 -6 -13 3.78 4.56 0
 2 -6 -12 106.75 9.02 0
 2 -6 -11 348.36 14.31 0
 2 -6 -8 28.34 5.44 0
 2 -6 1 992.47 19.7 0
 2 -6 2 476.74 13.7 0
 2 -6 3 209.88 9.28 0
 2 -6 5 680.81 15.52 0
 2 -6 6 20.46 3.82 0
 2 -6 7 693.61 15.35 0
 2 -6 8 29.57 4.2 0
 2 -6 9 183.37 7.73 0
 2 -5 -13 167.81 9.56 0
 2 -5 -12 51.86 6.47 0
 2 -5 -11 47.09 6.23 0
 2 -5 -4 152.18 8.42 0
 2 -5 3 64.07 5.03 0
 2 -5 4 151.17 7.39 0
 2 -5 5 252.31 8.91 0
 2 -5 6 309.36 9.68 0
 2 -5 7 1451.65 20.36 0
 2 -5 8 48.51 4.34 0
 2 -5 9 493.26 11.44 0
 2 -4 -10 100.52 7.37 0
 2 -4 -9 19.76 4.21 0
 2 -4 -8 23.49 4.34 0
 2 -4 -7 297.11 10.73 0
 2 -4 -6 172.43 8.29 0
 2 -4 -5 52.02 4.86 0
 2 -4 -3 324.42 10.2 0
 2 -4 -2 154.5 7.33 0
 2 -4 -1 103.83 5.91 0
 2 -4 0 457.1 11.65 0
 2 -4 1 101.97 5.83 0
 2 -4 6 177.53 7.27 0
 2 -4 7 296.61 8.97 0
 2 -3 -13 31.71 4.11 0
 2 -3 -10 477.96 12.48 0
 2 -3 -8 228.1 8.55 0
 2 -3 -7 5.38 2.71 0
 2 -3 -6 2053.1 24.14 0
 2 -3 -5 140.39 6.88 0
 2 -3 -4 143.75 6.54 0
 2 -3 -3 167.09 7.39 0
 2 -3 -2 2531.26 25.65 0
 2 -3 1 374.74 9.82 0
 2 -3 2 2538.07 24.85 0
 2 -3 8 230.02 7.35 0
 2 -3 9 372.23 9.2 0
 2 -2 -12 37.41 3.7 0
 2 -2 -11 487.51 11.12 0
 2 -2 -9 545.35 11.74 0
 2 -2 -8 253.9 8.22 0
 2 -2 -7 120.71 5.77 0
 2 -2 -6 1385.95 17.98 0
 2 -2 -5 699.69 13 0
 2 -2 -4 555.2 11.69 0
 2 -2 -2 205.22 7.14 0
 2 -1 -12 13.12 2.17 0
 2 -1 -11 265.91 7.12 0
 2 -1 -10 447.23 9.45 0
 2 -1 -9 34.71 3.29 0
 2 -1 -8 262.27 7.51 0
 2 -1 -7 24.68 3.02 0
 2 -1 -6 0.18 2.06 0
 2 -1 -5 75.38 4.3 0
 2 0 -11 103.7 3.63 0
 2 0 -10 21.47 2.53 0
 2 0 -9 235.87 6.18 0
 2 0 -8 201.39 5.88 0
 2 0 -7 761.7 11.49 0
 2 0 -6 95.19 4.41 0
 2 1 -10 448.59 6.24 0
 2 1 -9 42.76 2.61 0
 2 1 -8 256.39 6.1 0
 2 2 -9 555.53 7.24 0
 3 -14 -5 13.94 8.66 0
 3 -14 -4 5.75 7.46 0
 3 -14 -3 23.35 9.51 0
 3 -14 -2 4.37 8.83 0
 3 -14 -1 3.1 7.82 0
 3 -14 0 101.63 13.59 0
 3 -14 3 37.45 10.11 0
 3 -14 4 6.62 6.53 0
 3 -14 5 11.73 7.14 0
 3 -13 -8 8.68 7.87 0
 3 -13 -7 101.57 14.02 0
 3 -13 -5 76.95 13.2 0
 3 -13 -4 -5.19 7.57 0
 3 -13 -3 156.71 15.86 0
 3 -13 -2 10.52 7.84 0
 3 -13 -1 23.19 8.37 0
 3 -13 0 17.37 7.88 0
 3 -13 1 25.11 9.26 0
 3 -13 2 28.04 8.66 0
 3 -13 3 153.82 13.51 0
 3 -13 4 0.37 7.37 0
 3 -13 6 32.83 8.97 0
 3 -12 -11 54.69 11.19 0
 3 -12 -10 32.99 9.09 0
 3 -12 -9 6.61 7.13 0
 3 -12 -8 26.17 8.8 0
 3 -12 -7 168.93 14.91 0
 3 -12 -6 119.56 14.66 0
 3 -12 -5 214.75 15.8 0
 3 -12 -4 54.92 11.46 0
 3 -12 -3 36.69 10.26 0
 3 -12 -2 61.26 10.61 0
 3 -12 0 -0.64 7.54 0
 3 -12 2 46.79 9.86 0
 3 -12 3 29.89 9.05 0
 3 -12 4 64.44 10.23 0
 3 -12 5 240.24 15.46 0
 3 -12 6 110.53 10.88 0
 3 -11 -13 30.89 8.91 0
 3 -11 -12 22.35 8.3 0
 3 -11 -11 4.82 7.62 0
 3 -11 -10 61.04 10.82 0
 3 -11 -9 92.08 13.02 0
 3 -11 -8 3.38 7.52 0
 3 -11 -6 68.57 10.9 0
 3 -11 -5 82.4 11.38 0
 3 -11 -4 26.04 8.16 0
 3 -11 -3 140.14 13.57 0
 3 -11 -2 246.55 16.32 0
 3 -11 -1 12.33 6.61 0
 3 -11 0 256.98 15.72 0
 3 -11 1 11.64 6.46 0
 3 -11 2 242.68 15.32 0
 3 -11 3 153 12.28 0
 3 -11 4 21.39 7.67 0
 3 -11 5 93.03 9.85 0
 3 -11 6 55.15 8.03 0
 3 -11 7 17.83 6.12 0
 3 -10 -13 104.38 11.62 0
 3 -10 -12 14.75 7.58 0
 3 -10 -11 19.73 7.85 0
 3 -10 -10 44.03 8.92 0
 3 -10 -9 143.99 13.79 0
 3 -10 -8 97.88 11.22 0
 3 -10 -7 16.78 6.98 0
 3 -10 -5 355.98 17.96 0
 3 -10 -3 374.01 18.15 0
 3 -10 0 51.54 8.92 0
 3 -10 1 42.77 8.01 0
 3 -10 2 220.73 13.56 0
 3 -10 4 105.62 10.88 0
 3 -10 5 363.49 16.25 0
 3 -10 6 46.69 7.57 0
 3 -9 -14 12.2 6.61 0
 3 -9 -13 9.06 7.32 0
 3 -9 -12 -3.92 4.68 0
 3 -9 -11 35.01 8.04 0
 3 -9 -10 21.74 6.69 0
 3 -9 -9 58.02 9.19 0
 3 -9 -8 191.02 14.19 0
 3 -9 -6 80.72 9.2 0
 3 -9 -5 15.26 6.02 0
 3 -9 -4 298.2 15.78 0
 3 -9 -3 135.31 10.75 0
 3 -9 -1 103.98 10.03 0
 3 -9 0 83.98 9.14 0
 3 -9 1 115.09 10.25 0
 3 -9 3 116.58 9.79 0
 3 -9 5 20.04 5.79 0
 3 -9 6 64.35 8.37 0
 3 -9 7 99.68 8.45 0
 3 -8 -14 9.14 6.57 0
 3 -8 -13 50.68 8.68 0
 3 -8 -12 463.59 19.4 0
 3 -8 -11 14.34 6.13 0
 3 -8 -10 39.99 7.71 0
 3 -8 -9 32.1 7.22 0
 3 -8 -7 55.7 9.06 0
 3 -8 -6 229.77 13.27 0
 3 -8 -4 82.23 8.52 0
 3 -8 -3 66.41 8.47 0
 3 -8 -2 144.43 10.2 0
 3 -8 -1 28.04 5.88 0
 3 -8 1 25.18 5.77 0
 3 -8 2 145.26 10.56 0
 3 -8 3 67.87 8.57 0
 3 -8 4 74.77 8.81 0
 3 -8 6 218.06 11.4 0
 3 -8 8 45.41 6.49 0
 3 -7 -14 7.42 5.42 0
 3 -7 -13 66.23 9.09 0
 3 -7 -11 56.04 8.23 0
 3 -7 -10 21.91 6.51 0
 3 -7 -8 145.85 10.85 0
 3 -7 -7 432.98 16.97 0
 3 -7 -5 8.16 5.19 0
 3 -7 -3 96.32 8.47 0
 3 -7 -2 322.63 13.87 0
 3 -7 0 2.29 3.32 0
 3 -7 1 329.46 13.78 0
 3 -7 2 344.52 13.92 0
 3 -7 3 93.28 8.4 0
 3 -7 4 18.18 5.41 0
 3 -7 5 8.69 4.22 0
 3 -7 6 295.81 12.74 0
 3 -7 7 420.24 14.61 0
 3 -7 8 158.56 9.27 0
 3 -7 9 27.64 4.76 0
 3 -6 -13 111.8 9.53 0
 3 -6 -12 10.99 5.42 0
 3 -6 -11 50.27 7.72 0
 3 -6 -10 30.85 6.54 0
 3 -6 -9 97.99 8.91 0
 3 -6 -8 32.72 6.12 0
 3 -6 -7 289.13 13.02 0
 3 -6 -5 301.45 13.45 0
 3 -6 -4 170.28 9.85 0
 3 -6 -2 45.68 6.08 0
 3 -6 -1 56.2 6.65 0
 3 -6 1 49.46 6.09 0
 3 -6 2 43.41 5.81 0
 3 -5 -13 2.99 4.36 0
 3 -5 -11 80.35 8.04 0
 3 -5 -10 505.48 16.15 0
 3 -5 -8 156.04 9.47 0
 3 -5 -7 21.33 5.5 0
 3 -5 -6 5.19 3.74 0
 3 -4 -13 17.43 4.36 0
 3 -4 -12 66.99 6.3 0
 3 -4 -11 3.83 4.17 0
 3 -4 1 92.62 7.03 0
 3 -4 2 69.88 6.35 0
 3 -4 5 228.8 9.89 0
 3 -4 10 50.97 4.68 0
 3 -3 -5 431.55 12.81 0
 3 -3 -4 170.19 8.74 0
 3 -3 -3 331.86 11.26 0
 3 -3 10 96.68 6.23 0
 3 -2 -12 16.79 3.66 0
 3 -2 -11 131.55 7.24 0
 3 -2 -9 80.54 6.23 0
 3 -2 -7 79.97 5.95 0
 3 -2 -6 183.52 8.21 0
 3 -2 -5 140.39 7.69 0
 3 -2 -4 168.36 8.04 0
 3 -1 -12 7.66 2.68 0
 3 -1 -11 361.84 10.09 0
 3 -1 -10 203.96 7.95 0
 3 -1 -9 167.5 7.24 0
 3 -1 -8 59.99 5.2 0
 3 -1 -7 622.98 13.91 0
 3 0 -11 129.75 5.82 0
 3 0 -10 -0.19 2.19 0
 3 0 -9 408.57 10.46 0
 3 0 -8 0.06 2.58 0
 3 1 -11 351.32 8.14 0
 3 1 -10 198.33 6.72 0
 3 1 -9 182.46 6.93 0
 3 2 -10 72.81 4.26 0
 4 -13 -5 41.74 11.33 0
 4 -13 -4 15.45 8.28 0
 4 -13 -3 64.8 11.8 0
 4 -13 -2 14.04 8.66 0
 4 -13 -1 35.07 9.82 0
 4 -13 0 -4.14 6.85 0
 4 -13 2 15.68 8.3 0
 4 -13 3 53.59 11.45 0
 4 -13 4 19.37 7.57 0
 4 -13 5 41.45 9.86 0
 4 -12 -9 36.72 10.61 0
 4 -12 -8 1.73 7.65 0
 4 -12 -7 130.36 15.8 0
 4 -12 -6 125.31 14.4 0
 4 -12 -3 78.5 11.96 0
 4 -12 -2 26.39 8.66 0
 4 -12 -1 115.02 15.17 0
 4 -12 1 127.81 14.82 0
 4 -12 2 24.99 9.67 0
 4 -12 3 83.59 12.17 0
 4 -12 4 16.05 7.06 0
 4 -12 5 23.28 8.21 0
 4 -12 6 145.03 13.44 0
 4 -11 -11 81.59 12.17 0
 4 -11 -10 4.88 7.64 0
 4 -11 -9 19.71 8.18 0
 4 -11 -8 88.82 12.57 0
 4 -11 -7 82.72 12.17 0
 4 -11 -6 66.5 11.35 0
 4 -11 -5 124.84 14.53 0
 4 -11 -4 78.64 11.62 0
 4 -11 -3 38.95 8.92 0
 4 -11 -2 42.66 9.04 0
 4 -11 0 4.89 7.03 0
 4 -11 1 74.45 10.8 0
 4 -11 2 47.85 9.28 0
 4 -11 3 49.02 9.18 0
 4 -11 4 86.25 11.04 0
 4 -11 5 138.54 12.82 0
 4 -11 7 90.88 11.06 0
 4 -10 -12 6.49 6.42 0
 4 -10 -11 22.37 8.11 0
 4 -10 -10 6.94 6.98 0
 4 -10 -9 15.67 8.66 0
 4 -10 -8 18.9 7.68 0
 4 -10 -6 37.16 8.81 0
 4 -10 -5 8.33 6.84 0
 4 -10 -4 85.21 11.17 0
 4 -10 -3 21.51 8.79 0
 4 -10 -2 167.45 14.28 0
 4 -10 -1 35.67 9.13 0
 4 -10 0 135.7 12.65 0
 4 -10 3 32.43 7.59 0
 4 -10 4 95.88 10.85 0
 4 -10 5 4.52 6.11 0
 4 -10 6 30.67 8.31 0
 4 -10 7 3.54 5.61 0
 4 -9 -13 25.94 8.07 0
 4 -9 -12 56.79 9.25 0
 4 -9 -11 59.85 10.15 0
 4 -9 -10 7.69 6.88 0
 4 -9 -8 19.01 7.59 0
 4 -9 -7 48.51 9.04 0
 4 -9 -5 127.75 11.93 0
 4 -9 -3 224.66 14.28 0
 4 -9 -1 23.91 7 0
 4 -9 0 34.64 7.69 0
 4 -9 1 34.32 7.6 0
 4 -9 2 15.5 6.14 0
 4 -9 3 219.48 14.06 0
 4 -9 4 101.18 10.02 0
 4 -9 5 146.71 12.03 0
 4 -9 6 -0.12 4.76 0
 4 -9 7 44.46 7.58 0
 4 -9 8 23.32 5.9 0
 4 -8 -13 68.65 9.69 0
 4 -8 -12 28.48 7.56 0
 4 -8 -11 12.71 7.13 0
 4 -8 -10 169.4 13.48 0
 4 -8 -9 129.93 12.16 0
 4 -8 -8 76.34 10.62 0
 4 -8 -7 247.42 14.76 0
 4 -8 -6 162.07 12.38 0
 4 -8 -5 359.29 17.26 0
 4 -8 -4 107.33 10.14 0
 4 -8 -3 23.13 6.63 0
 4 -8 -2 329.67 16.04 0
 4 -8 -1 82.6 10.02 0
 4 -8 0 13.2 5.89 0
 4 -8 1 98.01 9.62 0
 4 -8 2 317.38 15.9 0
 4 -8 3 21.88 6.62 0
 4 -8 5 343.47 15.89 0
 4 -8 6 152.54 11.34 0
 4 -8 7 215.13 12.47 0
 4 -8 8 72.63 8.41 0
 4 -7 -13 28.13 7.11 0
 4 -7 -12 4.12 5.33 0
 4 -7 -11 17.44 6.62 0
 4 -7 -10 95.45 10.35 0
 4 -7 -9 40.6 8.41 0
 4 -7 -8 61.36 9.33 0
 4 -7 -7 107.14 9.9 0
 4 -7 -5 0.31 4.57 0
 4 -7 -4 156.39 11.22 0
 4 -7 -3 113.92 10.21 0
 4 -7 -2 67 8.25 0
 4 -7 -1 37.29 7.09 0
 4 -7 0 245.67 13.38 0
 4 -7 1 32.2 7.12 0
 4 -7 2 68.15 8.12 0
 4 -7 3 127.91 10.43 0
 4 -7 4 137.97 10.59 0
 4 -7 5 3.55 4.58 0
 4 -7 6 125.37 9.84 0
 4 -7 7 96.44 8.56 0
 4 -7 9 43.67 6.45 0
 4 -6 -13 12.34 5.62 0
 4 -6 -12 79.84 8.45 0
 4 -6 -11 26.83 6.21 0
 4 -6 -10 43.07 7.42 0
 4 -6 -9 37.24 7.47 0
 4 -6 -8 66.95 8.95 0
 4 -6 -6 97.39 9.41 0
 4 -6 -4 432.39 16.56 0
 4 -6 -3 204.53 11.65 0
 4 -6 -2 41.33 6.69 0
 4 -6 -1 201.58 11.36 0
 4 -6 0 329.85 14.42 0
 4 -6 1 203.01 12.02 0
 4 -6 2 42.39 6.58 0
 4 -6 3 218.85 12.26 0
 4 -6 4 418.63 15.88 0
 4 -6 5 225.92 12.41 0
 4 -6 6 78.71 7.68 0
 4 -6 7 4.8 4.73 0
 4 -6 8 76.46 7.9 0
 4 -6 9 40.34 6.02 0
 4 -5 -13 42.2 6.55 0
 4 -5 -12 43.79 6.75 0
 4 -5 -11 8.37 5.62 0
 4 -5 -9 30.73 6.88 0
 4 -5 -8 56.61 7.43 0
 4 -5 -7 69.4 8.44 0
 4 -5 -6 58.72 7.33 0
 4 -5 -5 375.37 14.74 0
 4 -5 -4 471.98 16.61 0
 4 -5 -1 272.14 12.51 0
 4 -5 0 222.94 11.67 0
 4 -5 1 269.52 12.91 0
 4 -5 2 129.74 9.64 0
 4 -5 4 468.64 16.42 0
 4 -5 5 351.91 14.33 0
 4 -5 6 65.17 7.12 0
 4 -5 7 66.41 7.94 0
 4 -5 8 50.01 6.61 0
 4 -5 9 36.31 5.76 0
 4 -5 10 49.37 6.28 0
 4 -4 -12 212.54 11.04 0
 4 -4 -11 112.41 8.56 0
 4 -4 -10 418.3 15.61 0
 4 -4 -9 100.5 8.89 0
 4 -4 -8 597.48 18.22 0
 4 -4 -7 246.6 11.87 0
 4 -4 -5 104.5 8.79 0
 4 -4 -4 59.24 6.95 0
 4 -4 -2 38.54 6.18 0
 4 -4 0 137.17 8.87 0
 4 -4 3 15.26 4.7 0
 4 -4 4 57 6.72 0
 4 -4 5 98.75 8.37 0
 4 -4 6 5.73 4.06 0
 4 -4 8 547.46 16.64 0
 4 -4 9 102.54 7.69 0
 4 -4 10 410.29 14.25 0
 4 -3 -12 42.62 5.96 0
 4 -3 -11 31.56 5.58 0
 4 -3 -10 3.28 3.79 0
 4 -3 -9 37.9 6.39 0
 4 -3 -8 38.84 6.25 0
 4 -3 -7 518.79 16.31 0
 4 -3 -5 79.95 7.61 0
 4 -3 -4 175.39 9.82 0
 4 -3 -3 114.04 8.17 0
 4 -3 -2 201.13 10.19 0
 4 -2 -12 56.19 6.1 0
 4 -2 -11 0.05 3.35 0
 4 -2 -9 42.12 5.76 0
 4 -2 -8 29.52 5.24 0
 4 -2 -7 32.05 5.32 0
 4 1 -11 11.5 3 0
 5 -12 -1 65.17 11.95 0
 5 -12 0 6.57 7.46 0
 5 -12 1 67.14 12.64 0
 5 -12 2 27.59 9.11 0
 5 -12 3 37.76 10.57 0
 5 -12 4 5.33 7.08 0
 5 -12 5 -3.46 5.98 0
 5 -11 -7 13.9 7.99 0
 5 -11 -5 35.07 10.06 0
 5 -11 -4 46.88 10.16 0
 5 -11 -3 0.27 7.15 0
 5 -11 -2 195.28 16.06 0
 5 -11 -1 -3.78 6.42 0
 5 -11 0 10.46 7.73 0
 5 -11 1 -1.93 6.04 0
 5 -11 2 208.56 16.38 0
 5 -11 3 3.41 6.68 0
 5 -11 5 34.45 9.38 0
 5 -11 6 9.65 6.87 0
 5 -11 7 17.21 6.55 0
 5 -10 -10 19.04 8.4 0
 5 -10 -9 6.8 7.15 0
 5 -10 -8 36.64 9.18 0
 5 -10 -7 133.6 13.29 0
 5 -10 -6 106.79 12.9 0
 5 -10 -5 37.38 9.49 0
 5 -10 -4 25.28 8.17 0
 5 -10 -3 91.32 12.86 0
 5 -10 -2 38.42 9.22 0
 5 -10 -1 89.55 12.5 0
 5 -10 0 176.44 14.77 0
 5 -10 2 50.3 9.45 0
 5 -10 3 105.77 12.89 0
 5 -10 4 27.07 8.21 0
 5 -10 5 29.48 8.77 0
 5 -10 6 107.89 11.34 0
 5 -10 7 156.66 12.72 0
 5 -9 -11 43.73 9.73 0
 5 -9 -8 51.93 9.9 0
 5 -9 -7 64.26 10.74 0
 5 -9 -4 11.13 8.13 0
 5 -9 -3 128.27 12.34 0
 5 -9 -1 109.3 12.92 0
 5 -9 0 47.94 9.2 0
 5 -9 1 92.63 12.07 0
 5 -9 2 1.48 5.91 0
 5 -9 5 113.16 11.79 0
 5 -9 7 55.97 9.87 0
 5 -9 8 48.82 8.24 0
 5 -8 -10 8.88 6.63 0
 5 -8 -8 106.68 13.04 0
 5 -8 -6 61.18 10.26 0
 5 -8 -5 -1.91 5.83 0
 5 -8 -2 68.8 9.96 0
 5 -8 -1 38.74 8.12 0
 5 -8 1 43.37 8.96 0
 5 -8 2 60.61 9.56 0
 5 -8 3 26.5 8.16 0
 5 -8 4 131.95 12.34 0
 5 -8 5 -1.57 4.95 0
 5 -8 6 66.1 9.99 0
 5 -8 7 64.82 9.03 0
 5 -8 8 95.93 10.17 0
 5 -7 -12 88.33 10.95 0
 5 -7 -11 7.1 6.22 0
 5 -7 -10 25.49 7.19 0
 5 -7 -9 67.91 10 0
 5 -7 -8 74.68 10.42 0
 5 -7 -7 149.15 13.53 0
 5 -7 -6 153 12.88 0
 5 -7 -4 88.8 10.52 0
 5 -7 -3 61.79 9.53 0
 5 -7 -2 163.77 12.27 0
 5 -7 -1 77.07 9.6 0
 5 -7 0 26.95 7.12 0
 5 -7 1 97.36 9.92 0
 5 -7 2 160.75 12.66 0
 5 -7 3 57.45 8.59 0
 5 -7 5 156.15 12.21 0
 5 -7 6 166.36 12.45 0
 5 -7 7 151.78 12.06 0
 5 -7 8 83.35 10.25 0
 5 -7 9 53.63 7.78 0
 5 -6 -11 10.72 5.96 0
 5 -6 -9 24.31 7.05 0
 5 -6 -8 69.93 9.26 0
 5 -6 -7 6.75 5.72 0
 5 -6 -5 1.27 5.82 0
 5 -6 -4 2.59 5.63 0
 5 -6 -3 68.84 9.39 0
 5 -6 -2 130.44 10.87 0
 5 -6 -1 29.32 6.55 0
 5 -6 0 258.57 14.62 0
 5 -6 1 16.89 6.25 0
 5 -6 2 143.48 11.14 0
 5 -6 3 87.98 10.11 0
 5 -6 5 2.75 5.93 0
 5 -6 6 18.8 6.05 0
 5 -6 7 15.5 6.83 0
 5 -6 9 27.04 6.17 0
 5 -5 -12 84.37 10.17 0
 5 -5 -11 36.14 7.37 0
 5 -5 -9 24.76 6.63 0
 5 -5 -8 8.96 5.53 0
 5 -5 -7 56.77 8.47 0
 5 -5 -6 144.85 10.96 0
 5 -5 -5 6.71 5.35 0
 5 -5 -3 92.85 9.92 0
 5 -5 -2 281.59 14.51 0
 5 -5 0 26.24 6.39 0
 5 -5 1 69.41 8.7 0
 5 -5 2 280.12 14.85 0
 5 -5 3 92.02 9.06 0
 5 -5 4 204.51 13.14 0
 5 -5 5 7.59 5.54 0
 5 -5 6 137.94 10.75 0
 5 -5 8 11.44 5.84 0
 5 -5 9 21.69 6.58 0
 5 -5 10 94.44 8.72 0
 5 -4 -12 36.42 6.98 0
 5 -4 -11 125.48 10.54 0
 5 -4 -10 40.68 7.85 0
 5 -4 -9 228.58 13.2 0
 5 -4 -8 22.35 6.22 0
 5 -4 -7 25.29 6.36 0
 5 -4 -6 77.98 9.18 0
 5 -4 -5 4.24 5.22 0
 5 -4 -4 42.89 7.31 0
 5 -4 -3 239.44 13.33 0
 5 -4 -2 42.08 7.23 0
 5 -4 -1 32.82 6.16 0
 5 -4 0 13.38 5.93 0
 5 -4 1 36.16 6.91 0
 5 -4 2 42.5 7.42 0
 5 -4 3 227.09 12.75 0
 5 -4 5 2.92 5.16 0
 5 -4 6 80.01 8.72 0
 5 -4 7 29.66 6.65 0
 5 -4 8 16.48 5.71 0
 5 -4 10 38.6 6.53 0
 5 -3 -12 44.5 6.76 0
 5 -3 -11 39.89 6.77 0
 5 -3 -9 22.65 6.28 0
 5 -3 -8 81.62 9.22 0
 5 -3 -7 11.06 5.41 0
 5 -3 -6 41.08 7.02 0
 5 -3 -5 163.4 11.4 0
 5 -3 -4 4.36 4.58 0
 5 -3 -2 12.08 5.14 0
 5 -2 -11 112.42 8.89 0
 5 -2 -10 -0.01 4.07 0
 5 -2 -9 65.92 7.86 0
 5 -2 -8 30.88 5.85 0
 5 -2 -7 23.17 5.82 0
 5 -2 -6 56.34 7.71 0
 5 -2 -5 393.25 15.52 0
 5 -1 -10 263.66 12.2 0
 5 -1 -9 50.39 7.18 0
 5 -1 -8 68.42 7.69 0
 5 -1 -7 26.87 5.79 0
 5 0 -11 1.67 3.37 0
 5 0 -10 -3.54 3.52 0
 5 0 -9 27.75 5.91 0
 5 0 -8 547.67 16.96 0
 5 1 -10 270.59 11.84 0
 5 1 -9 49.71 6.93 0
 6 -10 -4 82.74 13.13 0
 6 -10 -3 8.65 7.67 0
 6 -10 -2 -0.66 7.45 0
 6 -10 -1 16.15 8.14 0
 6 -10 0 23.22 9.31 0
 6 -10 1 9.96 7.47 0
 6 -10 3 15.92 8.33 0
 6 -10 5 7.19 6.89 0
 6 -10 6 5.7 7.07 0
 6 -9 -7 -3.41 6.8 0
 6 -9 -6 129.66 15.16 0
 6 -9 -5 98.03 13.68 0
 6 -9 -4 3.91 7 0
 6 -9 -1 100.73 13.71 0
 6 -9 0 34 9.1 0
 6 -9 1 107.92 13.03 0
 6 -9 2 137.93 13.94 0
 6 -9 3 76.94 12.15 0
 6 -9 4 14.29 7.85 0
 6 -9 5 107.51 11.9 0
 6 -9 6 111.15 13.62 0
 6 -9 7 2.35 5.96 0
 6 -8 -10 59.6 10.56 0
 6 -8 -9 22.17 8.25 0
 6 -8 -8 39.12 10.38 0
 6 -8 -7 45.77 10.61 0
 6 -8 -6 27.68 8.62 0
 6 -8 -5 53.94 10.43 0
 6 -8 -4 29.91 9.05 0
 6 -8 -3 28.4 8.52 0
 6 -8 -2 5.1 6.38 0
 6 -8 -1 35.05 8.86 0
 6 -8 0 20.03 7.83 0
 6 -8 1 31.26 9 0
 6 -8 2 13.63 7.17 0
 6 -8 3 40.69 9.23 0
 6 -8 4 28.95 8.38 0
 6 -8 5 54.57 9.54 0
 6 -8 6 41.88 9.44 0
 6 -8 7 32.26 8.27 0
 6 -8 8 41 8.74 0
 6 -7 -11 45.32 9.2 0
 6 -7 -9 25.64 8.57 0
 6 -7 -8 27.74 8.6 0
 6 -7 -7 81.44 11.35 0
 6 -7 -6 91.06 11.68 0
 6 -7 -5 50.44 9.6 0
 6 -7 -1 52.13 9.55 0
 6 -7 0 41.27 9.31 0
 6 -7 2 163.81 13.12 0
 6 -7 3 18.06 7.22 0
 6 -7 5 35.35 8.5 0
 6 -7 6 67.9 10.28 0
 6 -7 7 78.03 10.62 0
 6 -7 8 38.24 8.47 0
 6 -7 9 16.49 6.14 0
 6 -6 -9 3.22 6.74 0
 6 -6 -8 7.19 6.76 0
 6 -6 -5 76.2 11.2 0
 6 -6 -4 187.01 14.06 0
 6 -6 -3 83.08 10.64 0
 6 -6 -2 169.12 13.78 0
 6 -6 -1 309.21 17.86 0
 6 -6 0 11.63 7.75 0
 6 -6 3 83.19 11.37 0
 6 -6 4 197.76 15.04 0
 6 -6 5 79.53 11.37 0
 6 -6 6 16.36 6.48 0
 6 -6 7 23.48 7.98 0
 6 -6 8 7.4 6.54 0
 6 -6 9 11.14 6.59 0
 6 -5 -10 8.88 5.9 0
 6 -5 -9 27.75 8.43 0
 6 -5 -7 17.68 6.91 0
 6 -5 -6 7.41 6.81 0
 6 -5 -5 13.61 6.87 0
 6 -5 -4 14.48 7.05 0
 6 -5 -3 68.41 10.47 0
 6 -5 -2 3.14 5.55 0
 6 -5 -1 53.53 9.7 0
 6 -5 1 54.17 9.61 0
 6 -5 2 0.87 5.52 0
 6 -5 3 87.85 11.58 0
 6 -5 4 13.97 6.95 0
 6 -5 6 2.02 6.24 0
 6 -5 7 15.21 6.63 0
 6 -5 8 118.11 11.12 0
 6 -5 9 27.02 7.24 0
 6 -5 10 7.7 5.45 0
 6 -4 -11 2.93 5.22 0
 6 -4 -10 66.27 9.4 0
 6 -4 -9 92.86 11.46 0
 6 -4 -8 80 11.09 0
 6 -4 -7 13.21 6.9 0
 6 -4 -5 18.43 6.94 0
 6 -4 -4 15.44 7.62 0
 6 -4 -3 4.61 5.7 0
 6 -4 -2 57.37 8.98 0
 6 -4 -1 85.39 11.02 0
 6 -4 0 5.18 6.27 0
 6 -4 2 75.26 9.79 0
 6 -4 3 10.65 6.6 0
 6 -4 4 8.66 5.85 0
 6 -4 5 31.99 7.57 0
 6 -4 6 31.74 7.76 0
 6 -4 7 4.91 5.52 0
 6 -4 8 48.58 9.11 0
 6 -4 9 113.85 11.6 0
 6 -3 -11 153.94 11.81 0
 6 -3 -10 115.74 10.92 0
 6 -3 -9 34.06 7.49 0
 6 -3 -8 97.16 11.09 0
 6 -3 -6 75.42 10.38 0
 6 -3 -5 12.78 6.23 0
 6 -3 -2 93.93 10.65 0
 6 -3 -1 0.86 5.18 0
 6 -3 10 113.86 11.26 0
 6 -2 -11 27.83 6.53 0
 6 -2 -10 8.11 5.5 0
 6 -2 -9 6.28 6.11 0
 6 -2 -8 10.67 5.65 0
 6 -2 -7 0.46 4.95 0
 6 -2 -6 66.04 9.15 0
 6 -2 -5 -1.03 5.51 0
 6 -2 -4 19.64 6.52 0
 6 -1 -10 0.7 5.05 0
 6 -1 -9 34.7 7.33 0
 6 -1 -8 63.39 8.59 0
 6 -1 -7 110.34 10.89 0
 6 -1 -6 311.53 15.67 0
 6 0 -10 186.22 11.8 0
 6 0 -9 4.08 5.03 0
 6 0 -8 281.68 14.77 0
 6 0 -7 24.43 6.56 0
 6 1 -10 1.17 4.36 0
 6 1 -9 38.8 7.26 0
 7 -7 -5 11.35 8.42 0
 7 -7 -4 18.73 8.29 0
 7 -7 -2 15.67 7.85 0
 7 -7 -1 33.88 9.15 0
 7 -7 0 -1.95 6.55 0
 7 -7 1 16.17 8.35 0
 7 -7 2 9.17 7.2 0
 7 -7 3 48.54 9.98 0
 7 -7 4 28.99 9.84 0
 7 -7 5 7.83 7.16 0
 7 -6 -7 1.87 7.97 0
 7 -6 -6 49.76 10.42 0
 7 -6 -5 37.53 9.83 0
 7 -6 -3 33.45 9.12 0
 7 -6 -1 -2.62 6.97 0
 7 -6 0 11.03 7.65 0
 7 -6 1 1.36 6.51 0
 7 -6 3 38.5 9.08 0
 7 -6 4 16.35 7.63 0
 7 -6 5 39.84 9.01 0
 7 -6 6 47.86 10 0
 7 -6 7 2.07 6.01 0
 7 -6 8 24.47 8.36 0
 7 -5 -9 8.18 6.81 0
 7 -5 -8 20.84 7.63 0
 7 -5 -7 96.64 12.84 0
 7 -5 -6 76.76 11.11 0
 7 -5 -5 3.4 6.89 0
 7 -5 -4 11.55 7.84 0
 7 -5 -2 28.73 9.05 0
 7 -5 -1 309.44 18.67 0
 7 -5 0 60.55 10.29 0
 7 -5 1 310.01 19.16 0
 7 -5 3 7.08 7.69 0
 7 -5 4 14.66 7.87 0
 7 -5 5 15.48 7.8 0
 7 -5 6 91.7 12.78 0
 7 -5 7 58.75 9.77 0
 7 -5 8 30.86 8.34 0
 7 -5 9 16.35 7.28 0
 7 -4 -9 13.4 7 0
 7 -4 -8 -1.58 5.81 0
 7 -4 -7 3.34 6.53 0
 7 -4 -6 157.18 14.16 0
 7 -4 -5 26.52 8.36 0
 7 -4 -4 37.12 8.97 0
 7 -4 -3 6.43 8.17 0
 7 -4 -2 14.69 7.45 0
 7 -4 -1 191.32 15.21 0
 7 -4 0 88.26 12.1 0
 7 -4 1 184.76 14.55 0
 7 -4 2 8.69 7.21 0
 7 -4 3 8.99 6.91 0
 7 -4 4 43.67 10.11 0
 7 -4 5 27.62 8.88 0
 7 -4 6 154.18 13.45 0
 7 -4 8 6.03 6.44 0
 7 -4 9 7.58 6.33 0
 7 -3 -9 48.62 9.83 0
 7 -3 -8 39.49 9.1 0
 7 -3 -7 22.56 7.51 0
 7 -3 -5 7.3 6.32 0
 7 -3 -4 139.85 12.92 0
 7 -3 -1 60.36 11.21 0
 7 -3 0 9.26 6.91 0
 7 -3 1 54.12 10.44 0
 7 -3 2 103.73 12.42 0
 7 -3 4 146.51 13.56 0
 7 -3 6 4.16 6.64 0
 7 -3 7 16.23 7.3 0
 7 -3 8 33.88 8.84 0
 7 -3 9 47.36 10.34 0
 7 -3 10 31.3 8.62 0
 7 -2 -9 29.69 7.36 0
 7 -2 -7 -6.65 4.71 0
 7 -2 -5 6.05 6.32 0
 7 -2 -2 88.21 12.17 0
 7 -1 -9 56.84 9.21 0
 7 -1 -8 73.6 10.01 0
 7 -1 -7 -4.61 4.95 0
 7 -1 -6 36.73 8.29 0
 7 0 -9 6.06 5.53 0
 7 0 -8 6.93 5.95 0
 7 0 -7 197.13 14.22 0
 7 1 -9 63.86 9.38 0
 7 1 -8 61.15 8.99 0
 8 -2 -3 68.78 11.34 0
 8 -2 -2 10.5 8.03 0
 8 -2 -1 -2.64 6.72 0
 8 -2 0 14.34 8.3 0
 8 -2 1 0.59 7.18 0
 8 -2 2 16.32 8.57 0
 8 -1 -4 10.2 7.03 0
 8 -1 -3 17.71 8.47 0
 8 -1 -2 6.43 7.42 0
 8 0 -4 50.17 11.16 0
 -2 -6 5 709.15 5.76 0
 -1 -6 6 331.83 3.86 0
 -1 -1 1 1099.36 9.53 0
 0 -7 6 16.95 1.43 0
 0 -6 5 13.96 1.42 0
 0 -6 6 156.68 4.46 0
 0 -6 9 829.77 14.14 0
 0 -6 10 57.58 4.46 0
 0 -5 3 1023.17 7.24 0
 0 -5 4 1150 9.4 0
 0 -5 6 169.03 5.18 0
 0 -4 3 1541.9 9.89 0
 0 -4 4 461.9 6.66 0
 0 -3 3 4605.62 18.12 0
 0 3 0 -1.82 0.76 0
 0 4 0 1127.44 9.41 0
 0 6 -1 29.33 1.73 0
 0 7 -1 878.63 7.87 0
 1 -8 5 99.66 4.35 0
 1 -7 6 130.65 5.45 0
 1 -7 7 151.68 6.16 0
 1 -7 8 45.61 3.98 0
 1 -6 2 322.75 7.64 0
 1 -6 3 37.21 3.17 0
 1 -6 4 146.94 5.5 0
 1 -6 7 641.09 12.71 0
 1 -6 8 6.12 2.41 0
 1 -6 9 364.12 10.79 0
 1 -6 10 102.35 6.63 0
 1 -6 12 26.36 4.62 0
 1 -5 1 -0.38 1.47 0
 1 -5 2 496.88 9.27 0
 1 -5 5 468.2 9.91 0
 1 -5 7 540.72 11.89 0
 1 -5 10 29.24 4.75 0
 1 -5 12 329.32 12.8 0
 1 -5 14 39.29 6.05 0
 1 -5 15 39.02 6.72 0
 1 -4 1 1029.82 12.71 0
 1 -4 2 1859.14 16.85 0
 1 -4 3 94.28 4.44 0
 1 -4 5 1617.68 18.04 0
 1 -4 8 450.95 11.82 0
 1 -4 9 254.39 9.82 0
 1 -4 16 18.24 6 0
 1 -4 17 90.88 9.88 0
 1 -4 18 31.04 7.45 0
 1 -3 0 4975.76 26.69 0
 1 -3 1 2281.88 17.85 0
 1 -3 2 352.28 7.46 0
 1 -3 3 1052.09 12.73 0
 1 -3 4 704.6 11.41 0
 1 -3 6 319.7 9.12 0
 1 -3 19 115.05 12.32 0
 1 -3 20 15.44 7.84 0
 1 -2 0 3149.94 19.92 0
 1 -2 1 1491.16 13.52 0
 1 -2 2 373.79 7.33 0
 1 -2 3 1661.68 15.97 0
 1 -2 4 1033.71 13.8 0
 1 -1 -1 1110.14 11.65 0
 1 -1 0 5202.94 23.53 0
 1 -1 1 1079.64 11.24 0
 1 -1 2 9867.37 35.04 0
 1 -1 3 4146.65 24.92 0
 1 0 0 0.06 1.7 0
 1 0 1 875.77 9.61 0
 1 0 2 378.97 7.15 0
 1 1 -1 1076.22 9.56 0
 1 1 0 5166.5 20.63 0
 1 2 -1 1438.25 9.73 0
 1 2 0 3115.79 15.15 0
 1 2 1 1499.61 12.3 0
 1 3 -1 2227.15 10.53 0
 1 4 0 5115.05 18.58 0
 1 5 0 548.43 6.16 0
 1 6 0 249.03 4.06 0
 1 9 1 586.5 7.1 0
 2 -8 3 151.21 7.21 0
 2 -8 4 64.12 5.15 0
 2 -8 5 277.83 9.65 0
 2 -8 6 21.69 3.72 0
 2 -8 7 21.6 3.83 0
 2 -7 2 229.92 8.86 0
 2 -7 3 163.86 7.59 0
 2 -7 4 389.06 11.3 0
 2 -7 5 163.21 7.7 0
 2 -7 6 336.56 10.78 0
 2 -7 7 129.35 7.26 0
 2 -7 10 14.28 3.95 0
 2 -6 1 1018.52 17.56 0
 2 -6 4 135.76 6.74 0
 2 -6 5 689.23 14.66 0
 2 -6 6 23.9 3.91 0
 2 -6 7 700.43 15.95 0
 2 -6 10 31.19 5.03 0
 2 -6 11 338.83 13.09 0
 2 -6 12 91.81 7.88 0
 2 -6 13 9.58 4.22 0
 2 -5 6 316.05 10.45 0
 2 -5 7 1455.26 22.86 0
 2 -5 11 53.74 6.37 0
 2 -5 12 41.43 6.38 0
 2 -5 13 146.72 10.14 0
 2 -5 14 106.06 9.87 0
 2 -5 15 58.07 8.23 0
 2 -5 16 150.83 11.33 0
 2 -4 -1 101.93 5.66 0
 2 -4 0 453.32 11.25 0
 2 -4 1 104.17 5.87 0
 2 -4 6 169.29 7.8 0
 2 -4 7 298.43 10.6 0
 2 -4 8 26.73 4.53 0
 2 -4 10 87.31 7.89 0
 2 -4 11 69.73 7.96 0
 2 -4 13 1.11 4.35 0
 2 -4 14 113.04 9.95 0
 2 -4 15 49.92 8.25 0
 2 -4 16 22.54 7.44 0
 2 -4 17 8.81 6.08 0
 2 -4 18 108.79 11.18 0
 2 -4 19 55.24 9.33 0
 2 -3 -1 382.43 10.34 0
 2 -3 0 23.45 3.86 0
 2 -3 2 2477.84 24.61 0
 2 -3 3 170.55 7.27 0
 2 -3 4 141.4 6.75 0
 2 -3 6 2060.13 25.97 0
 2 -3 7 2.23 2.78 0
 2 -3 8 213.13 9.77 0
 2 -3 10 478.69 15.83 0
 2 -3 11 120.75 9.47 0
 2 -3 12 33.74 6.12 0
 2 -3 13 28.84 6.6 0
 2 -3 14 258.9 14.23 0
 2 -3 15 114.03 10.49 0
 2 -3 16 92.46 11.47 0
 2 -3 17 108.12 12.74 0
 2 -3 18 175.68 14.71 0
 2 -3 19 19.09 8.7 0
 2 -3 20 63.01 10.77 0
 2 -2 -2 202.24 7.32 0
 2 -2 0 354.74 9.45 0
 2 -2 3 116.79 5.79 0
 2 -2 7 118.35 7.43 0
 2 -2 8 242.85 10.36 0
 2 -2 10 224.19 11.12 0
 2 -2 11 499.64 17.26 0
 2 -2 12 40.78 6.76 0
 2 -2 13 101.36 9.38 0
 2 -2 14 111.89 10.21 0
 2 -2 15 44.92 8.72 0
 2 -2 16 193.1 14.4 0
 2 -2 17 20.12 7.45 0
 2 -2 18 7.13 6.87 0
 2 -2 19 33.93 9.77 0
 2 -2 20 8.87 7.41 0
 2 -1 -2 2086.67 21.95 0
 2 -1 -1 1753.51 19.69 0
 2 -1 2 2057.6 21.55 0
 2 -1 3 1833.42 21.11 0
 2 -1 7 26.83 4.36 0
 2 -1 18 127.2 13.95 0
 2 -1 19 145.09 13.97 0
 2 -1 20 1.79 7.22 0
 2 0 -2 1651.27 18.95 0
 2 0 -1 893.75 13.64 0
 2 0 0 539.98 10.68 0
 2 0 1 893.81 13.65 0
 2 0 2 1670.59 19.37 0
 2 0 3 592.04 12.09 0
 2 0 4 2297.67 24.92 0
 2 0 5 639.35 13.91 0
 2 0 20 15.33 8.28 0
 2 1 -2 2133.26 20.37 0
 2 1 -1 1804.95 18.48 0
 2 1 0 367.68 8.47 0
 2 1 2 2072.93 20.77 0
 2 1 3 1827.05 20.94 0
 2 1 4 986.86 16.54 0
 2 1 5 73.58 5.23 0
 2 2 -2 213.44 6.4 0
 2 2 -1 1281.9 14.89 0
 2 2 0 344.42 8.02 0
 2 2 1 1258.31 15.43 0
 2 2 3 126.85 6.16 0
 2 2 4 556.55 12.42 0
 2 3 -2 2457.25 19.19 0
 2 3 2 2544.14 23.08 0
 2 3 3 171.05 6.72 0
 2 4 -1 107.82 4.22 0
 2 4 0 458.3 8.58 0
 2 4 1 99.9 4.63 0
 2 5 -1 195.12 4.91 0
 2 5 0 7.97 1.76 0
 2 5 2 625.17 11.59 0
 2 6 0 2.69 1.38 0
 2 6 2 483.88 10.23 0
 2 6 3 207.94 7.39 0
 2 7 0 -0.2 0.92 0
 2 7 1 144.42 4.93 0
 2 7 2 228.89 7.01 0
 2 7 3 168.69 6.92 0
 2 8 1 169.57 4.9 0
 2 8 3 152.64 6.56 0
 2 8 4 69.86 5.72 0
 2 9 2 86.67 4.17 0
 2 9 3 79.42 4.87 0
 2 9 4 134.59 6.82 0
 2 10 4 128.87 6.43 0
 3 -9 4 314.77 12.19 0
 3 -8 5 117.59 8.39 0
 3 -8 6 222.25 10.82 0
 3 -8 7 56.84 6.92 0
 3 -8 8 58.28 6.36 0
 3 -7 6 290.69 11.97 0
 3 -7 7 424.11 14.7 0
 3 -7 8 146.77 9.54 0
 3 -7 9 22.87 5.19 0
 3 -7 10 20.12 5.46 0
 3 -6 7 283.2 12.31 0
 3 -6 8 30.84 5.71 0
 3 -6 9 89.86 8.47 0
 3 -6 11 58.3 8.12 0
 3 -6 12 11.79 5.34 0
 3 -6 13 110.11 10.14 0
 3 -6 14 17.03 6.64 0
 3 -6 15 47.69 8.47 0
 3 -5 0 7.11 3.89 0
 3 -5 7 14.87 5.04 0
 3 -5 8 153.4 10.04 0
 3 -5 9 412.64 15.31 0
 3 -5 10 479.78 16.87 0
 3 -5 11 71.62 9.17 0
 3 -5 12 70.13 8.94 0
 3 -5 13 5.74 5.65 0
 3 -5 14 39.11 7.57 0
 3 -5 15 36.66 8.68 0
 3 -5 16 2.33 6.42 0
 3 -5 17 12.48 5.96 0
 3 -4 -1 86.71 6.83 0
 3 -4 0 129.33 7.74 0
 3 -4 1 90.12 6.68 0
 3 -4 2 66.18 6.47 0
 3 -4 8 118.95 9.13 0
 3 -4 9 147.92 9.75 0
 3 -4 11 6.21 4.86 0
 3 -4 12 67.35 8.91 0
 3 -4 14 1.4 6.28 0
 3 -4 15 151.48 13.29 0
 3 -4 17 60.1 9.84 0
 3 -3 2 507.7 13.84 0
 3 -3 3 324.51 11.35 0
 3 -3 4 162.97 8.46 0
 3 -3 8 473.92 15.63 0
 3 -3 9 7.25 4.58 0
 3 -3 10 101.29 8.59 0
 3 -3 11 40.32 7.15 0
 3 -3 12 15.1 5.84 0
 3 -3 13 19.94 6.37 0
 3 -3 14 61.32 9.19 0
 3 -3 15 63.07 9.66 0
 3 -3 16 2.19 5.81 0
 3 -3 19 2.4 6.7 0
 3 -2 4 171.73 8.86 0
 3 -2 8 550.29 16.8 0
 3 -2 9 85.05 8.4 0
 3 -2 10 72.16 8.29 0
 3 -2 11 154.15 10.68 0
 3 -2 12 22.18 6.23 0
 3 -2 13 14.02 6.07 0
 3 -2 14 9.67 7.12 0
 3 -2 15 27.8 8.28 0
 3 -2 16 159.14 13.56 0
 3 -2 17 23.3 9.26 0
 3 -2 18 24.48 8.34 0
 3 -2 19 77.73 11.61 0
 3 -1 -1 691.61 15.58 0
 3 -1 8 64.5 6.8 0
 3 -1 9 173.92 10.86 0
 3 -1 10 202.29 11.76 0
 3 -1 12 2.3 4.89 0
 3 -1 14 134.59 11.73 0
 3 -1 15 45.83 8.8 0
 3 -1 16 42.47 9.59 0
 3 -1 17 25.61 8.24 0
 3 -1 18 27.2 9.11 0
 3 -1 19 174.53 16.49 0
 3 0 -3 768.45 16.07 0
 3 0 -2 166.95 7.94 0
 3 0 -1 1203.33 19.73 0
 3 0 0 1.02 2.35 0
 3 0 2 161.05 7.7 0
 3 0 8 3.23 3.28 0
 3 0 10 0.82 3.64 0
 3 0 12 15.03 5.84 0
 3 0 13 67.6 10.26 0
 3 0 14 235.08 15.32 0
 3 0 15 3.47 6.17 0
 3 0 18 8.84 8.81 0
 3 0 19 3.53 9.29 0
 3 1 -3 7.94 2.96 0
 3 1 -2 323.15 10.54 0
 3 1 -1 731.82 15.15 0
 3 1 0 102.76 6.16 0
 3 1 1 678.2 14.44 0
 3 1 2 329.82 10.61 0
 3 1 3 10.25 3.43 0
 3 1 4 536.52 14.13 0
 3 1 8 59.95 7.32 0
 3 1 9 182.16 10.73 0
 3 1 10 210.58 11.87 0
 3 1 11 364.37 15.96 0
 3 1 12 4.59 5.25 0
 3 1 14 126.22 12.6 0
 3 1 15 33.78 8.45 0
 3 1 16 39.79 9.61 0
 3 1 17 25.83 8.76 0
 3 1 18 25.34 8.76 0
 3 2 -2 479.02 11.87 0
 3 2 -1 1023.38 17.14 0
 3 2 1 1011.17 17.34 0
 3 2 4 157.18 8.01 0
 3 2 8 543.35 17.14 0
 3 2 9 81.16 7.76 0
 3 2 10 82.06 8.18 0
 3 2 11 136.07 11.07 0
 3 2 12 17.94 6.28 0
 3 2 14 7.52 6.05 0
 3 2 15 34.32 9.06 0
 3 2 17 20.68 8.3 0
 3 2 18 33.49 10.16 0
 3 3 -2 514.64 11.78 0
 3 3 0 21.58 3.37 0
 3 3 1 541.67 12.73 0
 3 3 3 322.71 10.59 0
 3 3 4 166.96 8.38 0
 3 3 8 488.15 16.2 0
 3 3 9 6.41 4.32 0
 3 3 10 90.89 8.88 0
 3 3 11 33.07 6.83 0
 3 3 12 18.95 6.37 0
 3 3 14 59.92 9.73 0
 3 3 15 74.8 11.91 0
 3 3 16 9.31 7.19 0
 3 3 17 23.46 8.24 0
 3 3 18 47.73 10.79 0
 3 4 -2 74.09 5.2 0
 3 4 -1 96.98 5.51 0
 3 4 1 87.95 5.45 0
 3 4 2 78.9 5.88 0
 3 4 3 398.36 11.76 0
 3 4 4 2550.97 30.25 0
 3 4 8 122.79 9.19 0
 3 4 9 158.06 10.47 0
 3 4 16 100.58 13.66 0
 3 4 17 40.39 9.73 0
 3 4 18 3.88 7.47 0
 3 5 -2 255.59 7.75 0
 3 5 -1 472.37 10.56 0
 3 5 3 201 8.36 0
 3 5 4 10.34 3.59 0
 3 5 7 18.13 4.75 0
 3 5 8 168.14 10.27 0
 3 5 9 414.07 16.37 0
 3 5 16 1.37 6.86 0
 3 5 17 18.96 8.54 0
 3 6 -1 47.01 3.66 0
 3 6 0 38.69 3.83 0
 3 6 3 301.57 10.23 0
 3 6 7 272.34 12.14 0
 3 6 16 50.38 11.03 0
 3 6 17 8.69 7.64 0
 3 7 -1 301.8 7.11 0
 3 7 0 1.78 1.73 0
 3 7 1 320.99 8.78 0
 3 7 2 307.89 9.47 0
 3 7 3 101.62 6.2 0
 3 7 6 315.12 12.62 0
 3 7 7 441.68 15.29 0
 3 7 8 138.9 9.72 0
 3 7 9 30.73 6.91 0
 3 7 10 19.71 6.96 0
 3 7 15 1.41 6.49 0
 3 7 16 17.93 8.52 0
 3 8 0 16.29 2.34 0
 3 8 1 30.85 3.52 0
 3 8 2 133.64 6.28 0
 3 8 3 63.41 5.31 0
 3 8 4 77.42 6.29 0
 3 8 6 207.31 10.21 0
 3 8 8 62.83 7.59 0
 3 8 9 42.3 7.54 0
 3 8 10 41.67 8.11 0
 3 8 11 14.67 6.32 0
 3 8 12 438.48 19.73 0
 3 8 13 69.29 11.52 0
 3 8 14 12.7 8.05 0
 3 8 15 31.95 8.68 0
 3 8 16 0.22 7.9 0
 3 9 3 118.81 6.27 0
 3 9 6 74.37 7.11 0
 3 9 7 108.83 8.71 0
 3 9 8 190.69 11.09 0
 3 9 9 62.21 8.86 0
 3 9 10 23.01 6.46 0
 3 9 11 33.94 8.08 0
 3 9 12 -3.9 4.82 0
 3 9 13 18.49 7.03 0
 3 9 14 6.16 6.24 0
 3 9 15 7.56 7.28 0
 3 10 6 52.86 6.6 0
 3 10 7 23.43 5.37 0
 3 10 8 98.66 8.89 0
 3 10 9 143.34 10.52 0
 3 10 10 43.29 7.99 0
 3 10 11 20.75 7.16 0
 3 10 12 16.86 6.38 0
 3 10 13 95.06 11.83 0
 3 10 14 12.79 6.67 0
 4 -9 4 94.27 8.47 0
 4 -9 5 144.43 10.35 0
 4 -9 6 7.39 4.16 0
 4 -8 2 309.29 14.42 0
 4 -8 3 18.74 5.49 0
 4 -8 5 314.67 14.5 0
 4 -8 6 143.18 10.35 0
 4 -8 7 217.78 12.94 0
 4 -8 8 83.69 9.08 0
 4 -8 9 109.43 10.09 0
 4 -8 10 153.68 11.29 0
 4 -7 1 40.15 7.36 0
 4 -7 3 141.63 10.13 0
 4 -7 4 138.88 10.5 0
 4 -7 5 2.77 4.37 0
 4 -7 6 133.93 10.69 0
 4 -7 7 100.49 9.33 0
 4 -7 8 57.2 8.09 0
 4 -7 9 32.03 6.73 0
 4 -7 10 75.09 9.21 0
 4 -7 11 19.59 6.95 0
 4 -7 12 9.46 5.71 0
 4 -7 13 20.46 6.14 0
 4 -6 1 190.09 11.68 0
 4 -6 2 37.73 6.5 0
 4 -6 3 218.1 12.04 0
 4 -6 4 420.85 16.53 0
 4 -6 5 233.18 12.44 0
 4 -6 7 6.18 4.75 0
 4 -6 8 71.23 8.64 0
 4 -6 9 39.33 7.23 0
 4 -6 10 48.41 8.22 0
 4 -6 11 25.76 7.8 0
 4 -6 12 74.3 10.33 0
 4 -6 13 14.55 6.69 0
 4 -6 15 63.44 10.05 0
 4 -5 -1 271.04 13.01 0
 4 -5 0 223.3 11.84 0
 4 -5 1 269.58 13.01 0
 4 -5 2 135.83 9.64 0
 4 -5 3 269.36 12.95 0
 4 -5 4 474.01 16.64 0
 4 -5 5 355.08 15.13 0
 4 -5 6 66.89 8.14 0
 4 -5 8 55.99 8.15 0
 4 -5 9 38.35 7.84 0
 4 -5 11 3.36 5.11 0
 4 -5 12 40.48 8 0
 4 -5 13 31.37 7.83 0
 4 -5 14 36.62 8.82 0
 4 -5 17 43.66 9.44 0
 4 -4 1 257.78 12.72 0
 4 -4 2 48.28 6.78 0
 4 -4 4 53.37 7.08 0
 4 -4 5 107.06 8.8 0
 4 -4 6 3.37 4.29 0
 4 -4 7 238.71 12.67 0
 4 -4 9 97.95 10.37 0
 4 -4 10 400.26 17.88 0
 4 -4 11 108.54 10.65 0
 4 -4 12 218.2 14.16 0
 4 -4 13 132.69 12.3 0
 4 -4 14 0.68 6.99 0
 4 -4 15 -0.24 6.36 0
 4 -4 16 13.55 7.55 0
 4 -4 17 3.26 6.38 0
 4 -3 -2 188.47 10.73 0
 4 -3 -1 512.41 16.48 0
 4 -3 0 1.86 3.03 0
 4 -3 1 503.11 16.36 0
 4 -3 5 67.68 7.9 0
 4 -3 7 532.17 18.25 0
 4 -3 9 31.09 6.64 0
 4 -3 10 3.37 4.96 0
 4 -3 11 26.2 7.81 0
 4 -3 12 35.22 8.75 0
 4 -3 13 228.29 15 0
 4 -3 14 0.97 6.15 0
 4 -3 15 24.56 7.93 0
 4 -2 4 153.96 9.72 0
 4 -2 5 318.28 13.37 0
 4 -2 7 29.22 6.07 0
 4 -2 8 29.01 6.92 0
 4 -2 9 36.67 7.39 0
 4 -2 10 106.54 10.33 0
 4 -2 11 1.37 5.42 0
 4 -2 12 52.36 9.62 0
 4 -2 13 62.03 9.88 0
 4 -2 14 76.61 11.34 0
 4 -2 16 64.58 11.48 0
 4 -2 17 174.25 15.77 0
 4 -1 4 191.06 10.78 0
 4 -1 5 304.48 13.13 0
 4 -1 6 174.69 10.8 0
 4 -1 7 49.28 7.04 0
 4 -1 9 79.1 9.73 0
 4 -1 10 12.73 5.67 0
 4 -1 11 14.04 6.29 0
 4 -1 12 101.75 10.65 0
 4 -1 13 14.41 6.88 0
 4 -1 14 58.94 10.04 0
 4 -1 15 7.24 6.98 0
 4 -1 16 12.38 7.32 0
 4 -1 17 14.22 7.79 0
 4 0 4 609.52 17.53 0
 4 0 7 4.83 4.52 0
 4 0 8 629.73 19.89 0
 4 0 9 587.89 19.92 0
 4 0 10 1.8 5.43 0
 4 0 11 21.75 7.04 0
 4 0 12 69.36 10.1 0
 4 0 14 2.05 6.34 0
 4 0 16 257.4 17.16 0
 4 0 17 47.28 10.59 0
 4 1 4 182.7 10.15 0
 4 1 5 296.3 12.85 0
 4 1 6 159.03 10.05 0
 4 1 7 49.67 6.97 0
 4 1 9 76.82 8.32 0
 4 1 10 18.85 6.33 0
 4 1 11 9.47 6.36 0
 4 1 12 105.24 10.71 0
 4 1 13 20.01 7.12 0
 4 1 14 62.22 10.12 0
 4 1 15 3.44 6.51 0
 4 1 16 8.64 7.19 0
 4 1 17 18.4 9.67 0
 4 2 4 147.22 9.19 0
 4 2 6 115.49 8.78 0
 4 2 7 34.72 6.87 0
 4 2 8 17.53 5.57 0
 4 2 9 49.51 8.28 0
 4 2 10 106.75 10.12 0
 4 2 11 1.01 5.57 0
 4 2 12 61.68 10.02 0
 4 2 13 71.9 10.31 0
 4 2 14 64.03 10.52 0
 4 2 15 34.95 9.04 0
 4 2 16 66.52 11.35 0
 4 3 -3 113.69 7.44 0
 4 3 -2 190.08 9.38 0
 4 3 -1 514.74 14.69 0
 4 3 0 2.85 3.66 0
 4 3 4 165.66 9.5 0
 4 3 6 271 12.56 0
 4 3 7 514.96 17.86 0
 4 3 11 26.41 7.24 0
 4 3 12 35.78 8.72 0
 4 3 13 229.62 15.7 0
 4 3 14 14.26 7.66 0
 4 3 15 16.8 7.91 0
 4 4 -2 36.28 5.28 0
 4 4 -1 246.9 9.99 0
 4 4 4 64.95 7.36 0
 4 4 5 104.7 8.65 0
 4 4 6 5.87 4.42 0
 4 4 7 265.83 13.54 0
 4 4 8 571.32 19.53 0
 4 4 9 96.84 10.08 0
 4 4 10 445.75 18.93 0
 4 4 13 151.17 14.09 0
 4 4 14 1.97 6.4 0
 4 4 15 9.66 7.49 0
 4 4 16 19.57 9.81 0
 4 4 17 11.85 8.38 0
 4 5 -2 127.76 7.28 0
 4 5 -1 263.24 10.05 0
 4 5 0 233.21 9.64 0
 4 5 4 462.71 15.22 0
 4 5 5 357.14 14.05 0
 4 5 6 61.55 7.69 0
 4 5 7 68.4 8.5 0
 4 5 9 31.19 7.45 0
 4 5 10 45.51 8.12 0
 4 5 12 47.69 9.87 0
 4 5 13 50.11 9.61 0
 4 5 14 29.74 8.66 0
 4 5 16 12.57 8.25 0
 4 6 -1 194.39 8.34 0
 4 6 0 315.32 10.57 0
 4 6 1 195.4 8.99 0
 4 6 4 436.44 14.44 0
 4 6 5 237.2 11.41 0
 4 6 6 91.19 8.76 0
 4 6 7 1.73 4.43 0
 4 6 8 67.06 9.13 0
 4 6 9 37.82 7.61 0
 4 6 10 40.17 8.23 0
 4 6 11 26.18 7.83 0
 4 6 12 84.59 11.38 0
 4 6 13 5.76 6.69 0
 4 6 14 17.08 7.62 0
 4 6 15 43.26 9.77 0
 4 6 16 75.91 13.23 0
 4 7 -1 38.95 4.24 0
 4 7 0 229.92 8.82 0
 4 7 1 25.41 3.97 0
 4 7 4 151.68 9.38 0
 4 7 5 2.9 3.85 0
 4 7 6 147.69 10.28 0
 4 7 7 96.03 9.27 0
 4 7 9 36.12 7.82 0
 4 7 10 93.35 9.97 0
 4 7 11 22.17 7.03 0
 4 7 12 5.2 6.52 0
 4 7 13 17.02 7.34 0
 4 7 14 11.59 8.46 0
 4 8 0 5.81 2.57 0
 4 8 1 77.95 5.69 0
 4 8 4 91.98 7.51 0
 4 8 5 340.25 13.13 0
 4 8 6 155.13 10.09 0
 4 8 7 234.47 12.37 0
 4 8 8 84.5 9.32 0
 4 8 9 120.16 10.81 0
 4 8 11 7.8 6.04 0
 4 8 12 29.58 8.3 0
 4 8 13 71.8 10.36 0
 4 8 14 27.39 9.29 0
 4 8 15 52.94 11.04 0
 4 9 4 99.46 7.21 0
 4 9 6 9.07 4.77 0
 4 9 7 39.66 6.59 0
 4 9 8 15.32 6.08 0
 4 9 9 155.87 11.74 0
 4 9 10 13.59 6.06 0
 4 9 11 67.47 10.09 0
 4 9 12 54.71 9.2 0
 4 9 13 40.74 9.42 0
 4 9 14 30.23 8.44 0
 5 -9 4 16.38 6.17 0
 5 -9 5 111.28 11.34 0
 5 -9 6 51.79 8.4 0
 5 -9 7 66.96 9.32 0
 5 -8 3 24.04 7.52 0
 5 -8 4 127.39 12.45 0
 5 -8 5 6.5 5.89 0
 5 -8 6 74.23 10.33 0
 5 -8 7 47.15 8.84 0
 5 -8 8 99.8 11.64 0
 5 -8 9 17.33 6.85 0
 5 -8 10 9.7 6.55 0
 5 -7 1 99.14 10.43 0
 5 -7 2 172.82 13.48 0
 5 -7 3 73.83 9.78 0
 5 -7 4 100.49 10.75 0
 5 -7 5 157.23 13.2 0
 5 -7 6 154.59 12.87 0
 5 -7 7 138.72 13.04 0
 5 -7 8 82.04 11.13 0
 5 -7 9 54.92 9.9 0
 5 -7 10 17.26 7.51 0
 5 -7 11 2.85 6.28 0
 5 -7 12 69.22 10.09 0
 5 -7 13 118.76 12.31 0
 5 -6 0 259.92 14.66 0
 5 -6 3 80.58 10.75 0
 5 -6 4 8.25 6 0
 5 -6 5 4.2 5.74 0
 5 -6 6 14.63 6.85 0
 5 -6 7 8.68 6.18 0
 5 -6 9 27.4 7.54 0
 5 -6 10 173.1 14.04 0
 5 -6 11 2.77 6.16 0
 5 -6 12 245.19 15.88 0
 5 -6 13 26.77 8.07 0
 5 -6 14 22.61 8.91 0
 5 -5 0 34 8 0
 5 -5 1 66.29 8.94 0
 5 -5 2 271.83 14.71 0
 5 -5 3 94.69 10.65 0
 5 -5 4 214.87 13.96 0
 5 -5 5 11.65 6.8 0
 5 -5 6 141.32 11.6 0
 5 -5 7 58.19 9.62 0
 5 -5 8 14.91 6.52 0
 5 -5 9 23.96 7.55 0
 5 -5 11 36.93 8.89 0
 5 -5 12 100.67 12.69 0
 5 -5 13 38.9 9.13 0
 5 -5 14 161.28 16.23 0
 5 -5 15 14.86 7.72 0
 5 -4 -1 39.51 7.76 0
 5 -4 0 11.48 6.01 0
 5 -4 2 53.42 8.38 0
 5 -4 3 217.62 13.89 0
 5 -4 4 61.71 8.71 0
 5 -4 5 1.67 4.6 0
 5 -4 6 72.04 10.39 0
 5 -4 7 27.38 7.04 0
 5 -4 8 12.66 6.38 0
 5 -4 9 225.27 14.52 0
 5 -4 10 38.46 8.22 0
 5 -4 12 24.66 8.42 0
 5 -4 13 11.54 7.53 0
 5 -4 14 -0.87 6.54 0
 5 -3 -2 7.94 5.3 0
 5 -3 -1 314.3 15.24 0
 5 -3 0 56.7 7.96 0
 5 -3 1 318.12 15.21 0
 5 -3 2 11.07 5.24 0
 5 -3 3 186.45 12.51 0
 5 -3 4 5.76 4.52 0
 5 -3 5 146.29 10.91 0
 5 -3 6 40.48 7.84 0
 5 -3 7 19.17 6.39 0
 5 -3 8 105.6 11.44 0
 5 -3 9 21.41 6.99 0
 5 -3 11 25.8 7.83 0
 5 -3 12 38.61 9.43 0
 5 -3 13 50.18 10.06 0
 5 -3 14 62.31 11.63 0
 5 -3 15 63.81 11.18 0
 5 -2 -2 132.18 10.62 0
 5 -2 -1 404.21 16.57 0
 5 -2 2 132.42 10.51 0
 5 -2 4 72.61 9.17 0
 5 -2 5 377.25 16.74 0
 5 -2 6 46.66 8.45 0
 5 -2 7 22.41 6.52 0
 5 -2 9 77.08 10.05 0
 5 -2 11 117.89 11.89 0
 5 -2 13 38.03 9.11 0
 5 -2 14 3.13 7.03 0
 5 -2 15 179.39 16.45 0
 5 -2 16 36.48 10.29 0
 5 -1 -2 149.72 10.68 0
 5 -1 0 107.37 9.18 0
 5 -1 1 107.33 9.8 0
 5 -1 2 152.93 11.48 0
 5 -1 3 140.99 10.88 0
 5 -1 5 12.28 5.3 0
 5 -1 6 237.1 13.6 0
 5 -1 9 47.96 9.52 0
 5 -1 11 46.36 9.42 0
 5 -1 12 5.75 6.74 0
 5 -1 13 239.78 16.44 0
 5 -1 14 116.88 14.96 0
 5 -1 15 31.25 9.37 0
 5 -1 16 75.63 12.2 0
 5 0 -3 180.03 10.9 0
 5 0 -2 -1.73 4.16 0
 5 0 -1 190.84 11.41 0
 5 0 0 2.82 4.95 0
 5 0 1 196.64 11.65 0
 5 0 2 1.21 4.08 0
 5 0 3 182.5 11.39 0
 5 0 5 129.86 10.43 0
 5 0 6 139.59 10.94 0
 5 0 7 34.09 7.92 0
 5 0 8 550.62 21.02 0
 5 0 9 28.14 7.64 0
 5 0 10 -1.94 5.76 0
 5 0 11 1.68 5.77 0
 5 0 14 -1.51 7.09 0
 5 0 15 7.22 8.03 0
 5 0 16 36.09 10.22 0
 5 1 -3 154.3 10.66 0
 5 1 -2 153.64 10.75 0
 5 1 -1 110.59 8.91 0
 5 1 0 119.42 9.79 0
 5 1 1 94.19 9.07 0
 5 1 2 140.2 10.4 0
 5 1 3 153.17 10.87 0
 5 1 4 32.42 7.05 0
 5 1 5 12.98 5.73 0
 5 1 6 239.26 14.11 0
 5 1 7 22.76 6.56 0
 5 1 8 63.81 9.12 0
 5 1 10 264.76 16.24 0
 5 1 11 59.38 9.78 0
 5 1 12 2.73 6.71 0
 5 1 15 22.08 8.86 0
 5 1 16 70.17 11.52 0
 5 2 -3 24.33 6.1 0
 5 2 -2 140.2 9.7 0
 5 2 -1 400.68 15.45 0
 5 2 0 176.19 11.29 0
 5 2 1 429.73 15.96 0
 5 2 2 122.48 10.01 0
 5 2 3 26.81 5.87 0
 5 2 6 45.31 7.92 0
 5 2 7 21.55 7.09 0
 5 2 8 33.25 8.11 0
 5 2 10 5.94 6.41 0
 5 2 12 20.93 7.68 0
 5 3 -2 11.74 5.5 0
 5 3 0 50.58 7.4 0
 5 3 1 333.17 14.6 0
 5 3 2 8.04 4.72 0
 5 3 3 176.78 11.66 0
 5 3 5 155.66 11.78 0
 5 3 6 35.43 7.38 0
 5 3 7 10.26 5.71 0
 5 3 8 92.66 10.92 0
 5 3 9 16.52 6.63 0
 5 3 10 266.55 16.13 0
 5 3 11 32.65 8.36 0
 5 3 12 39.09 8.9 0
 5 3 13 34.58 9.25 0
 5 3 14 56.96 10.58 0
 5 3 15 47.85 10.48 0
 5 4 -2 45.67 6.54 0
 5 4 -1 38.24 6.69 0
 5 4 1 39.49 6.47 0
 5 4 3 232.46 12.61 0
 5 4 4 45.65 7.69 0
 5 4 7 28.03 7.27 0
 5 4 8 23.44 6.9 0
 5 4 9 228.46 14.91 0
 5 4 10 36.46 8.36 0
 5 4 11 132.13 13.31 0
 5 4 13 3.66 6.53 0
 5 4 14 -0.38 8.35 0
 5 4 15 14.66 8.76 0
 5 5 -2 291.19 12.17 0
 5 5 -1 69.32 6.9 0
 5 5 0 34 5.85 0
 5 5 2 294.54 13.31 0
 5 5 5 1 4.47 0
 5 5 6 137.52 10.79 0
 5 5 7 55.72 8.49 0
 5 5 8 10.82 5.88 0
 5 5 9 18.75 6.92 0
 5 5 10 72.42 10.75 0
 5 5 11 26.09 8.35 0
 5 5 13 49.72 9.91 0
 5 6 0 267.23 11.52 0
 5 6 1 29.53 5.55 0
 5 6 2 132.57 9.33 0
 5 6 3 72.98 7.42 0
 5 6 4 4.48 5.12 0
 5 6 6 16.1 6.7 0
 5 6 7 13.14 5.96 0
 5 6 9 26.92 8.56 0
 5 6 10 164.57 12.93 0
 5 6 12 238.96 16.53 0
 5 6 13 28.28 8.77 0
 5 7 0 25.53 4.79 0
 5 7 1 83.99 7.51 0
 5 7 2 153.77 9.49 0
 5 7 3 71.88 7.7 0
 5 7 4 81.68 8.1 0
 5 7 5 160.1 10.95 0
 5 7 6 170.12 11.83 0
 5 7 7 143.76 11.21 0
 5 7 8 69.69 9.87 0
 5 7 10 24.49 7.48 0
 5 7 11 0.31 6.1 0
 5 7 12 81.2 12.28 0
 5 7 13 128.7 13.45 0
 5 8 3 21.45 5.05 0
 5 8 4 126.48 9.24 0
 5 8 5 3.4 4.39 0
 5 8 7 55.2 8.6 0
 5 8 8 90.44 9.99 0
 5 8 10 8.93 6.23 0
 5 8 11 103.68 12.53 0
 5 8 12 -1.85 6.55 0
 5 8 13 11.12 7.03 0
 5 9 9 18.53 6.5 0
 5 9 10 23.55 7.09 0
 5 9 11 51.9 9.15 0
 6 -9 6 125.77 14.06 0
 6 -9 7 3.82 6.96 0
 6 -8 4 30.69 9.09 0
 6 -8 5 46.1 9.66 0
 6 -8 6 29.35 8.56 0
 6 -8 7 32.93 8.53 0
 6 -8 8 38.33 9.55 0
 6 -8 9 18.1 7.95 0
 6 -8 10 63.24 11.73 0
 6 -7 3 27.92 9.28 0
 6 -7 4 90.66 12.1 0
 6 -7 5 36.97 9.93 0
 6 -7 6 82.99 11.88 0
 6 -7 7 73.88 11.34 0
 6 -7 8 25.45 8.73 0
 6 -7 9 24.18 8.41 0
 6 -7 10 195.17 15.98 0
 6 -7 11 53.5 10.36 0
 6 -6 1 315.5 17.51 0
 6 -6 2 161.38 13.55 0
 6 -6 3 87.78 11.58 0
 6 -6 6 16.86 7.78 0
 6 -6 8 -2 6.16 0
 6 -6 9 6.84 7.23 0
 6 -6 10 39.57 10.61 0
 6 -6 11 7.36 7.7 0
 6 -6 12 51.35 11.67 0
 6 -5 2 2.44 6.27 0
 6 -5 4 13.29 7.78 0
 6 -5 5 3.05 6.58 0
 6 -5 6 -1.53 7.6 0
 6 -5 8 120.67 13.74 0
 6 -5 9 19.26 8.05 0
 6 -5 10 11.18 8.15 0
 6 -5 12 46.41 10.31 0
 6 -4 0 10.04 6.73 0
 6 -4 3 4.54 6.97 0
 6 -4 4 17.36 8.82 0
 6 -4 7 18.18 8.36 0
 6 -4 8 75.39 11.91 0
 6 -4 10 63.93 11.4 0
 6 -4 11 6.91 7.29 0
 6 -4 12 34.95 9.54 0
 6 -4 13 31.89 9.62 0
 6 -3 -1 4.94 6.33 0
 6 -3 0 20.63 7.09 0
 6 -3 1 4.64 6.16 0
 6 -3 2 88.19 11 0
 6 -3 3 108.28 10.83 0
 6 -3 4 11.36 6.35 0
 6 -3 5 17.23 7.72 0
 6 -3 6 91.07 11.34 0
 6 -3 8 85.22 11.54 0
 6 -3 11 147.71 15.1 0
 6 -3 13 -3.19 8.41 0
 6 -2 -1 86.9 11.58 0
 6 -2 0 146.66 12.17 0
 6 -2 1 98.59 11.78 0
 6 -2 2 105.84 10.97 0
 6 -2 3 274.77 16.07 0
 6 -2 4 18.04 7.01 0
 6 -2 5 2.63 5.45 0
 6 -2 7 0.23 6.45 0
 6 -2 8 11.11 7.24 0
 6 -2 9 2.62 6.82 0
 6 -2 10 7.07 6.81 0
 6 -2 11 34.29 8.9 0
 6 -2 12 47.92 10.28 0
 6 -2 13 70.79 12.32 0
 6 -1 -2 29.66 7.18 0
 6 -1 -1 306.24 16.52 0
 6 -1 0 30.23 8.35 0
 6 -1 1 305.17 16.5 0
 6 -1 2 35.12 8.17 0
 6 -1 3 215.86 14.33 0
 6 -1 4 54.1 9.13 0
 6 -1 5 47.26 8.7 0
 6 -1 6 296.37 17.08 0
 6 -1 7 111.42 12.63 0
 6 -1 8 78.64 12.31 0
 6 -1 10 0.05 6.98 0
 6 -1 12 9.3 7.87 0
 6 -1 13 1.99 7.45 0
 6 0 -2 4.07 5.56 0
 6 0 0 113.12 10.85 0
 6 0 1 177.44 14.02 0
 6 0 2 9.62 6.19 0
 6 0 3 3.08 6.58 0
 6 0 4 1.27 5.65 0
 6 0 5 18.1 7.34 0
 6 0 7 15.35 6.54 0
 6 0 8 263.5 16.85 0
 6 0 11 277.95 18.68 0
 6 0 12 23.59 9.25 0
 6 0 13 32.29 11.25 0
 6 1 -2 35.58 7.37 0
 6 1 -1 319.64 16.7 0
 6 1 0 28.3 7.86 0
 6 1 1 304.82 16.47 0
 6 1 2 32.07 7.65 0
 6 1 4 52.84 8.84 0
 6 1 6 294.27 16.6 0
 6 1 9 45.38 9.75 0
 6 1 10 -1.95 6.13 0
 6 1 11 50.47 9.93 0
 6 1 12 15.16 8.24 0
 6 1 13 -3.47 6.75 0
 6 2 -2 112.72 10.49 0
 6 2 -1 84.88 9.97 0
 6 2 0 148.19 11.53 0
 6 2 1 71.17 9.46 0
 6 2 2 105.04 11.05 0
 6 2 4 15.53 6.56 0
 6 2 5 5.52 6.83 0
 6 2 6 70.93 10.27 0
 6 2 7 -4.66 6.65 0
 6 2 9 2.45 6.88 0
 6 2 10 7.79 7.13 0
 6 2 11 47.51 10.06 0
 6 2 12 48.92 10.37 0
 6 2 13 54.93 11.1 0
 6 3 -1 3.35 5.55 0
 6 3 1 2.06 4.95 0
 6 3 3 98.99 11.28 0
 6 3 6 75.14 10.42 0
 6 3 8 74.93 11.05 0
 6 3 9 33.21 8.7 0
 6 3 10 115.77 14.37 0
 6 3 11 143.78 14.52 0
 6 3 13 -1.99 8.27 0
 6 4 -2 71.54 8.87 0
 6 4 -1 69.87 9.17 0
 6 4 0 6.13 5.22 0
 6 4 1 65.55 9.14 0
 6 4 2 65.34 9.52 0
 6 4 3 3.06 6.45 0
 6 4 4 18.43 6.4 0
 6 4 5 37.61 7.78 0
 6 4 6 35.7 8.36 0
 6 4 7 14.51 6.65 0
 6 4 8 73.26 11.7 0
 6 4 9 93.18 11.61 0
 6 4 10 67.88 11.33 0
 6 4 11 10.34 7.77 0
 6 4 12 42.85 9.93 0
 6 5 -1 55.69 7.54 0
 6 5 0 208.92 12.24 0
 6 5 1 61.42 8.79 0
 6 5 2 4.02 4.8 0
 6 5 3 84.55 10.3 0
 6 5 4 16.51 7.12 0
 6 5 5 7.21 6.26 0
 6 5 6 9.96 6.99 0
 6 5 7 14.41 6.57 0
 6 5 8 116.82 12.85 0
 6 5 10 12.61 7.96 0
 6 5 11 90 12.33 0
 6 5 12 22.51 8.49 0
 6 6 -1 304.96 13.66 0
 6 6 1 289.48 14.07 0
 6 6 2 194.98 12.5 0
 6 6 3 87.45 9.86 0
 6 6 4 203.82 13.37 0
 6 6 5 65.12 9.12 0
 6 6 6 13.98 6.42 0
 6 6 7 25.55 7.89 0
 6 6 8 3.68 6.49 0
 6 6 9 0.31 6.2 0
 6 7 1 62.88 8.4 0
 6 7 3 15.65 5.68 0
 6 7 4 90.82 10.37 0
 6 7 5 34.67 7.32 0
 6 7 7 88.13 10.76 0
 6 7 8 37 8.77 0
 6 7 9 13.22 7.44 0
 6 7 10 210.87 15.5 0
 6 7 11 41.57 9.24 0
 6 8 8 31.58 7.43 0
 7 -7 5 12.5 8.29 0
 7 -6 2 56.67 10.81 0
 7 -6 3 36.66 10.5 0
 7 -6 5 34.04 9.77 0
 7 -6 6 58.73 11.17 0
 7 -5 1 312.3 18.6 0
 7 -5 2 32.89 10.11 0
 7 -5 3 6.39 7.45 0
 7 -5 4 14.94 9.1 0
 7 -5 5 17.25 8.7 0
 7 -5 6 77.41 12.44 0
 7 -5 7 65.2 12.19 0
 7 -5 8 23.67 10.32 0
 7 -4 1 181.08 15.21 0
 7 -4 2 14.27 7.71 0
 7 -4 4 44.81 10.49 0
 7 -4 5 32.31 9.53 0
 7 -4 6 167.66 16.28 0
 7 -4 7 8.98 8.24 0
 7 -4 8 -1.33 6.97 0
 7 -3 0 9.74 6.85 0
 7 -3 1 68.59 11.48 0
 7 -3 2 107.45 13.18 0
 7 -3 3 65.49 11.88 0
 7 -3 5 4.71 9.3 0
 7 -3 6 4.46 7.6 0
 7 -3 7 26.97 9.44 0
 7 -3 9 48.89 10.85 0
 7 -2 0 69.15 11.97 0
 7 -2 1 54.73 10.94 0
 7 -2 2 72.18 11.77 0
 7 -2 4 7.95 7.02 0
 7 -2 5 6.15 7.54 0
 7 -2 6 11.97 8.33 0
 7 -2 7 10.58 8.47 0
 7 -2 8 196.32 17 0
 7 -2 9 39.2 10.16 0
 7 -1 -1 15.03 8.04 0
 7 -1 0 83.6 12.03 0
 7 -1 1 22.37 8.31 0
 7 -1 3 187.62 15.42 0
 7 -1 4 18.25 9.24 0
 7 -1 5 28.26 8.72 0
 7 -1 7 4.72 7.06 0
 7 -1 8 76.54 12.07 0
 7 -1 9 61.41 12.25 0
 7 -1 10 32.85 9.53 0
 7 0 -1 87.05 11.54 0
 7 0 0 0.97 6.62 0
 7 0 1 81.45 11.19 0
 7 0 2 -4.49 5.89 0
 7 0 3 37.1 9.1 0
 7 0 4 69.94 11.74 0
 7 0 6 149.76 15.32 0
 7 0 7 187.27 16.34 0
 7 0 8 -5.34 7.65 0
 7 0 9 9.56 7.57 0
 7 0 10 0.37 8.56 0
 7 1 -1 30.78 8.49 0
 7 1 0 101.06 12.11 0
 7 1 1 15.72 8.04 0
 7 1 2 71.53 11.13 0
 7 1 4 12.23 7.96 0
 7 1 5 21.31 7.97 0
 7 1 6 49.07 11.16 0
 7 1 7 -1.07 7.41 0
 7 2 0 72.93 10.83 0
 7 2 1 55.81 9.75 0
 7 2 2 76.53 10.95 0
 7 2 3 150.7 14.02 0
 7 2 4 17.44 7.92 0
 7 2 5 5.08 7.18 0
 7 2 7 4.1 7.09 0
 7 2 9 38.06 10 0
 7 3 -1 70.28 9.95 0
 7 3 0 3.89 5.85 0
 7 3 1 58.78 9.94 0
 7 3 2 111.46 11.77 0
 7 3 3 58.78 10.36 0
 7 3 4 155.25 14.08 0
 7 3 5 11.27 7.24 0
 7 3 6 -5.2 7.05 0
 7 3 8 28.7 9.35 0
 7 3 9 36.51 9.63 0
 7 4 -1 167.95 12.86 0
 7 4 1 190.01 13.69 0
 7 4 2 21.38 7.98 0
 7 4 4 25.66 7.85 0
 7 4 5 25.17 8.3 0
 7 4 6 169 14.65 0
 7 4 7 -1.85 6.63 0
 7 4 8 5.62 7.75 0
 7 4 9 7.46 7.98 0
 7 5 0 55.84 8.74 0
 7 5 1 315.98 16.55 0
 7 5 2 23.06 7.2 0
 7 5 3 1.54 5.73 0
 7 5 4 25.29 8.04 0
 7 5 5 3.4 6.05 0
 7 5 8 25.44 8.33 0
 7 6 1 -0.11 5 0
 7 6 2 64.46 8.95 0
 7 6 3 43.91 8.98 0
 7 6 4 14.6 6.34 0
 7 6 5 44.16 8.91 0
 7 6 6 58.02 10.17 0
 7 6 7 -0.14 5.71 0
 7 6 8 8.48 7.58 0
 8 -2 1 -0.5 8.02 0
 8 -2 2 20.84 9.4 0
 8 -1 1 36.63 10.93 0
 8 -1 2 7.08 7.92 0
 8 0 1 66.11 11.23 0
 8 0 2 4.65 7.58 0
 8 1 1 29.16 9.77 0
 8 1 3 15.7 8.22 0
 8 1 4 12.65 9.14 0
 8 2 1 -4.06 6.56 0
 8 2 2 20.83 9.12 0
 8 2 3 67.39 12.15 0
 8 3 1 31.38 9.14 0
 8 3 2 33.22 9.83 0
 8 3 3 6.95 7.46 0
 -6 -10 4 84.72 11.46 0
 -6 -10 5 1.02 6.07 0
 -6 -9 4 6.56 6.61 0
 -6 -9 6 98.57 12.01 0
 -6 -9 7 -5.25 5.28 0
 -6 -9 8 6.43 6.65 0
 -6 -8 3 41.06 8.54 0
 -6 -8 4 30.79 7.46 0
 -6 -8 7 42.1 8.48 0
 -6 -8 8 39.96 8.12 0
 -6 -8 9 20.94 7.05 0
 -6 -7 2 145.16 11 0
 -6 -7 3 12.23 5.37 0
 -6 -7 4 100.21 10.08 0
 -6 -7 5 42.16 7.42 0
 -6 -7 6 86.16 9.91 0
 -6 -7 7 74.68 10.64 0
 -6 -7 8 31.42 7.6 0
 -6 -7 9 11.32 6.37 0
 -6 -7 10 203.89 14.85 0
 -6 -7 11 46.55 9.04 0
 -6 -6 2 195.16 11.7 0
 -6 -6 3 81.09 8.56 0
 -6 -6 4 204.7 12.13 0
 -6 -6 5 69.99 8.51 0
 -6 -6 6 9.06 5.21 0
 -6 -6 7 32.07 6.79 0
 -6 -6 8 3.55 5.61 0
 -6 -6 9 7.94 5.96 0
 -6 -6 10 35.52 8.05 0
 -6 -6 11 10.68 6.68 0
 -6 -6 12 35.67 8.71 0
 -6 -5 2 2.56 4.52 0
 -6 -5 3 80.35 7.57 0
 -6 -5 4 13.26 4.67 0
 -6 -5 5 0.06 3.67 0
 -6 -5 6 4.09 5.12 0
 -6 -5 7 25.33 6.66 0
 -6 -5 11 89.97 11.12 0
 -6 -5 13 52.13 9.35 0
 -6 -4 3 6.31 3.59 0
 -6 -4 4 11.11 4.45 0
 -6 -4 5 28.97 5.34 0
 -6 -4 6 40.55 6.69 0
 -6 -4 7 13.73 4.85 0
 -6 -4 8 74.18 8.94 0
 -6 -4 9 95.94 9.75 0
 -6 -4 10 61.08 9.02 0
 -6 -4 11 8.48 5.44 0
 -6 -4 12 50.55 9.1 0
 -6 -4 13 39.37 8.12 0
 -6 -3 2 100.04 6.79 0
 -6 -3 3 107.54 7.14 0
 -6 -3 4 15.41 4.15 0
 -6 -3 5 17.33 4.94 0
 -6 -3 6 82.4 7.51 0
 -6 -3 7 57.42 7.07 0
 -6 -3 8 86.11 8.56 0
 -6 -3 9 26.33 6 0
 -6 -3 10 112.08 9.95 0
 -6 -3 11 151.96 10.89 0
 -6 -3 12 124.53 11.06 0
 -6 -3 13 0.13 5.28 0
 -6 -3 14 143.1 12.24 0
 -6 -2 4 14.35 3.76 0
 -6 -2 5 3.58 3.16 0
 -6 -2 6 56.14 6.13 0
 -6 -2 7 2.75 3.66 0
 -6 -2 8 10.25 4.19 0
 -6 -2 9 14.64 5.01 0
 -6 -2 10 6.81 4.36 0
 -6 -2 11 33.5 6.25 0
 -6 -2 14 46.72 7.86 0
 -6 -1 8 69.18 6.81 0
 -6 -1 9 41.06 6.37 0
 -6 -1 10 -5 3.26 0
 -6 -1 11 42.45 6.89 0
 -5 -12 4 1.16 6.65 0
 -5 -11 3 5.26 6.31 0
 -5 -11 4 51.41 9.71 0
 -5 -11 5 38.47 9.74 0
 -5 -11 6 -2.83 6.12 0
 -5 -11 7 17.9 7.9 0
 -5 -10 2 46.91 8.87 0
 -5 -10 3 104.87 11.74 0
 -5 -10 4 11.93 7.09 0
 -5 -10 5 29.73 8.28 0
 -5 -10 7 125.45 12.32 0
 -5 -10 8 26.25 8.04 0
 -5 -10 9 4.31 6.92 0
 -5 -9 2 5.43 5.45 0
 -5 -9 3 116.96 11.2 0
 -5 -9 4 11.95 6.46 0
 -5 -9 5 114.87 11.47 0
 -5 -9 6 48.76 8.42 0
 -5 -9 7 62.63 9.71 0
 -5 -9 8 33.51 8.55 0
 -5 -9 9 26.33 7.89 0
 -5 -9 10 21.18 7.98 0
 -5 -9 11 50.09 9.87 0
 -5 -8 2 54.85 7.65 0
 -5 -8 3 21.63 6.48 0
 -5 -8 4 136.52 10.89 0
 -5 -8 5 1.8 4.83 0
 -5 -8 8 104.15 12.35 0
 -5 -8 9 16.29 7.43 0
 -5 -8 10 11.81 6.9 0
 -5 -8 11 110.11 13.5 0
 -5 -8 12 -5.3 5.44 0
 -5 -7 1 94.15 8.6 0
 -5 -7 2 157.95 10.56 0
 -5 -7 4 83.76 9.51 0
 -5 -7 5 143.97 10.58 0
 -5 -7 6 182.96 12.18 0
 -5 -7 7 141.07 11.93 0
 -5 -7 8 86.92 10.47 0
 -5 -7 9 64.37 9.28 0
 -5 -7 11 -3.69 5.3 0
 -5 -7 12 71.33 11.31 0
 -5 -7 13 133.33 13.63 0
 -5 -6 1 20.89 5.83 0
 -5 -6 2 137.65 9.21 0
 -5 -6 3 79.46 8.12 0
 -5 -6 4 5.15 4.23 0
 -5 -6 5 4.48 4.59 0
 -5 -6 6 11.98 5.1 0
 -5 -6 7 16.31 5.86 0
 -5 -6 8 62.07 8.69 0
 -5 -6 9 28.18 7.86 0
 -5 -6 11 2.79 5.74 0
 -5 -6 12 241.69 14.9 0
 -5 -6 13 21.13 7.54 0
 -5 -6 14 19.84 8.31 0
 -5 -5 1 63.33 7.22 0
 -5 -5 2 276.9 11.9 0
 -5 -5 3 90.17 7.97 0
 -5 -5 4 195.16 10.91 0
 -5 -5 5 5.8 4.73 0
 -5 -5 6 135.11 9.46 0
 -5 -5 7 65.49 7.93 0
 -5 -5 8 7.14 5.07 0
 -5 -5 9 25.71 6.31 0
 -5 -5 10 71.5 9.01 0
 -5 -5 11 29.34 7.25 0
 -5 -5 12 87.47 10.84 0
 -5 -5 14 160.2 12.89 0
 -5 -5 15 -0.81 7.23 0
 -5 -4 0 10.09 3.67 0
 -5 -4 1 36.06 5.36 0
 -5 -4 2 53.59 5.62 0
 -5 -4 4 43.06 5.87 0
 -5 -4 5 3.81 4.22 0
 -5 -4 6 67.66 6.82 0
 -5 -4 7 27.79 6.16 0
 -5 -4 8 14.76 4.98 0
 -5 -4 9 228 12.77 0
 -5 -4 11 124.56 10.67 0
 -5 -4 12 37.15 7.5 0
 -5 -4 13 11.16 6.05 0
 -5 -4 14 -0.38 5.94 0
 -5 -4 15 20.67 7.18 0
 -5 -3 4 5.28 3.63 0
 -5 -3 5 158.51 8.87 0
 -5 -3 6 32.61 5.58 0
 -5 -3 7 7.23 3.92 0
 -5 -3 8 90.89 8.14 0
 -5 -3 9 16.38 4.87 0
 -5 -3 10 254.79 12.76 0
 -5 -3 11 38.3 7.63 0
 -5 -3 12 37.5 7.96 0
 -5 -3 13 41.66 8.37 0
 -5 -3 14 64.05 9.03 0
 -5 -3 15 53.52 9.12 0
 -5 -3 16 21.11 7.6 0
 -5 -2 1 416.56 10.58 0
 -5 -2 2 137.31 6.89 0
 -5 -2 6 54.86 6.03 0
 -5 -2 7 19.24 4.41 0
 -5 -2 8 42.76 6.13 0
 -5 -2 10 0.25 4.25 0
 -5 -2 12 26.54 6.27 0
 -5 -2 13 43.83 7.8 0
 -5 -2 14 9.45 6.22 0
 -5 -2 15 183.8 13.71 0
 -5 -2 16 29.62 8.73 0
 -5 -1 1 98.11 4.89 0
 -5 -1 2 132.47 5.89 0
 -5 -1 3 156.56 6.62 0
 -5 -1 4 38.51 4.38 0
 -5 -1 8 71.53 6.39 0
 -5 -1 9 51.42 6.92 0
 -5 -1 10 244.63 11.94 0
 -5 -1 12 4.94 4.75 0
 -5 -1 16 66.84 9.91 0
 -5 0 2 0.01 1.41 0
 -5 0 3 180.5 6.24 0
 -5 0 4 6.69 2.55 0
 -5 0 5 128.17 6.26 0
 -5 0 7 26.44 4.38 0
 -5 0 8 509.67 14.32 0
 -5 0 9 22.71 4.58 0
 -5 0 10 -2.44 3.22 0
 -5 1 3 148.8 4.85 0
 -5 1 5 10.18 2.5 0
 -5 1 8 62.87 5.89 0
 -5 2 4 66.24 3.46 0
 -5 2 5 384.76 8.69 0
 -5 2 6 46.23 4.14 0
 -5 3 6 36.18 3.46 0
 -4 -13 4 16.94 8.7 0
 -4 -13 5 46.07 10.24 0
 -4 -12 3 71.48 10.83 0
 -4 -12 4 14.64 7.62 0
 -4 -12 6 137.83 14.1 0
 -4 -12 8 5.05 7.49 0
 -4 -11 2 45.5 8.81 0
 -4 -11 3 33.8 8.16 0
 -4 -11 4 82.86 10.99 0
 -4 -11 5 140.56 13.2 0
 -4 -11 6 75.08 11.02 0
 -4 -11 8 67.18 10.74 0
 -4 -11 9 23.91 8.88 0
 -4 -11 10 8.12 7.29 0
 -4 -10 1 27.49 7 0
 -4 -10 2 163.47 12.95 0
 -4 -10 3 29.67 7.2 0
 -4 -10 4 92.47 10.76 0
 -4 -10 5 1.43 6.08 0
 -4 -10 6 28.07 7.52 0
 -4 -10 7 7.42 7.32 0
 -4 -10 9 13.17 8.17 0
 -4 -10 10 5.25 6.58 0
 -4 -10 11 14.96 8.03 0
 -4 -10 12 18.58 9.43 0
 -4 -9 1 27.61 6.8 0
 -4 -9 2 16.79 5.88 0
 -4 -9 3 192.19 12.91 0
 -4 -9 4 106.6 10.12 0
 -4 -9 5 136.7 11.24 0
 -4 -9 6 10.87 6.49 0
 -4 -9 7 53.72 8.97 0
 -4 -9 8 16.62 6.85 0
 -4 -9 9 157.31 12.94 0
 -4 -9 10 10.13 6.87 0
 -4 -9 11 70.39 10.63 0
 -4 -9 12 55.61 10.38 0
 -4 -9 13 33.1 9.11 0
 -4 -8 0 10.9 5.14 0
 -4 -8 3 20.17 6.1 0
 -4 -8 4 96.98 9.17 0
 -4 -8 5 352.02 16 0
 -4 -8 6 148.47 11.09 0
 -4 -8 7 222.16 14.12 0
 -4 -8 8 82.31 9.58 0
 -4 -8 9 119.81 11.1 0
 -4 -8 10 150.66 13.33 0
 -4 -8 11 16.92 7.17 0
 -4 -8 12 30.1 8.06 0
 -4 -8 13 74.97 11 0
 -4 -8 14 38.06 9.35 0
 -4 -7 0 232.25 12.08 0
 -4 -7 1 33 5.9 0
 -4 -7 2 58.09 7.61 0
 -4 -7 3 115.05 9.34 0
 -4 -7 4 151.93 10.31 0
 -4 -7 5 1.13 4.43 0
 -4 -7 6 139.51 10.73 0
 -4 -7 7 107.9 10.4 0
 -4 -7 8 52.88 7.94 0
 -4 -7 9 46.2 8.11 0
 -4 -7 10 76.93 10.09 0
 -4 -7 12 7.69 6.46 0
 -4 -7 13 22.37 7.32 0
 -4 -7 14 8.68 7.01 0
 -4 -7 15 1.93 6.22 0
 -4 -6 0 318.47 12.37 0
 -4 -6 1 207.26 10.35 0
 -4 -6 2 43.18 6.09 0
 -4 -6 3 189.83 10.58 0
 -4 -6 4 432.2 15.3 0
 -4 -6 6 86.59 8.77 0
 -4 -6 7 0.14 4.54 0
 -4 -6 9 43.52 7.55 0
 -4 -6 10 38.49 7.57 0
 -4 -6 11 25.78 6.78 0
 -4 -6 12 92.35 10.17 0
 -4 -6 14 18.77 7.81 0
 -4 -6 15 72.96 10.94 0
 -4 -6 16 64.93 10.41 0
 -4 -5 -1 257.72 10.66 0
 -4 -5 0 222.71 9.97 0
 -4 -5 1 255.41 10.51 0
 -4 -5 3 255 11.19 0
 -4 -5 4 456.63 14.57 0
 -4 -5 5 351.7 13.24 0
 -4 -5 7 76.59 8.04 0
 -4 -5 8 61.04 7.25 0
 -4 -5 9 36.59 6.64 0
 -4 -5 10 54.99 7.74 0
 -4 -5 11 -0.38 4.68 0
 -4 -5 12 53.58 8.43 0
 -4 -5 13 51.25 8.69 0
 -4 -5 14 37.21 8.96 0
 -4 -5 15 92.54 11.24 0
 -4 -5 16 9.1 6.56 0
 -4 -4 4 50.2 6.27 0
 -4 -4 6 3.66 4.21 0
 -4 -4 7 249.14 11.52 0
 -4 -4 8 579.11 17.34 0
 -4 -4 10 436.78 16.26 0
 -4 -4 11 119.07 10.38 0
 -4 -4 12 207.51 13.22 0
 -4 -4 13 142.46 11.45 0
 -4 -4 14 1.18 6.49 0
 -4 -4 15 -2.89 5.86 0
 -4 -4 16 11.32 7.4 0
 -4 -4 17 -0.47 6.43 0
 -4 -3 0 1.44 2.71 0
 -4 -3 1 528.85 12.55 0
 -4 -3 2 192.12 8.16 0
 -4 -3 6 272.69 10.84 0
 -4 -3 7 519.64 15 0
 -4 -3 8 42.18 6.25 0
 -4 -3 9 30.12 5.68 0
 -4 -3 10 0.58 4.81 0
 -4 -3 11 31.18 6.47 0
 -4 -3 12 41.44 7.74 0
 -4 -3 13 221.2 13.04 0
 -4 -3 14 5.39 6.5 0
 -4 -3 15 16.02 7.52 0
 -4 -3 16 11.18 6.36 0
 -4 -3 17 50.17 9.39 0
 -4 -2 0 39.18 3.68 0
 -4 -2 2 308.05 9.1 0
 -4 -2 3 184.97 7.53 0
 -4 -2 4 141.58 6.97 0
 -4 -2 7 25.46 4.58 0
 -4 -2 8 24.73 4.87 0
 -4 -2 9 35.81 5.91 0
 -4 -1 0 996.46 12.98 0
 -4 -1 2 215.39 6.92 0
 -4 -1 3 621.82 12.06 0
 -4 -1 4 186.5 7.21 0
 -4 -1 5 299.91 9.41 0
 -4 0 1 70.36 3.42 0
 -4 0 3 82.3 4.46 0
 -4 0 4 619.36 11.73 0
 -4 0 5 187.55 7.09 0
 -4 1 1 9.78 1.3 0
 -4 1 2 202.36 5 0
 -4 1 3 605.3 9.57 0
 -4 1 4 198.56 6.34 0
 -4 2 2 300.53 4.76 0
 -4 2 3 178.42 4.81 0
 -3 -14 4 6.89 8.4 0
 -3 -13 3 175.67 14.21 0
 -3 -13 4 0.9 7.11 0
 -3 -13 5 81.68 11.75 0
 -3 -13 7 121.5 14.38 0
 -3 -13 8 -0.48 6.53 0
 -3 -12 2 68.79 10.97 0
 -3 -12 3 27.59 8.16 0
 -3 -12 4 64.85 9.83 0
 -3 -12 5 225.46 15.88 0
 -3 -12 6 128.06 12.25 0
 -3 -12 7 181.25 14.07 0
 -3 -12 8 37.36 8.85 0
 -3 -12 9 3.42 7.02 0
 -3 -12 10 25.12 9.1 0
 -3 -11 1 17.39 6.72 0
 -3 -11 2 240.47 15.17 0
 -3 -11 3 144.16 12.64 0
 -3 -11 4 32.12 8.21 0
 -3 -11 5 86.06 10.02 0
 -3 -11 7 18.93 7.32 0
 -3 -11 8 3.74 6.39 0
 -3 -11 10 41.26 10.05 0
 -3 -11 11 17.12 8.14 0
 -3 -11 12 9.24 7.85 0
 -3 -10 1 51.86 8.04 0
 -3 -10 2 231.22 13.9 0
 -3 -10 4 104.48 9.92 0
 -3 -10 5 360.82 16.87 0
 -3 -10 6 49.27 9.03 0
 -3 -10 7 13.83 5.92 0
 -3 -10 8 88.42 10.3 0
 -3 -10 9 151.21 12.59 0
 -3 -10 10 36.68 9.25 0
 -3 -10 11 17.23 7.42 0
 -3 -10 12 8.44 7.13 0
 -3 -9 0 93.65 9.33 0
 -3 -9 1 100.67 9.76 0
 -3 -9 2 155.16 11.03 0
 -3 -9 3 129.56 9.99 0
 -3 -9 4 294.08 14.61 0
 -3 -9 5 14.81 6.45 0
 -3 -9 6 72.28 9.24 0
 -3 -9 7 124.98 10.66 0
 -3 -9 8 196.15 13.13 0
 -3 -9 11 41.79 8.64 0
 -3 -9 12 0.2 6.19 0
 -3 -9 13 14.13 7.26 0
 -3 -9 14 8.2 6.82 0
 -3 -8 -1 28.75 5.49 0
 -3 -8 2 142.67 9.78 0
 -3 -8 3 60.71 7.6 0
 -3 -8 5 132.89 9.78 0
 -3 -8 6 214.8 12.57 0
 -3 -8 7 49.6 7.69 0
 -3 -8 8 58.33 8.77 0
 -3 -8 9 39.78 8.2 0
 -3 -8 10 48.92 8.19 0
 -3 -8 11 7.7 7.08 0
 -3 -8 12 451.49 20.08 0
 -3 -8 14 8.42 6.72 0
 -3 -8 15 28.15 9.49 0
 -3 -7 0 -2.75 3.17 0
 -3 -7 1 325.69 12.9 0
 -3 -7 3 97.31 8.25 0
 -3 -7 4 18.73 4.85 0
 -3 -7 5 9.36 4.44 0
 -3 -7 6 305.02 13.72 0
 -3 -7 7 414.25 16.13 0
 -3 -7 8 139.17 10.15 0
 -3 -7 9 34.96 6.68 0
 -3 -7 10 10.09 5.95 0
 -3 -7 11 54.43 8.26 0
 -3 -7 12 144.16 11.51 0
 -3 -7 13 61.19 9.14 0
 -3 -7 14 3.41 6.27 0
 -3 -7 15 11.71 7.75 0
 -3 -7 16 21.92 7.99 0
 -3 -6 0 31.11 4.97 0
 -3 -6 1 56.85 6.27 0
 -3 -6 3 317.41 12.2 0
 -3 -6 4 160.85 9.35 0
 -3 -6 5 300.22 12.5 0
 -3 -6 6 156 9.39 0
 -3 -6 7 270.66 12.24 0
 -3 -6 8 25.47 5.89 0
 -3 -6 10 36.22 6.71 0
 -3 -6 11 50.92 8.36 0
 -3 -6 13 114.2 11.01 0
 -3 -6 14 24.16 7.48 0
 -3 -6 15 54.38 9.43 0
 -3 -6 16 46.68 9.13 0
 -3 -6 17 5.11 7.3 0
 -3 -5 4 6.8 3.2 0
 -3 -5 8 173.55 10.02 0
 -3 -5 9 398.93 15.03 0
 -3 -5 10 509.5 17.35 0
 -3 -5 11 75.13 8.05 0
 -3 -5 12 61.28 8.22 0
 -3 -5 13 -1.25 4.75 0
 -3 -5 14 33.76 7.29 0
 -3 -5 15 27.71 7.5 0
 -3 -5 16 -3.46 5.42 0
 -3 -5 17 19.75 7.89 0
 -3 -4 0 131.48 6.97 0
 -3 -4 1 92.98 6.28 0
 -3 -4 2 87.82 6.04 0
 -3 -4 6 355.07 12.04 0
 -3 -4 7 501.93 14.71 0
 -3 -4 8 126.09 8.82 0
 -3 -4 10 47.78 6.76 0
 -3 -4 18 7.38 6.83 0
 -3 -3 -1 558.15 11.74 0
 -3 -3 0 24.32 3.34 0
 -3 -3 2 532.06 11.81 0
 -3 -3 3 323.54 9.51 0
 -3 -3 4 172.9 7.74 0
 -3 -3 7 421.64 12.93 0
 -3 -2 -1 1017.13 13.94 0
 -3 -2 0 2824.02 23 0
 -3 -2 1 1012.62 14.14 0
 -3 -2 2 466.84 10.16 0
 -3 -2 4 164.34 6.93 0
 -3 -2 5 153.46 7.17 0
 -3 -1 -1 712.81 10.09 0
 -3 -1 0 102.62 4.13 0
 -3 -1 1 702.9 10.37 0
 -3 -1 2 326.86 7.53 0
 -3 -1 3 15.59 2.5 0
 -3 -1 4 543.92 10.87 0
 -3 0 0 0.1 1.01 0
 -3 0 1 1250.39 11.84 0
 -3 0 2 163.06 4.92 0
 -3 0 3 746.83 10.84 0
 -3 1 0 98.71 2.19 0
 -3 1 2 333.25 5.93 0
 -3 4 1 87.93 2.27 0
 -2 -14 4 137.37 13.07 0
 -2 -14 7 28.37 8.9 0
 -2 -13 3 121.45 11.79 0
 -2 -13 5 191.43 14.27 0
 -2 -13 6 67.99 11.46 0
 -2 -13 9 60.74 10.61 0
 -2 -12 2 103.92 10.9 0
 -2 -12 3 49.23 9.05 0
 -2 -12 4 9.14 6.12 0
 -2 -12 5 53.36 9.12 0
 -2 -12 6 39.26 8.95 0
 -2 -12 7 129.23 12.85 0
 -2 -12 8 24.78 8.08 0
 -2 -12 9 39.5 9.31 0
 -2 -12 10 103.04 11.99 0
 -2 -12 12 -1.85 6.84 0
 -2 -11 2 193.44 13.03 0
 -2 -11 3 282.36 14.96 0
 -2 -11 4 187.58 12.53 0
 -2 -11 5 84.44 10.46 0
 -2 -11 6 6.17 6.46 0
 -2 -11 7 83.79 10.72 0
 -2 -11 8 24.09 7.29 0
 -2 -11 9 177.67 13.28 0
 -2 -11 10 6.34 7.33 0
 -2 -11 11 55.74 9.62 0
 -2 -11 12 153.64 13.33 0
 -2 -11 13 1.01 6.58 0
 -2 -10 1 29.18 6.34 0
 -2 -10 2 12.51 5.53 0
 -2 -10 3 300.05 14.35 0
 -2 -10 5 113.03 10.41 0
 -2 -10 6 123.71 10.8 0
 -2 -10 7 22.74 6.47 0
 -2 -10 9 2.34 5.5 0
 -2 -10 10 83.95 10.17 0
 -2 -10 11 105.71 12.61 0
 -2 -10 12 192.86 15.18 0
 -2 -10 14 22.63 8.1 0
 -2 -9 1 174.21 10.36 0
 -2 -9 2 88.76 7.71 0
 -2 -9 3 76.81 7.38 0
 -2 -9 4 142.64 10.53 0
 -2 -9 5 114.76 9.13 0
 -2 -9 6 76.1 8.6 0
 -2 -9 7 67.99 8.89 0
 -2 -9 8 382.93 16.56 0
 -2 -9 9 19.65 6.42 0
 -2 -9 10 151.02 12.52 0
 -2 -9 11 31.46 7.55 0
 -2 -9 12 67.08 9.74 0
 -2 -9 13 182.76 13.75 0
 -2 -9 14 105.88 12.75 0
 -2 -8 -1 167.55 9.49 0
 -2 -8 0 215.8 10.49 0
 -2 -8 1 164.63 9.62 0
 -2 -8 2 49.55 6.58 0
 -2 -8 3 150.79 9.59 0
 -2 -8 4 67.46 7.49 0
 -2 -8 5 247.91 12.01 0
 -2 -8 6 27.58 5.78 0
 -2 -8 7 26.72 5.81 0
 -2 -8 8 86.83 9.21 0
 -2 -8 9 107.19 10.01 0
 -2 -8 10 77.37 9.61 0
 -2 -8 11 19.6 6.21 0
 -2 -8 13 96.48 11.42 0
 -2 -8 14 37.81 9 0
 -2 -8 15 60.33 10.14 0
 -2 -8 16 9.42 6.66 0
 -2 -7 -1 145.67 8.33 0
 -2 -7 0 0.25 2.84 0
 -2 -7 1 159.26 8.64 0
 -2 -7 2 223.81 10.2 0
 -2 -7 3 171.06 9.47 0
 -2 -7 5 171.56 9.85 0
 -2 -7 6 351.63 13.45 0
 -2 -7 7 129.01 9.05 0
 -2 -7 8 0.6 4.09 0
 -2 -7 9 106.97 8.91 0
 -2 -7 10 16.09 5.81 0
 -2 -7 11 60.7 8.14 0
 -2 -7 12 33.71 6.93 0
 -2 -7 13 38.71 8.56 0
 -2 -7 14 174.84 12.88 0
 -2 -7 15 44.62 8.93 0
 -2 -7 16 12.09 7.02 0
 -2 -7 17 52.93 10.09 0
 -2 -6 4 133.19 8.16 0
 -2 -6 5 706.51 17.16 0
 -2 -6 6 14.44 4.06 0
 -2 -6 7 722.72 18.31 0
 -2 -6 9 180.35 10.28 0
 -2 -6 10 38.12 7.15 0
 -2 -6 11 331.46 14.6 0
 -2 -6 12 76.05 9.13 0
 -2 -6 14 71.71 9.28 0
 -2 -6 15 26.82 7.16 0
 -2 -6 16 14.79 6.59 0
 -2 -6 17 19.13 8.58 0
 -2 -5 0 7.32 2.72 0
 -2 -5 1 199.74 8.08 0
 -2 -5 2 626.66 14.38 0
 -2 -5 7 1506.08 24.78 0
 -2 -5 8 52.17 6.55 0
 -2 -5 9 499.8 15.89 0
 -2 -5 10 31.13 5.67 0
 -2 -5 11 42.2 6.49 0
 -2 -4 0 470.49 10.97 0
 -2 -4 2 149.07 6.65 0
 -2 -4 3 341.54 9.77 0
 -2 -4 4 179.28 7.87 0
 -2 -4 5 53.05 5.05 0
 -2 -3 -1 375.1 9 0
 -2 -3 0 19.5 2.97 0
 -2 -3 1 383.8 9.01 0
 -2 -3 2 2568 23.18 0
 -2 -3 3 163.1 6.38 0
 -2 -3 4 154.17 6.57 0
 -2 -2 -1 1276.97 13.95 0
 -2 -2 1 1256.54 14.11 0
 -2 -2 2 211.75 6.21 0
 -2 -2 3 114.25 5.29 0
 -2 -1 -1 1744.39 13.61 0
 -2 -1 0 371.5 6.46 0
 -2 -1 1 1771.96 14.31 0
 -2 -1 2 2126.8 16.66 0
 -2 0 0 529.05 5.94 0
 -2 0 1 889.7 8.45 0
 -2 3 0 19.44 1.26 0
 -2 3 1 372.34 5.19 0
 -1 -15 6 112.85 12.93 0
 -1 -14 4 68.35 11.09 0
 -1 -14 5 87.25 11.22 0
 -1 -14 6 57.01 9.89 0
 -1 -14 7 12.63 7.21 0
 -1 -14 8 91.18 11.71 0
 -1 -14 9 7.26 7.02 0
 -1 -13 3 24.71 7.41 0
 -1 -13 4 201.57 13.64 0
 -1 -13 5 127.02 12.06 0
 -1 -13 6 9.51 6.63 0
 -1 -13 7 64.58 10.25 0
 -1 -13 9 3.67 7.43 0
 -1 -13 10 4.2 6.44 0
 -1 -12 2 155.72 12.24 0
 -1 -12 4 84.58 9.81 0
 -1 -12 5 41.82 7.89 0
 -1 -12 6 36.56 8.64 0
 -1 -12 7 129.96 11.6 0
 -1 -12 8 16.56 6.82 0
 -1 -12 9 104.28 10.87 0
 -1 -12 10 47.46 9.41 0
 -1 -12 11 56.46 9.61 0
 -1 -12 12 69.16 10.72 0
 -1 -12 13 19.22 7.78 0
 -1 -11 1 171.31 11.34 0
 -1 -11 2 56.95 7.85 0
 -1 -11 3 82.46 9.27 0
 -1 -11 4 70.29 8.86 0
 -1 -11 5 9.73 5.49 0
 -1 -11 6 145.64 11.43 0
 -1 -11 7 124.3 11.01 0
 -1 -11 8 37.27 8.03 0
 -1 -11 9 37.93 8.44 0
 -1 -11 10 53.56 9.54 0
 -1 -11 11 40.51 8.57 0
 -1 -11 12 64.53 9.78 0
 -1 -11 13 133.68 12.41 0
 -1 -11 14 75.97 11.05 0
 -1 -10 1 395.6 15.42 0
 -1 -10 2 256.85 12.76 0
 -1 -10 3 64.81 7.56 0
 -1 -10 5 76.75 7.99 0
 -1 -10 6 35.61 6.55 0
 -1 -10 7 52.25 7.92 0
 -1 -10 8 25.51 6.66 0
 -1 -10 9 26.53 7.3 0
 -1 -10 10 4.04 5.24 0
 -1 -10 11 232.11 14.67 0
 -1 -10 12 13.25 6.49 0
 -1 -10 13 57.5 9.27 0
 -1 -10 14 77 11.24 0
 -1 -10 15 41.76 8.79 0
 -1 -9 0 1.39 3.23 0
 -1 -9 2 11.03 4.4 0
 -1 -9 3 361.54 13.8 0
 -1 -9 4 101.43 8.24 0
 -1 -9 5 114.5 9.21 0
 -1 -9 6 59.46 7.36 0
 -1 -9 7 50.08 7.16 0
 -1 -9 8 54.85 7.91 0
 -1 -9 10 9.4 5.34 0
 -1 -9 12 198.89 13.04 0
 -1 -9 13 85.67 10.67 0
 -1 -9 14 66.35 10.53 0
 -1 -9 15 10.01 6.32 0
 -1 -9 16 5.54 6.66 0
 -1 -8 -1 141.24 8.41 0
 -1 -8 0 7.7 3.54 0
 -1 -8 1 139.93 8.63 0
 -1 -8 2 149.64 9.07 0
 -1 -8 3 508.06 15.1 0
 -1 -8 4 394.62 13.85 0
 -1 -8 5 103.39 8.23 0
 -1 -8 6 207.52 10.6 0
 -1 -8 7 117.72 8.52 0
 -1 -8 8 40.41 6.74 0
 -1 -8 9 28.89 5.89 0
 -1 -8 11 163.94 10.9 0
 -1 -8 12 53.48 8.12 0
 -1 -8 13 57.26 8.39 0
 -1 -8 15 156.74 13.07 0
 -1 -8 16 44.32 8.88 0
 -1 -8 17 32.2 8.96 0
 -1 -7 4 118.96 7.85 0
 -1 -7 5 356.75 12.48 0
 -1 -7 7 150.11 9.09 0
 -1 -7 8 43.41 5.93 0
 -1 -7 10 368.61 14.63 0
 -1 -7 11 121.86 9.99 0
 -1 -7 12 203.27 12.89 0
 -1 -7 15 21.24 6.88 0
 -1 -7 16 101.86 12.44 0
 -1 -7 17 14.17 8.31 0
 -1 -7 18 96.32 12.05 0
 -1 -6 -1 314.05 10.28 0
 -1 -6 0 248.25 9.2 0
 -1 -6 1 310.4 10.09 0
 -1 -6 2 327.49 10.49 0
 -1 -6 7 646.48 16.44 0
 -1 -6 8 6.06 3.47 0
 -1 -6 9 384.25 13.71 0
 -1 -6 11 35.81 6.04 0
 -1 -6 12 28.26 6.2 0
 -1 -6 13 192.02 12.3 0
 -1 -6 15 30.06 7.13 0
 -1 -6 16 70.6 10.41 0
 -1 -6 17 12.64 6.51 0
 -1 -6 18 36.17 9.51 0
 -1 -5 -1 -0.96 2.42 0
 -1 -5 0 556.93 11.94 0
 -1 -5 1 -1.75 2.25 0
 -1 -5 2 503.04 11.66 0
 -1 -5 4 714.97 14.37 0
 -1 -5 5 459.29 11.95 0
 -1 -5 8 406.34 12.99 0
 -1 -4 -1 1055.22 14.74 0
 -1 -4 0 5271.33 32.41 0
 -1 -4 1 1085.1 15.02 0
 -1 -4 2 1949.21 20.36 0
 -1 -4 4 1377.27 18.26 0
 -1 -4 5 1643.14 20.72 0
 -1 -3 -1 2249.22 19.1 0
 -1 -3 0 4856.75 27.27 0
 -1 -3 1 2225.37 18.69 0
 -1 -3 2 343.43 7.78 0
 -1 -3 3 1077.94 14.08 0
 -1 -2 -1 1413.52 12.86 0
 -1 -2 0 3227.7 18.95 0
 -1 -2 1 1515.03 13.2 0
 -1 -2 2 376.63 7.19 0
 -1 -1 0 5035.32 18.71 0
 -1 -1 1 1086.83 9.27 0
 -1 2 0 3241.81 12.08 0
 0 -15 7 1.2 5.91 0
 0 -14 5 0.69 5.45 0
 0 -14 6 360.44 17.57 0
 0 -14 7 36.22 8.89 0
 0 -14 9 27.41 8.16 0
 0 -14 10 81.4 10.74 0
 0 -13 4 118.38 10.66 0
 0 -13 6 9.09 6.62 0
 0 -13 7 20.21 6.67 0
 0 -13 8 3.03 5.59 0
 0 -13 9 1.15 5.28 0
 0 -13 10 52.86 9.16 0
 0 -13 11 40.1 8.21 0
 0 -13 12 160.8 13.76 0
 0 -12 4 5.46 4.89 0
 0 -12 6 101.21 10.02 0
 0 -12 7 22.74 7.43 0
 0 -12 8 229.51 14.15 0
 0 -12 9 40.81 7.91 0
 0 -12 10 147.19 12.48 0
 0 -12 11 3.25 5.7 0
 0 -12 12 1.8 5.96 0
 0 -11 2 136.39 10.36 0
 0 -11 3 240.54 12.65 0
 0 -11 4 7.56 4.7 0
 0 -11 5 159.29 10.94 0
 0 -11 6 110.12 9.83 0
 0 -11 7 28.56 6.32 0
 0 -11 8 6.53 5.66 0
 0 -11 9 54.63 8.18 0
 0 -11 10 1.33 5.06 0
 0 -11 11 1.38 5.84 0
 0 -11 12 36.43 8.21 0
 0 -11 13 55.74 9.42 0
 0 -11 14 229.84 15.64 0
 0 -11 15 1.76 6.3 0
 0 -10 1 463.67 15.77 0
 0 -10 2 38.06 5.91 0
 0 -10 3 4.93 4.04 0
 0 -10 4 163.84 9.94 0
 0 -10 5 16.17 4.92 0
 0 -10 6 21.12 5.24 0
 0 -10 8 -3.27 4.01 0
 0 -10 9 3.45 4.33 0
 0 -10 10 7.72 5.14 0
 0 -10 12 289.91 15.22 0
 0 -10 13 -0.3 5.16 0
 0 -10 14 184.15 13.94 0
 0 -10 15 4.26 5.58 0
 0 -9 1 254.12 11.04 0
 0 -9 2 166.48 9.43 0
 0 -9 3 1.71 3.48 0
 0 -9 5 53.08 7 0
 0 -9 7 581.74 17.65 0
 0 -9 8 9.05 4.57 0
 0 -9 9 5.68 5.17 0
 0 -9 10 -5.14 4.46 0
 0 -9 11 42.21 6.67 0
 0 -9 12 52.53 8.16 0
 0 -9 13 511.41 19.42 0
 0 -9 14 3.38 5.1 0
 0 -9 15 26.17 7.96 0
 0 -9 16 17.57 7.42 0
 0 -9 17 112.3 13.29 0
 0 -8 4 75.22 6.77 0
 0 -8 5 59.08 6.22 0
 0 -8 6 21.88 4.93 0
 0 -8 8 203.49 10.57 0
 0 -8 9 44.77 6.49 0
 0 -8 10 0.3 3.52 0
 0 -8 11 380.69 15.62 0
 0 -8 12 190.37 11.63 0
 0 -8 13 143.04 11.31 0
 0 -8 14 0.19 5.59 0
 0 -8 15 6.23 6.17 0
 0 -8 16 36.18 8.27 0
 0 -8 17 17.83 7.49 0
 0 -7 0 1.36 2.73 0
 0 -7 6 18.2 4.1 0
 0 -7 7 37.83 5.05 0
 0 -7 9 196.13 10.36 0
 0 -7 10 11.62 4.54 0
 0 -7 12 4.33 4.4 0
 0 -7 13 86.99 9.99 0
 0 -7 14 -2.14 4.19 0
 0 -7 15 33.39 7.04 0
 0 -7 16 16.81 6.58 0
 0 -7 17 7.6 6.58 0
 0 -7 18 -2.13 5.62 0
 0 -6 0 39.48 4 0
 0 -6 3 25.63 3.73 0
 0 -6 4 1957.25 23.69 0
 0 -6 5 17.74 3.65 0
 0 -6 8 76.25 6.44 0
 0 -6 9 789.15 18.18 0
 0 -6 11 244.16 11.41 0
 0 -6 18 5.84 5.89 0
 0 -6 19 2.6 6.07 0
 0 -5 -1 400.98 9.59 0
 0 -5 0 -1.04 1.81 0
 0 -5 3 1093.83 15.91 0
 0 -5 4 1179.15 16.73 0
 0 -5 6 168.86 7.33 0
 0 -4 -1 3049.82 22.8 0
 0 -4 0 1100.89 13.51 0
 0 -4 1 3076.12 22.58 0
 0 -4 2 11.14 2.5 0
 0 -4 3 1524.98 16.7 0
 0 -4 4 459.31 9.92 0
 0 -3 0 0.5 2.15 0
 0 -3 1 278.47 6.01 0
 0 -3 2 6913.99 29.5 0
 0 -3 3 4639.6 25.69 0
 0 -2 0 287.3 4.93 0
 0 -2 1 402.44 5.97 0
 0 1 0 1.63 0.72 0
 0 2 0 304.86 5.2 0
 1 -14 7 19.49 6.87 0
 1 -13 5 121.62 10.63 0
 1 -13 6 10.15 6.06 0
 1 -13 8 95.91 10.04 0
 1 -13 9 1.25 4.77 0
 1 -13 10 8.46 5.7 0
 1 -12 4 74.97 8.39 0
 1 -12 6 39.32 6.58 0
 1 -12 8 20.13 6.6 0
 1 -12 9 103.09 9.81 0
 1 -12 10 59.64 8.28 0
 1 -12 11 84.17 10.36 0
 1 -12 12 62.85 8.91 0
 1 -11 4 65.87 7.91 0
 1 -11 5 13.93 5.24 0
 1 -11 6 139.2 9.85 0
 1 -11 7 141.32 9.96 0
 1 -11 8 39.28 7.17 0
 1 -11 9 33.11 6.33 0
 1 -11 11 33 6.73 0
 1 -11 12 70.51 9.45 0
 1 -11 14 80.17 10.67 0
 1 -11 15 8.52 5.97 0
 1 -10 2 237.95 10.65 0
 1 -10 3 60.19 7.35 0
 1 -10 5 65.01 6.42 0
 1 -10 6 47.85 6.48 0
 1 -10 7 53.28 6.79 0
 1 -10 8 35.52 6.21 0
 1 -10 9 30.98 6.3 0
 1 -10 10 9.98 4.76 0
 1 -10 11 230.98 13.04 0
 1 -10 12 9.31 5.3 0
 1 -10 13 49.95 8.09 0
 1 -10 14 78.41 9.68 0
 1 -10 15 32.71 7.7 0
 1 -10 16 86.25 10.49 0
 1 -9 2 12.49 4.29 0
 1 -9 3 362.07 12.26 0
 1 -9 4 101.29 7.49 0
 1 -9 5 105.56 7.31 0
 1 -9 6 46.7 5.8 0
 1 -9 8 48.77 6.4 0
 1 -9 9 145.96 9.75 0
 1 -9 10 7.08 4.44 0
 1 -9 13 79.04 8.8 0
 1 -9 14 53.62 8.18 0
 1 -9 15 5.27 5.64 0
 1 -9 16 7.3 6.53 0
 1 -8 6 214.18 9.38 0
 1 -8 8 38.06 5.47 0
 1 -8 10 144.91 9.05 0
 1 -8 11 174.94 10.44 0
 1 -8 12 60.86 7.47 0
 1 -8 14 119.75 10.47 0
 1 -8 15 166.25 11.6 0
 1 -8 16 43.87 7.78 0
 1 -8 17 49.28 8.66 0
 1 -7 1 93.2 5.43 0
 1 -7 3 466.55 11.47 0
 1 -7 4 130.15 6.58 0
 1 -7 8 37.46 5.05 0
 1 -7 9 119.27 8.1 0
 1 -7 10 363.5 13.25 0
 1 -7 11 119.75 8.54 0
 1 -7 12 200.04 11.3 0
 1 -7 13 42.25 6.57 0
 1 -7 15 19.31 6.12 0
 1 -7 16 115.02 10.93 0
 1 -7 17 13.71 6.97 0
 1 -7 18 67.22 9.5 0
 1 -6 1 300.03 8.18 0
 1 -6 2 330.19 8.83 0
 1 -6 4 147.14 6.48 0
 1 -6 5 368.54 10 0
 1 -6 6 332.51 9.92 0
 1 -6 9 344.67 11.66 0
 1 -6 11 35.14 5.49 0
 1 -6 19 5.34 5.72 0
 1 -5 0 551.73 9.83 0
 1 -5 1 3.06 1.82 0
 1 -5 2 521.09 9.72 0
 1 -5 3 306.83 7.74 0
 1 -5 4 725.92 12.15 0
 1 -5 5 477.1 10.34 0
 1 -5 6 481.93 11.11 0
 1 -5 7 548.31 12.33 0
 1 -4 0 5303.57 25.94 0
 1 -4 1 1065.85 11.56 0
 1 -4 2 1906.11 15.76 0
 1 -4 3 92.4 4.06 0
 1 -4 4 1387.32 15.04 0
 1 -3 2 346.14 5.7 0
 1 -3 3 1086.62 10.92 0
 1 1 0 5166.76 18.54 0
 1 1 1 1066.82 8.85 0
 2 -11 6 4.24 3 0
 2 -11 7 106.89 7.78 0
 2 -11 8 23.25 4.99 0
 2 -10 4 131.87 7.47 0
 2 -10 5 131.9 7.71 0
 2 -10 6 107.77 7.13 0
 2 -10 7 23.4 4.48 0
 2 -10 8 46.16 6.06 0
 2 -10 9 5.7 3.89 0
 2 -10 10 93.69 7.56 0
 2 -10 11 102.83 8 0
 2 -9 6 62.9 5.72 0
 2 -9 7 64.7 5.94 0
 2 -9 8 397.8 12.83 0
 2 -9 9 21.69 4.58 0
 2 -9 11 24.1 5.32 0
 2 -9 12 61.63 7.4 0
 2 -9 13 176.5 10.68 0
 2 -9 14 133.97 9.89 0
 2 -8 3 163.92 7.07 0
 2 -8 4 64.9 4.8 0
 2 -8 8 90.15 6.21 0
 2 -8 10 67.4 6.07 0
 2 -8 11 21.36 4.63 0
 2 -8 12 33.66 5.39 0
 2 -8 13 103.37 8.01 0
 2 -8 14 42.59 6.45 0
 2 -8 15 54.02 7.79 0
 2 -8 16 9.29 4.97 0
 2 -7 2 241.53 7.47 0
 2 -7 3 172.19 6.45 0
 2 -7 4 386.69 9.65 0
 2 -7 5 173.33 6.87 0
 2 -7 6 337.42 9.81 0
 2 -7 9 91.76 6.39 0
 2 -7 10 18.55 4.23 0
 2 -7 11 60.27 6.26 0
 2 -7 12 29.56 5.08 0
 2 -7 14 179.24 10.87 0
 2 -7 15 43.58 7.09 0
 2 -7 16 7.19 4.95 0
 2 -7 17 46.62 7.84 0
 2 -7 18 6.11 5.16 0
 2 -6 4 135.29 5.3 0
 2 -6 5 698.04 12.19 0
 2 -6 6 23.93 3.45 0
 2 -6 7 693.61 13.37 0
 2 -6 10 27.19 4.25 0
 2 -6 11 336.48 11.77 0
 2 -6 12 97.2 7.12 0
 2 -6 13 2.52 3.41 0
 2 -6 16 7.34 4.82 0
 2 -6 17 20.39 6.39 0
 2 -6 18 29.58 6.98 0
 2 -5 5 247.44 6.62 0
 2 -5 6 315.31 8.01 0
 2 -5 7 1527.36 18.64 0
 2 -5 8 52.05 4.25 0
 2 -4 2 157.72 3.72 0
 2 -4 3 331.11 5.79 0
 2 -3 2 2513.24 10.45 0
 2 -3 3 164.56 3.45 0
 2 0 1 903.46 7.28 0
 2 0 2 1659.89 10.96 0
 3 -7 5 13.62 1.95 0
 3 -6 5 304.44 6.3 0
 3 -6 6 149.96 5.02 0
 3 -6 7 285.06 7.4 0
 3 -5 4 8.31 1.06 0
 3 -5 5 91.86 3.22 0
 3 -5 6 5.94 1.55 0
 3 -5 7 20.15 2.44 0
 3 -4 5 227.53 4.4 0
 3 -4 6 361.4 6.72 0
 3 -4 7 515.97 8.94 0
 3 -2 4 166.79 3.1 0
 3 -1 3 9.52 1.12 0
 4 -1 4 194.38 3.11 0
 -1 -10 -14 77.03 11.26 0
 -1 -10 -13 42.32 9.11 0
 -1 -10 -12 1.39 6.02 0
 -1 -10 -11 228.41 15.74 0
 -1 -10 -10 3.99 6.09 0
 -1 -10 -9 29.87 7.83 0
 -1 -10 -8 33.32 7.29 0
 -1 -10 -7 56.56 8.58 0
 -1 -9 -15 9.7 7.33 0
 -1 -9 -14 44.8 9.49 0
 -1 -9 -13 71.84 10.37 0
 -1 -9 -12 201.37 14.71 0
 -1 -9 -11 108.45 10.91 0
 -1 -9 -10 7.78 5.41 0
 -1 -9 -7 56.98 8.11 0
 -1 -8 -17 55.96 11.47 0
 -1 -8 -16 49.72 10.19 0
 -1 -8 -15 178.74 14.18 0
 -1 -8 -14 121.31 11.69 0
 -1 -8 -13 61.4 9.75 0
 -1 -8 -12 65.18 10.06 0
 -1 -8 -10 125.16 10.6 0
 -1 -8 -8 45.03 7.16 0
 -1 -8 -4 424.86 14.25 0
 -1 -7 -18 92.36 12.07 0
 -1 -7 -16 103.84 11.4 0
 -1 -7 -12 210.12 13.57 0
 -1 -7 -10 380.5 16.39 0
 -1 -7 -7 162.87 10.16 0
 -1 -7 -6 119.57 8.55 0
 -1 -6 -17 9.76 6.85 0
 -1 -6 -15 24.25 8.15 0
 -1 -6 -14 88.45 10.53 0
 -1 -6 -13 194.72 13.04 0
 -1 -6 -12 24.46 6.71 0
 -1 -6 -11 29.9 6.48 0
 -1 -6 -10 88.53 9.01 0
 -1 -6 -9 377.39 15.06 0
 -1 -6 -8 8.95 4.73 0
 -1 -6 -7 651.42 17.86 0
 -1 -5 -18 192.48 14.46 0
 -1 -5 -17 0.71 6.19 0
 -1 -5 -16 85.98 10.48 0
 -1 -5 -14 39.58 8.15 0
 -1 -5 -13 79.68 8.81 0
 -1 -5 -12 317.51 14.71 0
 -1 -5 -11 26.1 6.34 0
 -1 -5 -10 27.53 5.7 0
 -1 -4 -18 25.34 7.27 0
 -1 -4 -16 16.25 6.96 0
 -1 -4 -15 17.09 5.98 0
 -1 -4 -14 7.61 6.31 0
 -1 -4 -13 201.97 12.45 0
 -1 -4 -12 178.38 11.3 0
 -1 -4 -10 39.69 6.09 0
 -1 -4 -4 1333.7 19.56 0
 -1 -4 -3 100.57 5.42 0
 -1 -4 -2 1936.62 20.94 0
 -1 -3 -18 14.64 6.16 0
 -1 -3 -17 39.5 7.55 0
 -1 -3 -16 12.63 6.2 0
 -1 -3 -13 8.91 4.66 0
 -1 -3 -12 86.99 8.07 0
 -1 -3 -11 40.37 5.85 0
 -1 -3 -8 146.47 7.95 0
 -1 -3 -7 493.41 13.12 0
 -1 -3 -5 392.93 10.52 0
 -1 -3 -4 721.37 13.63 0
 -1 -3 -3 1104.39 15.54 0
 -1 -2 -18 25.89 6.57 0
 -1 -2 -17 74.23 8.85 0
 -1 -2 -16 52.23 7.22 0
 -1 -2 -14 120.59 9.73 0
 -1 -2 -13 175.73 10.08 0
 -1 -2 -12 179.36 9.8 0
 -1 -2 -6 607.95 12.9 0
 -1 -2 -5 1382.47 17.92 0
 -1 -2 -4 997.19 14.31 0
 -1 -2 -3 1652.6 17.12 0
 -1 -1 -17 51.84 7.46 0
 -1 -1 -16 56.74 6.96 0
 -1 -1 -15 27.84 5.46 0
 -1 -1 -14 105.85 8.62 0
 -1 -1 -13 177.04 9.51 0
 -1 -1 -10 123.43 7.4 0
 -1 -1 -9 758.26 15.46 0
 -1 -1 -8 44.06 4.75 0
 -1 -1 -6 851.71 13.8 0
 -1 -1 -5 964.57 13.85 0
 -1 -1 -4 144.79 5.51 0
 -1 0 -16 464.94 14.81 0
 -1 0 -15 32.66 5.17 0
 -1 0 -14 522.59 14.95 0
 -1 0 -12 215.54 9.14 0
 -1 0 -11 18.73 3.78 0
 -1 0 -10 138.17 6.91 0
 -1 0 -9 73.11 5.01 0
 -1 0 -8 248.33 7.87 0
 -1 0 -7 13.16 2.63 0
 -1 0 -6 4.46 2.06 0
 -1 0 -5 865.16 11.48 0
 -1 1 -12 93.84 5.91 0
 -1 1 -10 130.45 6.2 0
 -1 1 -9 776.38 13.08 0
 -1 1 -8 52.43 3.57 0
 -1 1 -7 153.01 5.17 0
 -1 2 -12 168.93 6.54 0
 -1 2 -11 223.09 6.96 0
 -1 2 -10 618.84 10.62 0
 -1 2 -9 447.97 8.47 0
 0 -13 -11 43.62 9.86 0
 0 -13 -10 54.54 9.63 0
 0 -13 -9 -0.45 5.85 0
 0 -13 -8 -2.34 6.62 0
 0 -12 -13 19.83 8.63 0
 0 -12 -12 4.46 7.27 0
 0 -12 -11 1.76 6.65 0
 0 -12 -10 151.86 13.94 0
 0 -12 -8 258.52 15.67 0
 0 -12 -7 28.74 7.81 0
 0 -12 -6 103.36 10.49 0
 0 -12 -5 100.18 9.37 0
 0 -11 -14 214.33 17.03 0
 0 -11 -13 61.39 11.14 0
 0 -11 -12 33.35 9.23 0
 0 -11 -11 -2.72 6.01 0
 0 -11 -10 7.94 7.47 0
 0 -11 -9 54.64 9.9 0
 0 -11 -8 11.26 6.4 0
 0 -11 -7 33.03 7.4 0
 0 -11 -6 111.18 10.15 0
 0 -11 -4 3.06 4.27 0
 0 -11 -3 252.87 11.99 0
 0 -10 -15 12.22 8.15 0
 0 -10 -14 200.01 15.73 0
 0 -10 -12 312.8 18.71 0
 0 -10 -11 113.31 11.58 0
 0 -10 -10 15.82 7.76 0
 0 -10 -9 -3.46 5.3 0
 0 -10 -8 1.64 5.95 0
 0 -10 -5 13.23 5.11 0
 0 -10 -4 168.61 10.64 0
 0 -10 -3 9.01 4.32 0
 0 -10 -2 32.51 5.07 0
 0 -9 -15 33.85 9.6 0
 0 -9 -14 3.39 6.75 0
 0 -9 -13 528.86 22.93 0
 0 -9 -11 56.57 9.23 0
 0 -9 -8 5.45 5.47 0
 0 -9 -7 595.72 19.63 0
 0 -9 -6 177.84 11.45 0
 0 -9 -5 46.88 6.63 0
 0 -9 -4 9.31 4.41 0
 0 -8 -16 28.97 8.8 0
 0 -8 -15 11.13 7.26 0
 0 -8 -14 -1.37 6.82 0
 0 -8 -11 395 18.14 0
 0 -8 -10 3.3 4.87 0
 0 -8 -7 143.8 10.24 0
 0 -8 -6 18.81 4.86 0
 0 -8 -2 258.4 10.44 0
 0 -8 -1 1056.88 18.87 0
 0 -8 0 313.39 9.83 0
 0 -7 -17 10.79 7.16 0
 0 -7 -16 21.53 8.15 0
 0 -7 -15 36.63 8.55 0
 0 -7 -14 3.16 5.8 0
 0 -7 -13 81.64 9.81 0
 0 -7 -11 32.3 6.47 0
 0 -7 -10 7.71 4.96 0
 0 -7 -9 200.22 11.73 0
 0 -7 -6 11.02 3.9 0
 0 -7 -3 606.02 15 0
 0 -7 -2 1378.13 21.16 0
 0 -7 -1 844.8 15.85 0
 0 -6 -19 4.61 7.6 0
 0 -6 -17 8.72 8.01 0
 0 -6 -16 114.22 13.06 0
 0 -6 -14 -1.52 5.52 0
 0 -6 -13 14.33 5.95 0
 0 -6 -12 519.89 18.96 0
 0 -6 -11 251.28 13.52 0
 0 -6 -10 64.87 7.67 0
 0 -6 -9 801.29 20.75 0
 0 -6 -5 13.87 3.54 0
 0 -6 -4 1933.14 25.7 0
 0 -6 0 38.01 3.67 0
 0 -6 1 24.53 2.87 0
 0 -5 -19 6.72 6.93 0
 0 -5 -18 1.4 6.49 0
 0 -5 -17 71.1 10.97 0
 0 -5 -16 -0.42 5.48 0
 0 -5 -13 26.53 6.13 0
 0 -5 -12 68.75 8.22 0
 0 -5 -11 134.54 9.96 0
 0 -5 -10 125.82 9.48 0
 0 -5 -9 85.66 7.67 0
 0 -5 -3 1031.22 16.64 0
 0 -5 -2 144.64 6.37 0
 0 -5 1 383.92 7.75 0
 0 -4 -20 125 12.53 0
 0 -4 -19 9.46 6.15 0
 0 -4 -18 155.53 13.34 0
 0 -4 -16 229.53 14.21 0
 0 -4 -15 17.73 6.04 0
 0 -4 -14 5.42 4.92 0
 0 -4 -13 2.5 5.29 0
 0 -4 -12 99.98 8.42 0
 0 -4 -11 66.53 8.31 0
 0 -4 -10 439.92 14.85 0
 0 -4 -5 2420.91 26.51 0
 0 -4 -3 1493.55 18.32 0
 0 -4 -2 14.98 2.96 0
 0 -4 -1 3011.64 22.35 0
 0 -4 1 2942.97 18.06 0
 0 -3 -20 18.33 6.94 0
 0 -3 -19 21.47 6.87 0
 0 -3 -18 12.47 5.87 0
 0 -3 -17 5.08 5.59 0
 0 -3 -16 28.04 7.07 0
 0 -3 -15 289.78 14.42 0
 0 -3 -13 66.26 8.1 0
 0 -3 -11 242.66 11.5 0
 0 -3 -8 442.87 12.98 0
 0 -3 -7 19.6 4.03 0
 0 -3 -6 74.33 5.21 0
 0 -3 -5 452.98 10.98 0
 0 -3 -3 4570.64 29.14 0
 0 -3 -2 6968.72 32.82 0
 0 -3 -1 263.23 6.07 0
 0 -3 0 0.12 1.48 0
 0 -2 -19 5.91 5.35 0
 0 -2 -18 7.62 5.17 0
 0 -2 -17 14.82 6.14 0
 0 -2 -16 5.02 4.67 0
 0 -2 -15 110.69 9.7 0
 0 -2 -13 310.35 13.11 0
 0 -2 -12 94.4 7.57 0
 0 -2 -9 520.88 13.83 0
 0 -2 -8 471.23 12.33 0
 0 -2 -7 1576.36 20.96 0
 0 -2 -6 2.53 2.44 0
 0 -2 -5 19.72 3.18 0
 0 -2 -4 4325.81 28.04 0
 0 -2 -3 2664.33 20.2 0
 0 -2 -2 1.25 1.7 0
 0 -2 -1 395.36 6.28 0
 0 -2 0 290.53 4.56 0
 0 -1 -18 21.66 6.29 0
 0 -1 -17 10.18 4.85 0
 0 -1 -16 66.98 8.11 0
 0 -1 -15 8.28 4.82 0
 0 -1 -14 567.14 16.67 0
 0 -1 -13 30.71 5.56 0
 0 -1 -10 6.23 3.01 0
 0 -1 -9 299.77 9.89 0
 0 -1 -8 666 13.69 0
 0 -1 -6 9.98 3.05 0
 0 -1 -5 8279.6 38.08 0
 0 -1 -3 6.66 1.91 0
 0 -1 -2 9.56 1.98 0
 0 -1 -1 41.52 2 0
 0 0 -17 -2.44 3.53 0
 0 0 -16 14.96 4.73 0
 0 0 -15 -2.75 3.1 0
 0 0 -14 7.27 3.79 0
 0 0 -11 -2.83 2.93 0
 0 0 -10 15.11 3.31 0
 0 0 -8 1729.73 20.27 0
 0 0 -7 2.2 2.13 0
 0 0 -6 1160.44 14.41 0
 0 0 -5 1.4 1.79 0
 0 0 -4 112.57 3.96 0
 0 0 -3 0.24 1.72 0
 0 0 -2 5992.48 17.85 0
 0 0 3 -0.1 1.43 0
 0 1 -16 67.92 6.78 0
 0 1 -15 5.05 3.5 0
 0 1 -12 393.55 11.41 0
 0 1 -11 283.26 9.43 0
 0 1 -10 6.69 2.86 0
 0 1 -9 302.79 8.52 0
 0 1 -8 656.35 11.55 0
 0 1 -6 11.16 2.24 0
 0 1 -5 8399.94 30.16 0
 0 1 -4 429.15 5.99 0
 0 1 1 40.15 2.04 0
 0 2 -14 124.05 6.95 0
 0 2 -13 305.74 9.71 0
 0 2 -12 89.14 5.38 0
 0 2 -11 27.15 3.66 0
 0 2 -10 209.41 7.03 0
 0 2 -9 514.23 9.94 0
 0 2 -8 490.4 9.1 0
 0 2 -7 1616 14.75 0
 0 2 -6 3.92 1.55 0
 0 2 -5 22.89 1.85 0
 0 2 -4 4266.61 14.93 0
 0 2 -1 406.86 4.42 0
 0 3 -14 16.43 3.22 0
 0 3 -13 63.3 4.46 0
 0 3 -12 4.19 1.96 0
 0 3 -11 242.39 7 0
 0 3 -10 493.38 9.16 0
 0 3 -9 1078.71 12.45 0
 0 3 -8 448.17 7.39 0
 0 3 -7 20.72 1.9 0
 0 3 -6 71.97 2.51 0
 0 3 -2 7118.33 20.08 0
 0 3 -1 281.63 4.96 0
 0 4 -12 98.35 4.03 0
 0 4 -11 57.7 3.04 0
 0 4 -10 428.68 6.84 0
 0 4 -9 55.46 2.48 0
 0 4 -8 105.91 2.86 0
 0 4 -7 56.07 1.91 0
 0 6 -5 17.56 1.39 0
 0 7 -5 0.11 0.83 0
 1 -14 -9 4.01 6.54 0
 1 -14 -8 102.85 12.71 0
 1 -14 -7 17.21 7.15 0
 1 -13 -11 56.13 11.48 0
 1 -13 -10 5.8 7.57 0
 1 -13 -8 77.18 11.92 0
 1 -13 -6 7.49 5.57 0
 1 -13 -4 180.09 11.83 0
 1 -12 -12 64.01 12.12 0
 1 -12 -11 58.7 10.82 0
 1 -12 -10 54.03 10.48 0
 1 -12 -9 110.91 13.72 0
 1 -12 -8 17.93 8.23 0
 1 -12 -7 117.13 11.25 0
 1 -12 -6 42.3 8.54 0
 1 -12 -5 50.29 8.88 0
 1 -12 -4 77.13 8.47 0
 1 -12 -3 69.84 7.91 0
 1 -11 -14 73.74 11.83 0
 1 -11 -13 134.7 14.55 0
 1 -11 -12 58.96 10.79 0
 1 -11 -11 30.28 9.42 0
 1 -11 -10 44.75 8.97 0
 1 -11 -9 34.17 8.21 0
 1 -11 -8 43.39 8.64 0
 1 -11 -7 122.92 10.87 0
 1 -11 -6 156.71 11.99 0
 1 -11 -5 6.54 4.93 0
 1 -11 -4 60.31 8.09 0
 1 -11 -3 76.12 7.32 0
 1 -11 -2 60.08 6.63 0
 1 -10 -14 66.68 10.99 0
 1 -10 -13 46.17 9.71 0
 1 -10 -12 16 7.36 0
 1 -10 -11 222.55 15.44 0
 1 -10 -9 39.2 8 0
 1 -10 -7 56.98 8.44 0
 1 -10 -6 37.49 6.69 0
 1 -10 -5 70.29 8.07 0
 1 -10 -4 302.26 13.34 0
 1 -10 -3 65.74 6.95 0
 1 -10 -2 230.6 10.72 0
 1 -9 -16 -2.47 7.45 0
 1 -9 -15 13.76 7.07 0
 1 -9 -13 89.51 11.45 0
 1 -9 -12 194.59 14.04 0
 1 -9 -10 7.67 5.67 0
 1 -9 -9 136.34 11.84 0
 1 -9 -8 47.95 7.63 0
 1 -9 -7 41.87 6.92 0
 1 -9 -6 45.32 6.92 0
 1 -9 -5 102.37 8.76 0
 1 -9 -4 108.21 8.06 0
 1 -9 0 2.13 2.47 0
 1 -9 2 7.42 1.91 0
 1 -8 -17 39.16 9.38 0
 1 -8 -16 50.27 9.78 0
 1 -8 -15 162.23 14.43 0
 1 -8 -14 121.64 13.14 0
 1 -8 -11 151.43 11.53 0
 1 -8 -10 131.21 10.75 0
 1 -8 -9 36.13 6.64 0
 1 -8 -8 46.49 7.37 0
 1 -8 -7 130.08 9.33 0
 1 -8 -6 209.16 11.21 0
 1 -8 -5 105.06 7.83 0
 1 -8 -2 164.18 8.05 0
 1 -8 -1 128.34 7 0
 1 -8 0 3.85 2.25 0
 1 -8 1 140.61 6.28 0
 1 -8 2 147.07 5.62 0
 1 -7 -18 80.68 11.96 0
 1 -7 -17 20.43 8.53 0
 1 -7 -15 31.4 8.26 0
 1 -7 -13 40.57 8.89 0
 1 -7 -12 205.53 13.11 0
 1 -7 -11 132.06 11.02 0
 1 -7 -9 118.65 9.65 0
 1 -7 -8 36.05 6.79 0
 1 -7 -7 154.21 9.63 0
 1 -7 -6 126.76 9 0
 1 -7 -3 466.15 13.13 0
 1 -7 3 469.47 7.54 0
 1 -6 -19 11.03 8.05 0
 1 -6 -18 32.94 8.55 0
 1 -6 -15 33.05 8.61 0
 1 -6 -14 92.29 11.36 0
 1 -6 -13 186.6 12.73 0
 1 -6 -12 33.26 6.89 0
 1 -6 -11 34.91 6.79 0
 1 -6 -10 96.66 8.56 0
 1 -6 -9 382.67 14.92 0
 1 -6 -8 5.87 3.72 0
 1 -6 -4 141.5 7.78 0
 1 -6 -3 39.74 5.14 0
 1 -6 0 243.54 7.45 0
 1 -6 1 300.36 7.36 0
 1 -6 2 317.19 6.69 0
 1 -5 -19 12.22 6.87 0
 1 -5 -18 190.07 15.04 0
 1 -5 -17 7.03 6.21 0
 1 -5 -16 72.87 10.3 0
 1 -5 -15 40.09 8.7 0
 1 -5 -11 20.49 5.66 0
 1 -5 -10 30.6 5.75 0
 1 -5 -2 491.38 11.3 0
 1 -5 -1 1.19 2.38 0
 1 -5 0 559.95 10.29 0
 1 -5 1 0.96 1.29 0
 1 -5 2 491.83 7.4 0
 1 -4 -20 108.36 13.1 0
 1 -4 -19 42.11 8.7 0
 1 -4 -18 20.42 6.9 0
 1 -4 -17 80.37 10.95 0
 1 -4 -16 16.93 6.47 0
 1 -4 -15 15.22 6.39 0
 1 -4 -14 2.36 5.06 0
 1 -4 -13 195.52 12.05 0
 1 -4 -12 182.87 11.34 0
 1 -4 -11 163.58 10.28 0
 1 -4 -10 41.32 6.1 0
 1 -4 -5 1700.05 23.39 0
 1 -4 -4 1388.46 19.96 0
 1 -4 -3 104.67 5.68 0
 1 -4 -2 1936.63 20.45 0
 1 -4 -1 1104.2 14.49 0
 1 -4 0 5357.05 28.18 0
 1 -4 1 1091.19 11.41 0
 1 -4 2 1909.29 12.79 0
 1 -4 3 98.81 2.25 0
 1 -3 -18 25.42 6.97 0
 1 -3 -17 45.44 8.24 0
 1 -3 -16 15.67 6.92 0
 1 -3 -15 210.53 12.86 0
 1 -3 -14 53.32 7.93 0
 1 -3 -13 10.53 5.03 0
 1 -3 -12 71.43 8.06 0
 1 -3 -8 145.13 8.15 0
 1 -3 -7 506.16 13.65 0
 1 -3 -5 385.68 10.76 0
 1 -3 -4 751.51 13.58 0
 1 -3 -1 2206.56 17.88 0
 1 -3 0 4861.51 23.86 0
 1 -3 1 2221.07 14.29 0
 1 -3 2 351.43 4.89 0
 1 -2 -19 13.88 6.36 0
 1 -2 -18 27.34 7.43 0
 1 -2 -16 67.84 9.18 0
 1 -2 -14 109.63 9.47 0
 1 -2 -13 177.66 10.55 0
 1 -2 -12 168.28 10.16 0
 1 -2 -11 234.59 11.28 0
 1 -2 -8 670.49 15.52 0
 1 -2 -7 1371.26 20.69 0
 1 -2 -3 1708.47 17.78 0
 1 -2 -2 380.38 7.93 0
 1 -2 4 1027.62 7.47 0
 1 -1 -19 16.79 5.84 0
 1 -1 -17 44.05 7.27 0
 1 -1 -16 77.95 9.01 0
 1 -1 -14 131.44 9.9 0
 1 -1 -9 773.81 16.85 0
 1 -1 -8 45.85 4.52 0
 1 -1 -7 157.13 7.12 0
 1 -1 -5 955.66 14.59 0
 1 0 -17 246.84 12.78 0
 1 0 -16 469.46 16.5 0
 1 0 -15 33.47 6.01 0
 1 0 -14 540.8 16.8 0
 1 0 -13 1.91 3.53 0
 1 0 -10 146.12 7.76 0
 1 0 -9 73.88 5.55 0
 1 0 -7 8.31 2.93 0
 1 0 -6 7.38 2.69 0
 1 1 -17 49.88 6.51 0
 1 1 -16 60.19 7.49 0
 1 1 -15 25.06 5.44 0
 1 1 -14 117.77 8.38 0
 1 1 -11 605.93 14.96 0
 1 1 -10 132.78 7.26 0
 1 1 -8 47.23 4.21 0
 1 1 -7 153.69 6.34 0
 1 2 -16 73.04 6.91 0
 1 2 -15 61.55 6.06 0
 1 2 -12 159.69 7.93 0
 1 2 -11 236.43 9.2 0
 1 2 -9 427.61 10.47 0
 1 2 -8 683.59 12.92 0
 1 3 -13 6.37 3.13 0
 1 3 -12 82.11 5.82 0
 1 3 -11 47.46 4.58 0
 1 3 -10 114.92 5.88 0
 1 3 -9 93.25 5.04 0
 1 3 -8 156.44 6.14 0
 1 4 -13 181.25 7.43 0
 1 4 -12 182.7 7.19 0
 1 4 -11 158.58 6.56 0
 1 4 -10 36.46 3.5 0
 1 4 -9 256 7.57 0
 1 5 -12 333.6 8.47 0
 1 5 -11 30.81 3.3 0
 1 5 -10 29.72 3 0
 1 5 -9 500.7 9.79 0
 1 6 -10 88.83 3.86 0
 1 6 -9 368.79 7.71 0
 1 7 -9 117.81 4.1 0
 2 -14 -9 40.16 10.07 0
 2 -14 -8 37.25 8.51 0
 2 -14 -7 32.84 8.15 0
 2 -13 -9 60.87 10.48 0
 2 -13 -7 13.52 7.21 0
 2 -13 -6 78.26 9.9 0
 2 -13 -5 188.37 12.68 0
 2 -12 -12 1.23 6.7 0
 2 -12 -11 44.41 9.6 0
 2 -12 -8 25.74 7.5 0
 2 -12 -7 135.99 11.76 0
 2 -12 -6 37.16 7.66 0
 2 -12 -5 61.99 8.72 0
 2 -12 -4 9.18 4.55 0
 2 -11 -12 164.97 14.44 0
 2 -11 -11 60.48 10.23 0
 2 -11 -10 0.77 6.74 0
 2 -11 -9 162.2 12.92 0
 2 -11 -8 19.82 7.51 0
 2 -11 -7 100.48 10.76 0
 2 -11 -6 2.28 5.52 0
 2 -11 -5 86.02 9 0
 2 -11 -4 180.62 11.38 0
 2 -11 -3 290.2 13.01 0
 2 -11 -2 182.77 10.05 0
 2 -10 -14 33.66 9.25 0
 2 -10 -13 99.36 12.7 0
 2 -10 -12 180.14 15.09 0
 2 -10 -11 122.72 13.04 0
 2 -10 -10 102.47 12.32 0
 2 -10 -9 1.63 5.48 0
 2 -10 -8 41.45 7.95 0
 2 -10 -7 21.84 6.27 0
 2 -10 -6 107.67 10.24 0
 2 -10 -4 135.95 9.94 0
 2 -10 -2 17.82 4.78 0
 2 -9 -16 8.72 8.3 0
 2 -9 -15 91.24 12.93 0
 2 -9 -14 122.13 12.82 0
 2 -9 -13 185.65 15.39 0
 2 -9 -12 52.84 9.47 0
 2 -9 -11 25.34 7.65 0
 2 -9 -10 143.54 12.35 0
 2 -9 -9 27.14 6.94 0
 2 -9 -8 385.42 17.07 0
 2 -9 -7 69.47 9.21 0
 2 -9 -6 72.15 8.2 0
 2 -9 -5 135 9.84 0
 2 -9 -4 134.09 9.16 0
 2 -9 0 267.27 9.73 0
 2 -8 -15 55.02 10.09 0
 2 -8 -14 51.95 9.53 0
 2 -8 -13 105.17 12.63 0
 2 -8 -12 31.22 7.89 0
 2 -8 -11 14.84 6.36 0
 2 -8 -10 77.57 9.08 0
 2 -8 -9 119.05 10.86 0
 2 -8 -7 26.74 6.44 0
 2 -8 -6 20.86 5.28 0
 2 -8 -5 267.31 12.75 0
 2 -8 -4 71.77 7.25 0
 2 -8 -1 175.48 8.18 0
 2 -8 0 214.94 8.37 0
 2 -8 1 160.4 6.75 0
 2 -8 2 41.01 3.42 0
 2 -8 3 146.5 4.95 0
 2 -7 -17 60.2 11.39 0
 2 -7 -16 8.6 7.19 0
 2 -7 -15 41.4 8.96 0
 2 -7 -14 189.24 14.3 0
 2 -7 -12 26.02 7.76 0
 2 -7 -11 69.42 9.51 0
 2 -7 -10 15.88 5.98 0
 2 -7 -8 2.28 4.23 0
 2 -7 -7 115.81 9.09 0
 2 -7 -5 167.54 9.66 0
 2 -7 -2 235.59 9.84 0
 2 -7 -1 146.43 7.4 0
 2 -7 0 1.09 1.97 0
 2 -7 1 152.7 6.36 0
 2 -7 4 371.86 5.88 0
 2 -6 -18 40.53 10.04 0
 2 -6 -17 29.42 8.83 0
 2 -6 -15 21.85 8.84 0
 2 -6 -14 69.08 10.27 0
 2 -6 -13 7.83 5.94 0
 2 -6 -12 108.34 10.73 0
 2 -6 -11 351.73 16.61 0
 2 -6 -10 32.71 7.28 0
 2 -6 -8 32.08 6.17 0
 2 -6 -7 714.38 19.92 0
 2 -6 -6 13.5 4.54 0
 2 -6 -3 211.07 9.48 0
 2 -6 -2 469.33 12.58 0
 2 -6 -1 1017.54 17.55 0
 2 -6 3 212.49 5.69 0
 2 -6 4 139.74 3.71 0
 2 -5 -19 50.92 10.06 0
 2 -5 -18 23.08 9.34 0
 2 -5 -16 125.05 13.24 0
 2 -5 -15 66.91 9.95 0
 2 -5 -14 95.18 11.74 0
 2 -5 -13 171.1 13.05 0
 2 -5 -12 48.39 7.92 0
 2 -5 -10 38.46 6.73 0
 2 -5 -9 510.69 17.74 0
 2 -5 -8 58.05 7.36 0
 2 -5 -7 1520.54 27.6 0
 2 -5 -4 151.39 7.73 0
 2 -5 -3 56.66 5.25 0
 2 -5 1 187.71 6.16 0
 2 -5 2 596.85 9.85 0
 2 -5 3 61.03 3.05 0
 2 -5 4 152.84 3.85 0
 2 -5 5 253.34 3.57 0
 2 -4 -19 45.56 9.87 0
 2 -4 -18 107.31 12.54 0
 2 -4 -17 3.26 5.98 0
 2 -4 -16 25.43 8.41 0
 2 -4 -15 50.12 8.86 0
 2 -4 -13 3.54 6.08 0
 2 -4 -10 97.36 8.59 0
 2 -4 -8 27.26 5.12 0
 2 -4 -5 58.1 5.2 0
 2 -4 -2 158.4 7.21 0
 2 -4 -1 101.65 5.34 0
 2 -4 6 173.14 3.32 0
 2 -3 -19 20.85 7.44 0
 2 -3 -18 176.19 14.18 0
 2 -3 -16 108.67 11.78 0
 2 -3 -14 249.58 14.56 0
 2 -3 -13 27.15 6.58 0
 2 -3 -12 38.57 6.77 0
 2 -3 -10 498.97 16.88 0
 2 -3 -9 353.59 13.59 0
 2 -3 -4 151.7 7.2 0
 2 -2 -19 25.8 7.83 0
 2 -2 -18 13.56 6.27 0
 2 -2 -17 18.99 6.82 0
 2 -2 -13 92.41 9.47 0
 2 -2 -12 38.34 6.63 0
 2 -2 -10 244.01 11.61 0
 2 -2 -7 116.71 7.62 0
 2 -1 -19 151.25 12.42 0
 2 -1 -18 130.59 11.43 0
 2 -1 -17 51.76 8.66 0
 2 -1 -16 203.38 13.23 0
 2 -1 -15 104.82 9.57 0
 2 -1 -14 55.99 8.47 0
 2 -1 -13 11.73 5.14 0
 2 -1 -12 19.28 5.93 0
 2 -1 -11 282 12.22 0
 2 -1 -8 256.68 10.78 0
 2 -1 -7 27.38 4.1 0
 2 0 -18 -1.57 5.19 0
 2 0 -17 24.88 6.3 0
 2 0 -16 50.69 7.43 0
 2 0 -15 217.59 12.91 0
 2 0 -14 12.05 5.76 0
 2 0 -12 13.02 4.59 0
 2 0 -11 103.17 7.67 0
 2 1 -17 40.31 7.05 0
 2 1 -16 193.43 11.79 0
 2 1 -12 20.85 5.14 0
 2 1 -9 42.29 5.32 0
 2 2 -16 184.96 10.7 0
 2 2 -15 55.17 7.43 0
 2 2 -14 104.46 8 0
 2 2 -13 89.07 7.6 0
 2 2 -12 44.17 6.09 0
 2 3 -15 110.32 8.43 0
 2 3 -14 249.98 11.35 0
 2 3 -13 30.46 5 0
 2 4 -14 110.83 7.71 0
 2 5 -11 45.8 5.38 0
 2 6 -11 334.86 10.28 0
 3 -13 -9 133.47 13.08 0
 3 -13 -8 6.36 6.33 0
 3 -13 -7 116.53 11.16 0
 3 -12 -11 56.53 10.79 0
 3 -12 -10 31.75 9.27 0
 3 -12 -9 7.72 6.81 0
 3 -12 -8 28.8 8.07 0
 3 -12 -7 163.2 12.71 0
 3 -12 -6 115.73 10.7 0
 3 -12 -5 215.65 13.36 0
 3 -11 -12 10.13 7.3 0
 3 -11 -11 5.24 6.96 0
 3 -11 -10 60.08 10.21 0
 3 -11 -9 94.2 11.9 0
 3 -11 -8 6.62 7.21 0
 3 -11 -7 16.82 6.66 0
 3 -11 -6 61.24 8.86 0
 3 -11 -5 97.41 9.5 0
 3 -11 -4 27.8 6.43 0
 3 -11 -3 132.74 9.33 0
 3 -10 -13 127.6 13.76 0
 3 -10 -12 9.63 7.7 0
 3 -10 -11 19.4 7.68 0
 3 -10 -9 140.74 12.51 0
 3 -10 -8 102.69 10.64 0
 3 -10 -7 19.32 6.82 0
 3 -10 -6 39.65 7.58 0
 3 -10 -5 377.72 16.74 0
 3 -10 -4 111.11 9.96 0
 3 -10 -3 362.92 14.52 0
 3 -10 -2 227.14 11.43 0
 3 -9 -15 11.14 8.32 0
 3 -9 -14 9.25 7.42 0
 3 -9 -13 20.62 8.13 0
 3 -9 -11 34.83 8.33 0
 3 -9 -10 21.37 7.5 0
 3 -9 -9 63.69 10.39 0
 3 -9 -8 186.9 13.72 0
 3 -9 -7 127.96 11.73 0
 3 -9 -6 70.93 9.35 0
 3 -9 -5 18.63 5.55 0
 3 -9 -4 306 14.24 0
 3 -9 -3 134.31 9.64 0
 3 -9 -1 110.16 7.78 0
 3 -8 -13 63.8 10.52 0
 3 -8 -12 465.42 21.23 0
 3 -8 -11 6.77 6.6 0
 3 -8 -10 54.45 9.36 0
 3 -8 -9 43.85 8.26 0
 3 -8 -8 60.54 8.67 0
 3 -8 -7 51.17 8.66 0
 3 -8 -6 213.23 12.95 0
 3 -8 -5 143.64 11 0
 3 -8 -4 74.77 8.08 0
 3 -8 -3 71.16 7.55 0
 3 -8 -2 128.89 8.44 0
 3 -7 -16 20.63 7.99 0
 3 -7 -15 5.56 7.96 0
 3 -7 -13 73.49 11.34 0
 3 -7 -12 142.72 13.42 0
 3 -7 -11 60.27 9.93 0
 3 -7 -8 152.77 11.63 0
 3 -7 -7 438.59 17.62 0
 3 -7 -6 311.73 14.47 0
 3 -7 -5 14.17 5.06 0
 3 -7 -3 93.33 7.89 0
 3 -7 0 -1.51 2.17 0
 3 -7 1 316.36 10.05 0
 3 -7 2 323.48 9.47 0
 3 -7 3 93.99 4.88 0
 3 -6 -17 9.76 7.94 0
 3 -6 -16 41.46 9.47 0
 3 -6 -15 66.33 10.66 0
 3 -6 -14 24.73 8.74 0
 3 -6 -13 112.61 11.68 0
 3 -6 -12 16.43 6.76 0
 3 -6 -11 61.94 9.1 0
 3 -6 -10 30.48 6.9 0
 3 -6 -8 34.7 6.73 0
 3 -6 -6 154.38 9.96 0
 3 -6 -5 313.9 12.84 0
 3 -6 -4 163.99 9.65 0
 3 -6 -1 46.66 5.05 0
 3 -6 0 26.89 4.4 0
 3 -6 1 50.54 4.61 0
 3 -6 2 41.14 3.97 0
 3 -6 3 322.38 8.59 0
 3 -6 4 167.63 5.7 0
 3 -5 -18 48.61 10.19 0
 3 -5 -16 -0.91 6.35 0
 3 -5 -14 43.66 10.17 0
 3 -5 -13 5.79 6.06 0
 3 -5 -12 77.45 10.79 0
 3 -5 -11 68.41 9.04 0
 3 -5 -9 419 17.14 0
 3 -5 -7 21.84 5.06 0
 3 -5 -6 0.54 3.87 0
 3 -5 -5 88.29 7.34 0
 3 -5 -2 266.9 10.47 0
 3 -4 -18 -4.46 6.17 0
 3 -4 -17 61.46 10.49 0
 3 -4 -16 86.29 12.07 0
 3 -4 -14 0.53 5.67 0
 3 -4 -13 21.3 6.75 0
 3 -4 -11 2.02 5.43 0
 3 -4 -10 45.77 7.31 0
 3 -4 -9 149.73 10.07 0
 3 -4 -8 110.64 8.92 0
 3 -4 -7 517.51 16.53 0
 3 -3 -19 2.92 7.35 0
 3 -3 -18 54.43 10.53 0
 3 -3 -17 19.74 7.63 0
 3 -3 -16 3.29 6.16 0
 3 -3 -15 73.58 10.36 0
 3 -3 -14 53.77 8.86 0
 3 -3 -13 12.54 5.99 0
 3 -3 -12 15.08 5.72 0
 3 -3 -11 38.45 6.91 0
 3 -3 -8 508.6 16.71 0
 3 -2 -19 74.24 10.51 0
 3 -2 -18 28.05 7.84 0
 3 -2 -17 20.42 7.77 0
 3 -2 -16 145.76 12.63 0
 3 -2 -15 34.43 7.96 0
 3 -2 -14 1.11 6.48 0
 3 -2 -13 18.07 6.71 0
 3 -2 -11 147.79 10.64 0
 3 -2 -10 82.31 8.47 0
 3 -2 -9 76.9 7.71 0
 3 -2 -8 545.56 17.05 0
 3 -1 -18 29.39 8.23 0
 3 -1 -17 26.39 7.45 0
 3 -1 -16 36.79 8.32 0
 3 -1 -14 148.13 11.54 0
 3 -1 -13 63.08 8.59 0
 3 -1 -11 369.93 15.48 0
 3 0 -19 2.69 6.11 0
 3 0 -18 16.75 6.91 0
 3 0 -17 12.22 7.18 0
 3 0 -15 1.88 5.25 0
 3 0 -14 218.68 12.9 0
 3 0 -13 58.16 8 0
 3 0 -11 133.76 10.11 0
 3 0 -10 2.01 4.08 0
 3 1 -18 16.56 6.52 0
 3 1 -17 26.22 7.45 0
 3 1 -16 46.3 8.76 0
 3 1 -15 38.94 7.66 0
 3 1 -14 138.68 10.41 0
 3 1 -13 63.16 7.87 0
 3 1 -12 0.36 4.13 0
 3 2 -17 25.09 6.63 0
 3 2 -16 152.08 11.74 0
 3 2 -15 38.6 7.09 0
 3 2 -14 11.79 5.64 0
 3 2 -13 16.33 5.18 0
 3 3 -16 6.88 4.54 0
 3 3 -14 47.35 7.2 0
 3 3 -13 18.04 5.47 0
 3 3 -12 17.07 5.56 0
 3 4 -15 165.46 10.51 0
 3 4 -14 4.64 4.38 0
 3 4 -13 13.76 4.66 0
 3 4 -12 70.8 7.44 0
 3 5 -14 41.03 6.11 0
 4 -12 -9 43.88 10.14 0
 4 -12 -8 -4.02 5.63 0
 4 -12 -7 133.82 12.88 0
 4 -12 -6 131.33 12.05 0
 4 -11 -11 74.24 11.66 0
 4 -11 -10 10.49 6.92 0
 4 -11 -9 20.86 7.95 0
 4 -11 -8 79.19 10.75 0
 4 -11 -7 79.6 10.67 0
 4 -11 -6 69.67 9.57 0
 4 -11 -5 133.44 11.54 0
 4 -11 -4 85.92 9.2 0
 4 -10 -12 6.76 8.07 0
 4 -10 -11 23.16 8.63 0
 4 -10 -10 14.4 8.65 0
 4 -10 -9 24.63 8.55 0
 4 -10 -8 24.1 8.1 0
 4 -10 -7 2.38 6.63 0
 4 -10 -6 33.68 8.12 0
 4 -10 -5 7.05 5.62 0
 4 -10 -4 97.41 9.67 0
 4 -10 -3 36.83 6.44 0
 4 -9 -13 36.49 9.81 0
 4 -9 -12 50.82 11.2 0
 4 -9 -11 79.58 11.74 0
 4 -9 -10 11.08 7.65 0
 4 -9 -8 23.09 8.37 0
 4 -9 -7 57.89 9.88 0
 4 -9 -6 4.43 6.15 0
 4 -9 -5 122.3 11.46 0
 4 -9 -4 116.59 9.86 0
 4 -9 -3 209.21 12.34 0
 4 -9 -2 15.86 4.89 0
 4 -9 -1 31.45 5.58 0
 4 -8 -14 32.62 9.92 0
 4 -8 -13 71.29 11.67 0
 4 -8 -12 27.18 8.71 0
 4 -8 -11 18.99 7.94 0
 4 -8 -10 155.83 13.65 0
 4 -8 -9 129.46 13.37 0
 4 -8 -8 88.87 10.86 0
 4 -8 -7 239.48 15.24 0
 4 -8 -6 155.1 12.07 0
 4 -8 -4 105.47 9.37 0
 4 -8 -3 21.95 5.62 0
 4 -8 -2 321.94 13.64 0
 4 -8 -1 87.41 7.18 0
 4 -8 0 12.23 3.68 0
 4 -7 -15 -2.08 8.06 0
 4 -7 -12 10.55 7.06 0
 4 -7 -11 28.13 8.39 0
 4 -7 -10 83.74 10.91 0
 4 -7 -9 41.02 8.48 0
 4 -7 -8 57.35 9.58 0
 4 -7 -7 96.72 10.96 0
 4 -7 -6 148.56 10.91 0
 4 -7 -5 0.17 4.27 0
 4 -7 -4 139.71 9.83 0
 4 -7 -2 59.41 7.41 0
 4 -7 -1 32.2 5.39 0
 4 -7 0 228 10.14 0
 4 -6 -15 41.44 10.58 0
 4 -6 -14 15.62 7.91 0
 4 -6 -13 8.43 7.27 0
 4 -6 -12 83.49 12.2 0
 4 -6 -11 25.46 7.53 0
 4 -6 -10 46.31 8.67 0
 4 -6 -9 43.56 8.1 0
 4 -6 -7 1.89 4.44 0
 4 -6 -5 225 12.11 0
 4 -6 -4 445.15 16.1 0
 4 -6 -3 214.71 11.8 0
 4 -6 -2 40.35 6.49 0
 4 -6 -1 202.65 10.26 0
 4 -5 -16 2.91 8.2 0
 4 -5 -15 97.8 12.5 0
 4 -5 -14 45.53 9.68 0
 4 -5 -13 30.67 9.53 0
 4 -5 -12 55.37 9.71 0
 4 -5 -11 4.82 7.22 0
 4 -5 -10 61.27 8.85 0
 4 -5 -9 23.19 6.55 0
 4 -5 -8 65.93 8.82 0
 4 -5 -7 66.44 8.26 0
 4 -5 -6 60.49 8.52 0
 4 -5 -4 461.76 16.1 0
 4 -4 -17 2.75 6.68 0
 4 -4 -15 8.2 7.19 0
 4 -4 -14 2.81 6.7 0
 4 -4 -12 189.98 14.15 0
 4 -4 -11 123.31 11.02 0
 4 -4 -10 419.74 18.1 0
 4 -4 -9 108.83 10.54 0
 4 -4 -8 596.43 20.28 0
 4 -4 -7 254.06 13.58 0
 4 -4 -6 11.13 5.25 0
 4 -3 -17 48.75 9.89 0
 4 -3 -16 17.07 8.77 0
 4 -3 -15 22.32 9.46 0
 4 -3 -14 8.1 8.04 0
 4 -3 -13 239.84 15.95 0
 4 -3 -10 3 6.13 0
 4 -3 -9 40.92 8.08 0
 4 -3 -8 34.61 7.24 0
 4 -2 -18 27.9 9.09 0
 4 -2 -17 175.66 14.87 0
 4 -2 -16 65.92 11.32 0
 4 -2 -14 72.83 10.37 0
 4 -2 -10 101.13 9.88 0
 4 -2 -9 39.17 7.69 0
 4 -1 -18 8.98 7.59 0
 4 -1 -17 14.77 7.16 0
 4 -1 -16 10.15 8.06 0
 4 -1 -15 0.75 5.83 0
 4 -1 -13 24.7 7.07 0
 4 -1 -12 103.27 11.05 0
 4 -1 -11 9.67 5.73 0
 4 -1 -10 18.54 5.88 0
 4 0 -17 67.62 11.26 0
 4 0 -16 245.74 16 0
 4 0 -15 7.1 5.9 0
 4 0 -14 1.22 5.15 0
 4 0 -13 -2.41 5.68 0
 4 0 -12 68.38 9.22 0
 4 0 -11 27.03 6.57 0
 4 1 -17 20.45 7.7 0
 4 1 -16 18.05 7.15 0
 4 1 -15 6.53 6.04 0
 4 1 -14 59.94 9.02 0
 4 1 -13 10.05 6.11 0
 4 1 -12 102.32 10.62 0
 4 2 -17 189.17 13.77 0
 4 2 -15 47.17 8.04 0
 4 2 -12 47.15 7.45 0
 4 3 -15 25.93 7.15 0
 4 3 -14 5.5 4.96 0
 4 3 -13 251.85 14.68 0
 4 4 -15 4.45 4.76 0
 4 4 -14 5.89 5.14 0
 4 4 -13 139.32 10.83 0
 4 5 -13 37.15 6.44 0
 5 -11 -8 42.48 9.27 0
 5 -11 -7 23.35 7.84 0
 5 -10 -10 9.06 7.48 0
 5 -10 -9 6.47 7.76 0
 5 -10 -8 25.17 8.37 0
 5 -10 -7 129.89 13.22 0
 5 -10 -6 107.31 12.26 0
 5 -10 -5 29.72 8.2 0
 5 -10 -4 14.17 5.66 0
 5 -9 -11 41.02 9.87 0
 5 -9 -10 15.77 8.82 0
 5 -9 -9 31.71 8.87 0
 5 -9 -7 55.41 9.75 0
 5 -9 -6 54.47 9.36 0
 5 -9 -5 114.79 11.45 0
 5 -9 -3 138.31 11.36 0
 5 -9 -2 1.79 3.87 0
 5 -8 -12 2.97 7.51 0
 5 -8 -11 99.88 13.41 0
 5 -8 -10 8.88 7.54 0
 5 -8 -9 23.24 9.17 0
 5 -8 -8 86.36 11.34 0
 5 -8 -7 49.34 9.48 0
 5 -8 -6 66.35 9.75 0
 5 -8 -5 -4.19 4.73 0
 5 -8 -2 57.13 7.95 0
 5 -8 -1 33.2 5.89 0
 5 -7 -12 70.98 12.24 0
 5 -7 -11 6.16 7.39 0
 5 -7 -9 56.35 10.04 0
 5 -7 -8 70.75 11.3 0
 5 -7 -7 139.22 12.77 0
 5 -7 -5 140.39 11.52 0
 5 -7 -4 93.59 9.33 0
 5 -7 -3 63.74 8.85 0
 5 -7 -2 146.4 10.77 0
 5 -7 -1 92.4 8.5 0
 5 -7 0 18.49 5.2 0
 5 -7 1 86.61 7.6 0
 5 -6 -14 10.52 9.3 0
 5 -6 -13 31.97 9.24 0
 5 -6 -12 254.51 17.97 0
 5 -6 -11 13.64 9.05 0
 5 -6 -9 17.4 7.03 0
 5 -6 -7 11.05 6.25 0
 5 -6 -5 8.71 5.83 0
 5 -6 -4 2.95 5.32 0
 5 -6 -3 72.23 9.65 0
 5 -6 -2 145.88 10.32 0
 5 -5 -14 171.54 16.22 0
 5 -5 -13 51.03 10.57 0
 5 -5 -12 92.83 13 0
 5 -5 -11 40.82 9.02 0
 5 -5 -9 25.29 7.32 0
 5 -5 -8 13.13 6.65 0
 5 -5 -7 75.28 10.8 0
 5 -5 -6 142.43 11.49 0
 5 -5 -5 7.4 5.4 0
 5 -4 -15 11.56 8.48 0
 5 -4 -13 10.03 7.13 0
 5 -4 -12 30.53 8.47 0
 5 -4 -11 123.65 12.91 0
 5 -4 -10 32.38 7.98 0
 5 -4 -9 227.23 14.88 0
 5 -4 -8 23.3 8.46 0
 5 -4 -7 25.02 6.84 0
 5 -3 -15 61.65 11 0
 5 -3 -14 65.74 11.22 0
 5 -3 -13 43.85 9.26 0
 5 -3 -12 35.89 8.29 0
 5 -3 -11 38.52 8.43 0
 5 -3 -10 284.75 16.28 0
 5 -3 -9 25.2 7.76 0
 5 -2 -16 33.83 10.55 0
 5 -2 -15 170.65 15.39 0
 5 -2 -14 13.15 7.42 0
 5 -2 -13 39.47 8.44 0
 5 -2 -11 126.14 12.23 0
 5 -2 -10 0.07 5.12 0
 5 -1 -15 19.9 7.55 0
 5 -1 -14 113.08 12.99 0
 5 -1 -13 232.21 16.25 0
 5 -1 -12 10.65 6.91 0
 5 -1 -11 51.43 9.3 0
 5 0 -16 45.81 9.69 0
 5 0 -14 7.19 7.36 0
 5 0 -13 1.84 6.19 0
 5 0 -12 123.11 13.09 0
 5 1 -16 66.03 10.72 0
 5 1 -15 19.43 8.22 0
 5 1 -14 102.1 12.52 0
 5 1 -13 229.45 15.4 0
 5 1 -12 12.71 6.14 0
 5 2 -14 9.36 6.68 0
 5 2 -13 38.24 8.36 0
 5 3 -15 52.21 9.63 0
 5 3 -14 50.3 9.46 0
 5 3 -13 46.92 8.56 0
 5 4 -15 25.84 7.09 0
 5 4 -14 3.91 6.39 0
 5 5 -14 165.02 13.18 0
 6 -10 -6 7.65 6.73 0
 6 -9 -8 1.1 6.44 0
 6 -9 -7 -5.99 5.9 0
 6 -9 -6 107.11 13.34 0
 6 -9 -5 106.22 13.03 0
 6 -9 -4 7.02 6.3 0
 6 -8 -9 14.8 8.2 0
 6 -8 -7 45.83 9.85 0
 6 -8 -6 35.84 9.53 0
 6 -8 -4 31.38 7.28 0
 6 -8 -3 29.44 6.95 0
 6 -7 -10 227.51 16.84 0
 6 -7 -9 17.54 8.19 0
 6 -7 -8 38.12 9.61 0
 6 -7 -6 89.75 12.06 0
 6 -7 -5 46.76 9.38 0
 6 -7 -3 16.38 6.73 0
 6 -7 -2 154.68 12.36 0
 6 -7 -1 63.21 8.92 0
 6 -6 -11 2.31 7.58 0
 6 -6 -10 33.52 9.5 0
 6 -6 -9 -0.76 6.22 0
 6 -6 -8 6.35 6.57 0
 6 -6 -7 28 7.62 0
 6 -6 -6 14.05 6.86 0
 6 -6 -3 89.89 10.11 0
 6 -5 -12 38.5 10.1 0
 6 -5 -11 78.71 11.52 0
 6 -5 -10 8.4 7.43 0
 6 -5 -9 23.52 7.96 0
 6 -5 -8 117.22 12.51 0
 6 -5 -7 23.38 7.98 0
 6 -5 -6 -3.1 6.69 0
 6 -5 -5 7.28 7.45 0
 6 -4 -12 39.51 9.45 0
 6 -4 -11 12.17 8.35 0
 6 -4 -9 89.68 12.8 0
 6 -4 -7 15.39 8.02 0
 6 -3 -13 -1.48 6.92 0
 6 -3 -10 117.57 14.55 0
 6 -3 -9 42.98 9.42 0
 6 -2 -13 61.01 10.67 0
 6 -2 -12 31.65 8.81 0
 6 -2 -10 0.38 6.9 0
 6 -1 -13 -3.36 7.54 0
 6 -1 -12 13.1 8.79 0
 6 -1 -11 49.76 10.48 0
 6 0 -14 14.45 7.98 0
 6 0 -13 35.35 10.37 0
 6 0 -12 22.24 8.05 0
 6 1 -14 70.34 11.33 0
 6 1 -13 2.92 7.21 0
 6 2 -14 42.32 9.96 0
 6 2 -13 71.74 11.94 0
 6 3 -13 -3.11 5.41 0
 7 -8 -4 252.97 16.29 0
 7 -7 -6 -0.32 6.51 0
 7 -7 -5 11.35 7.32 0
 7 -7 -4 28.75 8.99 0
 7 -7 -3 50.03 8.95 0
 7 -6 -7 -0.84 7.3 0
 7 -6 -6 56.07 10.4 0
 7 -6 -5 37.08 8.87 0
 7 -6 -3 37.8 8.64 0
 7 -6 -2 64.32 10.35 0
 7 -6 -1 0.18 5.76 0
 7 -5 -8 26.18 10.06 0
 7 -5 -6 67.16 11.63 0
 7 -4 -9 20.42 8.95 0
 7 -4 -8 6.83 7.43 0
 7 -4 -7 6.5 8.63 0
 7 -3 -9 39.08 10.1 0
 7 -3 -8 24.07 8.37 0
 -5 -4 -5 1.1 1.75 0
 -5 -4 -4 49.29 4.03 0
 -5 -4 -3 224.56 7.84 0
 -5 -4 -2 53.12 4.24 0
 -5 -3 -7 8.66 2.8 0
 -5 -3 -6 41.38 4.35 0
 -5 -3 -5 148.99 6.84 0
 -5 -3 -4 6.21 2.85 0
 -5 -3 -3 175.34 7.28 0
 -5 -3 -2 7.27 2.48 0
 -5 -2 -6 45.6 5.31 0
 -5 -2 -5 415.17 11.84 0
 -5 -2 -4 72.25 5.65 0
 -5 -2 -3 13.96 3.71 0
 -5 -1 -5 13.59 4.18 0
 -5 -1 -4 33.48 4.52 0
 -5 -1 -3 157.5 7.68 0
 -5 -1 -2 143.37 7.56 0
 -5 0 -2 -1.61 2.55 0
 -4 -5 -4 465.42 8.37 0
 -4 -5 -3 261.12 6.27 0
 -4 -4 -5 92.26 4.6 0
 -4 -4 -4 52.39 3.51 0
 -4 -4 -3 16.17 2.35 0
 -4 -4 -2 38.66 3.24 0
 -4 -3 -6 273.57 8.41 0
 -4 -3 -5 70.63 4.49 0
 -4 -3 -4 179.25 6.67 0
 -4 -3 -3 110.69 5.21 0
 -4 -3 -2 192.43 6.61 0
 -4 -2 -6 117.68 5.99 0
 -4 -2 -5 308.25 9 0
 -4 -2 -4 146.19 6.28 0
 -4 -2 -3 171.48 6.78 0
 -4 -1 -7 46.77 4.84 0
 -4 -1 -6 158.51 7.29 0
 -4 -1 -5 307 9.84 0
 -4 -1 -4 196.74 7.86 0
 -4 -1 -3 623.24 13.06 0
 -4 0 -8 618.49 15.08 0
 -4 0 -7 1.61 3.45 0
 -4 0 -6 102.1 6.22 0
 -4 0 -3 90.39 5.58 0
 -4 1 -7 45.14 5.29 0
 -4 1 -6 171.35 8.53 0
 -4 1 -5 302.21 10.31 0
 -4 1 -4 185.23 7.98 0
 -4 1 -3 622.16 13.92 0
 -4 2 -6 111.71 7.03 0
 -4 2 -3 175.99 8.31 0
 -4 3 -3 124.33 7.59 0
 -4 3 -2 191.79 8.45 0
 -4 4 -3 15.95 3.94 0
 -4 4 -2 44.62 4.8 0
 -3 -5 -3 200.86 4.08 0
 -3 -5 -2 256.75 4.72 0
 -3 -3 -5 426.65 8.73 0
 -3 -3 -4 158.07 5.1 0
 -3 -3 -3 318.75 6.98 0
 -3 -3 -2 512.95 8.54 0
 -3 -2 -5 147.15 5.78 0
 -3 -1 -7 644.7 13.35 0
 -3 -1 -6 317.6 8.85 0
 -3 -1 -3 9.85 2.23 0
 -3 0 -7 7.41 3.04 0
 -3 0 -5 1073.98 16.21 0
 -3 0 -4 339.79 8.96 0
 -3 0 -3 743.27 12.68 0
 -3 1 -8 62.61 5.4 0
 -3 1 -7 595.7 13.74 0
 -3 1 -6 316.76 9.87 0
 -3 1 -5 475.21 11.27 0
 -3 1 -3 8.77 2.44 0
 -3 2 -8 543.79 14.38 0
 -3 2 -7 85.44 6.11 0
 -3 2 -5 150.2 7.18 0
 -3 2 -4 175.09 7.23 0
 -3 2 -3 434.18 10.76 0
 -3 3 -8 482.81 13.74 0
 -3 3 -6 563.31 13.82 0
 -3 3 -5 420.21 11.49 0
 -3 3 -4 174.66 7.43 0
 -3 4 -7 510.83 13.95 0
 -3 4 -6 365.25 11.51 0
 -3 4 -5 239.45 9.54 0
 -3 4 -4 2584.85 28.3 0
 -3 4 -3 398.1 10.92 0
 -3 4 -2 84.53 5.32 0
 -3 5 -6 1.47 2.82 0
 -3 5 -5 93.29 6.2 0
 -3 5 -3 195.94 8.27 0
 -3 5 -2 255.76 9.09 0
 -3 6 -5 297.58 11.15 0
 -3 6 -4 168.37 8.54 0
 -3 6 -3 309.37 10.86 0
 -3 6 -2 34.42 5.14 0
 -3 6 -1 49.23 4.6 0
 -3 7 -2 331.49 11.3 0
 -3 7 0 -0.01 2.25 0
 -3 8 1 31.04 4.33 0
 -2 -8 3 157.4 4.66 0
 -2 -8 4 67.03 3.62 0
 -2 -8 5 249.58 7.23 0
 -2 -8 6 25.41 3.1 0
 -2 -8 7 22.28 3.32 0
 -2 -8 8 71.12 5.14 0
 -2 -7 1 153.77 2.86 0
 -2 -7 4 388.97 8.33 0
 -2 -7 5 168.34 6.22 0
 -2 -7 6 321.6 9.12 0
 -2 -7 8 4.35 2.37 0
 -2 -6 1 1036.16 8.65 0
 -2 -4 -2 157.79 2.77 0
 -2 -2 -4 567.86 8.63 0
 -2 -2 -3 123.23 3.84 0
 -2 -2 -2 208.43 4.66 0
 -2 -1 -5 73.15 3.77 0
 -2 -1 -4 991.61 12.08 0
 -2 -1 -3 1854.2 15.61 0
 -2 -1 -2 2145.2 15.97 0
 -2 0 -6 87.1 4.84 0
 -2 0 -5 630.47 10.98 0
 -2 0 -4 2291.71 19.52 0
 -2 0 -3 602.89 9.56 0
 -2 1 -6 0.37 2.06 0
 -2 1 -4 981.58 13.59 0
 -2 1 -3 1786.35 17.38 0
 -2 1 -2 2092.31 18.05 0
 -2 2 -7 124.57 6.35 0
 -2 2 -5 690.46 12.66 0
 -2 2 -4 540.49 11.08 0
 -2 2 -3 113.28 5.27 0
 -2 3 -7 7.16 2.83 0
 -2 3 -6 2117.68 24.09 0
 -2 3 -4 142.71 6.09 0
 -2 3 -3 174.72 6.53 0
 -2 3 -2 2534.17 22.25 0
 -2 4 -7 295.09 10.36 0
 -2 4 -6 174.54 7.91 0
 -2 4 -4 163.76 6.64 0
 -2 5 -7 1516.7 22.91 0
 -2 5 -6 314.13 10.23 0
 -2 5 -3 59.7 4.5 0
 -2 5 -2 630.4 12.49 0
 -2 5 -1 189.85 6.83 0
 -2 6 -7 677.04 15.75 0
 -2 6 -6 19.69 3.87 0
 -2 6 -5 702.58 15.16 0
 -2 6 -4 143.88 6.84 0
 -2 6 -3 211.79 8.15 0
 -2 6 -2 470.45 11.31 0
 -2 6 -1 1037.5 16.18 0
 -2 7 -6 326.47 11.2 0
 -2 7 -5 167.54 8.17 0
 -2 7 -4 380.37 11.29 0
 -2 7 -3 161.86 7.53 0
 -2 7 -2 226.07 8.29 0
 -2 7 -1 149.51 6.88 0
 -2 7 0 3.24 2.32 0
 -2 8 -5 272.69 10.42 0
 -2 8 -4 60.22 5.09 0
 -2 8 -3 152.6 7.57 0
 -2 8 -2 44.03 4.51 0
 -2 8 -1 178.15 7.71 0
 -2 8 1 162.24 6.82 0
 -2 9 -4 144.8 7.75 0
 -2 9 -3 85.62 5.84 0
 -2 9 -2 96.77 6.2 0
 -2 9 -1 171.85 7.52 0
 -2 9 0 299.82 9.61 0
 -2 9 1 176.16 7.34 0
 -2 9 2 93.71 5.65 0
 -2 10 -2 9.49 3.2 0
 -2 10 -1 23.5 3.89 0
 -2 10 0 2.85 2.2 0
 -2 10 1 23.61 3.73 0
 -2 10 2 11.23 2.82 0
 -2 10 3 308.38 9.73 0
 -2 10 4 120.47 6.45 0
 -2 11 0 136.78 7.27 0
 -1 -9 5 109.1 5.09 0
 -1 -9 6 55.11 4.17 0
 -1 -9 7 42.56 4.26 0
 -1 -9 8 56.46 5.12 0
 -1 -8 3 500.87 8.73 0
 -1 -8 5 99.54 5 0
 -1 -8 6 199.77 7.42 0
 -1 -8 7 112.65 6.12 0
 -1 -8 8 42.34 4.23 0
 -1 -7 2 814.77 9.67 0
 -1 -7 4 128.17 5.05 0
 -1 -7 5 359.71 8.82 0
 -1 -7 6 123.28 5.63 0
 -1 -7 7 152.52 6.89 0
 -1 -7 8 44.07 4.58 0
 -1 -7 9 119.04 7.06 0
 -1 -6 1 305.83 4.81 0
 -1 -6 3 34.92 2.68 0
 -1 -6 6 329.84 8.95 0
 -1 -6 8 4.64 2.83 0
 -1 -6 9 376.89 11.44 0
 -1 -5 1 1.97 0.76 0
 -1 -5 3 314.71 6.64 0
 -1 -5 4 729.2 11.17 0
 -1 -5 9 471.35 12.47 0
 -1 -4 1 1081.66 8.56 0
 -1 -1 -3 4042.63 18.61 0
 -1 -1 -2 9776.6 24.6 0
 -1 0 -3 1473.5 12.31 0
 -1 0 -2 394.64 5.96 0
 -1 1 -4 137.66 4.84 0
 -1 1 -3 4122.59 21.96 0
 -1 1 -2 9605.31 30.73 0
 -1 3 -5 400.82 9.34 0
 -1 3 -4 733.33 11.62 0
 -1 3 -3 1069.46 12.92 0
 -1 3 -2 335.22 6.98 0
 -1 4 -5 1714.79 19.88 0
 -1 4 -4 1339.44 16.31 0
 -1 4 -3 101.7 4.59 0
 -1 4 -2 1867.25 17.24 0
 -1 4 -1 1050.79 12.21 0
 -1 5 -5 448.19 10.61 0
 -1 5 -4 733.14 12.74 0
 -1 5 -2 514.89 9.8 0
 -1 5 -1 -0.58 1.3 0
 -1 5 0 537.59 9 0
 -1 6 -4 149.72 6.6 0
 -1 6 -2 330.78 8.27 0
 -1 6 -1 320.63 7.77 0
 -1 6 0 250.37 6.65 0
 -1 7 -3 461.77 10.63 0
 -1 7 -2 820.63 13.27 0
 -1 7 -1 86.84 4.71 0
 -1 7 1 90.66 4.41 0
 -1 8 -3 510.44 11.63 0
 -1 8 -2 155.9 6.46 0
 -1 8 -1 126.9 5.48 0
 -1 8 0 4.7 1.84 0
 -1 8 1 145.25 5.72 0
 -1 9 -3 382.9 10.45 0
 -1 9 -2 10.59 2.65 0
 -1 9 0 2.37 2.07 0
 -1 9 1 615.96 11.49 0
 -1 9 2 13.14 2.39 0
 -1 9 3 370.94 8.67 0
 -1 10 -2 225.87 8.07 0
 -1 10 -1 411.23 10.28 0
 -1 10 0 124.29 5.9 0
 -1 10 1 386.76 9.37 0
 -1 10 2 248.54 7.54 0
 -1 10 3 64.58 4.14 0
 -1 10 4 293.14 7.87 0
 0 -9 7 600.09 13.69 0
 0 -8 5 47.25 3.87 0
 0 -8 6 22.93 3.21 0
 0 -8 7 138.58 7.05 0
 0 -8 8 210.23 8.91 0
 0 -7 4 637.53 11.4 0
 0 -7 5 0.91 2.22 0
 0 -7 6 14.45 2.9 0
 0 -7 7 46.95 4.4 0
 0 -7 8 46.02 4.55 0
 0 -7 9 201.19 8.8 0
 0 -6 5 13.65 2.44 0
 0 -6 7 414.98 10.92 0
 0 -6 8 80.93 5.57 0
 0 -6 9 805.57 16.45 0
 0 -5 4 1142.39 14.29 0
 0 -5 6 177.54 6.85 0
 0 -5 7 577.46 12.24 0
 0 -5 8 109.5 6.03 0
 0 -5 9 79.76 6.11 0
 0 -4 3 1581.9 14.62 0
 0 -4 4 463.34 8.82 0
 0 -4 5 2491.77 21.7 0
 0 -4 9 60.58 4.93 0
 0 -4 10 454.56 12.73 0
 0 -3 1 279.77 4.61 0
 0 -3 2 6939.77 25.34 0
 0 -3 3 4641.73 23.41 0
 0 -3 4 514.91 8.85 0
 0 -3 5 467.82 9.25 0
 0 -3 6 68.08 4.3 0
 0 -3 8 453.1 11.41 0
 0 -3 9 1078.45 18.01 0
 0 -3 10 486.9 13.14 0
 0 -3 11 235.94 9.82 0
 0 -2 2 1.09 1.05 0
 0 -2 3 2732.47 17.31 0
 0 -2 10 199.85 8.29 0
 0 -2 11 23.73 4.01 0
 0 -1 1 43.4 1.56 0
 0 2 -1 387.59 4.79 0
 0 2 0 297.15 3.34 0
 0 3 -1 274.08 4.6 0
 0 3 0 -0.84 0.67 0
 0 4 -1 2988.53 16.4 0
 0 4 0 1097.31 9.03 0
 0 5 -1 389.81 6.63 0
 0 5 0 0.04 0.79 0
 0 5 1 384.84 5.51 0
 0 6 -1 27.41 2.29 0
 0 6 0 41.37 2.32 0
 0 6 1 30.84 2.06 0
 0 6 2 116.77 3.33 0
 0 7 0 0.48 1.15 0
 0 7 1 848.04 9.44 0
 0 7 2 1413.33 11.67 0
 0 7 3 612.5 7.67 0
 0 8 0 305.97 6.53 0
 0 8 1 1100.37 11.29 0
 0 8 2 262.17 5.3 0
 0 8 3 1038.56 10.23 0
 0 8 4 63.16 2.81 0
 0 9 2 173.45 4.43 0
 0 9 3 1.41 1.1 0
 0 9 4 12.07 1.62 0
 0 9 5 47.03 2.48 0
 1 -7 7 155.83 7.55 0
 1 -7 8 37.7 5.25 0
 1 -6 5 362.5 9.79 0
 1 -6 6 344.41 9.84 0
 1 -6 9 363.01 11.57 0
 1 -5 5 467.45 10.44 0
 1 -5 6 486.95 11.21 0
 1 -5 7 569.5 12.82 0
 1 -5 8 425.46 11.94 0
 1 -5 9 510.96 13.37 0
 1 -4 3 99.08 4.46 0
 1 -4 4 1378.41 16.25 0
 1 -4 7 3.72 2.26 0
 1 -4 8 463.63 11.99 0
 1 -4 10 46.03 4.93 0
 1 -3 3 1115.62 13.17 0
 1 -3 4 718.46 11.13 0
 1 -3 5 387.63 8.85 0
 1 -3 9 94 5.98 0
 1 -3 10 109.29 6.4 0
 1 -3 11 49.78 5.08 0
 1 -2 3 1661.1 14.87 0
 1 -2 6 623.93 11.4 0
 1 -2 9 424.87 11.22 0
 1 -2 10 609.57 14.01 0
 1 -2 11 239.56 9.48 0
 1 -1 2 9848.35 30.76 0
 1 -1 3 4164.98 21.98 0
 1 -1 5 973.91 12.66 0
 1 -1 6 839.14 12.77 0
 1 -1 7 149.85 6.01 0
 1 -1 8 46.63 4 0
 1 -1 9 749.31 14.68 0
 1 -1 11 610.05 14.45 0
 1 0 2 390.4 5.67 0
 1 0 3 1489.74 12.25 0
 1 0 4 88.77 3.56 0
 1 0 5 877.37 11.44 0
 1 0 6 4.23 2 0
 1 0 7 9.28 2.27 0
 1 0 8 255.21 7.91 0
 1 0 9 77.7 5.11 0
 1 0 10 143.4 6.91 0
 1 0 11 19.42 3.62 0
 1 1 2 9728.93 24.1 0
 1 1 3 4203.56 18.63 0
 1 1 4 143.51 4.04 0
 1 1 5 977 11.5 0
 1 1 6 880.14 12.17 0
 1 1 8 50.99 3.81 0
 1 1 9 777.7 14.05 0
 1 1 10 133.68 6.87 0
 1 1 11 592.96 13.68 0
 1 2 4 997.15 9.59 0
 1 2 5 1434.89 13.24 0
 1 2 6 627.6 9.84 0
 1 2 8 705.83 12.18 0
 1 2 10 613.81 12.9 0
 1 2 11 234.15 8.59 0
 1 2 12 173.22 7.96 0
 1 3 4 745.04 7.62 0
 1 3 5 394.98 6.52 0
 1 3 6 314.92 6.65 0
 1 3 7 513.75 9.26 0
 1 3 8 150.06 5.7 0
 1 3 9 94.57 5.29 0
 1 3 10 108.26 5.92 0
 1 3 11 53.16 4.86 0
 1 3 12 84.49 6.15 0
 1 4 4 1398.74 9.07 0
 1 4 5 1665.24 12.23 0
 1 4 6 211.92 5.24 0
 1 4 7 7.23 1.71 0
 1 4 9 251.81 7.63 0
 1 4 10 38.34 3.85 0
 1 4 11 173.21 7.26 0
 1 4 12 170.9 7.83 0
 1 5 4 750.93 5.23 0
 1 5 7 566.69 8.84 0
 1 5 8 425.15 8.63 0
 1 5 9 472.86 9.75 0
 1 5 11 28.46 3.54 0
 1 5 12 332.61 10.07 0
 1 5 13 80.27 5.78 0
 1 6 5 365.81 4.06 0
 1 6 6 349.34 5.41 0
 1 6 7 673.63 8.81 0
 1 6 8 7.87 1.73 0
 1 6 10 87.9 4.78 0
 1 6 11 38.53 3.86 0
 1 6 12 23.53 3.34 0
 1 7 6 128.39 2.5 0
 1 7 7 149.65 3.69 0
 1 7 8 43.87 2.66 0
 1 7 9 123.13 4.58 0
 1 7 10 351.42 8.12 0
 1 8 8 39.54 2.02 0
 2 -5 8 44.25 4.65 0
 2 -4 7 296.5 9.58 0
 2 -4 8 24.63 4.32 0
 2 -4 9 20.79 3.89 0
 2 -3 9 351.72 11.16 0
 2 -3 10 453.27 13.11 0
 2 -2 5 682.6 12.22 0
 2 -2 6 1420.7 18.48 0
 2 -2 7 123.1 6.26 0
 2 -2 8 238.79 8.47 0
 2 -2 9 570.99 13.68 0
 2 -2 10 228.53 9.43 0
 2 -1 6 2.11 2.04 0
 2 -1 7 25.54 3.54 0
 2 -1 8 261.81 8.8 0
 2 -1 9 40.44 4.54 0
 2 -1 10 473.05 13.12 0
 2 -1 11 268.05 10.08 0
 2 0 5 641.37 10.81 0
 2 0 6 86.33 4.5 0
 2 0 7 767.33 13.38 0
 2 0 10 23.27 4.3 0
 2 1 5 68.27 3.99 0
 2 1 6 -1.11 1.82 0
 2 1 7 27.63 3.04 0
 2 1 8 275.2 8.42 0
 2 1 9 45.38 4.28 0
 2 1 10 478.4 12.08 0
 2 1 11 263.75 9.47 0
 2 1 12 10.29 3.32 0
 2 2 5 709.69 10.03 0
 2 2 7 118.54 5.02 0
 2 2 8 250.52 7.73 0
 2 2 11 501.86 12.48 0
 2 2 12 46.27 5.25 0
 2 3 6 2107.3 17.38 0
 2 3 7 4.2 2.03 0
 2 3 9 361.35 9.32 0
 2 3 10 470.21 11.08 0
 2 4 7 295.79 6.75 0
 2 4 8 33.1 3.06 0
 2 4 9 26 3.03 0
 2 4 10 101.9 5.5 0
 2 4 11 69.99 5.05 0
 2 4 12 348.98 10.47 0
 2 4 13 0.47 2.66 0
 2 5 8 50.36 3.16 0
 2 5 9 511.51 9.61 0
 2 5 10 37.01 3.33 0
 2 5 11 46.56 3.92 0
 2 5 12 51.93 4.64 0
 2 6 9 174.35 5.18 0
 2 6 10 26.37 3.02 0
 3 0 10 0.85 2.62 0
 3 1 10 205.96 8.4 0
 3 1 11 349.28 11.19 0
 3 2 11 131.69 7.13 0
 3 3 12 16.29 3.49 0
 -5 -3 5 154.28 7.58 0
 -5 -2 4 62.52 4.68 0
 -5 -2 5 395.49 10.85 0
 -5 -2 6 50.88 4.72 0
 -5 -1 4 34.88 3.51 0
 -5 -1 5 8.81 2.9 0
 -5 -1 6 223.97 8.26 0
 -5 -1 7 30.85 4.54 0
 -5 0 3 190.19 6 0
 -5 0 4 4.94 2.23 0
 -5 0 6 133.83 6.26 0
 -5 1 3 150.37 4.84 0
 -5 1 4 34.94 3.01 0
 -5 1 5 7.96 2.27 0
 -5 1 6 227.88 7.82 0
 -5 2 3 18.63 2.06 0
 -5 2 4 67.47 3.59 0
 -5 2 5 395.76 8.83 0
 -4 -4 4 61.5 5.01 0
 -4 -4 5 99.95 6.49 0
 -4 -3 3 117.1 5.87 0
 -4 -3 4 168.8 7.27 0
 -4 -3 5 71.87 5.18 0
 -4 -3 7 520.24 13.56 0
 -4 -2 3 183.37 6.69 0
 -4 -2 5 317.95 9.35 0
 -4 -2 6 110.26 6.27 0
 -4 -2 7 33.76 4.39 0
 -4 -1 2 209.49 6.15 0
 -4 -1 3 606.84 10.94 0
 -4 -1 5 311.67 8.92 0
 -4 0 2 405.32 7.6 0
 -4 0 3 90.96 4.11 0
 -4 0 4 616.52 10.92 0
 -4 1 2 209.15 4.95 0
 -4 1 3 618.05 9.54 0
 -4 2 2 305.03 5.29 0
 -4 6 2 40.17 2.24 0
 -3 -6 4 181.68 8.28 0
 -3 -6 5 314.81 10.85 0
 -3 -5 3 205.91 8.04 0
 -3 -5 4 7.33 3.04 0
 -3 -5 5 100.93 6.42 0
 -3 -5 6 3.7 2.82 0
 -3 -4 3 397.86 10.31 0
 -3 -4 5 235.93 8.57 0
 -3 -4 7 533.32 13.7 0
 -3 -4 8 108.75 6.85 0
 -3 -3 2 546.66 10.69 0
 -3 -3 3 341.81 8.99 0
 -3 -3 4 174.59 6.73 0
 -3 -3 5 444.99 11 0
 -3 -3 6 558.26 12.83 0
 -3 -2 2 489.3 9.25 0
 -3 -2 3 425.2 9.27 0
 -3 -2 4 162.03 6.36 0
 -3 -1 1 711.38 9.66 0
 -3 -1 2 335.91 7.16 0
 -3 -1 3 14.23 2.48 0
 -3 0 1 1235.15 11.01 0
 -3 0 2 159.57 4.54 0
 -3 4 0 129.98 2.18 0
 -3 5 0 3.2 0.85 0
 -3 6 0 37.43 2.28 0
 -3 6 1 46.4 2.71 0
 -3 7 0 0.33 1.08 0
 -3 7 1 323.3 7.12 0
 -3 8 0 12.85 2.22 0
 -3 8 1 28.66 2.81 0
 -3 8 2 139.73 5.72 0
 -3 9 0 90.38 4.71 0
 -3 9 1 112.28 5.32 0
 -3 9 2 136.48 5.98 0
 -3 9 3 126.17 5.97 0
 -2 -7 5 165.37 8.02 0
 -2 -6 5 687.2 14.73 0
 -2 -6 7 690.67 15.82 0
 -2 -5 3 66.33 5.14 0
 -2 -5 4 152.33 7.1 0
 -2 -5 6 329.43 10.42 0
 -2 -5 8 50.06 5.1 0
 -2 -4 3 351 8.93 0
 -2 -4 4 171.75 6.61 0
 -2 -4 5 51.39 4.32 0
 -2 -4 6 175.38 7.28 0
 -2 -3 1 396.45 8.18 0
 -2 -3 2 2583.9 21.24 0
 -2 -3 3 165.59 5.82 0
 -2 -3 4 147.15 5.86 0
 -2 -2 1 1287.12 13.08 0
 -2 -2 2 209.68 5.7 0
 -2 -2 3 119.88 4.7 0
 -2 -1 1 1806.17 13.56 0
 -2 0 0 535.66 5.62 0
 -2 4 -1 104.19 2.81 0
 -2 5 -1 199.38 4.7 0
 -2 5 0 9.72 1.63 0
 -2 6 -1 1061.04 12.25 0
 -2 6 0 0.44 1.3 0
 -2 7 -1 153.53 5.46 0
 -2 7 0 1.64 1.54 0
 -2 7 1 146.39 5.49 0
 -2 8 -1 183.77 6.45 0
 -2 8 0 219.86 7.08 0
 -2 8 1 166.48 6.41 0
 -2 9 -1 173.81 6.87 0
 -2 9 0 290.68 8.73 0
 -2 9 1 162.59 6.7 0
 -2 9 2 91.74 5.29 0
 -2 10 -1 22.31 3.27 0
 -2 10 0 1.91 2.02 0
 -2 10 1 23.35 3.38 0
 -2 10 2 8.1 2.68 0
 -1 -7 5 371.54 11.01 0
 -1 -7 7 142.71 7.46 0
 -1 -6 4 150.98 6.86 0
 -1 -6 5 362.3 10.24 0
 -1 -6 8 7.45 3.56 0
 -1 -5 4 707.35 12.91 0
 -1 -5 5 459.72 11.05 0
 -1 -5 6 485.77 11.64 0
 -1 -4 2 1919.7 18.43 0
 -1 -4 3 96.6 4.64 0
 -1 -4 4 1359.39 16.54 0
 -1 -3 1 2213.24 17.13 0
 -1 -3 2 332.07 7.02 0
 -1 -3 3 1060.38 13.04 0
 -1 -1 1 1081.66 8.83 0
 -1 3 -1 2281.57 12.88 0
 -1 4 -1 1114.64 11.02 0
 -1 5 -2 515.82 8.67 0
 -1 5 -1 2.13 1.3 0
 -1 5 0 538.61 8.85 0
 -1 6 -2 332.09 7.82 0
 -1 6 -1 319.98 7.6 0
 -1 6 0 254.39 6.84 0
 -1 7 -2 833.09 13.43 0
 -1 7 -1 96.5 4.89 0
 -1 7 0 381.92 9.04 0
 -1 8 -2 154.2 6.38 0
 -1 8 -1 137.02 6.01 0
 -1 8 0 1.5 1.82 0
 -1 8 1 128.78 5.92 0
 -1 9 -1 584.64 12.83 0
 -1 9 0 3.09 1.91 0
 -1 9 1 593.76 13.06 0
 -1 9 2 8.28 2.51 0
 -1 10 -1 391.96 11.36 0
 -1 10 0 117.53 6.37 0
 -1 10 1 385.88 11.21 0
 0 -8 6 26.28 4.21 0
 0 -8 7 134.87 7.55 0
 0 -7 5 2.88 2.34 0
 0 -7 6 13.43 3.08 0
 0 -7 7 38.26 4.91 0
 0 -7 8 50.95 5.49 0
 0 -6 4 1989.11 21.51 0
 0 -6 5 11.09 3.01 0
 0 -6 6 157.02 6.79 0
 0 -6 7 417.98 11.08 0
 0 -6 8 78.27 5.45 0
 0 -6 9 820.67 16.7 0
 0 -5 3 1079.69 14.12 0
 0 -5 4 1186.38 15.49 0
 0 -5 5 640.9 11.81 0
 0 -5 6 170.91 6.77 0
 0 -5 7 574.56 12.16 0
 0 -4 3 1543.25 15.46 0
 0 -4 4 443.81 8.77 0
 0 -3 2 6726.84 27.21 0
 0 -3 3 4633.27 23.92 0
 0 -2 1 410.67 5.46 0
 0 2 -1 396.48 5.32 0
 0 4 -2 11.28 2.39 0
 0 4 -1 3036.71 20.19 0
 0 4 0 1085.57 12.04 0
 0 5 -2 155.98 5.56 0
 0 5 -1 395.22 8.26 0
 0 5 0 -1.29 1.36 0
 0 6 -2 111.5 5.09 0
 0 6 -1 28.15 2.93 0
 0 6 0 38.77 3.23 0
 0 7 -2 1414.64 18.51 0
 0 7 -1 842.56 14.15 0
 0 7 0 1.4 1.91 0
 0 7 1 851.19 14.52 0
 0 8 -2 259.03 8.7 0
 0 8 -1 1092.54 17.33 0
 0 8 0 321.05 9.58 0
 0 9 -2 173.23 7.64 0
 0 9 -1 249.6 9.27 0
 0 9 0 1.38 2.43 0
 0 9 1 242.39 8.91 0
 0 9 2 176.31 7.96 0
 1 -8 7 124.9 6.64 0
 1 -8 8 39.67 4.54 0
 1 -7 7 148.58 6.87 0
 1 -7 8 39.39 4.04 0
 1 -7 9 116.64 6.71 0
 1 -6 5 371.37 8.97 0
 1 -6 7 666.41 12.83 0
 1 -6 8 4.79 2.84 0
 1 -6 9 365.17 10.44 0
 1 -6 10 94.98 5.94 0
 1 -5 5 484.83 9.43 0
 1 -5 7 557.36 11.3 0
 1 -4 3 100.33 3.7 0
 1 -4 4 1364.67 13.62 0
 1 -4 5 1656.5 16.03 0
 1 -3 2 350.36 5.35 0
 1 -3 3 1070.36 10.1 0
 1 1 0 5208.7 17.73 0
 1 2 -1 1494.23 12.21 0
 1 2 0 3223.79 17.07 0
 1 3 -1 2245.77 17.09 0
 1 3 0 4905.17 24.64 0
 1 5 -2 509 10.27 0
 1 5 -1 2.35 1.96 0
 1 7 -1 89.17 5.54 0
 1 7 0 374.11 10.12 0
 1 7 1 81.29 5.49 0
 1 8 -2 149.2 7.16 0
 1 8 -1 140.52 7.31 0
 1 8 0 3.57 2.59 0
 1 8 1 129.78 6.67 0
 1 8 2 157.04 7.39 0
 1 9 -2 10.35 3.3 0
 1 9 0 2.95 2.9 0
 2 -8 9 116.37 6.13 0
 2 -7 8 5.04 2.02 0
 2 -7 9 105.59 5.67 0
 2 -7 10 19.19 3.22 0
 2 -6 6 18.36 2.45 0
 2 -6 7 685.59 11.73 0
 2 -6 8 28.49 3.03 0
 2 -6 9 175.33 6.95 0
 2 -6 10 29.85 3.68 0
 2 -6 11 329.7 10.03 0
 2 -5 5 259.9 6.09 0
 2 -5 6 308.75 7.11 0
 2 -5 7 1477.02 16.28 0
 2 -5 8 46.24 3.66 0
 2 -4 6 168.63 4.94 0
 2 -3 3 165.4 2.99 0
 2 -3 4 139.16 3.34 0
 2 1 1 1818.79 12.36 0
 2 2 0 343.48 6.53 0
 2 2 1 1293.84 12.35 0
 2 3 1 391.52 7.79 0
 2 4 -1 106.2 5.02 0
 2 6 -1 1013.38 16.38 0
 2 6 0 2.16 2.13 0
 2 6 1 1021.62 16.35 0
 2 7 -1 141.89 6.98 0
 2 7 0 3.21 2.48 0
 2 7 1 159.12 7.64 0
 2 7 2 215.11 8.61 0
 2 7 3 177.25 7.77 0
 2 8 0 219.28 8.86 0
 2 8 1 165.61 8.19 0
 2 8 2 46.43 4.76 0
 3 -5 7 21.42 1.96 0
 3 -5 8 163.08 4.99 0
 3 -4 6 353.1 5.38 0
 3 -4 7 533.03 7.8 0
 3 -4 8 117.32 4.26 0
 3 1 3 14.66 1.72 0
 3 2 1 1038.72 12.16 0
 3 4 0 130.16 5.6 0
 3 4 1 93.09 4.8 0
 3 4 2 73.42 4.66 0
 3 4 3 400.03 9.57 0
 3 5 0 5.3 2.38 0
 3 5 1 465.89 10.97 0
 3 5 2 263.61 8.38 0
 3 5 3 208.16 7.76 0
 3 6 1 51.82 4.54 0
 3 6 2 40.66 4.2 0
 3 6 3 332.39 10.08 0
 3 6 4 171.13 7.77 0
 3 7 0 2.69 2.7 0
 3 7 1 325.07 10.56 0
 3 7 2 319.25 10.66 0
 3 7 3 90.83 6.01 0
 3 7 4 23.87 4.12 0
 4 1 5 307.71 6.59 0
 4 2 3 178.4 5.49 0
 4 2 4 145.2 5.17 0
 4 2 5 316.97 7.66 0
 4 3 2 195.62 6.39 0
 4 3 4 169.26 6.07 0
 4 3 5 73.44 4.35 0
 4 4 2 37.32 3.64 0
 4 4 3 20.6 2.91 0
 4 4 4 55.21 4.24 0
 4 4 5 104.23 5.52 0
 4 5 2 146.01 6.69 0
 4 5 3 259.65 8.72 0
 4 5 4 466.02 11.65 0
 4 5 5 342.3 10.11 0
 4 5 6 58.52 4.8 0
 4 6 1 193.76 8.26 0
 4 6 2 42.77 4.98 0
 4 6 3 197.88 8.41 0
 4 6 4 420.23 11.84 0
 5 5 4 202.63 8.03 0
 -5 -3 15 51.43 9.56 0
 -5 -2 13 38.63 9.09 0
 -5 -2 15 170.51 14.64 0
 -5 -1 12 6.94 5.76 0
 -5 -1 13 236.95 15.06 0
 -5 -1 14 127.45 12.71 0
 -5 -1 15 28.5 8.48 0
 -5 -1 16 72.79 10.59 0
 -5 0 11 4.92 5.11 0
 -5 0 12 114.37 11.19 0
 -5 0 13 7.87 6.62 0
 -5 0 14 8.08 6.07 0
 -5 0 15 7.81 6.8 0
 -5 0 16 42.81 9.22 0
 -5 1 11 46.66 7.4 0
 -5 1 13 234.07 14.01 0
 -5 1 15 21.23 7.47 0
 -5 2 11 117.34 9.59 0
 -5 2 12 17.75 5.74 0
 -5 2 13 43.12 7.93 0
 -5 2 14 -2.18 5.07 0
 -5 2 15 186.08 14.17 0
 -5 2 16 41.67 9.05 0
 -5 3 11 34.35 6.69 0
 -5 3 12 41.85 7.03 0
 -5 3 14 58.55 8.87 0
 -5 3 15 53.33 9.32 0
 -5 4 12 28.44 5.86 0
 -5 4 13 10.25 5.02 0
 -5 4 14 4.99 4.86 0
 -5 4 15 13.18 6.24 0
 -4 -6 13 9.19 6.29 0
 -4 -6 14 15.51 7.25 0
 -4 -6 15 69.34 11.62 0
 -4 -5 11 9.94 5.28 0
 -4 -5 12 52.02 8.31 0
 -4 -5 13 42.67 8.32 0
 -4 -5 16 7.63 7.2 0
 -4 -4 9 103.64 8.74 0
 -4 -4 10 445.53 17.33 0
 -4 -4 12 202.9 14.1 0
 -4 -4 13 139.23 13.01 0
 -4 -4 14 8.02 6.14 0
 -4 -4 15 -0.58 6.88 0
 -4 -3 9 27.77 6.65 0
 -4 -3 10 7.2 5.26 0
 -4 -3 11 27.56 6.66 0
 -4 -3 12 39.63 7.95 0
 -4 -3 13 223.49 14.92 0
 -4 -3 15 15.33 7.9 0
 -4 -3 16 5.91 7.22 0
 -4 -3 17 41.64 10.22 0
 -4 -2 11 -1.93 4.5 0
 -4 -2 12 57.66 8.55 0
 -4 -2 13 67.46 9.94 0
 -4 -2 14 67.37 9.87 0
 -4 -2 15 39.32 9.63 0
 -4 -2 16 73.08 12.09 0
 -4 -2 17 170.25 15.38 0
 -4 -1 9 67.06 8.15 0
 -4 -1 10 20.63 5.89 0
 -4 -1 12 97.38 10.3 0
 -4 -1 13 11.83 6.05 0
 -4 -1 14 55.25 8.9 0
 -4 -1 15 5.67 6.25 0
 -4 -1 16 11.46 7.06 0
 -4 0 7 4.38 4.09 0
 -4 0 8 640.19 17.86 0
 -4 0 10 3.47 5.2 0
 -4 0 11 19.48 5.64 0
 -4 0 13 -0.08 5.34 0
 -4 0 14 0.02 5.31 0
 -4 0 15 3.55 6.4 0
 -4 0 16 255.69 16.78 0
 -4 0 17 68.03 10.85 0
 -4 1 7 43.88 5.7 0
 -4 1 8 187.42 10.19 0
 -4 1 9 70.74 7.95 0
 -4 1 10 18.52 5.89 0
 -4 1 11 6.41 4.86 0
 -4 1 12 110.46 9.72 0
 -4 1 13 10.66 5.72 0
 -4 1 14 57.03 8.63 0
 -4 1 15 0.94 6.21 0
 -4 1 17 18.83 7.57 0
 -4 2 8 21.21 5 0
 -4 2 9 38.67 6.05 0
 -4 2 10 105.99 8.34 0
 -4 2 11 -3.12 4.36 0
 -4 2 14 73.28 9.48 0
 -4 2 15 36.21 7.71 0
 -4 2 16 65.72 10.48 0
 -4 2 18 36.01 8.67 0
 -4 3 7 486.07 13.5 0
 -4 3 8 40.49 5.82 0
 -4 3 9 27.46 5.07 0
 -4 3 10 4.76 3.85 0
 -4 3 11 34.15 6.39 0
 -4 3 14 10.75 5.77 0
 -4 3 15 13.37 6.25 0
 -4 3 16 11.47 6.23 0
 -4 4 8 564.02 14.88 0
 -4 4 9 94.22 7.68 0
 -4 4 10 412.54 14.36 0
 -4 4 14 -4.03 4.28 0
 -4 4 16 8.1 5.81 0
 -4 4 17 6.85 6.16 0
 -4 5 8 56.56 5.28 0
 -4 5 9 33.44 4.88 0
 -4 5 10 55.32 6.86 0
 -4 5 11 7.39 4.66 0
 -4 5 12 38.12 6.29 0
 -4 5 14 30.78 6.47 0
 -4 5 15 89.68 9.95 0
 -4 5 16 -2.85 5.2 0
 -4 5 17 56.08 8.69 0
 -4 6 9 44.6 5.14 0
 -4 6 11 21.06 4.71 0
 -4 6 12 90.5 8.08 0
 -4 6 13 4.15 4.35 0
 -3 -8 13 68.58 9.95 0
 -3 -8 14 0.7 6.06 0
 -3 -8 15 30.43 8.54 0
 -3 -8 16 -4.16 5.43 0
 -3 -7 11 49.58 7.72 0
 -3 -7 12 128.27 11.86 0
 -3 -7 13 64.89 9.8 0
 -3 -7 14 7.31 6.15 0
 -3 -7 15 1.74 6.54 0
 -3 -7 16 17.91 8.57 0
 -3 -6 8 27.49 5.52 0
 -3 -6 9 98.42 9.25 0
 -3 -6 10 36.51 7.05 0
 -3 -6 11 53.76 8.25 0
 -3 -6 12 7.14 5.52 0
 -3 -6 13 94.97 11.32 0
 -3 -6 15 50.21 9.88 0
 -3 -6 16 44.58 10.02 0
 -3 -5 7 16.84 4.63 0
 -3 -5 8 163.78 10.09 0
 -3 -5 10 506.85 18.12 0
 -3 -5 11 71.02 8.54 0
 -3 -5 13 -2.15 4.71 0
 -3 -5 14 38.15 8.93 0
 -3 -5 15 23.66 7.88 0
 -3 -5 16 3.22 6.83 0
 -3 -5 17 10.33 8.29 0
 -3 -4 6 355.85 12.66 0
 -3 -4 7 525.81 15.99 0
 -3 -4 9 150.65 9.85 0
 -3 -4 10 46.84 6.99 0
 -3 -4 11 4.37 4.65 0
 -3 -4 12 63.46 8.51 0
 -3 -4 13 17.43 6.23 0
 -3 -4 14 5.86 5.74 0
 -3 -4 16 82.54 12.24 0
 -3 -4 17 48.62 10.14 0
 -3 -4 18 7.06 7.66 0
 -3 -3 6 550.95 15.14 0
 -3 -3 7 409.95 13.92 0
 -3 -3 9 10.23 4.64 0
 -3 -3 10 100.62 8.27 0
 -3 -3 11 36.99 6.83 0
 -3 -3 12 18.26 5.88 0
 -3 -3 13 14.1 6.41 0
 -3 -3 14 60.23 9.09 0
 -3 -3 16 7.53 6.44 0
 -3 -3 17 20.95 8.34 0
 -3 -3 18 44.87 9.74 0
 -3 -2 7 91.93 7.49 0
 -3 -2 8 548.99 16.08 0
 -3 -2 10 77.1 8.46 0
 -3 -2 11 148.23 10.49 0
 -3 -2 12 16.94 6.1 0
 -3 -2 13 11.26 5.25 0
 -3 -2 14 2.62 5.86 0
 -3 -2 15 26.85 7.53 0
 -3 -2 16 145.98 12.62 0
 -3 -2 18 30.43 8.89 0
 -3 -1 4 518.82 12.57 0
 -3 -1 9 163.96 9.91 0
 -3 -1 10 219.75 11.25 0
 -3 -1 11 387.44 15.21 0
 -3 -1 12 9.2 5 0
 -3 -1 13 68.55 8.85 0
 -3 -1 14 128.53 11.79 0
 -3 -1 15 34.49 7.79 0
 -3 -1 16 49.31 8.69 0
 -3 -1 18 26.44 8.36 0
 -3 0 4 328.51 9.63 0
 -3 0 5 1016.38 17.91 0
 -3 0 8 2.07 3.64 0
 -3 0 9 406.73 14.07 0
 -3 0 10 2.86 3.68 0
 -3 0 11 135.84 9.66 0
 -3 0 12 9.58 4.96 0
 -3 0 13 65.21 8.46 0
 -3 0 14 231.33 13.9 0
 -3 0 15 6.27 5.79 0
 -3 0 16 228.03 15.23 0
 -3 0 17 2.31 6.16 0
 -3 1 5 502.13 12.15 0
 -3 1 6 308.61 10.22 0
 -3 1 9 181.72 9.86 0
 -3 1 10 204.26 10.56 0
 -3 1 11 366.02 14.36 0
 -3 1 12 1.44 4.57 0
 -3 1 13 63.51 8.51 0
 -3 1 14 129.49 11.44 0
 -3 1 16 43.58 8.46 0
 -3 1 18 23.03 8.44 0
 -3 1 19 178.76 15.87 0
 -3 2 4 170.14 6.71 0
 -3 2 5 140.34 6.89 0
 -3 2 9 74.14 6.84 0
 -3 2 10 70.23 6.79 0
 -3 2 12 22.81 5.82 0
 -3 2 14 13.93 5.59 0
 -3 2 16 147.67 12.08 0
 -3 2 17 22.18 7.77 0
 -3 2 18 13.25 8.41 0
 -3 2 19 85.47 12.61 0
 -3 3 4 159.49 6.09 0
 -3 3 5 430.59 10.44 0
 -3 3 6 568.07 12.78 0
 -3 3 9 8.47 4.17 0
 -3 3 10 79.39 6.83 0
 -3 3 11 38.58 5.8 0
 -3 3 12 19.57 5.94 0
 -3 3 13 15.01 5.58 0
 -3 3 15 59.25 8.64 0
 -3 3 16 2.12 6.07 0
 -3 3 17 18.75 6.6 0
 -3 3 18 58.69 9.58 0
 -3 4 4 2527.21 20.86 0
 -3 4 5 219.81 7.31 0
 -3 4 6 370.83 10.05 0
 -3 4 7 527.86 12.77 0
 -3 4 9 144.89 8.26 0
 -3 4 11 6.75 4.06 0
 -3 4 13 18.93 5.49 0
 -3 4 15 164.81 12.45 0
 -3 4 16 94.06 10.01 0
 -3 4 17 49.86 8.46 0
 -3 4 18 6.57 6.42 0
 -3 5 6 6.68 2.44 0
 -3 5 10 493.93 14.3 0
 -3 5 11 68.92 6.65 0
 -3 5 13 6.99 4.6 0
 -3 5 14 35.52 7.27 0
 -3 5 15 28.62 7.23 0
 -3 5 16 3.27 5.49 0
 -3 5 17 14.5 5.75 0
 -3 5 18 62.26 9.47 0
 -3 6 5 322.95 7.14 0
 -3 6 6 157.01 5.95 0
 -3 6 7 279.21 8.57 0
 -3 6 8 28.46 4.44 0
 -3 6 10 27.67 4.58 0
 -3 6 12 17.58 4.79 0
 -3 6 13 103.93 8.74 0
 -3 6 14 23.3 5.73 0
 -3 6 16 41.31 7.57 0
 -3 6 17 14.46 6.1 0
 -3 6 18 82.76 10.48 0
 -3 7 6 314.47 7.08 0
 -3 7 7 410.17 9.4 0
 -3 7 8 134.28 6.34 0
 -3 7 10 13.02 3.24 0
 -3 7 11 53.68 6.01 0
 -3 7 12 141.14 9.04 0
 -3 7 14 9.64 4.9 0
 -3 7 15 8.35 5.66 0
 -2 -9 11 20.2 5.82 0
 -2 -9 12 51.26 8.46 0
 -2 -9 13 173.78 12.78 0
 -2 -9 15 82.72 11.34 0
 -2 -9 16 11.64 6.26 0
 -2 -8 9 111.46 8.96 0
 -2 -8 10 68.9 8.53 0
 -2 -8 11 20.46 5.75 0
 -2 -8 12 34.54 6.95 0
 -2 -8 13 97.84 9.93 0
 -2 -8 14 45.69 9.04 0
 -2 -8 15 49.46 8.94 0
 -2 -8 17 31.68 8.43 0
 -2 -7 7 125.17 8.3 0
 -2 -7 8 6.64 4.24 0
 -2 -7 9 105.76 8.31 0
 -2 -7 10 21.43 5.49 0
 -2 -7 12 29.99 7.5 0
 -2 -7 13 48.29 8.57 0
 -2 -7 14 185.62 13.28 0
 -2 -7 15 47.13 9.11 0
 -2 -7 16 8.64 6.69 0
 -2 -7 17 40.85 9.63 0
 -2 -6 6 19.63 4.03 0
 -2 -6 8 21.77 4.9 0
 -2 -6 9 177.69 10.78 0
 -2 -6 11 322.68 14.81 0
 -2 -6 12 81.31 9.81 0
 -2 -6 13 1.14 5.27 0
 -2 -6 15 26.83 7.63 0
 -2 -6 16 2.89 6.31 0
 -2 -6 17 14.87 8.33 0
 -2 -6 18 26.85 8.34 0
 -2 -5 9 513.27 15.99 0
 -2 -5 10 28.65 6.16 0
 -2 -5 12 49.1 7.8 0
 -2 -5 13 148.06 11.08 0
 -2 -5 14 103.77 10.75 0
 -2 -5 15 57.97 9.5 0
 -2 -5 16 131.91 12.12 0
 -2 -5 17 5.25 7.19 0
 -2 -5 18 14.26 7.67 0
 -2 -4 4 171.53 7.35 0
 -2 -4 5 50.68 5.07 0
 -2 -4 8 28.81 4.73 0
 -2 -4 9 22.35 4.76 0
 -2 -4 10 96.35 8.38 0
 -2 -4 11 70.77 8.22 0
 -2 -4 12 325.23 14.76 0
 -2 -4 13 5.27 5.45 0
 -2 -4 14 97.07 10.24 0
 -2 -4 15 51.73 9.58 0
 -2 -4 16 17.86 7.03 0
 -2 -4 17 4.22 6.59 0
 -2 -4 19 62.1 10.89 0
 -2 -3 3 171.04 6.59 0
 -2 -3 4 141.46 6.85 0
 -2 -3 5 136.03 6.97 0
 -2 -3 9 350.24 12.69 0
 -2 -3 10 467.58 15.28 0
 -2 -3 11 124.48 9.19 0
 -2 -3 12 37.91 6.88 0
 -2 -3 13 39.81 6.88 0
 -2 -3 14 245.26 13.9 0
 -2 -3 15 104.88 11.27 0
 -2 -3 16 104.06 11.04 0
 -2 -3 18 187.6 15.45 0
 -2 -3 19 14.72 8.07 0
 -2 -2 3 117.48 5.65 0
 -2 -2 5 705.09 14.33 0
 -2 -2 6 1400.45 20.84 0
 -2 -2 9 543.48 15.51 0
 -2 -2 10 234.57 11.24 0
 -2 -2 11 520.65 16.89 0
 -2 -2 12 44.85 6.58 0
 -2 -2 13 100.07 9.27 0
 -2 -2 14 110.82 10.76 0
 -2 -2 15 56.92 8.48 0
 -2 -2 16 178.26 14.04 0
 -2 -2 17 16.79 7.15 0
 -2 -2 18 11.46 7.52 0
 -2 -2 19 21.59 8.42 0
 -2 -1 3 1827.43 19.51 0
 -2 -1 4 986.6 15.15 0
 -2 -1 5 75.73 5.14 0
 -2 -1 6 -0.43 2.43 0
 -2 -1 7 23.67 3.93 0
 -2 -1 9 38.02 5.11 0
 -2 -1 10 462.5 14.68 0
 -2 -1 12 12.88 5.29 0
 -2 -1 13 13.33 5.67 0
 -2 -1 14 54 7.9 0
 -2 -1 15 121.33 11.18 0
 -2 -1 16 196.17 13.49 0
 -2 -1 18 117.43 12.09 0
 -2 0 2 1651.29 16.1 0
 -2 0 3 609.97 11.02 0
 -2 0 4 2248.15 21.8 0
 -2 0 5 665.32 12.85 0
 -2 0 6 90.9 5.51 0
 -2 0 7 783.46 15.81 0
 -2 0 10 23.3 4.72 0
 -2 0 11 98.27 7.92 0
 -2 0 12 7.5 4.48 0
 -2 0 13 231.88 12.33 0
 -2 0 15 231.14 13.98 0
 -2 0 16 65.25 9.18 0
 -2 0 17 20.68 7.17 0
 -2 0 18 -1.71 5.88 0
 -2 1 2 2126.23 17.14 0
 -2 1 3 1853.81 17.48 0
 -2 1 4 1000.16 14.07 0
 -2 1 5 74.47 4.74 0
 -2 1 6 -0.14 2.24 0
 -2 1 7 21.87 4.03 0
 -2 1 11 270.58 12.04 0
 -2 1 12 17.34 4.99 0
 -2 1 13 8.38 4.7 0
 -2 1 14 40.06 7.04 0
 -2 1 15 109.05 10.92 0
 -2 1 16 179.64 13.45 0
 -2 1 17 44.05 9.53 0
 -2 1 18 132.1 13.33 0
 -2 1 19 140.17 13.25 0
 -2 2 2 210.49 5.34 0
 -2 2 3 128.02 4.68 0
 -2 2 4 549.73 9.97 0
 -2 2 5 712.99 12.35 0
 -2 2 6 1390.05 18.31 0
 -2 2 7 116.89 6.29 0
 -2 2 10 236.4 10.23 0
 -2 2 11 513.06 15.58 0
 -2 2 12 34.22 5.89 0
 -2 2 13 101.35 9.47 0
 -2 2 14 103.71 9.63 0
 -2 2 15 54.81 8.2 0
 -2 2 16 192.55 12.85 0
 -2 2 17 27.86 7.61 0
 -2 2 18 10.98 7.96 0
 -2 3 2 2554.28 15.67 0
 -2 3 3 167.11 4.81 0
 -2 3 4 142.87 4.99 0
 -2 3 5 140.5 5.53 0
 -2 3 6 2081.76 21.82 0
 -2 3 7 5.91 2.71 0
 -2 3 8 218.94 8.88 0
 -2 3 10 460.94 14 0
 -2 3 11 111.57 8.4 0
 -2 3 12 34.52 5.68 0
 -2 3 13 33.96 6.37 0
 -2 3 14 250.79 13 0
 -2 3 15 111.93 9.86 0
 -2 3 16 111.43 10.46 0
 -2 3 17 109.34 11.88 0
 -2 3 18 196.04 14.93 0
 -2 3 19 13.95 7.17 0
 -2 4 3 343.37 6.27 0
 -2 4 4 170.19 5.19 0
 -2 4 5 54.92 3.5 0
 -2 4 6 170.39 6.38 0
 -2 4 7 297.75 9.08 0
 -2 4 8 25.23 4.09 0
 -2 4 10 104.17 7.38 0
 -2 4 11 72.64 7.4 0
 -2 4 13 0.64 4.8 0
 -2 4 15 48.53 8.09 0
 -2 4 17 12.25 6.49 0
 -2 4 18 102.76 12.49 0
 -2 4 19 57.2 10.27 0
 -2 5 3 65.06 2.58 0
 -2 5 4 157.91 4.66 0
 -2 5 5 256.35 6.71 0
 -2 5 6 316.31 8.26 0
 -2 5 7 1501.15 19.23 0
 -2 5 8 52.45 5 0
 -2 5 10 32.16 4.85 0
 -2 5 11 50.55 6.17 0
 -2 5 12 45.16 6.61 0
 -2 5 13 151.67 10.09 0
 -2 5 15 59.86 8.23 0
 -2 5 16 147.1 11.97 0
 -2 5 17 4.05 6.14 0
 -2 5 18 23.49 7.35 0
 -2 5 19 52.05 10.03 0
 -2 6 3 208.92 3.19 0
 -2 6 4 137.69 3.98 0
 -2 6 5 681.08 10.05 0
 -2 6 6 17.11 2.8 0
 -2 6 7 714.33 13.01 0
 -2 6 8 27.37 3.77 0
 -2 6 10 28.9 4.55 0
 -2 6 12 97.08 8.13 0
 -2 6 13 2.36 4.09 0
 -2 6 17 23.17 7.2 0
 -2 6 18 24.46 7.52 0
 -2 7 4 363.76 5.02 0
 -2 7 5 172.31 4.8 0
 -2 7 6 326.64 7.6 0
 -2 7 7 130.38 5.68 0
 -2 7 8 3.34 2.39 0
 -2 7 10 19.61 3.83 0
 -2 7 11 53.17 6.12 0
 -2 7 12 26.15 5.46 0
 -2 7 13 50.22 6.72 0
 -2 7 14 168.97 10.57 0
 -2 7 15 47.17 7.19 0
 -2 7 16 9.48 5.81 0
 -2 7 17 57.45 9.1 0
 -2 7 18 8.78 5.84 0
 -2 8 5 265.33 4.85 0
 -2 8 6 20.28 2.37 0
 -2 8 7 24.97 2.95 0
 -2 8 8 82.68 5.1 0
 -2 8 10 81.62 6.21 0
 -2 8 11 25.79 4.89 0
 -2 8 12 39.74 5.73 0
 -2 8 13 106.04 8.64 0
 -2 8 14 44.4 6.8 0
 -1 -10 12 13.57 5.84 0
 -1 -10 13 48.85 8.05 0
 -1 -10 14 89.27 10.42 0
 -1 -10 15 30.22 6.75 0
 -1 -10 16 72.29 9.63 0
 -1 -9 9 153.27 9.29 0
 -1 -9 10 13.67 4.49 0
 -1 -9 11 110.39 9.2 0
 -1 -9 12 210.88 12.17 0
 -1 -9 13 78.87 9.73 0
 -1 -9 14 56.09 8.51 0
 -1 -9 15 7.18 5.69 0
 -1 -9 16 1.27 5.58 0
 -1 -8 7 124.08 7.33 0
 -1 -8 8 37.97 5.36 0
 -1 -8 9 28.4 5.3 0
 -1 -8 10 128.92 9.12 0
 -1 -8 11 174.53 11.08 0
 -1 -8 12 49.88 7.97 0
 -1 -8 14 122.76 10.85 0
 -1 -8 15 160.67 12.17 0
 -1 -8 17 49.68 9.15 0
 -1 -7 8 43.56 5.56 0
 -1 -7 9 116.94 8.33 0
 -1 -7 10 363.54 13.98 0
 -1 -7 11 116.16 9.28 0
 -1 -7 12 198.82 12.09 0
 -1 -7 13 51.27 8.23 0
 -1 -7 14 244.46 14.52 0
 -1 -7 15 25.45 7.72 0
 -1 -7 16 98.95 12.19 0
 -1 -7 17 18.2 7.04 0
 -1 -7 18 71.87 11.45 0
 -1 -6 4 153.36 6.67 0
 -1 -6 5 378.65 10.58 0
 -1 -6 8 8.96 3.54 0
 -1 -6 10 99.08 7.85 0
 -1 -6 11 33.17 5.89 0
 -1 -6 12 25.41 6.31 0
 -1 -6 13 196.24 11.92 0
 -1 -6 14 81.18 9.03 0
 -1 -6 15 26.6 6.94 0
 -1 -6 16 65.85 10.6 0
 -1 -6 17 17.72 7.17 0
 -1 -6 18 39.9 8.61 0
 -1 -5 4 743.42 13.51 0
 -1 -5 5 467.15 11.5 0
 -1 -5 6 482.83 12.29 0
 -1 -5 9 471.44 14.49 0
 -1 -5 10 27.8 4.99 0
 -1 -5 12 331.6 14.04 0
 -1 -5 13 91.62 9.48 0
 -1 -5 15 37.36 7.36 0
 -1 -5 16 82.66 10.55 0
 -1 -5 17 7.57 7.02 0
 -1 -5 18 202.58 15.53 0
 -1 -5 19 21.59 9.08 0
 -1 -4 3 107.03 5.04 0
 -1 -4 4 1340.71 17.2 0
 -1 -4 5 1639.45 20.16 0
 -1 -4 6 206.17 7.9 0
 -1 -4 7 7.76 3.02 0
 -1 -4 9 260.3 10.59 0
 -1 -4 10 33.79 5.33 0
 -1 -4 11 172.11 9.85 0
 -1 -4 12 186.55 11.38 0
 -1 -4 13 203.97 12.2 0
 -1 -4 14 6.69 4.87 0
 -1 -4 15 25.23 7.5 0
 -1 -4 16 19.99 6.66 0
 -1 -4 17 74.53 10.44 0
 -1 -4 18 24.52 7.95 0
 -1 -3 2 358.29 7.55 0
 -1 -3 3 1084.65 13.93 0
 -1 -3 4 746.3 12.37 0
 -1 -3 5 398.45 9.82 0
 -1 -3 6 317.99 9.35 0
 -1 -3 7 503.39 12.57 0
 -1 -3 10 106.16 7.37 0
 -1 -3 11 48.18 6.73 0
 -1 -3 12 86.64 8.27 0
 -1 -3 13 4.92 4.66 0
 -1 -3 14 49.12 7.88 0
 -1 -3 15 219.22 13.19 0
 -1 -3 16 8.67 6.07 0
 -1 -3 18 29.25 8.35 0
 -1 -3 19 114.01 13.98 0
 -1 -2 2 384.34 7.77 0
 -1 -2 3 1717.06 16.6 0
 -1 -2 4 1040.43 14.06 0
 -1 -2 5 1465.29 18.03 0
 -1 -2 6 612.86 12.42 0
 -1 -2 7 1422.47 19.98 0
 -1 -2 10 616.82 16.33 0
 -1 -2 11 231.72 11.25 0
 -1 -2 12 166.12 9.89 0
 -1 -2 14 116.84 9.55 0
 -1 -2 15 71.83 8.97 0
 -1 -2 16 62.36 9.16 0
 -1 -2 17 66.07 9.63 0
 -1 -2 18 21.08 8.63 0
 -1 -2 19 12.47 7.32 0
 -1 -2 20 95.81 13.95 0
 -1 -1 1 1060.53 10.05 0
 -1 -1 2 9999.99 33.64 0
 -1 -1 3 4255.63 24.15 0
 -1 -1 4 140.64 5.42 0
 -1 -1 5 958.1 14.01 0
 -1 -1 7 155.99 6.91 0
 -1 -1 8 52.74 5.05 0
 -1 -1 10 137.97 8.24 0
 -1 -1 11 606.22 16.73 0
 -1 -1 12 103.92 8.6 0
 -1 -1 13 181.11 10.99 0
 -1 -1 14 114.89 9.48 0
 -1 -1 16 62.45 9.64 0
 -1 -1 17 44.82 8.49 0
 -1 -1 18 63.75 10.15 0
 -1 -1 19 22.24 8.38 0
 -1 -1 20 25.62 9.23 0
 -1 0 1 898.51 8.63 0
 -1 0 2 392.1 6.62 0
 -1 0 3 1467.33 13.4 0
 -1 0 4 86.87 4.07 0
 -1 0 5 911.5 13.26 0
 -1 0 6 4.01 2.19 0
 -1 0 7 10.5 2.81 0
 -1 0 12 213.85 11.29 0
 -1 0 13 0.38 4.11 0
 -1 0 14 538.92 18.71 0
 -1 0 15 27.05 6.66 0
 -1 0 16 464.33 18.98 0
 -1 0 17 240.31 15.6 0
 -1 0 18 26.78 7.89 0
 -1 1 1 1025.46 7.75 0
 -1 1 2 9732.92 27.92 0
 -1 1 3 4113.07 21.23 0
 -1 1 4 140.6 4.94 0
 -1 1 5 949.39 12.99 0
 -1 1 6 871.48 13.84 0
 -1 1 7 153.56 6.63 0
 -1 1 8 47.32 4.45 0
 -1 1 10 123.67 7.46 0
 -1 1 12 97.49 7.76 0
 -1 1 13 174.51 10.55 0
 -1 1 14 109.84 9.9 0
 -1 1 15 29.39 6.88 0
 -1 1 16 66.56 9.18 0
 -1 1 17 37.31 7.96 0
 -1 1 18 81.96 11.88 0
 -1 1 19 19.9 7.42 0
 -1 2 2 367.14 5.2 0
 -1 2 3 1641.89 12.92 0
 -1 2 4 1039.6 11.88 0
 -1 2 5 1431.88 15.6 0
 -1 2 6 608.83 11.5 0
 -1 2 7 1410.01 18.76 0
 -1 2 8 674.24 14.21 0
 -1 2 12 173.8 9.81 0
 -1 2 13 168.67 10.3 0
 -1 2 14 105.87 9.9 0
 -1 2 15 63.47 8.4 0
 -1 2 16 58.11 9.08 0
 -1 2 17 67.6 10.38 0
 -1 2 18 31.64 8.01 0
 -1 2 19 13.97 7.24 0
 -1 2 20 72.43 11.66 0
 -1 3 2 345.13 4.67 0
 -1 3 3 1089.09 10.25 0
 -1 3 10 108.42 7.27 0
 -1 3 11 44.4 5.93 0
 -1 3 12 85.41 7.37 0
 -1 3 13 6.13 5.05 0
 -1 3 15 214.94 13.11 0
 -1 3 16 16.78 6.74 0
 -1 3 17 47.36 8.57 0
 -1 3 19 107.91 12.67 0
 -1 3 20 25.85 8.76 0
 -1 4 2 1900.37 10.34 0
 -1 4 10 33.73 4.71 0
 -1 4 11 161.96 9.07 0
 -1 4 12 175.66 9.89 0
 -1 4 13 198.58 11.61 0
 -1 4 14 8.42 4.88 0
 -1 4 15 10.25 5.36 0
 -1 4 16 14.21 7.17 0
 -1 4 18 28.35 8.29 0
 -1 4 19 34.41 8.98 0
 -1 5 11 20.44 4.87 0
 -1 5 12 314.42 12.71 0
 -1 5 13 87.91 8.43 0
 -1 5 14 40.64 7.19 0
 -1 5 16 85.3 9.47 0
 -1 5 17 4.33 5.83 0
 -1 5 18 174.32 13.22 0
 -1 5 19 11.72 6.76 0
 -1 6 11 31.16 5.23 0
 -1 6 13 198.46 11.36 0
 -1 6 14 95.74 9.36 0
 -1 6 15 29.16 6.45 0
 -1 6 16 53.43 8.22 0
 -1 6 17 13.05 6.15 0
 -1 6 18 30.37 7.81 0
 -1 6 19 -1.18 6.06 0
 -1 7 2 816.31 6.43 0
 -1 7 11 119.15 8.21 0
 -1 7 12 211.34 10.55 0
 -1 7 13 35.42 6.19 0
 -1 7 14 266.39 13.49 0
 -1 7 15 31.7 7.5 0
 -1 7 16 93.39 10.41 0
 -1 7 17 20.6 7.3 0
 -1 7 18 72.24 10.48 0
 -1 8 11 161.65 9.09 0
 -1 8 12 53.61 6.49 0
 -1 8 13 61.2 7.55 0
 -1 8 14 116.37 9.84 0
 -1 8 16 33.76 7.42 0
 -1 8 17 44.82 8.32 0
 -1 8 18 3.5 5.86 0
 -1 9 3 364.62 4.48 0
 -1 9 10 14.12 4.03 0
 -1 9 11 105.69 7.45 0
 -1 9 13 87.61 8.12 0
 -1 9 14 41.7 6.52 0
 -1 9 15 3.9 4.66 0
 0 -10 10 8.97 3.19 0
 0 -9 8 7.81 2.97 0
 0 -9 9 1.83 2.49 0
 0 -9 10 -2.97 3.38 0
 0 -9 11 48.95 6.23 0
 0 -9 14 5.55 4.65 0
 0 -9 15 30.45 6.84 0
 0 -9 16 30.93 7.05 0
 0 -8 6 27.07 3.6 0
 0 -8 9 53.6 6.45 0
 0 -8 10 -3.24 3.69 0
 0 -8 11 373.07 13.66 0
 0 -8 12 182.19 10.47 0
 0 -8 13 161.07 11.2 0
 0 -8 14 2.86 4.75 0
 0 -8 15 6.67 5.41 0
 0 -8 16 37.88 8.33 0
 0 -8 17 6.61 6.04 0
 0 -8 18 117.16 12.03 0
 0 -7 5 -0.16 1.85 0
 0 -7 9 199.13 9.47 0
 0 -7 10 7.38 3.69 0
 0 -7 11 29.16 5.38 0
 0 -7 12 0.93 4.02 0
 0 -7 13 82.34 8.41 0
 0 -7 14 0.89 4.64 0
 0 -7 15 36.03 7.25 0
 0 -7 16 21.05 7.48 0
 0 -7 17 10.74 6.38 0
 0 -7 18 -3.11 5.43 0
 0 -6 4 1992.76 19.18 0
 0 -6 6 171.15 7.03 0
 0 -6 7 429.31 11.26 0
 0 -6 10 64.75 6.86 0
 0 -6 12 555.85 17.48 0
 0 -6 14 0.01 4.51 0
 0 -6 15 8.75 6.13 0
 0 -6 16 106.45 10.46 0
 0 -6 17 8.9 6.36 0
 0 -6 18 9.37 6.72 0
 0 -6 19 1.86 6.69 0
 0 -5 3 1059.32 12.46 0
 0 -5 4 1156.97 14.13 0
 0 -5 5 644.83 11.65 0
 0 -5 6 166.81 6.63 0
 0 -5 7 570.26 12.7 0
 0 -5 10 116.58 8 0
 0 -5 11 148.35 8.87 0
 0 -5 12 73.47 7.5 0
 0 -5 13 21.39 6.16 0
 0 -5 14 16.16 5.47 0
 0 -5 15 12.71 5.67 0
 0 -5 16 8.78 5.51 0
 0 -5 17 74.89 9.9 0
 0 -5 18 1.37 5.88 0
 0 -5 19 -1.14 6.49 0
 0 -4 2 11.57 1.72 0
 0 -4 3 1530.05 14.1 0
 0 -4 4 463.06 8.86 0
 0 -4 5 2409.13 21.43 0
 0 -4 6 208.41 7.16 0
 0 -4 8 103.15 6.61 0
 0 -4 11 55.62 6.24 0
 0 -4 13 -1.65 3.9 0
 0 -4 14 4.53 4.59 0
 0 -4 15 29.27 6.93 0
 0 -4 16 245.39 14.33 0
 0 -4 17 260.53 15.64 0
 0 -4 18 136.4 13.16 0
 0 -4 19 21.9 7.68 0
 0 -3 2 6789.72 24.33 0
 0 -3 3 4624.29 22.99 0
 0 -3 4 497.98 8.7 0
 0 -3 6 75.25 4.86 0
 0 -3 7 19.97 3.6 0
 0 -3 8 450.13 11.76 0
 0 -3 10 485.16 14.01 0
 0 -3 11 248.8 10.95 0
 0 -3 12 2.78 3.92 0
 0 -3 13 66.77 7.9 0
 0 -3 14 19.91 5.66 0
 0 -3 15 299.13 14.6 0
 0 -3 16 27.91 7.52 0
 0 -3 17 2.61 5.35 0
 0 -3 18 9.41 7.17 0
 0 -3 19 10.01 6.71 0
 0 -3 20 13.38 7.65 0
 0 -2 2 -0.39 1.16 0
 0 -2 3 2685.73 16.71 0
 0 -2 4 4424.02 24.48 0
 0 -2 5 17.94 2.69 0
 0 -2 6 1.99 2.08 0
 0 -2 7 1580.8 19.99 0
 0 -2 10 201.67 9.42 0
 0 -2 11 33.73 5.68 0
 0 -2 12 90.55 7.82 0
 0 -2 14 140.73 10.4 0
 0 -2 15 109.87 10.31 0
 0 -2 16 5.97 5.74 0
 0 -2 18 0.23 7.16 0
 0 -2 19 4.81 7.27 0
 0 -2 20 19.5 8.01 0
 0 -1 2 10.23 1.73 0
 0 -1 11 282.55 11.48 0
 0 -1 12 413.8 14.42 0
 0 -1 13 25.1 5.78 0
 0 -1 14 585.75 18.82 0
 0 -1 16 66.5 9.49 0
 0 -1 17 2.36 5.36 0
 0 -1 18 22.7 7.57 0
 0 -1 19 29.88 8.28 0
 0 -1 20 1.33 6.82 0
 0 0 13 2.62 3.54 0
 0 0 14 0.77 3.81 0
 0 0 15 0.38 4.28 0
 0 0 17 -2.67 4.47 0
 0 0 18 8.66 6.15 0
 0 0 19 -0.99 5.75 0
 0 0 20 165.95 14.88 0
 0 1 14 597.21 19.35 0
 0 1 15 6.87 5.05 0
 0 1 16 56.35 8.34 0
 0 1 17 6.63 5.65 0
 0 1 18 28.49 7.89 0
 0 1 19 36.89 8.67 0
 0 1 20 -2.2 6.69 0
 0 2 -2 1.88 1.29 0
 0 2 -1 402.62 4.68 0
 0 2 15 104.05 9.35 0
 0 2 16 -0.5 5.06 0
 0 2 17 17.55 6.81 0
 0 2 18 0.22 5.69 0
 0 2 19 2.08 7.19 0
 0 2 20 13.65 7.89 0
 0 3 -1 276.15 4.48 0
 0 3 16 31.44 7.82 0
 0 3 17 1.53 5.48 0
 0 3 18 11.35 6.91 0
 0 3 19 12.9 7.42 0
 0 3 20 13.47 8.41 0
 0 4 16 252.82 15.13 0
 0 4 18 148.71 13.21 0
 0 4 19 23.96 9.17 0
 0 5 16 4.62 5.47 0
 0 5 17 62.16 9.8 0
 0 5 18 2.84 5.89 0
 0 5 19 2.44 6.2 0
 0 6 17 19.89 6.84 0
 0 6 19 4.92 6.24 0
 0 7 17 0.89 5.76 0
 0 7 18 1.08 5.74 0
 0 8 16 27.03 7.75 0
 0 8 17 4.23 5.7 0
 0 9 16 29.4 7.43 0
 0 10 15 4.41 5.03 0
 1 -8 10 128.58 7.39 0
 1 -8 11 168.7 9.07 0
 1 -8 12 62.08 6.86 0
 1 -8 13 58.2 7.31 0
 1 -8 16 45.33 8.33 0
 1 -8 17 45.32 8.47 0
 1 -8 18 7.05 6.32 0
 1 -7 4 116.49 3.89 0
 1 -7 7 155.91 6.51 0
 1 -7 8 38.73 4.19 0
 1 -7 10 364.79 11.85 0
 1 -7 11 115 7.94 0
 1 -7 12 219.4 10.86 0
 1 -7 13 41.64 6.63 0
 1 -7 14 258.4 13.31 0
 1 -7 15 25.89 6.35 0
 1 -7 16 93.73 10.04 0
 1 -7 17 16.34 6.54 0
 1 -6 3 33.32 1.95 0
 1 -6 6 344.76 8.45 0
 1 -6 7 637.78 12.53 0
 1 -6 8 6.1 2.77 0
 1 -6 10 95.29 7.18 0
 1 -6 11 30.81 5.63 0
 1 -6 12 30.64 5.58 0
 1 -6 13 166.63 10.64 0
 1 -6 14 90.92 8.54 0
 1 -6 15 24.83 6.52 0
 1 -6 16 65.31 9.25 0
 1 -6 17 15 6.95 0
 1 -6 18 29.41 7.61 0
 1 -6 19 4.12 6.02 0
 1 -5 2 497.85 4.99 0
 1 -5 3 309.07 5.32 0
 1 -5 5 470.67 8.86 0
 1 -5 6 482.29 9.97 0
 1 -5 7 548.14 11.72 0
 1 -5 10 28.8 5.1 0
 1 -5 11 23.93 4.73 0
 1 -5 12 312.24 12.59 0
 1 -5 13 91.66 8.06 0
 1 -5 15 49.57 7.62 0
 1 -5 16 76.22 10.13 0
 1 -5 17 5.17 5.57 0
 1 -5 19 14.61 7.39 0
 1 -4 2 1851.16 9.88 0
 1 -4 4 1362.01 13.11 0
 1 -4 5 1649.33 16.34 0
 1 -4 6 212.31 6.85 0
 1 -4 7 4.14 2.4 0
 1 -4 8 470.85 11.91 0
 1 -4 10 36.07 5.02 0
 1 -4 12 173.08 10.26 0
 1 -4 13 183.29 10.57 0
 1 -4 14 11.71 5.09 0
 1 -4 15 17.35 5.88 0
 1 -4 16 11.94 6.27 0
 1 -4 17 88.13 10.53 0
 1 -4 18 24.65 7.9 0
 1 -4 19 34.07 9.65 0
 1 -3 11 47.04 5.65 0
 1 -3 12 86.93 8.08 0
 1 -3 13 8.23 4.42 0
 1 -3 14 54.72 7.59 0
 1 -3 16 9.75 6.62 0
 1 -3 17 45.1 9.06 0
 1 -3 18 12.58 6.96 0
 1 -2 -1 1502.05 7.89 0
 1 -2 14 98.53 8.91 0
 1 -2 16 55.99 8.39 0
 1 -2 17 54.83 8.96 0
 1 -2 19 16.2 7.48 0
 1 -1 15 23.18 6.11 0
 1 -1 16 61.93 8.63 0
 1 -1 17 39.22 8.62 0
 1 -1 18 83.03 11.91 0
 1 -1 19 19.62 7.83 0
 1 -1 20 31.83 8.94 0
 1 0 -1 871.64 8.34 0
 1 0 17 249.78 14.87 0
 1 0 18 20.98 7.54 0
 1 0 19 0.1 7.78 0
 1 0 20 -2.49 6.61 0
 1 1 20 30.65 8.68 0
 1 2 18 29.63 9.37 0
 1 2 19 13.4 7.04 0
 1 2 20 62.14 11.64 0
 1 3 19 126.01 12.66 0
 1 4 19 40.15 9.04 0
 1 5 19 13.09 7.7 0
 2 -7 4 379.68 4.34 0
 2 -7 5 169.54 4.47 0
 2 -7 6 327.88 7.3 0
 2 -7 8 3.09 2.21 0
 2 -7 10 20.71 4.09 0
 2 -7 11 60.9 5.97 0
 2 -7 12 24.33 4.59 0
 2 -7 13 35.76 5.9 0
 2 -7 14 175.56 10.71 0
 2 -7 15 40.85 6.93 0
 2 -7 16 15.84 5.98 0
 2 -7 17 57.72 8.6 0
 2 -7 18 14.86 6.25 0
 2 -6 4 143.32 3.74 0
 2 -6 5 689.76 9.77 0
 2 -6 7 698.34 12.55 0
 2 -6 8 27.85 3.8 0
 2 -6 10 32.6 4.61 0
 2 -6 11 342.58 12.15 0
 2 -6 12 97.96 7.76 0
 2 -6 13 9.23 4.44 0
 2 -6 14 76.14 8.5 0
 2 -6 15 20.69 6.64 0
 2 -6 16 7.64 5.48 0
 2 -6 17 28.46 7.73 0
 2 -6 18 31.21 7.69 0
 2 -5 3 57.48 2.24 0
 2 -5 10 30.95 4.95 0
 2 -5 11 53.15 6.33 0
 2 -5 12 46.92 6.56 0
 2 -5 13 149.75 9.68 0
 2 -5 14 119.46 10 0
 2 -5 15 63.72 8.85 0
 2 -5 16 142.29 11.11 0
 2 -5 17 6.55 5.8 0
 2 -5 19 39.59 8.26 0
 2 -4 1 111.27 2.36 0
 2 -4 13 0.23 4.27 0
 2 -4 14 99.68 9.25 0
 2 -4 17 0.42 5.44 0
 2 -4 18 104.18 11.5 0
 2 -4 19 66.86 10.27 0
 2 -3 0 18.58 1.56 0
 2 -3 15 115.08 10.76 0
 2 -3 16 112.36 11.16 0
 2 -3 17 100.2 10.25 0
 2 -3 19 13.88 7.91 0
 2 -2 19 20.77 7.93 0
 2 -1 18 137.39 12.66 0
 2 -1 19 147.32 13.79 0
 2 0 19 33.03 9.53 0
 3 -6 3 311.58 4.02 0
 3 -6 3 312.2 4.13 0
 3 -6 10 34.62 4.59 0
 3 -6 11 62.18 6.07 0
 3 -6 12 11.35 3.89 0
 3 -6 13 100.39 8.27 0
 3 -6 14 19.37 5.5 0
 3 -6 15 62.55 7.92 0
 3 -6 16 46.06 7.37 0
 3 -6 18 96.39 11.02 0
 3 -5 0 4.32 0.83 0
 3 -5 1 460.95 5.65 0
 3 -5 13 3.28 4.29 0
 3 -5 14 33.98 7.06 0
 3 -5 16 2.99 5.2 0
 3 -5 17 25.37 6.92 0
 3 -4 16 86.54 10.01 0
 3 -4 17 58.47 9.5 0
 3 -4 18 2.29 5.52 0
 3 -3 17 20.19 7.63 0
 3 -3 18 52.43 8.88 0
 4 -5 15 97.64 9.13 0
 4 -4 17 7.18 6.18 0
 -5 -3 1 315.43 11.16 0
 -5 -2 1 399.19 11.5 0
 -5 -2 2 130.13 7.11 0
 -5 -2 3 19.78 4.41 0
 -5 -1 2 140.72 7.08 0
 -5 -1 3 148.29 7.46 0
 -5 0 0 -1.76 1.73 0
 -5 0 1 191.13 7.43 0
 -5 0 2 2.17 2.34 0
 -5 0 3 192.97 8.29 0
 -5 0 4 2.62 2.79 0
 -5 1 0 118.18 5.27 0
 -5 1 1 99.13 5.19 0
 -5 1 2 130.93 6.14 0
 -5 2 0 174.87 5.72 0
 -5 2 1 414.41 9.38 0
 -5 3 0 53.52 3.05 0
 -5 3 1 316.52 7.67 0
 -5 3 2 10.74 2.73 0
 -4 -4 1 273.74 10.1 0
 -4 -4 3 14.91 3.68 0
 -4 -4 4 56.98 5.94 0
 -4 -3 1 523.9 12.59 0
 -4 -3 2 190.58 8.36 0
 -4 -3 3 119.15 6.94 0
 -4 -3 5 74.86 6.7 0
 -4 -2 0 40.94 4.11 0
 -4 -2 1 627.76 13.33 0
 -4 -2 2 305.52 10.03 0
 -4 -2 3 185.59 8.19 0
 -4 -2 4 147.13 7.91 0
 -4 -1 0 994.16 14.98 0
 -4 -1 2 219.12 8.04 0
 -4 -1 3 614.41 13.74 0
 -4 0 0 62.25 3.92 0
 -4 0 1 77.09 4.76 0
 -4 1 0 1023.98 13.26 0
 -4 1 1 7.28 2.35 0
 -4 3 0 3.07 1.13 0
 -4 4 0 133.72 3.66 0
 -4 5 0 236.56 4.03 0
 -3 -6 2 34.51 4.71 0
 -3 -6 3 317.26 10.93 0
 -3 -5 1 482.63 12.47 0
 -3 -5 2 255.41 9.23 0
 -3 -5 3 200.5 8.49 0
 -3 -5 4 10.32 3.54 0
 -3 -5 5 99.45 6.97 0
 -3 -5 6 1.06 3.37 0
 -3 -4 2 71.61 5.11 0
 -3 -4 3 403.97 11.34 0
 -3 -4 4 2488.54 28.32 0
 -3 -4 5 229.9 9.52 0
 -3 -3 0 20.36 3.14 0
 -3 -3 1 539.16 11.69 0
 -3 -3 2 544.93 12.09 0
 -3 -3 3 332.23 9.92 0
 -3 -2 0 2843.51 24.03 0
 -3 -1 -1 711.63 11.03 0
 -3 -1 1 697.73 11.73 0
 -3 0 -1 1257.61 12.99 0
 -3 0 0 -0.31 1.26 0
 -3 1 -1 698.19 8.57 0
 -3 1 0 104.33 3.91 0
 -3 2 -1 1044.75 8.93 0
 -3 6 -1 50.68 1.59 0
 -3 7 0 2.04 1.06 0
 -3 8 0 17.63 2.17 0
 -2 -7 3 171.09 8.5 0
 -2 -7 4 379.33 11.9 0
 -2 -7 6 349.57 12.18 0
 -2 -6 2 458.68 11.89 0
 -2 -6 3 213.22 8.42 0
 -2 -6 7 663.14 16.14 0
 -2 -5 2 613.82 12.81 0
 -2 -5 3 56.94 4.73 0
 -2 -5 4 153.77 7.12 0
 -2 -5 5 263.78 9.36 0
 -2 -5 6 339.83 11.15 0
 -2 -4 1 112.88 5.41 0
 -2 -4 3 335.94 9.47 0
 -2 -4 4 168.42 7.5 0
 -2 -3 0 19.27 2.69 0
 -2 -3 2 2520.22 22.73 0
 -2 -2 0 338.78 7.53 0
 -2 -2 1 1291.6 14.72 0
 -2 -1 -1 1765.83 14.49 0
 -2 -1 0 378.55 7.39 0
 -2 0 -1 874.45 8.8 0
 -2 0 0 537.08 7.61 0
 -2 1 -1 1789.26 10.38 0
 -2 5 -1 190.77 3.87 0
 -2 6 -1 1026.36 10.34 0
 -2 7 -1 156.03 4.81 0
 -2 7 0 0.94 1.27 0
 -2 8 -1 168.47 5.44 0
 -2 8 0 204.25 6.21 0
 -2 9 -1 163.84 5.97 0
 -2 9 0 278.84 7.86 0
 -2 9 1 168.17 6.32 0
 -2 10 0 3.58 1.94 0
 -2 10 1 28.49 3.34 0
 -2 10 2 9.26 2.23 0
 -1 -8 6 205.58 8.94 0
 -1 -8 7 117.23 7.12 0
 -1 -7 4 119.1 6.21 0
 -1 -7 5 357.23 10.5 0
 -1 -7 6 118.49 6.59 0
 -1 -7 7 153.7 7.83 0
 -1 -7 8 46.83 4.91 0
 -1 -6 3 36.32 3.69 0
 -1 -6 4 151.84 6.56 0
 -1 -6 5 378.99 10.42 0
 -1 -6 6 340.43 10.09 0
 -1 -6 8 9.18 3.12 0
 -1 -5 3 311.75 8.68 0
 -1 -5 4 722.87 13.25 0
 -1 -5 5 459.85 11.06 0
 -1 -4 1 1100.82 13.95 0
 -1 -4 2 1881.82 18.55 0
 -1 -4 3 95.29 4.69 0
 -1 -3 1 2285.49 18.05 0
 -1 -3 2 342.79 7.51 0
 -1 -2 0 3126.87 17.98 0
 -1 -2 1 1537.33 13.29 0
 -1 -1 0 5016.91 19.79 0
 -1 3 -1 2275.26 10.71 0
 -1 4 -1 1061.96 9.31 0
 -1 5 -1 2.25 1.3 0
 -1 6 -1 319.46 6.99 0
 -1 6 0 251.81 6.4 0
 -1 7 -1 84.15 4.11 0
 -1 7 0 385.27 8.6 0
 -1 8 -1 135.42 5.68 0
 -1 8 0 4.56 2.17 0
 -1 8 1 142.86 6.08 0
 -1 9 -1 606.35 12.48 0
 -1 9 0 2.4 1.85 0
 -1 9 1 616.06 13 0
 -1 9 2 14.12 3.05 0
 -1 10 -1 396.8 10.98 0
 -1 10 0 109.77 5.85 0
 -1 10 1 395.98 11.02 0
 -1 10 3 73.04 5.52 0
 0 -9 8 5.44 2.68 0
 0 -8 6 20.09 3.15 0
 0 -8 7 147.12 6.76 0
 0 -8 8 201.83 8.08 0
 0 -8 9 59.83 4.91 0
 0 -8 10 -2.73 2.49 0
 0 -7 5 0.76 2.21 0
 0 -7 6 12.32 2.74 0
 0 -7 7 42.02 4.39 0
 0 -7 8 44.58 4.19 0
 0 -7 10 9.34 2.96 0
 0 -7 11 29.48 4.31 0
 0 -6 4 1978.22 19.75 0
 0 -6 5 15.07 2.62 0
 0 -6 7 425.75 10.52 0
 0 -6 8 78.68 5.38 0
 0 -5 3 1097.99 13.3 0
 0 -5 5 654.98 11.32 0
 0 -4 2 15.69 2.01 0
 0 -4 3 1585.67 14.91 0
 0 -4 4 466.94 8.76 0
 0 -3 2 6744.2 25.94 0
 0 2 -1 409.13 5.47 0
 0 3 -1 278.67 5.3 0
 0 4 -1 3094.46 19.85 0
 0 4 0 1108.37 11.97 0
 0 5 -1 406.24 8.3 0
 0 5 0 -2.44 1.29 0
 0 6 0 41.26 3.64 0
 0 7 -1 828.36 13.7 0
 0 7 0 0.03 1.86 0
 0 7 1 877.47 14.51 0
 0 8 -1 1103.55 17.31 0
 0 8 0 329.14 9.63 0
 0 8 1 1073.97 17.12 0
 0 8 2 263.05 9.17 0
 0 9 -1 253.35 9.19 0
 0 9 0 0.37 2.3 0
 0 9 1 246.17 9.23 0
 0 9 3 0.62 2.54 0
 0 10 0 184.01 8.31 0
 0 10 1 467.32 13.12 0
 1 -8 9 29.5 3.21 0
 1 -7 7 147.77 5.51 0
 1 -7 8 46.12 3.42 0
 1 -7 9 116.63 5.41 0
 1 -7 10 361.06 9.55 0
 1 -7 11 116.24 5.96 0
 1 -6 7 675.13 11.07 0
 1 -6 8 8.42 1.91 0
 1 -6 9 350.76 9.1 0
 1 -3 3 1096.61 7.91 0
 1 0 1 889.12 6.31 0
 1 1 0 5146.26 20.44 0
 1 1 1 1072.03 8.95 0
 1 2 0 3102.15 18.35 0
 1 2 1 1481.26 12.54 0
 1 3 0 5035.35 26.55 0
 1 3 1 2280.37 17.77 0
 1 4 -1 1071.26 14.27 0
 1 4 0 5318.84 30.21 0
 1 4 1 1086.57 13.61 0
 1 5 -1 2.03 2.13 0
 1 5 1 2.12 1.94 0
 1 6 0 244.61 8.05 0
 1 6 2 341.69 9.4 0
 1 7 -1 86.38 6.04 0
 1 7 0 385.75 10.56 0
 1 7 1 89.47 5.55 0
 1 7 2 801.13 15.19 0
 1 7 3 465.11 11.91 0
 1 8 -1 136.26 7.54 0
 1 8 1 138.36 7.52 0
 1 8 2 153.04 7.56 0
 1 9 0 -0.37 2.41 0
 1 9 1 573.4 14.53 0
 1 9 2 9.11 3.56 0
 2 -6 8 29.49 1.92 0
 2 -5 7 1484.5 10.75 0
 2 -5 8 48.49 2.5 0
 2 -4 6 168.89 3.14 0
 2 -1 3 1775.9 9.87 0
 2 0 2 1666.76 12.04 0
 2 0 3 599.84 7.39 0
 2 1 1 1770.67 15.1 0
 2 1 3 1805.35 15.06 0
 2 2 1 1262.98 13.93 0
 2 2 2 204.35 5.83 0
 2 2 3 123.9 4.95 0
 2 3 1 394.08 8.85 0
 2 3 2 2558.87 21.8 0
 2 3 3 167.81 6.07 0
 2 4 1 106.98 5.48 0
 2 6 3 209.76 8.16 0
 2 6 4 143.74 7.03 0
 2 7 0 4.45 3.24 0
 2 7 1 157.39 7.83 0
 2 7 2 224.86 9.17 0
 2 7 3 164.52 7.84 0
 2 7 4 369.97 11.44 0
 2 7 5 164.67 8.06 0
 2 8 1 171.89 8.36 0
 2 8 2 49.2 6.19 0
 3 -2 6 183.8 3.51 0
 3 -2 7 84.38 2.81 0
 3 0 4 330.21 6.75 0
 3 0 5 1026.9 11.97 0
 3 1 3 9.23 2.02 0
 3 1 6 325 7.9 0
 3 2 5 145.19 5.7 0
 3 2 6 184.94 6.66 0
 3 3 2 544.77 11.72 0
 3 3 3 335.84 9.2 0
 3 3 4 159.47 6.44 0
 3 3 5 448.97 10.55 0
 3 3 6 548.75 12.29 0
 3 4 2 85.08 5.28 0
 3 4 3 406.05 10.71 0
 3 4 4 2613.04 26.81 0
 3 4 6 358.24 10.53 0
 3 5 2 262.71 9.64 0
 3 5 3 198.1 8.22 0
 3 5 5 91.19 6.2 0
 3 5 6 4.13 2.71 0
 3 5 7 25.5 4.12 0
 3 6 2 45.32 5.12 0
 3 6 3 326.45 11.19 0
 3 6 4 171 8.37 0
 3 6 6 140.36 7.67 0
 3 7 2 305.9 11.62 0
 4 0 7 2.6 1.28 0
 4 1 6 157.18 5.93 0
 4 1 7 45.1 3.58 0
 4 1 8 182.32 6.64 0
 4 2 5 324.62 9.4 0
 4 2 6 109.27 5.61 0
 4 2 7 33.47 3.47 0
 4 2 8 25.91 3.62 0
 4 2 9 45.2 4.3 0
 4 3 4 165.11 7.35 0
 4 3 5 69.84 4.91 0
 4 3 6 280.85 9.29 0
 4 3 7 519.13 12.75 0
 4 3 8 39.43 4.32 0
 4 3 9 33.31 4.41 0
 4 4 4 57.25 5.17 0
 4 4 5 95.96 6.11 0
 4 4 6 3.27 2.86 0
 4 4 7 235.65 9.27 0
 4 5 4 445.03 13.22 0
 4 5 5 353.99 11.78 0
 -4 -11 -10 11.81 6.27 0
 -4 -11 -9 16.78 5.75 0
 -4 -10 -12 9.17 5.54 0
 -4 -10 -11 42.84 7.53 0
 -4 -10 -10 7.71 5.31 0
 -4 -10 -9 19.3 5.77 0
 -4 -10 -8 28.65 6.41 0
 -4 -9 -14 24.93 6.51 0
 -4 -9 -13 18.76 5.67 0
 -4 -9 -12 50.13 7.74 0
 -4 -9 -11 79.47 9.56 0
 -4 -9 -10 9.46 5.97 0
 -4 -9 -9 167 11.4 0
 -4 -9 -8 14.41 5.28 0
 -4 -8 -15 66.77 8.72 0
 -4 -8 -14 49.45 7.2 0
 -4 -8 -11 9.42 4.93 0
 -4 -8 -10 163.91 10.99 0
 -4 -8 -9 111.69 9.2 0
 -4 -8 -8 73.96 8.14 0
 -4 -8 -7 214.22 10.99 0
 -4 -7 -15 0.12 4.04 0
 -4 -7 -14 14.24 5.03 0
 -4 -7 -13 22.63 6.34 0
 -4 -7 -12 6.13 4.91 0
 -4 -7 -11 12.08 4.97 0
 -4 -7 -10 84.73 7.86 0
 -4 -7 -9 44.33 6.51 0
 -4 -7 -7 90.79 7.42 0
 -4 -6 -15 67.98 7.8 0
 -4 -6 -14 14.82 4.87 0
 -4 -6 -12 95.63 7.89 0
 -4 -6 -10 36.81 6.31 0
 -4 -6 -8 84.86 7.73 0
 -4 -5 -14 27.08 5.21 0
 -4 -5 -13 32.73 5.38 0
 -4 -5 -11 4.2 3.68 0
 -4 -5 -10 57.86 6.9 0
 -4 -4 -13 142.39 7.92 0
 -4 -4 -12 220.35 9.59 0
 -4 -4 -11 104.4 6.91 0
 -3 -13 -8 3.56 6.3 0
 -3 -13 -7 121.22 11.44 0
 -3 -13 -6 23.13 6.68 0
 -3 -13 -5 98.65 11.06 0
 -3 -12 -10 28.45 7.46 0
 -3 -12 -9 1.75 4.9 0
 -3 -12 -8 21.63 6.66 0
 -3 -12 -7 175.05 12.42 0
 -3 -12 -6 122.73 10.39 0
 -3 -12 -4 64.19 8.06 0
 -3 -11 -12 9.13 5.75 0
 -3 -11 -11 8.36 5.56 0
 -3 -11 -10 44.5 8.44 0
 -3 -11 -9 98.84 9.65 0
 -3 -11 -8 9.52 5.38 0
 -3 -11 -7 19.02 5.96 0
 -3 -11 -5 83.22 8.53 0
 -3 -11 -4 29.14 6.17 0
 -3 -10 -14 15.54 6.1 0
 -3 -10 -13 108.62 10.74 0
 -3 -10 -12 7.58 5.71 0
 -3 -10 -11 20.52 6.39 0
 -3 -10 -9 129.06 10.71 0
 -3 -10 -7 23.91 6.07 0
 -3 -10 -6 47.71 6.98 0
 -3 -10 -5 344.07 14.79 0
 -3 -10 -4 120.03 9.73 0
 -3 -10 -3 381.47 14.77 0
 -3 -9 -15 10.25 5.31 0
 -3 -9 -14 2.96 5.35 0
 -3 -9 -12 -0.42 4.37 0
 -3 -9 -11 47.66 7.83 0
 -3 -9 -9 64.92 8.51 0
 -3 -9 -7 110.86 9.31 0
 -3 -9 -6 72.12 7.11 0
 -3 -9 -5 23.91 5.88 0
 -3 -9 -3 127.13 8.59 0
 -3 -8 -15 28.8 6.15 0
 -3 -8 -13 75.12 8.76 0
 -3 -8 -12 435.6 16.18 0
 -3 -8 -11 2.61 4.32 0
 -3 -8 -10 45.78 6.85 0
 -3 -8 -9 37.09 6.6 0
 -3 -8 -8 61.08 7.37 0
 -3 -8 -7 47.93 6.86 0
 -3 -8 -6 234 11.03 0
 -3 -8 -5 135.67 8.54 0
 -3 -8 -4 81.03 6.63 0
 -3 -8 -3 68.94 6.84 0
 -3 -8 -2 144.83 8.12 0
 -3 -7 -17 74.17 8.68 0
 -3 -7 -16 22.08 5.65 0
 -3 -7 -15 5.16 4.46 0
 -3 -7 -14 9.2 4.86 0
 -3 -7 -13 73.74 8.74 0
 -3 -7 -12 144.53 9.99 0
 -3 -7 -11 50.49 7.32 0
 -3 -7 -10 17.94 4.61 0
 -3 -7 -9 33.23 5.67 0
 -3 -7 -8 138.79 9.04 0
 -3 -7 -7 415.5 13.77 0
 -3 -7 -6 305.29 12.01 0
 -3 -7 -5 11.9 4.15 0
 -3 -6 -16 50.61 6.78 0
 -3 -6 -15 46.91 6.49 0
 -3 -6 -14 24.3 5.7 0
 -3 -6 -13 96.49 7.89 0
 -3 -6 -12 13.78 4.56 0
 -3 -6 -11 59.41 6.33 0
 -3 -6 -8 25.78 5.12 0
 -3 -6 -7 283.33 10.97 0
 -3 -6 -6 150.66 8.45 0
 -3 -6 -5 328.43 11.4 0
 -3 -6 -4 167.63 8.3 0
 -3 -6 -3 332.45 11 0
 -3 -5 -16 4.01 3.59 0
 -3 -5 -15 33.35 5.64 0
 -3 -5 -14 31.48 5.76 0
 -3 -5 -13 -2.14 2.98 0
 -3 -5 -12 74.64 6.76 0
 -3 -5 -10 511.25 14.51 0
 -3 -5 -8 162.89 8.36 0
 -3 -5 -7 17.92 3.84 0
 -3 -5 -6 3.1 2.71 0
 -3 -5 -5 90.18 6.41 0
 -3 -4 -15 161.11 8.71 0
 -3 -4 -14 6.49 3.52 0
 -3 -4 -13 13.58 3.79 0
 -3 -4 -12 63.16 6.2 0
 -3 -4 -11 5.21 3.14 0
 -3 -4 -10 49.35 5.51 0
 -3 -4 -9 152.88 7.92 0
 -3 -4 -8 118.23 6.98 0
 -3 -3 -15 65.88 5.87 0
 -3 -3 -14 61.68 5.7 0
 -3 -3 -13 19.74 3.84 0
 -3 -3 -12 17.84 3.72 0
 -3 -3 -11 31.39 4.51 0
 -3 -3 -6 546.01 12.11 0
 -3 -3 -5 419.28 10.57 0
 -3 -2 -14 7.94 2.87 0
 -3 -2 -13 16 3.56 0
 -3 -2 -7 86.3 5.07 0
 -3 -2 -6 166.52 6.56 0
 -3 -1 -12 8.98 2.53 0
 -3 -1 -11 350.18 8.88 0
 -3 -1 -10 209.88 6.85 0
 -3 -1 -9 166.84 6.24 0
 -3 -1 -8 63.45 4.15 0
 -2 -15 -4 83.38 10.26 0
 -2 -14 -7 26.76 7.88 0
 -2 -14 -6 164.11 12.28 0
 -2 -14 -5 28.61 7.21 0
 -2 -14 -4 133.83 10.83 0
 -2 -13 -10 92.8 10.61 0
 -2 -13 -8 93.19 9.72 0
 -2 -13 -7 17.38 6.18 0
 -2 -13 -5 212.41 12.8 0
 -2 -13 -3 116.91 10.27 0
 -2 -13 -2 30.27 6.17 0
 -2 -12 -12 -5.73 4.51 0
 -2 -12 -11 41 7.98 0
 -2 -12 -10 102.8 10.65 0
 -2 -12 -9 44.67 8.04 0
 -2 -12 -8 30.32 7.03 0
 -2 -12 -7 125.48 10.4 0
 -2 -12 -6 29.73 6.27 0
 -2 -12 -4 3.77 4.78 0
 -2 -12 -3 43.52 7.25 0
 -2 -12 -2 107.38 8.93 0
 -2 -12 -1 29.08 6.33 0
 -2 -11 -13 9.94 6.27 0
 -2 -11 -12 179.75 12.85 0
 -2 -11 -11 55.81 8.55 0
 -2 -11 -10 7.64 5.11 0
 -2 -11 -9 170.27 11.89 0
 -2 -11 -8 16.62 6.13 0
 -2 -11 -7 96.32 9.55 0
 -2 -11 -6 7.6 4.35 0
 -2 -11 -5 91.95 8.86 0
 -2 -11 -1 87.58 8.04 0
 -2 -11 0 143.41 8.6 0
 -2 -10 -15 4.25 5.67 0
 -2 -10 -14 29.83 7.25 0
 -2 -10 -13 111.67 10.92 0
 -2 -10 -12 221.02 13.62 0
 -2 -10 -11 117.2 10.46 0
 -2 -10 -10 103.26 9.23 0
 -2 -10 -9 13.27 5.82 0
 -2 -10 -8 41.55 7.02 0
 -2 -10 -7 25.54 5.9 0
 -2 -10 -6 108.55 8.56 0
 -2 -10 -5 138.49 9.68 0
 -2 -10 -4 129.13 9.23 0
 -2 -10 -3 319.33 12.84 0
 -2 -10 -2 9.62 4.07 0
 -2 -10 0 3.22 3.97 0
 -2 -9 -16 5.88 5.34 0
 -2 -9 -15 92.77 10.06 0
 -2 -9 -14 134.29 10.48 0
 -2 -9 -13 194.38 12.54 0
 -2 -9 -12 75.82 9.44 0
 -2 -9 -11 23.22 6.16 0
 -2 -9 -10 137.21 9.71 0
 -2 -9 -9 20.43 5.97 0
 -2 -9 -7 64.93 7.53 0
 -2 -9 -6 71.82 6.86 0
 -2 -9 -5 127.51 8.45 0
 -2 -9 -4 151.11 8.82 0
 -2 -9 -3 87.37 6.9 0
 -2 -9 -1 183.91 9.16 0
 -2 -9 0 296.11 11.36 0
 -2 -8 -17 33.99 6.84 0
 -2 -8 -15 55.56 7.71 0
 -2 -8 -13 98.03 8.84 0
 -2 -8 -12 40 6.57 0
 -2 -8 -11 28 5.73 0
 -2 -8 -9 115.62 8.43 0
 -2 -8 -7 28.49 4.9 0
 -2 -8 -6 30.38 5.3 0
 -2 -8 -5 272.18 10.99 0
 -2 -8 -3 162.6 8.33 0
 -2 -8 -2 44.02 4.96 0
 -2 -8 -1 178.24 8.61 0
 -2 -7 -17 49.12 7.44 0
 -2 -7 -16 12.5 5.87 0
 -2 -7 -15 40.51 7.2 0
 -2 -7 -14 178.76 10.88 0
 -2 -7 -12 26.47 5.49 0
 -2 -7 -11 63.95 7.74 0
 -2 -7 -9 96.46 7.61 0
 -2 -7 -8 4.3 3.35 0
 -2 -7 -7 115.18 7.95 0
 -2 -7 -5 175.07 8.41 0
 -2 -7 -3 169.09 7.87 0
 -2 -6 -18 41.44 7.14 0
 -2 -6 -17 20.51 5.53 0
 -2 -6 -16 7.47 5.1 0
 -2 -6 -15 21.46 5.77 0
 -2 -6 -14 78.38 8.05 0
 -2 -6 -13 7.88 4.18 0
 -2 -6 -12 90.9 7.38 0
 -2 -6 -11 348.26 12.74 0
 -2 -6 -10 30.62 5.2 0
 -2 -6 -9 175 8.9 0
 -2 -6 -8 29.04 4.73 0
 -2 -6 -7 694.59 16.05 0
 -2 -6 -6 13.87 3.6 0
 -2 -6 0 4.11 2.33 0
 -2 -5 -17 3.43 3.73 0
 -2 -5 -16 149.19 9.65 0
 -2 -5 -15 62.47 7.7 0
 -2 -5 -14 111.7 8.29 0
 -2 -5 -13 166.99 9.34 0
 -2 -5 -12 52.24 5.98 0
 -2 -5 -11 47.02 5.35 0
 -2 -5 -10 31.83 4.86 0
 -2 -5 -4 155.12 7.01 0
 -2 -4 -17 9.01 3.79 0
 -2 -4 -16 22.95 4.93 0
 -2 -4 -14 108.33 7.64 0
 -2 -4 -13 4.31 3.94 0
 -2 -4 -11 64.38 5.79 0
 -2 -4 -10 86.56 6.29 0
 -2 -4 -6 172.1 7.09 0
 -2 -4 -5 49.69 4.09 0
 -2 -4 -4 174.94 6.6 0
 -2 -4 -3 345.36 8.92 0
 -2 -4 -2 155 6.06 0
 -2 -4 -1 106.87 5.15 0
 -2 -3 -16 108.76 7.48 0
 -2 -3 -14 268.91 10.18 0
 -2 -3 -8 210.36 7.68 0
 -2 -3 -7 5.7 2.35 0
 -2 -3 -6 2075.31 21.6 0
 -2 -3 -5 146.16 5.81 0
 -2 -3 -4 143.88 5.81 0
 -2 -3 -3 164.8 5.89 0
 -2 -3 -2 2556.76 21.64 0
 -2 -3 -1 371.68 8.05 0
 -2 -2 -15 52.57 5 0
 -2 -2 -14 104.41 6.42 0
 -2 -2 -13 87.53 5.81 0
 -2 -2 -10 236.98 7.9 0
 -2 -2 -9 568.94 11.55 0
 -2 -2 -8 252.11 7.72 0
 -2 -2 -7 121.29 5.38 0
 -2 -2 -6 1397.54 16.09 0
 -2 -2 -5 683.65 10.89 0
 -2 -2 -4 536.68 9.51 0
 -2 -2 -3 118.11 4.64 0
 -2 -2 -2 208.87 5.85 0
 -2 -1 -15 114.07 6.16 0
 -2 -1 -12 15.52 2.78 0
 -2 -1 -11 277.36 7.88 0
 -2 -1 -10 445.92 9.65 0
 -2 -1 -9 39.79 3.56 0
 -2 -1 -8 263.79 7 0
 -2 -1 -7 26.52 2.68 0
 -2 -1 -6 -0.3 1.35 0
 -2 -1 -5 70.82 3.66 0
 -2 -1 -4 971.98 11.31 0
 -2 -1 -3 1811.36 15.08 0
 -2 0 -14 12.98 2.64 0
 -2 0 -13 222.27 6.82 0
 -2 0 -12 8.45 2.03 0
 -2 0 -11 96.37 4.45 0
 -2 0 -10 17.43 2.31 0
 -2 0 -9 234.93 6.02 0
 -2 0 -8 203.96 5.41 0
 -2 0 -7 757.25 9.53 0
 -2 0 -5 667.23 8.46 0
 -2 1 -12 13.95 1.97 0
 -2 1 -11 272.45 5.85 0
 -2 1 -10 448.78 7.05 0
 -2 1 -9 47.53 2.5 0
 -2 1 -8 271.86 4.98 0
 -2 1 -7 26.23 1.78 0
 -1 -15 -6 120.5 11.27 0
 -1 -15 -5 94.15 10.31 0
 -1 -15 -4 29.25 7.09 0
 -1 -15 -3 13.53 6.26 0
 -1 -15 -2 54.01 7.82 0
 -1 -15 -1 38.83 6.99 0
 -1 -14 -9 2.97 5.63 0
 -1 -14 -8 91.18 9.68 0
 -1 -14 -7 27.69 6.9 0
 -1 -14 -6 73.35 9.22 0
 -1 -14 -4 67.1 8.9 0
 -1 -14 -3 79.62 9.49 0
 -1 -14 -2 1 4.2 0
 -1 -14 -1 122.5 10 0
 -1 -14 0 1.1 4.11 0
 -1 -13 -11 56.68 9.58 0
 -1 -13 -10 2.63 6.27 0
 -1 -13 -9 3.28 5.03 0
 -1 -13 -8 90.99 10.14 0
 -1 -13 -7 74.39 9.19 0
 -1 -13 -6 8.58 5.21 0
 -1 -13 -5 129.81 10.84 0
 -1 -13 -4 191.39 12.13 0
 -1 -13 -3 33.33 7.13 0
 -1 -13 -2 15.62 5.04 0
 -1 -13 -1 76.61 8.14 0
 -1 -13 0 40.84 6.47 0
 -1 -12 -13 27.52 8.32 0
 -1 -12 -12 64.78 9.78 0
 -1 -12 -11 71.4 9.83 0
 -1 -12 -10 64.5 8.98 0
 -1 -12 -9 89.12 9.62 0
 -1 -12 -8 22.74 6.34 0
 -1 -12 -7 134.69 10.16 0
 -1 -12 -6 41.37 6.96 0
 -1 -12 -4 80.79 8.5 0
 -1 -12 -3 77.59 7.8 0
 -1 -12 -2 155 9.91 0
 -1 -12 0 12.27 4.68 0
 -1 -12 1 52.48 6.09 0
 -1 -11 -14 77.26 10.25 0
 -1 -11 -13 135.51 11.66 0
 -1 -11 -12 61.8 9.1 0
 -1 -11 -11 38.76 7.71 0
 -1 -11 -10 41.57 7.35 0
 -1 -11 -9 33.54 7.07 0
 -1 -11 -8 51.21 7.45 0
 -1 -11 -7 123.25 9.42 0
 -1 -11 -6 143.59 10.38 0
 -1 -11 -5 12.56 4.68 0
 -1 -11 -4 81.33 7.52 0
 -1 -11 -1 189.59 9.91 0
 -1 -11 0 316.22 11.96 0
 -1 -11 1 190.9 9.33 0
 -1 -10 -15 29.38 7.38 0
 -1 -10 -14 77.73 10.35 0
 -1 -10 -13 47.41 8 0
 -1 -10 -12 10.24 5.38 0
 -1 -10 -11 228.47 12.66 0
 -1 -10 -10 4.32 4.05 0
 -1 -10 -9 33.48 6.57 0
 -1 -10 -8 30.15 6.24 0
 -1 -10 -6 46.02 6.36 0
 -1 -10 -5 72.76 7.36 0
 -1 -10 -4 295.94 12.31 0
 -1 -10 -3 57.19 6.65 0
 -1 -10 -2 239.83 10.79 0
 -1 -10 0 125.82 7.51 0
 -1 -10 1 412.98 12.61 0
 -1 -10 2 247.61 9.69 0
 -1 -9 -16 4.55 5.06 0
 -1 -9 -15 6.5 5.07 0
 -1 -9 -14 48.62 7.73 0
 -1 -9 -12 210.09 12.52 0
 -1 -9 -11 107.27 9.56 0
 -1 -9 -10 15 5.6 0
 -1 -9 -8 55.38 6.84 0
 -1 -9 -6 44.05 6.04 0
 -1 -9 -5 111.54 7.91 0
 -1 -9 -4 96.76 7.16 0
 -1 -9 -3 384.79 12.58 0
 -1 -9 -1 605.16 14.99 0
 -1 -9 0 2.89 2.77 0
 -1 -8 -17 47.04 7.69 0
 -1 -8 -16 47.01 8.06 0
 -1 -8 -15 173.81 11.99 0
 -1 -8 -14 111.89 9.43 0
 -1 -8 -13 62.28 8.17 0
 -1 -8 -12 59.53 7.28 0
 -1 -8 -11 171 10.26 0
 -1 -8 -10 124.4 8.81 0
 -1 -8 -9 31.76 5.62 0
 -1 -8 -8 47.6 5.77 0
 -1 -8 -7 122.98 7.94 0
 -1 -8 -6 203.27 9.66 0
 -1 -8 -5 108.9 7.11 0
 -1 -8 -3 487.07 13.19 0
 -1 -7 -18 90.8 9.62 0
 -1 -7 -17 15.88 5.58 0
 -1 -7 -16 105.12 9.68 0
 -1 -7 -15 17.31 6.21 0
 -1 -7 -13 38.38 6.19 0
 -1 -7 -12 190.04 10.89 0
 -1 -7 -11 124.1 8.99 0
 -1 -7 -10 354.75 13.29 0
 -1 -7 -9 116.81 7.8 0
 -1 -7 -7 146.51 8.3 0
 -1 -7 -6 116.76 6.87 0
 -1 -7 -1 88.34 5.49 0
 -1 -7 0 376.96 10.04 0
 -1 -7 1 87.62 5 0
 -1 -7 2 833.77 14.24 0
 -1 -6 -19 4.25 4.52 0
 -1 -6 -18 28.11 6.12 0
 -1 -6 -17 14.19 5.29 0
 -1 -6 -15 31.45 6.25 0
 -1 -6 -14 82.26 8.26 0
 -1 -6 -13 188.98 10.21 0
 -1 -6 -12 33.94 5.71 0
 -1 -6 -11 34.53 5.32 0
 -1 -6 -10 98.13 7.12 0
 -1 -6 -8 10.93 3.42 0
 -1 -5 -19 10.09 5.09 0
 -1 -5 -17 5.02 4.39 0
 -1 -5 -16 76.15 7.72 0
 -1 -5 -15 40.84 6.01 0
 -1 -5 -14 40.95 6.17 0
 -1 -5 -13 86.12 7.05 0
 -1 -5 -12 330.7 12.19 0
 -1 -5 -11 24.01 4.64 0
 -1 -5 -10 34.75 5.12 0
 -1 -5 -9 474.27 12.98 0
 -1 -5 -6 473.38 11.6 0
 -1 -5 -2 502.69 10.64 0
 -1 -5 -1 -1.8 1.79 0
 -1 -5 0 541.79 10.25 0
 -1 -5 1 0.2 1.62 0
 -1 -4 -18 20.41 5.27 0
 -1 -4 -16 12.17 4.21 0
 -1 -4 -15 12.75 4.21 0
 -1 -4 -14 5.26 3.53 0
 -1 -4 -11 164.98 8.5 0
 -1 -4 -8 410.55 11.03 0
 -1 -4 -7 5.93 2.44 0
 -1 -4 -5 1648.29 19.01 0
 -1 -4 -4 1390.33 16.76 0
 -1 -4 -3 98.81 4.65 0
 -1 -4 -2 1958.93 18.61 0
 -1 -4 -1 1059.32 13.4 0
 -1 -4 0 5350.39 28.51 0
 -1 -4 1 1116.39 13.17 0
 -1 -3 -18 15.93 4.63 0
 -1 -3 -17 42.06 6.03 0
 -1 -3 -16 13.93 4.5 0
 -1 -3 -15 221.86 9.83 0
 -1 -3 -14 51.65 5.92 0
 -1 -3 -12 79.84 6.24 0
 -1 -3 -9 91.7 5.79 0
 -1 -3 -8 153.45 6.49 0
 -1 -3 -7 499.63 10.65 0
 -1 -3 -5 401.82 8.71 0
 -1 -3 -4 714.22 11.26 0
 -1 -3 -3 1086.68 12.88 0
 -1 -3 -2 354.68 7.31 0
 -1 -3 -1 2301.5 17.37 0
 -1 -3 0 4873.49 24.51 0
 -1 -3 1 2213.93 16.06 0
 -1 -2 -17 62.61 5.85 0
 -1 -2 -16 56.59 5.8 0
 -1 -2 -15 67.34 5.79 0
 -1 -2 -14 124.67 7.35 0
 -1 -2 -13 168.99 7.82 0
 -1 -2 -10 602.94 12.53 0
 -1 -2 -9 451.23 10.41 0
 -1 -2 -8 669.29 11.88 0
 -1 -2 -7 1408.33 16.23 0
 -1 -2 -6 609.94 10.42 0
 -1 -2 -5 1396.77 14.52 0
 -1 -2 -4 1021.07 11.8 0
 -1 -2 -3 1638.76 13.91 0
 -1 -2 -2 361.01 6.58 0
 -1 -2 -1 1463.04 12.07 0
 -1 -2 0 3105.86 17.35 0
 -1 -1 -16 70.79 5.81 0
 -1 -1 -15 29.76 4.61 0
 -1 -1 -12 86.29 5.44 0
 -1 -1 -10 137.84 5.8 0
 -1 -1 -9 763.99 12.24 0
 -1 -1 -8 51.68 3.37 0
 -1 -1 -7 147.07 4.98 0
 -1 -1 -6 871.75 10.92 0
 -1 -1 -5 969.62 10.77 0
 -1 -1 -4 142.39 3.99 0
 -1 -1 -3 4076.4 18.76 0
 -1 -1 -2 9641.79 27.29 0
 -1 -1 -1 1033.62 8.67 0
 -1 0 -13 -3.69 1.64 0
 -1 0 -12 231.43 7.4 0
 -1 0 -11 21.67 3.05 0
 -1 0 -10 144.13 5.43 0
 -1 0 -8 258.24 6.16 0
 -1 0 -7 12.73 1.85 0
 -1 0 -6 4.28 1.49 0
 -1 0 -5 908.21 8.73 0
 -1 0 -3 1447 8.92 0
 -1 0 -2 380.14 4.46 0
 -1 1 -14 117.07 5.29 0
 -1 1 -13 172.42 6.04 0
 -1 1 -12 96.85 4.54 0
 -1 1 -11 612.43 9.99 0
 -1 1 -10 132.93 4.58 0
 -1 1 -9 756.57 9.7 0
 -1 1 -8 50.4 2.63 0
 -1 1 -7 148.89 3.73 0
 -1 1 -6 873.13 7.69 0
 -1 1 -5 943.08 6.82 0
 -1 1 -4 141.61 2.29 0
 -1 2 -13 175.97 5.26 0
 -1 2 -12 158.81 4.87 0
 -1 2 -10 621.38 8.09 0
 -1 2 -9 442.06 6.27 0
 -1 2 -8 682.39 6.9 0
 -1 2 -7 1389.91 8.33 0
 -1 3 -12 80.84 2.78 0
 -1 3 -11 50.09 2.15 0
 -1 3 -10 115.28 2.73 0
 -1 3 -9 103.64 2.27 0
 0 -16 -3 1.16 5.21 0
 0 -15 -6 125.17 11.32 0
 0 -15 -5 70.95 8.95 0
 0 -15 -4 79.94 9.03 0
 0 -15 -2 -2.51 3.77 0
 0 -14 -9 42.37 8.22 0
 0 -14 -8 119.23 11.42 0
 0 -14 -7 43.18 8.56 0
 0 -14 -6 365.71 16.36 0
 0 -14 -4 0.74 4.29 0
 0 -14 -3 -1.44 4.1 0
 0 -14 -2 53.88 7.67 0
 0 -14 -1 173.22 10.53 0
 0 -14 0 3.6 3.3 0
 0 -13 -11 34.32 7.56 0
 0 -13 -10 65.61 9.21 0
 0 -13 -9 2.16 5.67 0
 0 -13 -8 -4.39 4.41 0
 0 -13 -7 21.24 6.22 0
 0 -13 -6 7.64 5.08 0
 0 -13 -5 5.45 4.57 0
 0 -13 -4 110.03 9.72 0
 0 -13 -3 207.17 11.62 0
 0 -13 -1 101.35 8.18 0
 0 -13 0 -3.12 3.63 0
 0 -12 -13 26.74 7.43 0
 0 -12 -12 1.63 6.28 0
 0 -12 -11 0.17 5.75 0
 0 -12 -9 46.41 7.9 0
 0 -12 -8 261.15 14.11 0
 0 -12 -7 34.36 7.31 0
 0 -12 -6 94.49 8.89 0
 0 -12 -5 84.7 8.4 0
 0 -12 -3 59.34 7.26 0
 0 -12 -2 463.51 15.11 0
 0 -12 -1 55.77 6.6 0
 0 -12 0 45.4 6.29 0
 0 -12 1 54.34 5.91 0
 0 -12 2 452.68 13.19 0
 0 -11 -14 214.11 13.59 0
 0 -11 -13 47.9 8.83 0
 0 -11 -12 41.64 7.99 0
 0 -11 -11 4.45 5.1 0
 0 -11 -10 2.06 4.54 0
 0 -11 -9 54.93 7.98 0
 0 -11 -8 12.29 5.25 0
 0 -11 -6 103.59 9 0
 0 -11 -5 150.95 9.51 0
 0 -11 -4 1.58 3.73 0
 0 -11 -3 262.37 11.42 0
 0 -11 -1 12.85 4.1 0
 0 -11 0 -2.07 2.8 0
 0 -11 1 13.34 3.96 0
 0 -11 2 130.62 7.26 0
 0 -11 3 235.99 8.86 0
 0 -10 -15 2.6 5.46 0
 0 -10 -14 200.52 12.84 0
 0 -10 -13 -4.35 5.28 0
 0 -10 -12 311.94 14.87 0
 0 -10 -11 105.8 9.02 0
 0 -10 -10 11.74 4.83 0
 0 -10 -9 -2.33 3.45 0
 0 -10 -8 -1.09 3.62 0
 0 -10 -7 90.18 8.07 0
 0 -10 -5 12.11 4.53 0
 0 -10 -4 172.4 9.1 0
 0 -10 -3 7.2 4.13 0
 0 -10 -1 448.75 13.26 0
 0 -10 0 186.44 8.73 0
 0 -10 1 466.16 12.48 0
 0 -9 -17 118.81 11.39 0
 0 -9 -16 27.88 6.7 0
 0 -9 -15 36.33 7.18 0
 0 -9 -14 6.57 5.21 0
 0 -9 -13 514.47 18.9 0
 0 -9 -12 52.64 7.57 0
 0 -9 -11 57.93 7.49 0
 0 -9 -10 0.84 4.12 0
 0 -9 -9 3.19 3.92 0
 0 -9 -8 3.33 3.58 0
 0 -9 -6 163.57 9.31 0
 0 -9 -4 10.83 3.73 0
 0 -9 -3 1.67 2.81 0
 0 -9 -2 185.66 8.36 0
 0 -9 3 1.8 2.04 0
 0 -8 -17 13.33 5.9 0
 0 -8 -16 31.3 7.57 0
 0 -8 -14 0.43 4.74 0
 0 -8 -12 171.9 10.67 0
 0 -8 -10 1.98 4.19 0
 0 -8 -9 49.57 6.72 0
 0 -8 -8 204.67 10.13 0
 0 -8 -7 135.01 8.34 0
 0 -8 -6 21.23 4.18 0
 0 -8 -5 53.19 5.36 0
 0 -8 -4 75.4 5.8 0
 0 -8 0 316.7 9.55 0
 0 -8 1 1076.68 16.34 0
 0 -8 2 260.35 7.84 0
 0 -8 3 1026.31 14.87 0
 0 -7 -18 -2.39 4.11 0
 0 -7 -17 5.7 5.13 0
 0 -7 -16 18.27 5.83 0
 0 -7 -15 33.66 7.28 0
 0 -7 -14 0.33 5.02 0
 0 -7 -13 88.3 8.89 0
 0 -7 -12 5.67 4.33 0
 0 -7 -11 30.9 5.56 0
 0 -7 -10 12.57 4.31 0
 0 -7 -9 202.01 9.71 0
 0 -7 -8 51.08 5.76 0
 0 -7 -7 41.68 4.68 0
 0 -7 -6 18.23 3.62 0
 0 -7 -2 1375.43 18.89 0
 0 -7 -1 845.22 14.43 0
 0 -7 0 0.95 1.78 0
 0 -7 1 865.36 13.63 0
 0 -7 2 1379.91 16.39 0
 0 -7 3 637.06 10.88 0
 0 -6 -19 15.3 5.63 0
 0 -6 -18 6.83 4.92 0
 0 -6 -17 11.34 5.31 0
 0 -6 -16 95.67 9.5 0
 0 -6 -15 6.67 4.41 0
 0 -6 -14 -1 3.97 0
 0 -6 -13 15.26 5.35 0
 0 -6 -12 553.79 16.79 0
 0 -6 -11 237.13 10.95 0
 0 -6 -10 62.41 6.54 0
 0 -6 -9 812.41 18.18 0
 0 -6 2 122.7 4.62 0
 0 -6 3 29.95 2.59 0
 0 -5 -19 3.53 4.11 0
 0 -5 -18 -3.54 3.81 0
 0 -5 -16 6.25 4.4 0
 0 -5 -15 11.25 4.88 0
 0 -5 -14 16.79 4.8 0
 0 -5 -12 72.68 7.27 0
 0 -5 -10 135.75 7.76 0
 0 -5 -9 86.98 6.24 0
 0 -5 -4 1214.37 16.75 0
 0 -5 -3 1029.9 14.8 0
 0 -5 -2 150.06 5.74 0
 0 -5 -1 396.69 8.41 0
 0 -5 0 1.48 1.95 0
 0 -5 2 157.25 4.64 0
 0 -5 3 1096.78 11.52 0
 0 -4 -19 19.97 5.46 0
 0 -4 -18 159.76 10.24 0
 0 -4 -17 243.31 12.26 0
 0 -4 -16 253.73 12.29 0
 0 -4 -15 20.91 4.81 0
 0 -4 -14 4.39 3.81 0
 0 -4 -13 4.65 3.59 0
 0 -4 -12 111.91 7.88 0
 0 -4 -11 59.32 5.93 0
 0 -4 -7 57.52 4.47 0
 0 -4 -6 218.17 7.53 0
 0 -4 -5 2463.12 23.1 0
 0 -4 -2 10.91 2.29 0
 0 -4 -1 3027.05 20.45 0
 0 -4 0 1105.38 11.67 0
 0 -4 1 3066.22 18.33 0
 0 -4 2 9.57 1.59 0
 0 -3 -19 12.53 4.58 0
 0 -3 -18 4.91 4.04 0
 0 -3 -17 2.86 3.75 0
 0 -3 -16 34.67 6.13 0
 0 -3 -15 319.23 12.56 0
 0 -3 -14 21.34 4.95 0
 0 -3 -13 72.42 6.17 0
 0 -3 -12 1.37 3.14 0
 0 -3 -8 430.35 10.81 0
 0 -3 -6 77.43 4.63 0
 0 -3 -5 487.74 9.7 0
 0 -3 -4 488.62 9.06 0
 0 -3 -3 4754.77 25.86 0
 0 -3 -2 6728.62 28.58 0
 0 -3 -1 280.59 5.65 0
 0 -3 0 0.02 1.15 0
 0 -3 1 267.19 4.73 0
 0 -3 2 6901.31 21.67 0
 0 -2 -18 3.08 3.81 0
 0 -2 -17 17.91 4.49 0
 0 -2 -16 5.18 4.18 0
 0 -2 -14 132.8 7.63 0
 0 -2 -13 308.45 10.75 0
 0 -2 -10 200.3 7.84 0
 0 -2 -7 1587.62 18.1 0
 0 -2 -6 0.39 1.74 0
 0 -2 -5 23.59 2.45 0
 0 -2 -4 4460.97 24.43 0
 0 -2 -3 2644.65 17.27 0
 0 -2 -2 0.88 1.54 0
 0 -2 -1 393.82 5.55 0
 0 -2 0 300.84 4.46 0
 0 -1 -18 32.06 5.48 0
 0 -1 -17 6.67 4.07 0
 0 -1 -16 65.62 6.13 0
 0 -1 -15 7.93 3.54 0
 0 -1 -14 591.58 14.49 0
 0 -1 -11 277.51 8.98 0
 0 -1 -10 6.91 2.48 0
 0 -1 -2 9.8 1.4 0
 0 -1 -1 39.41 1.57 0
 0 0 -17 -3.43 2.72 0
 0 0 -16 16.59 3.87 0
 0 0 -15 0.03 2.61 0
 0 0 -14 3.31 3.12 0
 0 0 -12 365.21 10.15 0
 0 0 -11 0.07 1.96 0
 0 1 -16 63.65 5.19 0
 0 1 -15 8.5 3.08 0
 0 1 -13 35 4.19 0
 0 1 1 41.93 2 0
 0 2 -14 124.9 6.12 0
 0 2 -13 292.56 8.41 0
 0 2 -2 -0.84 0.69 0
 0 3 -14 14.23 2.54 0
 1 -15 -6 123.78 10.97 0
 1 -15 -5 87.28 9.37 0
 1 -14 -9 8.21 6.3 0
 1 -14 -8 85.13 10.13 0
 1 -14 -7 13.92 6.12 0
 1 -14 -6 66.83 8.85 0
 1 -14 -5 71.43 9.23 0
 1 -14 -4 63.5 8.61 0
 1 -14 -3 83.59 8.61 0
 1 -14 -2 1.43 3.43 0
 1 -13 -11 59.82 9.21 0
 1 -13 -10 11.05 5.86 0
 1 -13 -9 5.59 6.39 0
 1 -13 -8 91.16 9.18 0
 1 -13 -7 68.31 8.48 0
 1 -13 -6 11.66 5.24 0
 1 -13 -5 117.6 10.15 0
 1 -13 -4 191.43 11.47 0
 1 -13 -2 18.58 4.72 0
 1 -13 -1 83.47 6.92 0
 1 -12 -13 25.76 6.98 0
 1 -12 -12 54.03 9.65 0
 1 -12 -11 64.85 9.89 0
 1 -12 -10 53.02 8.63 0
 1 -12 -8 21.06 6.13 0
 1 -12 -7 128.91 9.82 0
 1 -12 -6 44.95 6.98 0
 1 -12 -5 49.38 7.4 0
 1 -12 -4 77.68 7.59 0
 1 -12 -3 70.18 7.5 0
 1 -12 -2 162.22 9.06 0
 1 -12 -1 46.84 5.85 0
 1 -12 0 7.61 3.4 0
 1 -11 -14 73.57 9.86 0
 1 -11 -13 125.84 11.67 0
 1 -11 -12 75.94 9.17 0
 1 -11 -11 37.51 7.91 0
 1 -11 -10 40.05 7.84 0
 1 -11 -9 38.86 6.91 0
 1 -11 -8 43.29 7.26 0
 1 -11 -7 133.12 9.53 0
 1 -11 -5 10.05 4.43 0
 1 -11 -3 76.51 6.73 0
 1 -11 -2 66.51 6.47 0
 1 -11 -1 196.34 9.15 0
 1 -11 1 179.1 8.06 0
 1 -10 -15 30.74 7.99 0
 1 -10 -14 73.25 10.31 0
 1 -10 -12 8.68 5.73 0
 1 -10 -11 230.98 13.02 0
 1 -10 -10 2.77 4.18 0
 1 -10 -9 32.02 6.21 0
 1 -10 -8 31.54 6.09 0
 1 -10 -7 64.85 7.93 0
 1 -10 -6 47.49 6.48 0
 1 -10 -5 72.93 6.82 0
 1 -10 -4 305.24 12.14 0
 1 -10 -3 59.83 5.83 0
 1 -10 -2 247.96 10.13 0
 1 -10 -1 388.11 11.87 0
 1 -10 0 130.57 7.17 0
 1 -10 3 64.09 4.24 0
 1 -9 -16 9.82 6.29 0
 1 -9 -15 16.06 6.43 0
 1 -9 -14 39.01 7.48 0
 1 -9 -13 78.13 9.37 0
 1 -9 -11 105.16 9.17 0
 1 -9 -10 12.79 4.76 0
 1 -9 -9 158.62 9.98 0
 1 -9 -8 60.31 6.69 0
 1 -9 -7 52.57 7 0
 1 -9 -6 56.26 6.94 0
 1 -9 -5 107.72 7.78 0
 1 -9 -4 96.46 6.9 0
 1 -9 -3 383.18 12.15 0
 1 -9 -2 9.53 3.03 0
 1 -9 1 585.43 12.48 0
 1 -9 2 9.52 2.44 0
 1 -9 3 358.79 8.73 0
 1 -9 4 105.61 4.59 0
 1 -8 -17 44.01 8 0
 1 -8 -15 160.63 11.51 0
 1 -8 -14 115.21 9.73 0
 1 -8 -13 65.45 8.12 0
 1 -8 -11 177.2 10.88 0
 1 -8 -10 131.55 9.01 0
 1 -8 -8 43.08 5.92 0
 1 -8 -7 130.67 8.29 0
 1 -8 -4 405.86 12.28 0
 1 -8 -1 134.56 6.59 0
 1 -8 0 2.98 2.19 0
 1 -8 1 142.44 5.93 0
 1 -8 2 160.01 5.93 0
 1 -8 3 504.5 9.51 0
 1 -8 4 435.64 8.24 0
 1 -7 -18 84.7 10.39 0
 1 -7 -17 15.48 6.1 0
 1 -7 -16 100.72 10.41 0
 1 -7 -15 32.29 6.82 0
 1 -7 -14 254.04 13.6 0
 1 -7 -13 33.06 6.56 0
 1 -7 -12 191.25 11.52 0
 1 -7 -11 115.44 8.77 0
 1 -7 -10 363.97 13.55 0
 1 -7 -9 113.46 8.2 0
 1 -7 -8 39.78 5.74 0
 1 -7 -7 152.9 8.58 0
 1 -7 -6 120.87 7.07 0
 1 -7 -2 823.9 14.72 0
 1 -7 -1 95.54 5.39 0
 1 -7 0 373.29 8.96 0
 1 -7 1 90.47 4.53 0
 1 -6 -19 0.96 4.74 0
 1 -6 -18 21.54 6.48 0
 1 -6 -16 43.35 7.76 0
 1 -6 -15 38.88 6.99 0
 1 -6 -14 85.51 8.59 0
 1 -6 -12 23.59 5.44 0
 1 -6 -11 36.02 5.9 0
 1 -6 -10 101.31 7.37 0
 1 -6 -9 347.9 12.26 0
 1 -6 -8 7.04 3.25 0
 1 -6 -4 143.73 6.65 0
 1 -6 -3 37.89 4.01 0
 1 -6 1 310.22 7.11 0
 1 -6 2 332.23 6.78 0
 1 -6 3 34.88 2.34 0
 1 -6 4 148.19 3.82 0
 1 -5 -19 9.9 5.48 0
 1 -5 -18 199.04 12.71 0
 1 -5 -17 6.06 4.98 0
 1 -5 -16 86.27 9.06 0
 1 -5 -14 42.7 6.15 0
 1 -5 -13 79.75 7.65 0
 1 -5 -12 342.19 13.12 0
 1 -5 -10 35.89 5.53 0
 1 -5 -9 506.61 14.31 0
 1 -5 -2 510.92 10.18 0
 1 -5 -1 1.08 1.59 0
 1 -5 0 553.48 9.16 0
 1 -5 1 1.21 1.44 0
 1 -5 2 498.85 7.28 0
 1 -5 4 733.26 6.71 0
 1 -4 -20 103.36 9.74 0
 1 -4 -18 28.05 6.06 0
 1 -4 -17 90.21 8.97 0
 1 -4 -16 16.98 5.77 0
 1 -4 -15 18.17 5.68 0
 1 -4 -13 206.69 10.71 0
 1 -4 -12 193.2 9.73 0
 1 -4 -11 160.04 9.17 0
 1 -4 -10 44.98 5.47 0
 1 -4 -2 1885.73 17.84 0
 1 -4 -1 1082.09 12.57 0
 1 -4 0 5229.38 24.86 0
 1 -4 1 1068.6 10.24 0
 1 -4 2 1870.8 11.82 0
 1 -4 3 94.32 2.35 0
 1 -3 -20 29.97 6.44 0
 1 -3 -19 121.74 10.1 0
 1 -3 -18 19.05 5.32 0
 1 -3 -17 54.66 7.54 0
 1 -3 -16 8.9 4.41 0
 1 -3 -15 217.96 11.48 0
 1 -3 -14 47.68 6.28 0
 1 -3 -13 9.19 4.09 0
 1 -3 1 2252.37 12.7 0
 1 -3 2 332.97 4.01 0
 1 -2 -19 9.35 5.34 0
 1 -2 -18 18.22 5.49 0
 1 -2 -17 73.98 7.64 0
 1 -2 -16 67.37 6.83 0
 1 -2 -15 67.49 7.52 0
 1 -2 -14 109.9 7.76 0
 1 -1 -19 22.86 5.11 0
 1 -1 -18 77.69 7.71 0
 1 -1 -17 44.45 6.53 0
 1 -1 -16 67.39 7.12 0
 1 -1 -15 32.11 5.73 0
 1 0 -18 18.97 4.62 0
 1 0 -17 250.49 11.37 0
 1 0 -16 474.79 14.48 0
 1 1 -17 46.21 6.14 0
 1 2 -17 62.19 6.25 0
 2 -15 -6 35.06 6.77 0
 2 -14 -8 45.21 8.23 0
 2 -14 -7 30 6.68 0
 2 -14 -6 134.42 10.71 0
 2 -14 -5 18.36 5.68 0
 2 -14 -4 149.57 10.33 0
 2 -13 -10 90.08 10.97 0
 2 -13 -9 65.82 9.4 0
 2 -13 -8 105.89 9.82 0
 2 -13 -7 18.63 5.89 0
 2 -13 -6 63.05 8.11 0
 2 -13 -5 186.17 11.22 0
 2 -13 -4 91.19 8.4 0
 2 -13 -3 103.68 8.03 0
 2 -12 -12 3.61 6.4 0
 2 -12 -11 36.61 7.78 0
 2 -12 -10 111.12 10.37 0
 2 -12 -9 41.14 7.7 0
 2 -12 -8 30.94 7.41 0
 2 -12 -7 130.79 10.32 0
 2 -12 -6 36.99 6.49 0
 2 -12 -5 50.75 7.23 0
 2 -12 -4 10.43 4.43 0
 2 -12 -2 117.66 8.07 0
 2 -12 -1 15.35 3.91 0
 2 -11 -13 2.89 5.08 0
 2 -11 -11 52.04 8.35 0
 2 -11 -10 5.24 5.35 0
 2 -11 -9 178.27 11.63 0
 2 -11 -8 24.53 6.16 0
 2 -11 -7 87.74 8.93 0
 2 -11 -6 7.19 5.15 0
 2 -11 -5 86.27 8.28 0
 2 -11 -4 172.39 9.95 0
 2 -11 -2 195.07 9.59 0
 2 -11 -1 77.33 6.38 0
 2 -10 -14 33.73 7.59 0
 2 -10 -13 112.89 10.95 0
 2 -10 -10 88.35 9.64 0
 2 -10 -9 4.77 5.35 0
 2 -10 -8 39.16 6.82 0
 2 -10 -7 26.69 5.56 0
 2 -10 -6 112.19 8.82 0
 2 -10 -5 125.28 8.88 0
 2 -10 -4 127.07 8.24 0
 2 -10 -3 330.51 11.94 0
 2 -10 -2 11.89 3.98 0
 2 -10 -1 26.03 4.44 0
 2 -10 0 6.36 2.42 0
 2 -9 -16 3.49 5.8 0
 2 -9 -15 74.93 10.22 0
 2 -9 -14 104.96 10.95 0
 2 -9 -13 194.26 13.21 0
 2 -9 -12 78.43 9.69 0
 2 -9 -11 28.25 6.38 0
 2 -9 -10 145.09 10.77 0
 2 -9 -9 24.1 5.74 0
 2 -9 -8 389.55 14.81 0
 2 -9 -7 72.75 7.72 0
 2 -9 -6 69.14 7.03 0
 2 -9 -5 139.05 8.81 0
 2 -9 -4 145.32 8.22 0
 2 -9 1 175.71 6.91 0
 2 -9 2 87.34 4.61 0
 2 -8 -16 18.49 7.47 0
 2 -8 -15 61.3 8.63 0
 2 -8 -14 58.8 8.53 0
 2 -8 -13 96.91 9.97 0
 2 -8 -12 35.37 7.2 0
 2 -8 -11 21.06 5.66 0
 2 -8 -10 87.86 8.19 0
 2 -8 -9 110.11 8.95 0
 2 -8 -8 74.86 7.39 0
 2 -8 -7 16.88 4.65 0
 2 -8 -6 30.07 5.33 0
 2 -8 -5 256.09 10.56 0
 2 -8 -4 66.96 5.73 0
 2 -8 0 225.73 7.81 0
 2 -8 1 169.48 6.37 0
 2 -8 2 48.05 3.35 0
 2 -8 3 155.4 5.06 0
 2 -7 -16 13.26 6.14 0
 2 -7 -14 169.46 11.49 0
 2 -7 -13 38.29 6.93 0
 2 -7 -12 27.49 6.84 0
 2 -7 -11 50.99 7.65 0
 2 -7 -10 23.15 5.97 0
 2 -7 -9 105.57 7.94 0
 2 -7 -8 7.39 4.07 0
 2 -7 -7 126.56 8.13 0
 2 -7 -6 341.28 12.02 0
 2 -7 -5 177.82 8.89 0
 2 -7 -2 226.44 8.36 0
 2 -7 -1 153.68 6.45 0
 2 -7 0 2.32 2.06 0
 2 -7 1 159.13 5.77 0
 2 -7 2 236.35 6.3 0
 2 -6 -18 34.46 7.46 0
 2 -6 -17 20.15 6.24 0
 2 -6 -16 11.32 5.41 0
 2 -6 -15 26.32 6.41 0
 2 -6 -14 78.3 9.47 0
 2 -6 -13 5.48 4.31 0
 2 -6 -12 105.55 9.25 0
 2 -6 -11 338.4 13.8 0
 2 -6 -10 31.19 5.48 0
 2 -6 -9 182.27 9.75 0
 2 -6 -8 29.48 5.01 0
 2 -6 -7 704.21 17 0
 2 -6 -6 21.72 4.08 0
 2 -6 -3 218.65 8.25 0
 2 -6 -1 1004.18 15.05 0
 2 -6 3 220.91 4.89 0
 2 -6 4 149.91 3.28 0
 2 -5 -19 43.5 8.32 0
 2 -5 -17 4.53 4.92 0
 2 -5 -16 136.02 11.09 0
 2 -5 -15 65.94 8.69 0
 2 -5 -14 107.47 9.66 0
 2 -5 -13 171.79 10.71 0
 2 -5 1 197.62 5.58 0
 2 -5 2 601.38 8.34 0
 2 -5 3 58.16 2.37 0
 2 -5 4 159.54 2.68 0
 2 -4 -18 101.57 10.2 0
 2 -4 -17 7.23 5.15 0
 2 -4 -16 23.62 6.89 0
 2 -4 -15 61.98 8.18 0
 2 -4 -14 102.46 8.69 0
 2 -4 3 336.74 4.85 0
 2 -3 -20 57.06 8.7 0
 2 -3 -19 14.21 5.65 0
 2 -3 -18 197.04 12.63 0
 2 -3 -17 100.82 9.17 0
 2 -3 -16 110.12 9.85 0
 2 -2 -19 26.93 6.14 0
 2 -2 -18 20.99 6.03 0
 2 -1 -19 162.6 10.93 0
 2 -1 -18 130.39 10.35 0
 2 0 -19 25.31 5.54 0
 2 0 -18 5.07 4.28 0
 3 -14 -7 0.68 4.59 0
 3 -14 -6 15.62 5.55 0
 3 -13 -9 121.53 11.38 0
 3 -13 -8 2.05 4.64 0
 3 -13 -7 118.13 10.49 0
 3 -13 -6 37.31 7.26 0
 3 -13 -5 73.95 8.18 0
 3 -12 -11 66.1 9.41 0
 3 -12 -10 24.55 6.72 0
 3 -12 -9 8.14 5.04 0
 3 -12 -8 30.97 6.57 0
 3 -12 -7 161.08 11.48 0
 3 -12 -6 118.74 10.17 0
 3 -12 -5 230 12.29 0
 3 -12 -4 73.49 7.19 0
 3 -12 -3 35.8 5.38 0
 3 -11 -12 5.95 6.1 0
 3 -11 -11 20.68 6.71 0
 3 -11 -10 66.46 9.47 0
 3 -11 -9 91.09 9.83 0
 3 -11 -8 8.18 5.63 0
 3 -11 -7 14.48 5.39 0
 3 -11 -6 69.03 8.97 0
 3 -11 -5 99.9 8.84 0
 3 -11 -4 24 5.39 0
 3 -11 -3 147.1 9.04 0
 3 -11 -2 256.37 10.67 0
 3 -10 -13 109.04 10.61 0
 3 -10 -12 3.78 5.13 0
 3 -10 -11 16.93 6.51 0
 3 -10 -10 40.44 7.22 0
 3 -10 -8 88.32 9.4 0
 3 -10 -7 14.3 5.14 0
 3 -10 -6 52.03 6.98 0
 3 -10 -5 360.28 13.72 0
 3 -10 -3 395.11 13.32 0
 3 -10 -2 235.85 9.97 0
 3 -10 -1 57.05 5.29 0
 3 -9 -14 19.06 6.85 0
 3 -9 -13 10.99 5.93 0
 3 -9 -12 -0.09 4.71 0
 3 -9 -11 38.37 7.03 0
 3 -9 -10 19.68 6.43 0
 3 -9 -9 75.09 8.54 0
 3 -9 -8 170.4 11.24 0
 3 -9 -7 114.97 9.35 0
 3 -9 -6 63.34 7.05 0
 3 -9 -5 25.17 5.4 0
 3 -9 -2 158.1 8.1 0
 3 -9 -1 93.06 5.95 0
 3 -8 -15 27.08 7.96 0
 3 -8 -14 4.61 5.21 0
 3 -8 -13 75.44 9.69 0
 3 -8 -12 435.98 18.08 0
 3 -8 -11 6.87 5.69 0
 3 -8 -10 56.29 7.83 0
 3 -8 -9 32.45 6.29 0
 3 -8 -8 67.95 8.36 0
 3 -8 -7 60.2 7.35 0
 3 -8 -6 220.01 11.06 0
 3 -8 -5 132.44 8.76 0
 3 -8 -3 74.94 6.2 0
 3 -8 -2 142.39 7.37 0
 3 -8 1 27.61 3.15 0
 3 -7 -16 21.75 7.73 0
 3 -7 -15 7.22 5.88 0
 3 -7 -14 8.92 5.74 0
 3 -7 -12 147.49 11.25 0
 3 -7 -11 54.93 7.75 0
 3 -7 -9 34.58 6.07 0
 3 -7 -8 148.63 9.74 0
 3 -7 -7 429.59 14.67 0
 3 -7 -3 89.21 6.47 0
 3 -7 0 1.99 1.83 0
 3 -7 1 325.53 8.46 0
 3 -7 2 317.58 7.57 0
 3 -6 -17 8.02 5.73 0
 3 -6 -15 60.45 9.13 0
 3 -6 -14 25.94 7.24 0
 3 -6 -13 107.07 9.92 0
 3 -6 -12 10.4 4.67 0
 3 -5 -18 59.67 9.92 0
 3 -5 -17 12.38 5.89 0
 3 -5 -16 3.99 5.35 0
 3 -5 -15 29.86 7.61 0
 3 -5 4 9.09 1.21 0
 3 -4 -18 -1.21 5.08 0
 3 -4 -17 56.59 8.4 0
 3 -4 -16 94.88 10.8 0
 3 -4 5 227.83 2.97 0
 3 -3 -19 5.85 5.51 0
 3 -3 -18 49.91 8.83 0
 3 -2 -19 99.09 11.14 0
 3 -1 -19 179.22 12.28 0
 4 -13 -7 33.73 7.15 0
 4 -12 -9 40.24 7.61 0
 4 -12 -8 6.04 5.21 0
 4 -12 -6 129.22 9.91 0
 4 -12 -5 37.75 6.21 0
 4 -11 -10 13.3 6.16 0
 4 -11 -9 28.49 6.77 0
 4 -11 -8 79.25 8.7 0
 4 -11 -7 85.74 9.02 0
 4 -11 -6 64.85 8.19 0
 4 -11 -5 141.71 10.05 0
 4 -11 -4 99.06 8.17 0
 4 -10 -11 23.67 6.82 0
 4 -10 -10 7.31 5.99 0
 4 -10 -9 17.26 6.04 0
 4 -10 -8 25.82 6.32 0
 4 -10 -7 -1.24 4.08 0
 4 -10 -6 29.82 6.01 0
 4 -10 -5 5.48 4.07 0
 4 -10 -4 76.8 7.31 0
 4 -10 -3 37.05 5.37 0
 4 -9 -13 28.02 7.81 0
 4 -9 -12 45.61 9.05 0
 4 -9 -11 59.03 9.37 0
 4 -9 -10 19.06 6.18 0
 4 -9 -9 156.44 11.18 0
 4 -9 -8 13.5 5.49 0
 4 -9 -7 48.79 7.61 0
 4 -9 -6 4.84 4.51 0
 4 -9 -5 135.28 9.14 0
 4 -9 -4 92.86 7.94 0
 4 -9 -3 222.71 10.38 0
 4 -9 -2 16.42 3.88 0
 4 -8 -14 32.72 7.79 0
 4 -8 -12 19.86 6.67 0
 4 -8 -11 17.02 6.23 0
 4 -8 -10 149.41 11.21 0
 4 -8 -9 110.31 10.05 0
 4 -8 -8 87.32 9.63 0
 4 -8 -7 233.26 12.26 0
 4 -8 -6 162.82 10.01 0
 4 -8 -5 352.51 13.5 0
 4 -8 -4 101.75 7.99 0
 4 -8 -3 30.75 4.97 0
 4 -8 -2 328.03 11.53 0
 4 -8 -1 86.46 5.92 0
 4 -7 -15 5.19 6.97 0
 4 -7 -14 5.03 5.92 0
 4 -7 -13 23.41 7.5 0
 4 -7 -12 16.36 6.31 0
 4 -6 -16 68.46 9.93 0
 4 -6 -15 59.65 8.93 0
 4 -6 -14 15.9 6.44 0
 4 -5 -16 7.72 6.31 0
 5 -11 -8 48.29 7.66 0
 5 -11 -7 25.31 6.45 0
 5 -11 -6 0.18 4.09 0
 5 -10 -10 13.58 6.98 0
 5 -10 -8 25.33 6.55 0
 5 -10 -7 147.3 11.25 0
 5 -10 -6 104.24 9.08 0
 5 -10 -5 29.95 5.99 0
 5 -9 -11 60.33 9.83 0
 5 -9 -10 27 6.9 0
 5 -9 -9 30.28 7.08 0
 5 -9 -8 33.09 7.64 0
 5 -9 -7 60.78 8.8 0
 5 -9 -5 124.36 9.88 0
 5 -9 -4 9.68 4.1 0
 5 -8 -12 -0.38 5.41 0
 5 -8 -11 82.6 10.14 0
 5 -8 -10 12.81 5.8 0
 5 -8 -9 20.13 6.37 0
 5 -7 -13 90.11 11.07 0
 6 -9 -8 7.05 5.4 0
 6 -9 -7 -5.25 4.97 0
 6 -9 -6 111.39 9.98 0
 0 -7 4 614.98 9.87 0
 0 -7 5 -0.87 2.09 0
 0 -6 3 29.58 2.48 0
 0 -6 4 2015.24 17.67 0
 0 -6 6 157.6 6.32 0
 0 -6 8 73.28 5.12 0
 0 -6 9 834.3 16.1 0
 0 -5 2 146.29 3.81 0
 0 -5 3 1066.1 11.14 0
 0 -5 4 1182.65 12.97 0
 0 -5 5 672.95 10.74 0
 0 -5 6 178.47 6.42 0
 0 -5 9 80.56 5.5 0
 0 -5 10 125.02 7.18 0
 0 -5 11 143.21 7.78 0
 0 -4 -4 466.43 4.47 0
 0 -4 0 1078.89 6.01 0
 0 -4 2 12.56 1.52 0
 0 -4 3 1533.58 12.64 0
 0 -4 4 458.75 7.99 0
 0 -4 5 2460.26 19.58 0
 0 -4 7 59.25 4.07 0
 0 -4 9 58.48 4.64 0
 0 -4 10 444.66 12.3 0
 0 -4 11 56.48 5.21 0
 0 -3 -3 4786.85 12.55 0
 0 -3 2 6885.95 22.07 0
 0 -3 3 4666.36 20.81 0
 0 -3 4 511.09 7.96 0
 0 -3 5 469.97 8.54 0
 0 -3 6 73.46 3.83 0
 0 -3 10 508.52 12.75 0
 0 -3 12 4.98 3 0
 0 -2 -3 2695.79 10.77 0
 0 -2 2 1.99 1.23 0
 0 -2 3 2697.28 15.1 0
 0 -2 4 4376.29 21.67 0
 0 -2 6 1.65 1.9 0
 0 -2 7 1576.54 17.15 0
 0 -2 8 482.83 10.37 0
 0 -2 10 212.25 8.28 0
 0 -2 11 33.88 4.31 0
 0 -1 -3 8.47 1.39 0
 0 -1 -2 8.93 1.07 0
 0 -1 3 6.85 1.49 0
 0 -1 5 8407.43 31.88 0
 0 -1 6 11.09 2.25 0
 0 -1 7 73.42 4.03 0
 0 -1 8 683.46 11.93 0
 0 0 -2 6151.56 15.87 0
 0 0 2 5978.87 15.63 0
 0 0 3 1.55 1.08 0
 0 0 4 111.93 3.38 0
 0 0 5 0.85 1.67 0
 0 0 6 1189.45 12.89 0
 0 0 7 0.91 1.66 0
 0 0 8 1713.22 18.17 0
 0 0 9 1.67 2 0
 0 0 11 1.21 2.64 0
 0 1 -2 8.91 1.31 0
 0 1 -1 42.41 1.4 0
 0 1 2 9.41 1.13 0
 0 1 3 5.07 1.07 0
 0 1 4 429.65 5.78 0
 0 1 5 8166.51 28.36 0
 0 1 6 11.89 1.99 0
 0 1 7 73.89 3.94 0
 0 1 9 292.92 8.15 0
 0 2 -1 395.07 4.04 0
 0 2 3 2676.92 10.93 0
 0 2 4 4445.92 17.35 0
 0 2 5 20.31 1.85 0
 0 2 6 3.57 1.53 0
 0 2 8 476.65 9.03 0
 0 3 -1 268.82 3.69 0
 0 3 0 0.02 0.45 0
 1 -10 6 41.75 4.27 0
 1 -10 7 57.5 4.81 0
 1 -10 8 34.61 4.62 0
 1 -10 9 29.97 4.65 0
 1 -9 0 2.03 0.69 0
 1 -9 1 602.54 7.87 0
 1 -9 4 93.48 4.71 0
 1 -9 6 48.83 4.38 0
 1 -9 7 48.34 4.86 0
 1 -9 8 51.36 5.55 0
 1 -9 9 147.92 7.97 0
 1 -9 10 17.01 4.59 0
 1 -9 11 99.6 7.67 0
 1 -8 -1 133.5 2.72 0
 1 -8 0 4.99 0.98 0
 1 -8 1 133.71 3.93 0
 1 -8 4 421.07 9.15 0
 1 -8 7 114.1 6.13 0
 1 -8 8 42.94 5.31 0
 1 -8 9 30.71 4.7 0
 1 -8 10 144.99 8.13 0
 1 -8 11 174.45 9.28 0
 1 -8 12 62.66 7.64 0
 1 -7 -5 372.96 3.78 0
 1 -7 -1 88.24 2.46 0
 1 -7 0 370.49 5.64 0
 1 -7 2 807.6 10.26 0
 1 -7 3 484.32 8.77 0
 1 -7 4 131.57 5.24 0
 1 -7 5 359.26 8.87 0
 1 -7 7 156.36 7.14 0
 1 -7 8 42.66 4.97 0
 1 -7 10 354.41 11.81 0
 1 -7 11 125.54 8.29 0
 1 -7 12 201.37 10.41 0
 1 -7 13 47.42 6.38 0
 1 -7 14 259.42 12.51 0
 1 -6 -1 310.28 4.66 0
 1 -6 1 297.54 5.57 0
 1 -6 3 36.29 2.73 0
 1 -6 4 148.45 5.39 0
 1 -6 8 8.18 2.94 0
 1 -6 9 345.56 11 0
 1 -6 10 95.41 6.48 0
 1 -6 11 31.44 4.82 0
 1 -6 12 35.3 5.4 0
 1 -6 13 182.71 10.35 0
 1 -6 14 100.36 9.05 0
 1 -6 15 26.06 5.84 0
 1 -5 1 1.08 1.04 0
 1 -5 2 516.1 7.77 0
 1 -5 3 303.16 6.68 0
 1 -5 4 745.23 11.14 0
 1 -5 5 486.62 9.73 0
 1 -5 6 496.64 10.45 0
 1 -5 8 403.52 10.74 0
 1 -5 9 469.8 12.25 0
 1 -5 10 31.31 4.49 0
 1 -5 12 327.11 12.11 0
 1 -5 13 88.88 7.34 0
 1 -5 14 44.42 6.26 0
 1 -5 15 37.52 6.68 0
 1 -4 1 1056.63 9.8 0
 1 -4 2 1907.65 14.45 0
 1 -4 3 97.06 3.94 0
 1 -4 4 1359.98 14.28 0
 1 -4 5 1658.18 16.9 0
 1 -4 10 43.12 4.43 0
 1 -4 11 159.09 8.06 0
 1 -4 12 173.28 8.81 0
 1 -4 13 184.51 9.7 0
 1 -4 14 9.61 3.96 0
 1 -4 16 6.27 4.49 0
 1 -3 2 353.18 6.02 0
 1 -3 3 1109.21 11.6 0
 1 -3 4 707.3 10.08 0
 1 -3 5 393.48 8.26 0
 1 -3 6 314.97 7.83 0
 1 -3 7 512.57 10.72 0
 1 -3 10 125.1 6.79 0
 1 -3 11 41.18 4.99 0
 1 -3 12 87.13 6.72 0
 1 -3 13 10.81 3.9 0
 1 -3 14 56.03 6.94 0
 1 -3 15 221 11.05 0
 1 -3 16 10.51 4.85 0
 1 -2 3 1672.92 13.48 0
 1 -2 4 1029.41 11.57 0
 1 -2 5 1389.1 14.35 0
 1 -2 7 1450.14 17.05 0
 1 -2 10 615.41 13.47 0
 1 -2 11 240.28 9.17 0
 1 -2 12 173.13 8.33 0
 1 -2 13 170.56 9.06 0
 1 -2 14 101.42 7.54 0
 1 -2 15 61.76 7.13 0
 1 -1 3 4135.34 19.94 0
 1 -1 4 144.7 4.4 0
 1 -1 5 939.03 11.5 0
 1 -1 6 868.72 12.08 0
 1 -1 7 152.13 5.6 0
 1 -1 10 135.4 6.49 0
 1 -1 11 596.36 13.63 0
 1 -1 12 87.84 6.15 0
 1 -1 13 177.39 9.04 0
 1 -1 15 33.06 5.47 0
 1 -1 16 68.52 7.4 0
 1 0 3 1485.48 11.59 0
 1 0 4 90.73 3.34 0
 1 0 5 911.67 10.97 0
 1 0 6 6.9 1.9 0
 1 0 7 10.55 2.22 0
 1 0 8 259.12 7.44 0
 1 0 11 19.09 3.75 0
 1 0 12 224.04 9.11 0
 1 0 13 -1.8 2.58 0
 1 0 14 554.37 15.11 0
 1 0 15 30.82 5.52 0
 1 1 4 139.92 4.09 0
 1 1 6 856.3 11.04 0
 1 1 7 157.9 5.4 0
 1 1 8 50.7 3.64 0
 1 1 9 773.3 13.13 0
 1 1 11 598.32 13.04 0
 1 1 12 103.95 6.62 0
 1 1 13 176.68 8.57 0
 1 1 15 31.33 5.42 0
 1 2 4 1018.54 9.47 0
 1 2 5 1410.45 12.25 0
 1 2 6 601.85 8.87 0
 1 2 7 1407.74 14.66 0
 1 2 8 691.98 11.14 0
 1 2 9 455.19 9.77 0
 1 2 12 156.8 7.48 0
 1 2 13 173.43 8.23 0
 1 2 14 115.8 7.14 0
 1 3 5 382.92 6.04 0
 1 3 7 511.58 8.55 0
 1 3 8 155.74 5.23 0
 1 3 9 100.97 4.91 0
 1 3 12 78.51 5.25 0
 1 3 13 9.63 3.25 0
 1 4 3 93.5 2.29 0
 1 4 5 1633.5 11.36 0
 1 4 6 208.77 4.72 0
 1 4 7 8.92 1.77 0
 1 4 8 452.49 8.38 0
 1 4 9 267.41 6.94 0
 1 4 10 38.27 3.39 0
 1 4 12 179.36 7.33 0
 1 5 4 717.85 5.6 0
 1 5 5 472.72 5.43 0
 1 5 6 481.07 6.28 0
 1 5 7 554.76 7.65 0
 1 5 9 495.57 8.87 0
 1 5 10 30.24 3.28 0
 1 8 0 2.39 0.68 0
 2 -11 6 9.64 2.87 0
 2 -11 7 100.65 6.4 0
 2 -11 8 27.43 4.57 0
 2 -11 9 191.84 9.68 0
 2 -11 11 62.29 7.45 0
 2 -11 12 176.33 10.59 0
 2 -10 4 126.49 5.93 0
 2 -10 5 125.54 6.28 0
 2 -10 6 113.42 6.36 0
 2 -10 7 21.62 4.26 0
 2 -10 8 37.67 5.21 0
 2 -10 9 7.52 3.53 0
 2 -10 10 86.92 7.2 0
 2 -10 11 120.59 8.91 0
 2 -10 12 203.28 11.44 0
 2 -10 14 29.57 6.64 0
 2 -9 -1 158.87 4.42 0
 2 -9 2 93.11 4.55 0
 2 -9 5 121 6.27 0
 2 -9 6 69.92 5.49 0
 2 -9 7 71.85 5.73 0
 2 -9 8 386.94 12.01 0
 2 -9 9 23.36 4.39 0
 2 -9 10 146.04 8.68 0
 2 -9 11 29.86 5.81 0
 2 -9 12 77.66 8.02 0
 2 -9 13 195.26 11.66 0
 2 -9 14 131 10.55 0
 2 -9 15 83.8 8.97 0
 2 -8 -2 48.14 2.68 0
 2 -8 1 162.81 5.41 0
 2 -8 2 45.4 3.32 0
 2 -8 5 259.4 8.48 0
 2 -8 6 29.78 4.02 0
 2 -8 7 22.62 4.37 0
 2 -8 8 83.74 6.2 0
 2 -8 9 102.57 7.28 0
 2 -8 10 72.91 6.83 0
 2 -8 11 28.21 5.2 0
 2 -8 12 34.59 6.47 0
 2 -8 13 93.75 8.86 0
 2 -8 15 60.83 8.69 0
 2 -8 16 14.41 5.8 0
 2 -7 0 1.46 1.38 0
 2 -7 1 149.46 5.31 0
 2 -7 2 231.76 6.64 0
 2 -7 3 160.42 5.93 0
 2 -7 7 123.2 6.9 0
 2 -7 8 1.52 2.77 0
 2 -7 9 92.29 6.69 0
 2 -7 11 53.24 6.52 0
 2 -7 12 19.48 4.9 0
 2 -7 13 39.31 6.58 0
 2 -7 14 192.22 11.11 0
 2 -7 15 53.4 8.12 0
 2 -7 16 18.01 5.93 0
 2 -7 17 50.85 8.13 0
 2 -6 2 470.9 9.3 0
 2 -6 3 221.55 6.89 0
 2 -6 4 144.28 6.1 0
 2 -6 7 675.93 14.11 0
 2 -6 8 28.87 4.17 0
 2 -6 9 175 8.44 0
 2 -6 10 27.76 4.8 0
 2 -6 12 103.22 8.09 0
 2 -6 13 6.93 4.59 0
 2 -6 14 71.81 7.41 0
 2 -6 15 26.35 6.7 0
 2 -6 16 11.61 5.59 0
 2 -6 17 23.75 7.4 0
 2 -5 4 150.66 5.89 0
 2 -5 7 1495.19 20.37 0
 2 -5 8 47.38 4.74 0
 2 -5 10 29.6 4.57 0
 2 -5 11 52.22 5.67 0
 2 -5 12 40.65 5.73 0
 2 -5 13 159.74 9.94 0
 2 -5 14 104.67 8.98 0
 2 -5 15 54.38 7.3 0
 2 -5 16 144.38 10.78 0
 2 -5 17 6.05 5.62 0
 2 -5 18 8.93 5.9 0
 2 -4 3 342.78 8 0
 2 -4 4 175.79 6.23 0
 2 -4 5 58.19 4.05 0
 2 -4 8 26.04 3.75 0
 2 -4 9 18.52 3.94 0
 2 -4 12 345.66 12.6 0
 2 -4 13 3.25 3.64 0
 2 -4 14 105.76 8.01 0
 2 -4 16 18.17 5.72 0
 2 -4 17 7.05 5.46 0
 2 -4 18 101.7 9.92 0
 2 -3 5 149.72 6.01 0
 2 -3 9 369.99 10.93 0
 2 -3 10 469.83 12.9 0
 2 -3 13 35.55 5.42 0
 2 -3 14 273.89 12.25 0
 2 -3 15 107.76 8.61 0
 2 -3 16 109.64 8.98 0
 2 -3 17 114.26 9.51 0
 2 -3 18 195.61 12.65 0
 2 -2 5 725.63 11.92 0
 2 -2 6 1398.4 17.51 0
 2 -2 11 489.05 13.32 0
 2 -2 12 38.33 5.48 0
 2 -2 13 94.66 7.38 0
 2 -2 14 98.69 7.63 0
 2 -2 15 49.79 6.58 0
 2 -2 16 172.13 10.84 0
 2 -2 17 27.3 6.31 0
 2 -1 5 70.7 4.28 0
 2 -1 7 21.79 3.13 0
 2 -1 9 39.61 4.12 0
 2 -1 10 452.52 12.06 0
 2 -1 11 265.11 10.05 0
 2 -1 12 15.68 3.83 0
 2 -1 13 10.62 4.23 0
 2 -1 14 45.58 5.96 0
 2 -1 15 110.06 8.09 0
 2 -1 18 141.03 10.83 0
 2 0 5 645.49 10.71 0
 2 0 6 90.14 4.74 0
 2 0 10 16.55 3.59 0
 2 0 11 93.43 6.56 0
 2 0 12 5.41 3.14 0
 2 0 13 228.16 10.02 0
 2 0 14 14.61 4.24 0
 2 0 15 232.81 11.13 0
 2 0 16 51.72 7 0
 2 0 17 21.17 5.82 0
 2 0 18 2.98 5.21 0
 2 1 6 2.63 1.8 0
 2 1 7 28.19 3.17 0
 2 1 11 273.49 9.51 0
 2 1 12 11.38 3.51 0
 2 1 13 12.43 4.14 0
 2 1 15 116.92 8.24 0
 2 1 16 192.09 10.74 0
 2 1 17 46.59 7.16 0
 2 1 18 125.41 9.72 0
 2 2 6 1415.74 15.52 0
 2 2 8 250.45 7.7 0
 2 2 12 47.83 5.22 0
 2 2 13 88.77 6.33 0
 2 2 14 93.99 7.21 0
 2 2 15 56.37 6.91 0
 2 3 5 140.95 4.91 0
 2 3 6 2070.39 18.17 0
 2 3 7 6.02 2.04 0
 2 3 8 226.71 6.98 0
 2 3 11 133.08 6.73 0
 2 3 12 41.88 5.15 0
 2 3 13 30.76 4.38 0
 2 3 14 268.02 10.47 0
 2 3 15 108.87 7.5 0
 2 3 16 100.97 7.5 0
 2 4 5 49.9 3.01 0
 2 4 6 177.51 5.32 0
 2 4 7 284.72 6.92 0
 2 4 8 28.88 2.93 0
 2 4 9 20.46 3.12 0
 2 4 12 335.87 10.04 0
 2 4 13 3.16 2.61 0
 2 4 14 97.28 6.74 0
 2 4 15 63.42 6.28 0
 2 4 16 19.22 4.11 0
 2 5 5 257.47 5.66 0
 2 5 6 328.77 6.73 0
 2 5 7 1511.19 14.72 0
 2 5 9 525.67 10.08 0
 2 5 12 41.49 4.2 0
 2 5 13 151.02 7.13 0
 2 5 14 115.97 6.76 0
 2 6 4 139.9 3.78 0
 2 6 5 686.25 8.31 0
 2 6 6 17.71 1.94 0
 2 6 7 708.91 9.4 0
 2 6 8 33.54 2.77 0
 2 6 9 181.86 5.68 0
 2 6 10 28.1 3.17 0
 2 6 12 80.23 5.03 0
 2 6 13 3.51 2.17 0
 2 7 4 381.05 5.19 0
 2 7 5 165.48 3.52 0
 2 7 6 338.99 5.25 0
 2 7 7 122.17 3.54 0
 2 7 8 3.22 1.25 0
 2 7 9 98.05 3.82 0
 2 7 10 13.58 2.21 0
 3 -12 9 5.69 3.44 0
 3 -12 10 34.55 6.12 0
 3 -12 11 62.86 7.53 0
 3 -12 12 64.48 7.8 0
 3 -11 7 14.41 3.81 0
 3 -11 8 6.35 3.51 0
 3 -11 9 85.59 7.48 0
 3 -11 10 62.39 7.5 0
 3 -11 11 7.97 3.93 0
 3 -11 12 14.67 5.16 0
 3 -11 13 23.94 5.99 0
 3 -10 2 227.57 7.65 0
 3 -10 4 110.27 6.34 0
 3 -10 5 349.74 10.82 0
 3 -10 6 46.24 5.8 0
 3 -10 7 18.66 4.2 0
 3 -10 8 96.94 7.21 0
 3 -10 10 35.66 6.23 0
 3 -10 11 17.7 4.89 0
 3 -10 12 9.53 4.78 0
 3 -10 13 113.27 9.86 0
 3 -10 14 20.46 6.08 0
 3 -9 2 149.39 6.58 0
 3 -9 3 122.23 6.36 0
 3 -9 5 15.93 3.79 0
 3 -9 6 61.05 5.9 0
 3 -9 7 103.08 7.11 0
 3 -9 8 173.54 9.15 0
 3 -9 9 60.81 7.42 0
 3 -9 10 19.6 4.62 0
 3 -9 11 40.4 6.74 0
 3 -9 12 4.99 4.65 0
 3 -9 13 10.63 5.35 0
 3 -9 14 2.84 4.67 0
 3 -9 15 12.04 5.69 0
 3 -8 2 133.76 6.17 0
 3 -8 3 66.62 5.04 0
 3 -8 4 76.19 5.62 0
 3 -8 5 122.49 6.99 0
 3 -8 6 223.67 9.08 0
 3 -8 7 50.17 5.28 0
 3 -8 9 40.81 5.9 0
 3 -8 10 45.32 6.56 0
 3 -8 11 11.55 4.63 0
 3 -8 13 68.68 8.79 0
 3 -8 14 8.96 5.26 0
 3 -8 15 28.39 6.71 0
 3 -7 3 98.7 5.83 0
 3 -7 4 14.51 3.31 0
 3 -7 5 11.4 3.29 0
 3 -7 6 312.7 10.51 0
 3 -7 7 406.82 12.17 0
 3 -7 8 151.93 8.63 0
 3 -7 9 32.03 5.71 0
 3 -7 10 11.22 4.75 0
 3 -7 11 54.92 7.4 0
 3 -7 12 133.08 9.66 0
 3 -7 13 70.48 7.54 0
 3 -7 14 8.09 5.01 0
 3 -7 15 8.34 6.04 0
 3 -6 4 173.49 7.48 0
 3 -6 5 315.03 9.99 0
 3 -6 7 270.89 10.26 0
 3 -6 8 26.62 4.57 0
 3 -6 10 33.24 5.15 0
 3 -6 11 63.3 6.57 0
 3 -6 12 15.6 4.85 0
 3 -6 13 101.42 8.53 0
 3 -6 14 21.35 5.72 0
 3 -6 15 56.4 7.93 0
 3 -6 16 57.73 8.9 0
 3 -6 17 8.58 6.05 0
 3 -5 5 92.53 5.67 0
 3 -5 6 1.35 2.64 0
 3 -5 8 165.85 8.34 0
 3 -5 9 408.26 12.8 0
 3 -5 10 492.67 14.77 0
 3 -5 11 66.35 6.56 0
 3 -5 12 72.95 6.94 0
 3 -5 13 3.62 4.1 0
 3 -5 16 3.56 4.89 0
 3 -5 17 21.24 6.25 0
 3 -4 6 359.2 10.62 0
 3 -4 7 510.75 13.13 0
 3 -4 9 148.79 8.11 0
 3 -4 10 48.27 6.09 0
 3 -4 11 2.71 3.26 0
 3 -4 12 59.6 6.71 0
 3 -4 13 12.07 4.69 0
 3 -4 14 3.2 3.82 0
 3 -4 15 170.69 10.9 0
 3 -4 16 94.95 8.97 0
 3 -4 17 67.03 8.71 0
 3 -4 18 2.22 5.11 0
 3 -3 6 543.76 12.71 0
 3 -3 7 438.57 11.81 0
 3 -3 8 454.2 12.68 0
 3 -3 10 90.08 6.89 0
 3 -3 12 19.53 4.58 0
 3 -3 13 14.27 4.91 0
 3 -3 15 77.96 7.94 0
 3 -3 16 -0.48 4.43 0
 3 -3 17 20.44 6.19 0
 3 -3 18 52.79 8.53 0
 3 -2 7 79.59 5.26 0
 3 -2 9 87.88 6.28 0
 3 -2 10 72.48 6.52 0
 3 -2 11 149.58 8.55 0
 3 -2 13 12.87 4.46 0
 3 -2 14 16.36 4.86 0
 3 -2 15 33.28 6.82 0
 3 -2 16 167.71 10.84 0
 3 -2 17 30.23 6.49 0
 3 -2 18 22.44 6.18 0
 3 -1 7 604.15 13.37 0
 3 -1 8 66.73 5.38 0
 3 -1 9 168.32 7.93 0
 3 -1 10 213.4 9.43 0
 3 -1 11 377.07 12.38 0
 3 -1 12 7.29 4.01 0
 3 -1 13 57.87 6.7 0
 3 -1 14 143.26 9.19 0
 3 -1 15 41.34 6.77 0
 3 -1 16 48.01 7.44 0
 3 -1 17 17.72 5.54 0
 3 -1 18 25.28 6.37 0
 3 -1 19 186.78 12.75 0
 3 0 8 3.17 2.66 0
 3 0 9 421.93 11.96 0
 3 0 11 136.42 8.19 0
 3 0 12 12.98 4.5 0
 3 0 13 65.53 7.05 0
 3 0 14 237.04 11.11 0
 3 0 15 3.31 4.79 0
 3 0 16 208.86 11.22 0
 3 0 17 8.87 5.17 0
 3 0 18 18.43 6.55 0
 3 0 19 6.52 5.32 0
 3 1 9 165.19 7.88 0
 3 1 10 214.04 8.88 0
 3 1 11 349.56 11.51 0
 3 1 12 8.54 3.48 0
 3 1 13 61.11 6.15 0
 3 1 14 137.22 9.1 0
 3 1 15 41.34 6.38 0
 3 1 16 47.49 6.59 0
 3 1 17 16.5 5.42 0
 3 1 18 27.78 6.87 0
 3 1 19 190.09 12.12 0
 3 2 9 79.88 5.53 0
 3 2 10 78.53 5.59 0
 3 2 11 143.95 7.88 0
 3 2 12 25.09 4.4 0
 3 2 13 12.7 4.05 0
 3 2 14 17.61 4.55 0
 3 2 15 22.83 5.39 0
 3 2 16 156.35 9.5 0
 3 2 18 22.83 5.55 0
 3 2 19 101.96 9.45 0
 3 3 9 9.12 2.97 0
 3 3 10 100.44 6.19 0
 3 3 11 41.59 4.8 0
 3 3 12 12.93 3.77 0
 3 3 14 63.08 6.7 0
 3 3 15 71.88 7.04 0
 3 3 16 5.69 3.72 0
 3 3 17 12.03 4.8 0
 3 4 10 44.95 4.68 0
 3 4 11 5.21 2.9 0
 3 4 12 70.37 5.93 0
 3 4 14 5.1 3.36 0
 3 4 15 163.08 8.97 0
 3 4 16 94.26 7.75 0
 3 4 17 59.07 7.29 0
 3 5 6 3.13 1.94 0
 3 5 7 21.17 3 0
 3 5 10 491.17 11.45 0
 3 5 11 71.97 5.26 0
 3 5 12 69.82 5.37 0
 3 5 13 1.92 2.53 0
 3 5 14 31.1 4.67 0
 3 5 15 24.09 4.31 0
 3 6 6 148.9 5.48 0
 3 6 7 288.64 7.61 0
 3 6 8 30.63 3.41 0
 3 6 11 62.09 4.77 0
 3 6 12 12.61 3.11 0
 3 6 13 98.73 6.1 0
 3 7 5 11.74 2 0
 3 7 6 309.04 7.09 0
 3 7 7 430.25 8.47 0
 3 7 8 137.8 5.15 0
 3 7 9 23.44 2.93 0
 4 -11 5 129.32 7.47 0
 4 -11 6 77.93 6.68 0
 4 -11 7 87.39 7.52 0
 4 -11 9 18.46 5.09 0
 4 -11 10 6.52 4.4 0
 4 -11 11 89.76 8.77 0
 4 -10 1 34.14 4.26 0
 4 -10 2 143.53 7.31 0
 4 -10 3 30.59 4.3 0
 4 -10 4 89.95 6.61 0
 4 -10 5 2.87 3.63 0
 4 -10 6 33.83 5.25 0
 4 -10 7 -0.75 3.59 0
 4 -10 8 32.03 5.89 0
 4 -10 9 20.38 5.28 0
 4 -10 10 8.58 4.81 0
 4 -10 12 13.52 5.59 0
 4 -9 0 29.42 4.33 0
 4 -9 1 32.43 4.17 0
 4 -9 2 14.7 3.42 0
 4 -9 4 102.76 7.26 0
 4 -9 5 150.18 8.59 0
 4 -9 6 5.77 3.68 0
 4 -9 7 38.16 5.88 0
 4 -9 8 15.95 4.71 0
 4 -9 10 9.4 4.88 0
 4 -9 12 58.03 7.97 0
 4 -8 2 309.7 10.59 0
 4 -8 3 27.84 4.45 0
 4 -8 4 96.28 7.15 0
 4 -8 5 326.9 11.61 0
 4 -8 6 164.22 8.79 0
 4 -8 7 203.33 10.2 0
 4 -8 8 84.69 7.88 0
 4 -8 10 146.12 10.04 0
 4 -8 11 15.51 5.22 0
 4 -8 12 25.46 5.94 0
 4 -8 13 66.48 8.36 0
 4 -8 14 48.37 8.29 0
 4 -7 3 126.79 7.2 0
 4 -7 4 139.18 7.71 0
 4 -7 5 2.29 3.35 0
 4 -7 6 134.59 8.04 0
 4 -7 7 90.87 7.62 0
 4 -7 8 68.21 6.61 0
 4 -7 10 86.64 8.32 0
 4 -7 11 16.23 5.51 0
 4 -7 13 23.62 6.42 0
 4 -7 14 9.45 5.76 0
 4 -6 4 424.99 12.45 0
 4 -6 5 213.84 9.34 0
 4 -6 6 89.98 7.32 0
 4 -6 7 0.97 3.51 0
 4 -6 8 71.08 6.42 0
 4 -6 9 38.65 5.97 0
 4 -6 12 97.37 8.63 0
 4 -6 13 12.5 5.56 0
 4 -6 14 18.16 6.15 0
 4 -6 15 64.57 9.34 0
 4 -5 6 63.49 6.36 0
 4 -5 7 74.23 6.77 0
 4 -5 8 58.49 6.19 0
 4 -5 9 38.58 5.54 0
 4 -5 10 55.69 7.38 0
 4 -5 11 -1.51 3.51 0
 4 -5 12 45.46 6.8 0
 4 -5 13 35.89 7.12 0
 4 -5 14 39.08 8.01 0
 4 -5 15 96.78 10.03 0
 4 -5 16 4.58 5.51 0
 4 -4 6 12.18 4.19 0
 4 -4 7 241.74 10.35 0
 4 -4 8 592.98 16.07 0
 4 -4 9 102.81 7.83 0
 4 -4 10 420.55 14.62 0
 4 -4 12 205.81 11.64 0
 4 -4 13 141.62 9.85 0
 4 -4 15 -1.69 5.23 0
 4 -4 16 11.34 6.43 0
 4 -3 6 281.09 10.46 0
 4 -3 7 494.77 14.1 0
 4 -3 8 41.67 5.56 0
 4 -3 10 6.29 4.13 0
 4 -3 11 33.13 6.18 0
 4 -3 13 236.66 12.37 0
 4 -3 15 26.92 6.7 0
 4 -3 16 6.29 5.49 0
 4 -3 17 59.39 8.51 0
 4 -2 7 26.17 4.57 0
 4 -2 8 23.67 4.56 0
 4 -2 10 117.08 8.25 0
 4 -2 12 61.29 6.7 0
 4 -2 13 60.04 7.37 0
 4 -2 14 88 8.81 0
 4 -2 15 34.35 6.54 0
 4 -2 16 68.79 8.67 0
 4 -2 17 168.96 12.31 0
 4 -1 7 48.58 5.08 0
 4 -1 9 76.38 6.31 0
 4 -1 10 22.86 5.11 0
 4 -1 11 6.51 4.56 0
 4 -1 12 90.27 8.32 0
 4 -1 14 67 7.27 0
 4 -1 15 -0.84 4.98 0
 4 -1 16 14.68 5.44 0
 4 -1 17 15.66 6.32 0
 4 0 7 1.39 2.69 0
 4 0 8 647.17 15.62 0
 4 0 9 593.76 15.59 0
 4 0 10 0.39 3.13 0
 4 0 11 26.59 5.1 0
 4 0 12 68.62 6.84 0
 4 0 13 3.72 3.97 0
 4 0 14 -0.5 4.01 0
 4 0 15 3.6 5.14 0
 4 0 16 236.12 12.69 0
 4 0 17 52.9 7.86 0
 4 0 18 21.97 6.24 0
 4 1 8 182.85 8.55 0
 4 1 9 72.63 6.08 0
 4 1 10 15.59 4.06 0
 4 1 11 9.02 3.86 0
 4 1 12 109.11 8.44 0
 4 1 13 18.05 5.42 0
 4 1 15 3.04 4.43 0
 4 1 17 18.11 5.92 0
 4 2 8 18.6 4.11 0
 4 2 9 46.69 5.83 0
 4 2 11 0.72 3.36 0
 4 2 12 52.5 5.96 0
 4 2 13 65.79 7.3 0
 4 2 14 80.77 7.65 0
 4 2 15 50.05 6.98 0
 4 2 16 69.37 7.6 0
 4 2 17 180.94 11.38 0
 4 2 18 35.24 6.91 0
 4 3 8 39.97 4.5 0
 4 3 10 1.5 3.01 0
 4 3 11 25.64 4.63 0
 4 3 12 39.55 5.49 0
 4 3 13 239.07 11.01 0
 4 3 14 7.79 4.7 0
 4 3 15 12.62 5.42 0
 4 3 16 6.34 4.87 0
 4 3 17 51.99 7.13 0
 4 3 18 56.03 7.29 0
 4 4 7 233.23 8.96 0
 4 4 8 577.02 13.66 0
 4 4 9 99.29 6.75 0
 4 4 10 416.06 12.36 0
 4 4 11 108.45 7.27 0
 4 4 12 198.36 9.23 0
 4 4 13 152.09 8.91 0
 4 4 14 5.91 4.17 0
 4 4 15 1.47 4.02 0
 4 4 16 18.86 5.21 0
 4 5 7 62.48 5.22 0
 4 5 8 65.23 5.39 0
 4 5 9 32.5 4.38 0
 4 5 10 59.64 5.04 0
 4 5 11 5.34 3.02 0
 4 5 12 48.44 5.96 0
 4 5 13 35.5 5.14 0
 4 5 14 36.64 5.66 0
 4 6 7 1.59 2.29 0
 4 6 8 75.66 5.23 0
 4 6 9 50.68 4.61 0
 4 6 10 40.9 4.75 0
 4 6 11 21.43 3.87 0
 4 6 12 90.12 6.29 0
 4 7 7 99.59 5.38 0
 4 7 8 65.27 4.69 0
 4 7 9 34.24 4.26 0
 5 -11 4 57.17 6.89 0
 5 -11 5 40.89 5.9 0
 5 -11 6 3.73 3.71 0
 5 -11 7 22.85 5.9 0
 5 -11 8 45.02 6.65 0
 5 -10 1 82.32 6.51 0
 5 -10 2 52.87 6.46 0
 5 -10 3 93.81 7.39 0
 5 -10 4 20.43 4.55 0
 5 -10 5 35.99 5.98 0
 5 -10 6 102.64 8.61 0
 5 -10 7 153.24 9.6 0
 5 -10 8 25.27 6.2 0
 5 -10 9 9.22 4.99 0
 5 -9 2 5.18 3.55 0
 5 -9 3 129.37 8.38 0
 5 -9 4 15.3 4.66 0
 5 -9 5 114.2 8.14 0
 5 -9 7 63.1 7.8 0
 5 -9 8 45.47 6.95 0
 5 -9 9 27.71 6.61 0
 5 -9 10 22.44 6.13 0
 5 -9 11 47.47 7.53 0
 5 -8 3 20.41 4.91 0
 5 -8 4 122.38 8.66 0
 5 -8 5 0.5 3.6 0
 5 -8 6 81.5 7.53 0
 5 -8 7 57.6 7.19 0
 5 -8 8 88.31 8.12 0
 5 -8 9 23.33 5.73 0
 5 -8 10 14.3 5.37 0
 5 -8 11 89.1 8.86 0
 5 -8 12 3.02 5.07 0
 5 -7 4 98.13 7.98 0
 5 -7 5 145.6 8.93 0
 5 -7 6 157.36 9.91 0
 5 -7 7 146.61 9.93 0
 5 -7 8 80.88 7.89 0
 5 -7 9 74.4 7.81 0
 5 -7 10 19.06 5.59 0
 5 -7 11 6.75 5.3 0
 5 -7 13 109.72 10.81 0
 5 -6 5 3.11 4.34 0
 5 -6 6 19.57 4.77 0
 5 -6 7 11.8 5.36 0
 5 -6 8 69.32 7.27 0
 5 -6 11 8.03 5.22 0
 5 -6 12 232.27 12.79 0
 5 -5 6 144.73 8.95 0
 5 -5 7 65.56 7.28 0
 5 -5 8 11.33 4.9 0
 5 -5 10 84.9 8.69 0
 5 -5 11 30.54 6.23 0
 5 -5 12 93.17 8.73 0
 5 -5 14 175.24 12.57 0
 5 -4 6 71.42 7.36 0
 5 -4 7 35.96 6.1 0
 5 -4 9 213.76 11.22 0
 5 -4 10 40.95 7.03 0
 5 -4 11 131.75 9.47 0
 5 -4 15 14.74 6.37 0
 5 -3 8 109.73 8.34 0
 5 -3 9 26.24 5.51 0
 5 -3 10 267.35 12.66 0
 5 -3 13 42.69 7.96 0
 5 -3 15 45.64 8.5 0
 5 -2 8 37.59 6.24 0
 5 -2 9 70.15 7.65 0
 5 -2 10 6.36 5.3 0
 5 -2 11 123.16 9.57 0
 5 -2 13 49.2 8.01 0
 5 -2 14 0.82 4.82 0
 5 -1 8 76.07 7.35 0
 5 -1 9 56.21 7.59 0
 5 -1 10 278.87 12.9 0
 5 -1 11 49.32 7.56 0
 5 -1 12 6.51 4.9 0
 5 -1 13 240.37 12.49 0
 5 -1 14 110.55 9.89 0
 5 -1 15 29.21 7.19 0
 5 0 8 504.1 15.47 0
 5 0 9 29.53 5.47 0
 5 0 10 -1.98 3.54 0
 5 0 11 4.39 4.17 0
 5 0 12 122.02 9.2 0
 5 0 13 -4.89 3.74 0
 5 0 15 -0.04 4.79 0
 5 0 16 42.57 7.39 0
 5 1 9 50.57 6.61 0
 5 1 10 246.57 11.6 0
 5 1 11 59.31 7.24 0
 5 1 12 12.63 4.84 0
 5 1 13 234.12 11.96 0
 5 1 14 119.95 9.34 0
 5 1 15 29.6 6.44 0
 5 1 16 77.8 9.54 0
 5 2 8 38.13 5.43 0
 5 2 10 0.55 3.43 0
 5 2 11 129.79 9.34 0
 5 2 12 20.25 5.84 0
 5 2 13 44.09 6.97 0
 5 2 14 7.03 5.09 0
 5 2 15 190.77 11.74 0
 5 2 16 34.61 6.94 0
 5 3 8 91.05 7.41 0
 5 3 9 31.5 5.18 0
 5 3 10 265.66 11.57 0
 5 3 11 28.52 5.4 0
 5 3 12 44.23 6.66 0
 5 3 13 50.59 6.83 0
 5 3 14 63.88 7.79 0
 5 3 15 44.77 6.65 0
 5 3 16 27.87 5.99 0
 5 4 8 20.1 4.75 0
 5 4 9 219.02 10.31 0
 5 4 10 41.74 5.63 0
 5 4 11 129.1 8.72 0
 5 4 12 36.33 5.59 0
 5 4 13 16.29 5.18 0
 5 4 14 3.02 4.42 0
 5 4 15 27.28 5.74 0
 5 5 8 8.1 3.49 0
 5 5 9 21.18 4.35 0
 5 5 11 33.36 5.41 0
 5 5 12 97.46 7.53 0
 5 5 13 49.03 6.38 0
 5 6 7 13.72 3.61 0
 5 6 8 56.97 5.81 0
 5 6 9 26.07 4.79 0
 5 6 10 161.62 8.46 0
 5 6 11 7.69 3.94 0
 5 7 7 134.61 7.08 0
 5 7 8 74.77 5.98 0
 6 -10 0 21.95 5.08 0
 6 -10 1 2.7 3.46 0
 6 -10 2 0.91 3.51 0
 6 -10 3 24.51 5.39 0
 6 -10 4 80.72 8.32 0
 6 -10 5 1.3 4.12 0
 6 -10 6 8.45 5.5 0
 6 -9 1 106.16 8.56 0
 6 -9 2 124.04 9.38 0
 6 -9 3 79.69 8.02 0
 6 -9 4 7.58 4.51 0
 6 -9 5 119.87 9.54 0
 6 -9 6 115.75 9.77 0
 6 -9 7 1.4 4.73 0
 6 -8 2 15.47 4.86 0
 6 -8 4 27.72 5.85 0
 6 -8 5 45.35 7 0
 6 -8 6 37.25 6.43 0
 6 -8 7 44.2 7.18 0
 6 -8 8 43.7 7.9 0
 6 -8 9 18.66 6.91 0
 6 -7 4 81.2 8.37 0
 6 -7 6 77.41 9.24 0
 6 -7 7 91.09 9.38 0
 6 -7 9 9.69 5.52 0
 6 -7 10 195.23 12.71 0
 6 -6 5 82.65 8.43 0
 6 -6 7 22.62 6.19 0
 6 -6 8 3.75 4.69 0
 6 -6 9 13.87 5.65 0
 6 -6 10 43.99 7.64 0
 6 -6 11 11.07 6.43 0
 6 -5 7 16.26 5.25 0
 6 -5 8 111.4 9.92 0
 6 -5 9 20.85 6.1 0
 6 -5 10 14.42 5.66 0
 6 -5 11 85.45 9.55 0
 6 -5 12 45.48 8.81 0
 6 -4 6 28.1 6.41 0
 6 -4 7 17 5.47 0
 6 -4 8 58.18 8.09 0
 6 -4 9 114.35 9.93 0
 6 -4 10 80.79 9.39 0
 6 -4 11 2.57 5.73 0
 6 -4 12 41.51 7.54 0
 6 -3 7 44.84 6.85 0
 6 -3 8 82.29 9.63 0
 6 -3 9 33.62 6.51 0
 6 -3 10 107.42 10.15 0
 6 -3 11 129.17 10.39 0
 6 -3 12 139.27 11.39 0
 6 -3 13 -6.08 4.6 0
 6 -2 7 -2.47 3.76 0
 6 -2 8 18.6 5.46 0
 6 -2 10 6.99 5.45 0
 6 -2 11 40.08 7.23 0
 6 -2 12 48.82 8.19 0
 6 -2 13 57.81 8.63 0
 6 -1 8 72.08 7.67 0
 6 -1 9 34.52 6.69 0
 6 -1 10 0.94 5.44 0
 6 -1 11 57.19 8.15 0
 6 -1 12 12 5.51 0
 6 -1 13 -3.73 5.34 0
 6 0 9 10.23 4.94 0
 6 0 10 184.64 11.4 0
 6 0 11 273.47 13.67 0
 6 0 12 33.04 7.39 0
 6 0 13 30.99 7.11 0
 6 1 8 77.5 8.13 0
 6 1 9 43.49 6.96 0
 6 1 10 -3.57 4.1 0
 6 1 11 53.41 7.9 0
 6 1 12 10.9 5.89 0
 6 1 13 2.66 5.11 0
 6 1 14 87.59 10.05 0
 6 2 8 9 4.65 0
 6 2 9 3.85 4.34 0
 6 2 10 6.66 4.52 0
 6 2 11 40.81 6.85 0
 6 2 12 41.83 7.03 0
 6 2 13 66.89 8.31 0
 6 3 8 99.91 8.14 0
 6 3 9 34.62 6.38 0
 6 3 11 148.02 10.27 0
 6 3 12 113.72 9.21 0
 6 3 13 -0.79 4.13 0
 6 4 9 95.34 8.6 0
 6 4 11 6.24 4.36 0
 6 4 12 47.27 6.92 0
 6 4 13 38.03 6.93 0
 6 5 8 106.32 8.49 0
 6 5 9 17.69 4.64 0
 6 5 10 12.86 4.95 0
 6 5 11 103.73 8.23 0
 6 6 7 23.87 5.18 0
 6 6 8 1.09 3.62 0
 6 6 9 11.71 4.03 0
 7 -8 2 6.51 5.54 0
 7 -7 3 55.69 8.33 0
 7 -7 4 16.21 5.95 0
 7 -7 5 6.76 5.13 0
 7 -6 4 7.5 5.45 0
 7 -6 6 66.47 9.14 0
 7 -5 5 11.13 5.79 0
 7 -5 6 89.67 10.33 0
 7 -4 6 162.67 11.86 0
 7 -4 7 2.96 4.98 0
 7 -4 8 3.7 5.29 0
 7 -3 7 18.44 6.2 0
 7 -3 8 28.51 7.15 0
 7 -3 9 38.21 7.97 0
 7 -2 7 -2.87 5.79 0
 7 -2 8 202.1 12.51 0
 7 -2 9 30.88 7.87 0
 7 -1 7 4.98 5.86 0
 7 -1 8 73.25 8.78 0
 7 -1 9 67.67 9.81 0
 7 -1 10 25.77 6.95 0
 7 0 8 1.38 5.09 0
 7 0 9 6.59 5.29 0
 7 1 8 89.27 8.98 0
 7 1 9 63.31 9.12 0
 7 1 10 32.25 7.3 0
 7 2 8 209.48 12.09 0
 7 2 9 38.61 7.35 0
 7 2 10 42.65 7.95 0
 7 3 9 51.34 7.86 0
 7 3 10 30.75 6.47 0
 7 4 7 5.5 4.57 0
 7 4 8 0.04 4.05 0
 7 4 9 10.98 4.93 0
 7 4 10 33.13 6.77 0
 7 5 7 95.32 8.84 0
 7 5 8 22.33 6.03 0
 7 5 9 11.97 5.61 0
 7 6 7 1.12 3.89 0
 -5 -3 15 50.79 7.72 0
 -5 -2 13 38.1 7.65 0
 -5 -2 14 9.45 5.59 0
 -5 -2 15 168.95 12.46 0
 -5 -1 12 6.86 4.88 0
 -5 -1 13 237.17 13.13 0
 -5 -1 14 126.13 10.88 0
 -5 -1 16 67.44 9.2 0
 -5 0 11 1.34 3.96 0
 -5 0 12 134.28 10.06 0
 -5 0 13 3.45 4.91 0
 -5 0 14 4.15 4.84 0
 -5 0 15 4.3 5.39 0
 -5 0 16 44.85 7.91 0
 -5 1 12 12.46 4.62 0
 -5 1 13 252.92 12.5 0
 -5 1 14 109.38 9.72 0
 -5 1 15 23.66 6.37 0
 -5 2 12 21.99 5.26 0
 -5 2 13 42.87 6.82 0
 -5 2 14 2.51 4.29 0
 -5 2 15 183.58 11.95 0
 -5 2 16 30.7 7.21 0
 -5 3 11 32.35 5.67 0
 -5 3 12 40.94 5.93 0
 -5 3 13 44.42 6.35 0
 -5 3 15 60.18 8.02 0
 -5 3 16 19.43 5.95 0
 -5 4 13 12.72 4.57 0
 -5 4 14 0.36 3.62 0
 -5 4 15 15.08 5.36 0
 -4 -6 13 3.66 4.92 0
 -4 -6 14 24.82 6.47 0
 -4 -5 11 3.8 4.07 0
 -4 -5 12 45.39 6.87 0
 -4 -5 13 37.85 7.25 0
 -4 -5 14 36.65 7.65 0
 -4 -5 15 78.75 9.36 0
 -4 -5 16 3.43 5.61 0
 -4 -4 9 101.62 7.65 0
 -4 -4 10 450.43 15.27 0
 -4 -4 11 129.53 9.91 0
 -4 -4 12 203.37 12.12 0
 -4 -4 13 140.09 11.01 0
 -4 -4 14 3.35 4.67 0
 -4 -4 15 3.85 6.33 0
 -4 -4 16 16.54 7.02 0
 -4 -3 8 40.07 5.57 0
 -4 -3 9 27.19 5.66 0
 -4 -3 10 -0.7 3.6 0
 -4 -3 11 34.96 5.87 0
 -4 -3 12 40.43 6.63 0
 -4 -3 13 249.38 13.27 0
 -4 -3 14 2.33 4.91 0
 -4 -3 15 19.82 6.87 0
 -4 -3 16 13.12 6.44 0
 -4 -3 17 51.77 9.06 0
 -4 -2 8 22.07 4.5 0
 -4 -2 9 37.62 5.91 0
 -4 -2 10 110.91 8.38 0
 -4 -2 11 3.01 3.88 0
 -4 -2 12 56.96 7.09 0
 -4 -2 14 69.93 8.68 0
 -4 -2 15 41.16 7.91 0
 -4 -2 16 78.64 10.13 0
 -4 -2 17 180.85 12.91 0
 -4 -1 7 45 5.26 0
 -4 -1 8 171.66 8.64 0
 -4 -1 9 68.81 6.26 0
 -4 -1 10 22.58 4.93 0
 -4 -1 11 10.83 4.74 0
 -4 -1 13 22.29 5.65 0
 -4 -1 15 6.39 4.89 0
 -4 -1 16 4.86 4.98 0
 -4 -1 17 10.27 5.77 0
 -4 0 7 1.28 2.98 0
 -4 0 8 645.39 15.57 0
 -4 0 9 582.54 15.5 0
 -4 0 10 1.23 3.83 0
 -4 0 11 21.93 4.98 0
 -4 0 13 -1.34 3.96 0
 -4 0 14 -1.1 3.96 0
 -4 0 15 11.33 5.58 0
 -4 0 16 236.78 13.62 0
 -4 1 8 173.06 8.37 0
 -4 1 10 23.21 5.09 0
 -4 1 11 11.38 4.07 0
 -4 1 12 96.76 7.73 0
 -4 1 13 12.94 4.92 0
 -4 1 14 66.43 8.12 0
 -4 1 16 16.87 5.92 0
 -4 1 17 24.83 6.53 0
 -4 1 18 7.1 6.49 0
 -4 2 7 32.17 4.54 0
 -4 2 8 18.34 3.97 0
 -4 2 9 47.79 5.26 0
 -4 2 10 100.49 6.85 0
 -4 2 11 -2.33 3.58 0
 -4 2 12 58.22 7.26 0
 -4 2 13 74.98 7.85 0
 -4 2 14 81 8.13 0
 -4 2 15 37.24 6.54 0
 -4 2 16 86.51 9.2 0
 -4 2 17 190.2 12.58 0
 -4 2 18 28.73 6.93 0
 -4 3 7 490.82 11.83 0
 -4 3 9 35.29 4.71 0
 -4 3 10 2.88 2.91 0
 -4 3 11 32.86 5.19 0
 -4 3 12 41.93 5.74 0
 -4 3 13 234.06 11.34 0
 -4 3 14 7.94 4.3 0
 -4 3 15 17.31 5.19 0
 -4 3 16 17.74 5.54 0
 -4 3 17 48.84 7.42 0
 -4 4 8 562.7 12.88 0
 -4 4 9 91.32 6.33 0
 -4 4 10 392.43 11.96 0
 -4 4 11 119.48 7.77 0
 -4 4 13 153.77 9.51 0
 -4 4 14 0.34 3.61 0
 -4 4 15 1.34 3.67 0
 -4 4 16 16.95 5.21 0
 -4 4 17 5.37 5.17 0
 -4 5 8 49.79 4.25 0
 -4 5 9 40.39 4.63 0
 -4 5 10 44.38 5.25 0
 -4 5 11 2.79 3.4 0
 -4 5 12 38.95 5.36 0
 -4 5 13 37.17 5.85 0
 -4 5 14 31.62 5.38 0
 -4 5 15 94.84 8.33 0
 -4 5 16 2.06 4.46 0
 -4 5 17 52.41 6.99 0
 -4 6 9 46.01 4.34 0
 -4 6 10 50.73 4.89 0
 -4 6 11 22.96 4.22 0
 -4 6 12 73.84 6.24 0
 -4 6 13 9.34 3.79 0
 -3 -8 13 64.33 8.36 0
 -3 -8 14 14.22 6.02 0
 -3 -8 15 36.91 7.31 0
 -3 -8 16 0.14 5 0
 -3 -7 10 11.22 4.24 0
 -3 -7 11 64.05 7.86 0
 -3 -7 12 129.39 10.15 0
 -3 -7 13 73.07 9.06 0
 -3 -7 14 8.08 5.25 0
 -3 -7 15 1.42 5.28 0
 -3 -7 16 17.39 6.73 0
 -3 -6 8 32.26 5.15 0
 -3 -6 10 34.95 5.9 0
 -3 -6 11 43.51 6.37 0
 -3 -6 12 8.87 4.68 0
 -3 -6 15 62.09 8.85 0
 -3 -6 16 39.92 7.64 0
 -3 -6 17 5.02 5.84 0
 -3 -5 7 18.45 3.97 0
 -3 -5 8 178.59 8.95 0
 -3 -5 9 413.23 13.52 0
 -3 -5 10 491.11 15.26 0
 -3 -5 12 72.89 7.61 0
 -3 -5 13 4.23 4.35 0
 -3 -5 14 39.74 7.65 0
 -3 -5 16 8.42 5.83 0
 -3 -4 6 359.72 11.09 0
 -3 -4 7 520.85 13.87 0
 -3 -4 8 114.93 7.21 0
 -3 -4 9 158.28 8.56 0
 -3 -4 10 41.99 5.53 0
 -3 -4 13 19.95 5.38 0
 -3 -4 14 4.22 4.66 0
 -3 -4 15 169.73 11.85 0
 -3 -4 16 94.13 10.08 0
 -3 -4 17 43.21 7.66 0
 -3 -4 18 -0.41 5.02 0
 -3 -3 7 449.86 12.45 0
 -3 -3 8 469.96 13.03 0
 -3 -3 9 8.46 3.47 0
 -3 -3 10 81.05 6.4 0
 -3 -3 11 41.68 5.72 0
 -3 -3 12 21.17 4.97 0
 -3 -3 13 18.66 5.18 0
 -3 -3 14 64.66 7.55 0
 -3 -3 15 82.5 8.42 0
 -3 -3 16 1.77 4.7 0
 -3 -3 17 15.74 6.98 0
 -3 -3 18 56.75 8.54 0
 -3 -2 7 86.86 6.09 0
 -3 -2 8 535.31 13.59 0
 -3 -2 9 75.68 6 0
 -3 -2 11 140.54 8.35 0
 -3 -2 12 18.79 4.76 0
 -3 -2 13 6.55 4.01 0
 -3 -2 14 9.73 5.12 0
 -3 -2 15 35.48 6.71 0
 -3 -2 16 143.83 10.57 0
 -3 -2 17 28.95 7.24 0
 -3 -2 18 26.42 6.88 0
 -3 -1 4 531.96 11.15 0
 -3 -1 8 53.71 5.19 0
 -3 -1 9 171.48 8.48 0
 -3 -1 10 210.37 9.38 0
 -3 -1 11 386.01 12.97 0
 -3 -1 12 6.23 3.78 0
 -3 -1 13 52.17 6.68 0
 -3 -1 14 149.88 10.29 0
 -3 -1 15 29.59 6.5 0
 -3 -1 16 41.4 7.11 0
 -3 -1 17 17.06 6.69 0
 -3 -1 18 24.12 6.81 0
 -3 0 4 336.32 8.58 0
 -3 0 5 1052.44 15.88 0
 -3 0 8 5.65 3.11 0
 -3 0 9 416.49 12.16 0
 -3 0 10 -0.97 2.58 0
 -3 0 11 137.6 8.13 0
 -3 0 12 15.61 4.28 0
 -3 0 14 230.16 11.7 0
 -3 0 15 -3.39 3.62 0
 -3 0 16 214.54 12.72 0
 -3 0 17 4.43 4.85 0
 -3 0 18 14.95 6.52 0
 -3 0 19 0.5 6.48 0
 -3 1 4 533.75 10.35 0
 -3 1 8 57.58 4.83 0
 -3 1 9 172.67 8.1 0
 -3 1 10 205.14 8.96 0
 -3 1 11 361.12 12.14 0
 -3 1 12 5.82 3.98 0
 -3 1 13 50.12 6.4 0
 -3 1 14 152.55 9.93 0
 -3 1 15 39.13 7.04 0
 -3 1 16 39.96 6.74 0
 -3 1 17 31.17 7.56 0
 -3 1 18 24.14 6.93 0
 -3 1 19 179.24 13.16 0
 -3 2 4 161.31 5.68 0
 -3 2 6 173.72 6.67 0
 -3 2 9 77.32 5.75 0
 -3 2 11 144.4 7.85 0
 -3 2 12 17.75 4.72 0
 -3 2 13 12.57 4.28 0
 -3 2 14 14.55 4.67 0
 -3 2 15 28.77 6.44 0
 -3 2 16 152.44 10.22 0
 -3 2 17 30.94 6.74 0
 -3 2 18 28.67 7.5 0
 -3 3 4 172.84 5.42 0
 -3 3 9 7.7 3.25 0
 -3 3 10 85.82 5.89 0
 -3 3 11 34.65 4.78 0
 -3 3 12 17.56 4.51 0
 -3 3 13 19.57 4.96 0
 -3 3 14 53.22 6.97 0
 -3 3 15 71.33 7.73 0
 -3 3 16 2.96 4.73 0
 -3 3 17 16.41 5.6 0
 -3 3 18 46.83 7.47 0
 -3 4 4 2532.08 18.35 0
 -3 4 5 232.48 6.39 0
 -3 4 6 365.4 8.55 0
 -3 4 7 525.76 10.93 0
 -3 4 10 52.8 5.03 0
 -3 4 11 5.88 3.19 0
 -3 4 12 55.21 5.85 0
 -3 4 13 18.53 4.43 0
 -3 4 14 6.58 4 0
 -3 4 15 174.21 10.47 0
 -3 4 16 86.97 7.99 0
 -3 4 17 69.43 8.52 0
 -3 4 18 -2.86 4.05 0
 -3 5 5 99.94 4.18 0
 -3 5 6 3.24 1.75 0
 -3 5 7 20.32 3.11 0
 -3 5 10 498.68 12.24 0
 -3 5 11 74.95 5.71 0
 -3 5 12 69.99 6.29 0
 -3 5 13 1.78 3.21 0
 -3 5 14 35.28 5.9 0
 -3 5 15 37.98 6.27 0
 -3 5 16 3.68 4.29 0
 -3 5 17 16.95 5.28 0
 -3 6 5 324.63 6.26 0
 -3 6 6 148.85 4.91 0
 -3 6 7 289.45 7.42 0
 -3 6 8 24.43 3.37 0
 -3 6 10 39.01 4.45 0
 -3 6 11 56.27 5.05 0
 -3 6 12 11.91 3.41 0
 -3 6 13 102.53 7.14 0
 -3 6 14 24.22 4.9 0
 -3 6 15 57.39 7.2 0
 -3 6 16 50.73 6.71 0
 -3 6 17 10.23 4.96 0
 -3 7 6 311.1 6.17 0
 -3 7 8 144.19 5.54 0
 -3 7 10 21.66 3.36 0
 -3 7 11 56.1 5.07 0
 -3 7 12 143.09 7.56 0
 -3 7 13 76.13 6.36 0
 -3 7 14 9.55 4.05 0
 -3 7 15 7.68 4.36 0
 -2 -9 11 18.45 4.67 0
 -2 -9 13 188.15 11.33 0
 -2 -9 14 118.58 9.79 0
 -2 -9 15 94.29 9.43 0
 -2 -9 16 8.15 5 0
 -2 -8 9 104.43 7.59 0
 -2 -8 10 82.12 7.26 0
 -2 -8 11 19.91 4.84 0
 -2 -8 12 36.68 6.02 0
 -2 -8 13 87.19 8.17 0
 -2 -8 14 43.6 7.51 0
 -2 -8 15 53.47 7.68 0
 -2 -8 16 18.65 5.9 0
 -2 -8 17 30 6.88 0
 -2 -7 8 0.45 2.95 0
 -2 -7 9 95.65 6.79 0
 -2 -7 10 13.87 4.04 0
 -2 -7 11 62.95 6.93 0
 -2 -7 12 28.49 5.9 0
 -2 -7 13 44.05 7.07 0
 -2 -7 14 190.38 11.1 0
 -2 -7 15 50.3 7.62 0
 -2 -7 16 13.33 5.63 0
 -2 -7 17 55.59 8.34 0
 -2 -6 6 20.36 3.53 0
 -2 -6 7 677.5 15.01 0
 -2 -6 8 26.35 4.33 0
 -2 -6 11 340.25 12.78 0
 -2 -6 12 91.36 8.08 0
 -2 -6 13 7.49 4.75 0
 -2 -6 15 27.97 6.21 0
 -2 -6 16 1.33 4.96 0
 -2 -6 17 24.11 7.3 0
 -2 -6 18 31.11 7.4 0
 -2 -5 7 1470.66 20.99 0
 -2 -5 8 48.85 4.87 0
 -2 -5 9 512.95 13.67 0
 -2 -5 10 32.47 5.3 0
 -2 -5 11 50.38 6.03 0
 -2 -5 13 161.43 9.78 0
 -2 -5 14 104.28 9.13 0
 -2 -5 16 133.81 10.27 0
 -2 -5 17 -0.63 4.96 0
 -2 -5 18 23.54 6.6 0
 -2 -4 5 46.04 4.09 0
 -2 -4 8 34.1 4.26 0
 -2 -4 9 17.97 3.61 0
 -2 -4 10 94.1 6.96 0
 -2 -4 11 69.03 6.38 0
 -2 -4 12 335.23 12.68 0
 -2 -4 13 3.45 3.9 0
 -2 -4 16 15.64 5.48 0
 -2 -4 17 6.73 5.5 0
 -2 -4 18 102.36 9.88 0
 -2 -4 19 47.66 8.19 0
 -2 -3 3 163.18 5.57 0
 -2 -3 5 139.1 5.94 0
 -2 -3 8 213.3 8.2 0
 -2 -3 9 372.36 11.14 0
 -2 -3 10 470.44 13.08 0
 -2 -3 11 124.99 7.56 0
 -2 -3 12 33.31 5.3 0
 -2 -3 13 41.15 5.82 0
 -2 -3 14 253.13 11.89 0
 -2 -3 15 113.74 9.16 0
 -2 -3 16 113.76 9.35 0
 -2 -3 17 105.38 10.21 0
 -2 -3 18 189.26 12.94 0
 -2 -3 19 13.09 6.57 0
 -2 -2 3 125.6 5 0
 -2 -2 4 566.04 10.47 0
 -2 -2 5 721.2 12.4 0
 -2 -2 6 1452.36 18.2 0
 -2 -2 9 558.09 13.37 0
 -2 -2 10 244.19 9.63 0
 -2 -2 11 516.57 14.26 0
 -2 -2 13 89.01 7.29 0
 -2 -2 15 53.83 7.11 0
 -2 -2 16 180.95 11.49 0
 -2 -2 17 19.75 6.14 0
 -2 -2 18 12.66 5.87 0
 -2 -2 19 24.45 6.87 0
 -2 -1 3 1819.82 16.71 0
 -2 -1 6 1.21 2.07 0
 -2 -1 7 26.38 3.36 0
 -2 -1 9 38.9 4.22 0
 -2 -1 11 275.63 10.32 0
 -2 -1 12 16.04 4.37 0
 -2 -1 13 8.65 4.13 0
 -2 -1 14 54.36 6.52 0
 -2 -1 15 110.51 9.16 0
 -2 -1 16 210.29 11.57 0
 -2 -1 17 40.66 6.95 0
 -2 -1 18 124.86 10.24 0
 -2 -1 19 160.19 11.61 0
 -2 0 2 1636.4 14.06 0
 -2 0 3 596.98 9.31 0
 -2 0 4 2310.79 18.95 0
 -2 0 5 660.19 10.93 0
 -2 0 6 92.01 4.64 0
 -2 0 7 785.09 13.41 0
 -2 0 10 23.35 3.84 0
 -2 0 11 102.94 6.57 0
 -2 0 12 6.37 3.45 0
 -2 0 14 11.16 4.7 0
 -2 0 17 23.16 5.91 0
 -2 0 18 5.17 4.87 0
 -2 1 2 2103.12 14.85 0
 -2 1 3 1843.94 14.97 0
 -2 1 4 1022.56 12.17 0
 -2 1 5 75.74 3.92 0
 -2 1 6 2.62 1.92 0
 -2 1 7 24.11 3.39 0
 -2 1 10 458.65 11.86 0
 -2 1 11 265.94 10.02 0
 -2 1 12 18.68 4.03 0
 -2 1 13 10.43 3.96 0
 -2 1 14 45.08 5.85 0
 -2 1 15 119.15 9.32 0
 -2 1 17 48.27 7.86 0
 -2 1 18 128.93 10.73 0
 -2 1 19 129.56 10.67 0
 -2 2 2 213.13 4.68 0
 -2 2 3 124.68 3.91 0
 -2 2 4 540.89 8.44 0
 -2 2 6 1410.11 15.63 0
 -2 2 7 118.61 5.23 0
 -2 2 10 229.15 8.47 0
 -2 2 11 487.96 12.81 0
 -2 2 13 93.63 7.52 0
 -2 2 14 98.34 7.73 0
 -2 2 15 57.35 6.72 0
 -2 2 16 179.06 10.51 0
 -2 2 17 23.27 5.78 0
 -2 2 18 11.63 6.03 0
 -2 2 19 36.5 7.1 0
 -2 3 2 2547.48 13.68 0
 -2 3 3 164.32 4.07 0
 -2 3 5 147.91 4.76 0
 -2 3 6 2105.42 18.57 0
 -2 3 8 208.77 7.31 0
 -2 3 10 461.8 11.77 0
 -2 3 11 127.74 7.29 0
 -2 3 12 35.94 4.87 0
 -2 3 13 23.6 4.65 0
 -2 3 14 253.54 10.99 0
 -2 3 15 108.56 8.15 0
 -2 3 16 96.32 8.16 0
 -2 3 17 100.15 9.28 0
 -2 3 18 188.52 12.08 0
 -2 3 19 13.66 5.76 0
 -2 4 3 337.77 5.3 0
 -2 4 4 179.06 4.48 0
 -2 4 5 56.96 2.99 0
 -2 4 6 165.7 5.29 0
 -2 4 7 288.03 7.51 0
 -2 4 8 29.61 3.69 0
 -2 4 10 88.56 5.71 0
 -2 4 11 58.77 5.52 0
 -2 4 12 339.95 11.23 0
 -2 4 13 3.49 3.78 0
 -2 4 14 107.35 8.13 0
 -2 4 17 1.67 4.17 0
 -2 4 18 90.19 9 0
 -2 4 19 54.61 8.29 0
 -2 5 3 61.22 2.13 0
 -2 5 6 323.35 7.02 0
 -2 5 7 1517.26 16.35 0
 -2 5 8 50.36 4.01 0
 -2 5 10 31.86 3.96 0
 -2 5 11 44.82 4.57 0
 -2 5 12 46.07 5.72 0
 -2 5 13 164.83 8.63 0
 -2 5 14 98.96 7.28 0
 -2 5 15 62.98 6.63 0
 -2 5 16 143 9.81 0
 -2 5 17 5.48 4.99 0
 -2 5 18 13.92 5.22 0
 -2 5 19 44.1 7.88 0
 -2 6 3 209.76 2.8 0
 -2 6 4 149.93 3.52 0
 -2 6 5 690.55 8.58 0
 -2 6 6 20.57 2.51 0
 -2 6 8 28.54 3.42 0
 -2 6 10 25.3 3.53 0
 -2 6 11 348.14 10.49 0
 -2 6 12 91.77 6.55 0
 -2 6 13 6.06 3.6 0
 -2 6 14 80.31 7.05 0
 -2 6 15 31.97 5.54 0
 -2 6 16 7.94 4.81 0
 -2 6 17 23 5.62 0
 -2 7 4 381.92 4.39 0
 -2 7 5 172.06 4.06 0
 -2 7 7 130.49 4.74 0
 -2 7 8 3.59 1.88 0
 -2 7 10 15.66 3 0
 -2 7 11 62.82 4.88 0
 -2 7 13 40.53 5.01 0
 -2 7 14 193.51 9.28 0
 -2 7 15 51.6 6.4 0
 -2 7 16 9.8 4.39 0
 -2 7 17 53.27 7.3 0
 -2 8 5 264.1 4.13 0
 -2 8 6 25.52 2.03 0
 -2 8 7 26.17 2.5 0
 -2 8 8 81.97 4.19 0
 -2 8 10 71.46 4.87 0
 -2 8 11 23.37 3.81 0
 -2 8 12 40.19 4.99 0
 -2 8 13 95.25 6.74 0
 -2 8 14 44.18 5.72 0
 -2 8 15 58.88 6.47 0
 -1 -10 12 10.41 4.51 0
 -1 -10 13 50.14 6.76 0
 -1 -10 14 85.85 8.37 0
 -1 -10 15 36.52 6.09 0
 -1 -10 16 77.66 8.37 0
 -1 -9 9 138.66 7.62 0
 -1 -9 10 12.94 3.76 0
 -1 -9 11 97.83 7.33 0
 -1 -9 12 193.36 10.08 0
 -1 -9 13 71.74 7.35 0
 -1 -9 14 52.46 7.03 0
 -1 -9 15 12.21 4.93 0
 -1 -9 16 6.08 4.84 0
 -1 -9 17 13.57 5.26 0
 -1 -8 7 128.62 6.48 0
 -1 -8 8 42.66 4.92 0
 -1 -8 9 31.92 4.47 0
 -1 -8 10 144.24 7.88 0
 -1 -8 11 164.87 9.21 0
 -1 -8 12 55.46 6.86 0
 -1 -8 13 70.8 7.62 0
 -1 -8 14 110.4 8.53 0
 -1 -8 15 155.92 10.11 0
 -1 -8 16 41.68 6.88 0
 -1 -7 8 45.2 4.6 0
 -1 -7 9 109.08 6.87 0
 -1 -7 10 370.38 12.09 0
 -1 -7 11 109.78 7.38 0
 -1 -7 12 213.8 10.49 0
 -1 -7 14 251.46 12.24 0
 -1 -7 15 28.74 6.17 0
 -1 -7 16 106.34 9.85 0
 -1 -7 17 12.53 5.45 0
 -1 -7 18 90.61 10.11 0
 -1 -6 4 147.32 5.61 0
 -1 -6 5 380.5 9.13 0
 -1 -6 8 7.17 2.79 0
 -1 -6 9 371.01 11.13 0
 -1 -6 10 90.15 6.32 0
 -1 -6 11 34.75 5 0
 -1 -6 12 29.26 5.13 0
 -1 -6 13 171.07 9.41 0
 -1 -6 15 33.59 6.23 0
 -1 -6 16 56.78 8.07 0
 -1 -6 17 11.78 5.31 0
 -1 -6 18 40.66 7.69 0
 -1 -5 4 730.52 11.53 0
 -1 -5 6 480.35 10.45 0
 -1 -5 9 487.56 12.47 0
 -1 -5 10 21.98 3.79 0
 -1 -5 11 26.73 4.49 0
 -1 -5 12 333.61 11.99 0
 -1 -5 13 90.01 7.63 0
 -1 -5 14 43.77 6.1 0
 -1 -5 15 43.06 6.43 0
 -1 -5 16 93.58 9 0
 -1 -5 17 1.36 5.1 0
 -1 -5 19 14.15 6.53 0
 -1 -4 3 105.11 4.27 0
 -1 -4 4 1382.97 14.98 0
 -1 -4 5 1662.36 17.41 0
 -1 -4 6 215.77 6.87 0
 -1 -4 7 7.8 2.47 0
 -1 -4 9 257.8 8.92 0
 -1 -4 10 34.51 4.46 0
 -1 -4 11 165.29 8.22 0
 -1 -4 12 189.32 9.49 0
 -1 -4 13 193.26 9.95 0
 -1 -4 14 7.12 4.07 0
 -1 -4 15 22.49 5.76 0
 -1 -4 16 17.61 5.34 0
 -1 -4 17 80.4 8.41 0
 -1 -4 18 33.62 7.08 0
 -1 -4 19 33.33 7.61 0
 -1 -3 3 1100.44 12.02 0
 -1 -3 4 732.91 10.58 0
 -1 -3 5 400.2 8.39 0
 -1 -3 6 321.46 7.97 0
 -1 -3 7 520.37 10.84 0
 -1 -3 10 114.75 6.39 0
 -1 -3 11 47.41 5.31 0
 -1 -3 12 81.16 6.76 0
 -1 -3 14 57.12 7.08 0
 -1 -3 15 219.25 11.02 0
 -1 -3 16 13.24 5.1 0
 -1 -3 17 50.44 7.42 0
 -1 -3 18 26.92 6.45 0
 -1 -3 19 115.58 11.13 0
 -1 -2 2 375 6.5 0
 -1 -2 3 1712.71 14.21 0
 -1 -2 4 1035.09 11.92 0
 -1 -2 5 1437.29 15.07 0
 -1 -2 7 1432.97 17.03 0
 -1 -2 10 614.02 13.71 0
 -1 -2 11 235.89 9.35 0
 -1 -2 12 170.48 8.38 0
 -1 -2 13 159.49 8.81 0
 -1 -2 14 109.12 7.58 0
 -1 -2 15 58.32 6.46 0
 -1 -2 16 78.04 7.69 0
 -1 -2 17 76.72 8.14 0
 -1 -2 18 28.52 7.16 0
 -1 -2 20 95.13 11.2 0
 -1 -1 1 1062.64 8.81 0
 -1 -1 2 9871.47 28.74 0
 -1 -1 3 4200.01 20.49 0
 -1 -1 5 972.57 11.88 0
 -1 -1 6 886.36 12.32 0
 -1 -1 7 151.69 5.75 0
 -1 -1 8 50.85 4.05 0
 -1 -1 10 133.46 6.75 0
 -1 -1 11 610.55 14.12 0
 -1 -1 12 102.5 6.79 0
 -1 -1 13 173.24 8.96 0
 -1 -1 14 127.67 8.18 0
 -1 -1 15 25.18 5.27 0
 -1 -1 16 71.34 8.44 0
 -1 -1 17 52.02 7.24 0
 -1 -1 19 31.97 7.14 0
 -1 -1 20 26.24 7.14 0
 -1 0 1 883.17 7.38 0
 -1 0 2 395.84 5.61 0
 -1 0 3 1456.03 11.31 0
 -1 0 4 89.73 3.35 0
 -1 0 5 910.4 11.2 0
 -1 0 6 6.16 1.82 0
 -1 0 8 258.36 7.74 0
 -1 0 10 138.59 6.66 0
 -1 0 11 23.32 3.71 0
 -1 0 12 218.18 9.5 0
 -1 0 13 0.16 3.11 0
 -1 0 16 456.55 15.8 0
 -1 0 17 265.4 13.42 0
 -1 0 18 21.54 5.89 0
 -1 0 19 -1 4.83 0
 -1 0 20 -4.1 5.64 0
 -1 1 1 1019.97 6.62 0
 -1 1 2 9707.75 23.74 0
 -1 1 3 4106.21 17.95 0
 -1 1 4 144.88 4.15 0
 -1 1 5 954.21 11.03 0
 -1 1 6 871.9 11.68 0
 -1 1 7 153.32 5.53 0
 -1 1 10 130.05 6.33 0
 -1 1 11 584.92 13.6 0
 -1 1 12 93.73 6.4 0
 -1 1 13 183.6 9.06 0
 -1 1 14 110.24 8.13 0
 -1 1 15 22.54 4.95 0
 -1 1 16 61.66 7.6 0
 -1 1 17 44.23 6.75 0
 -1 1 19 20.05 6.09 0
 -1 2 1 1420.59 6.59 0
 -1 2 3 1671.46 11.03 0
 -1 2 4 1024.86 9.95 0
 -1 2 5 1441.21 13.21 0
 -1 2 6 626.89 9.89 0
 -1 2 7 1447.03 16.16 0
 -1 2 8 679.83 11.96 0
 -1 2 11 227.68 8.83 0
 -1 2 12 176.74 8.26 0
 -1 2 13 161.27 8.53 0
 -1 2 15 61.24 6.5 0
 -1 2 16 70.45 8.03 0
 -1 2 17 71.07 8.8 0
 -1 2 18 28.4 6.17 0
 -1 2 19 7.42 5.11 0
 -1 3 2 337.84 3.92 0
 -1 3 3 1081.89 8.64 0
 -1 3 10 110.95 6.18 0
 -1 3 11 51.38 5.19 0
 -1 3 12 89.19 6.16 0
 -1 3 13 11.62 4.33 0
 -1 3 14 54.45 6.1 0
 -1 3 15 207.97 10.75 0
 -1 3 16 13.93 5.14 0
 -1 3 17 41.64 6.73 0
 -1 3 18 17.87 5.67 0
 -1 3 19 106.94 9.88 0
 -1 3 20 18.15 6.23 0
 -1 4 2 1902.46 8.77 0
 -1 4 10 46.39 4.57 0
 -1 4 11 165.56 7.75 0
 -1 4 12 190.07 8.53 0
 -1 4 13 176 9.11 0
 -1 4 14 6.85 3.65 0
 -1 4 15 23.59 4.99 0
 -1 4 17 89.74 9.05 0
 -1 4 18 25.05 6.36 0
 -1 4 19 29.52 6.68 0
 -1 5 11 24.31 4.25 0
 -1 5 13 91.15 6.94 0
 -1 5 14 49.74 6.53 0
 -1 5 15 43.76 6.16 0
 -1 5 17 10.64 4.8 0
 -1 5 18 189.3 11.4 0
 -1 5 19 16.27 5.78 0
 -1 6 11 36.88 4.57 0
 -1 6 12 29.14 4.49 0
 -1 6 13 168.58 8.83 0
 -1 6 14 90.19 7.48 0
 -1 6 15 30.09 5.36 0
 -1 6 16 67 7.03 0
 -1 6 17 10.23 4.84 0
 -1 6 18 33.17 6.44 0
 -1 6 19 8.8 5.24 0
 -1 7 2 810.34 5.52 0
 -1 7 11 126.83 7.02 0
 -1 7 12 208.24 8.76 0
 -1 7 13 50.61 5.61 0
 -1 7 14 266.82 11.22 0
 -1 7 15 25.83 5.64 0
 -1 7 16 115.53 9 0
 -1 7 17 21.76 5.68 0
 -1 7 18 73.63 8.91 0
 -1 8 12 59.16 5.18 0
 -1 8 15 175.92 9.82 0
 -1 8 17 53.25 7.51 0
 -1 8 18 9.1 5.22 0
 -1 9 3 367.5 3.79 0
 -1 9 10 12.1 3.15 0
 -1 9 11 101.61 6.04 0
 -1 9 12 203.87 8.69 0
 -1 9 13 84.56 6.5 0
 -1 9 14 57.81 5.91 0
 -1 9 15 7.13 3.85 0
 0 -9 8 4.78 2.21 0
 0 -9 9 -2.11 1.68 0
 0 -9 10 0.36 2.75 0
 0 -9 11 50.13 5.29 0
 0 -9 12 62.67 6.24 0
 0 -9 13 470.48 14.41 0
 0 -9 14 8.21 3.83 0
 0 -9 15 25.42 5.36 0
 0 -9 16 24.23 5.56 0
 0 -9 17 114.55 9.26 0
 0 -8 9 53.63 4.94 0
 0 -8 10 3.33 3.08 0
 0 -8 11 389.31 11.91 0
 0 -8 12 162.15 8.48 0
 0 -8 13 146.75 9.03 0
 0 -8 14 0.16 3.29 0
 0 -8 15 7.96 4.36 0
 0 -8 16 36.21 6.96 0
 0 -8 17 8.28 4.56 0
 0 -8 18 121.26 10.09 0
 0 -7 5 0.95 1.58 0
 0 -7 6 16.2 2.55 0
 0 -7 7 37.66 3.62 0
 0 -7 9 191.54 7.83 0
 0 -7 10 7.08 2.88 0
 0 -7 11 27.21 4.39 0
 0 -7 12 5.31 3.39 0
 0 -7 14 3.85 3.84 0
 0 -7 15 44 6.38 0
 0 -7 16 24.7 6.17 0
 0 -7 17 7.24 4.95 0
 0 -7 18 1.67 4.3 0
 0 -6 4 1983.98 16.5 0
 0 -6 5 13.06 2.17 0
 0 -6 6 177.53 6.1 0
 0 -6 7 414.82 9.49 0
 0 -6 10 60.38 5.53 0
 0 -6 11 248.93 9.74 0
 0 -6 12 521.07 14.31 0
 0 -6 13 10.44 4.53 0
 0 -6 14 -2.12 3.12 0
 0 -6 15 5.04 4.15 0
 0 -6 17 11.75 5.03 0
 0 -6 18 0.17 4.16 0
 0 -6 19 12.55 5.97 0
 0 -5 3 1059.3 10.69 0
 0 -5 4 1198.56 12.42 0
 0 -5 5 659.6 10.07 0
 0 -5 6 169.36 5.62 0
 0 -5 7 581.09 10.88 0
 0 -5 10 132.14 6.82 0
 0 -5 13 23.34 5.02 0
 0 -5 14 7.64 4.06 0
 0 -5 15 10.15 4.26 0
 0 -5 16 4.07 4.11 0
 0 -5 17 61.8 7.63 0
 0 -5 18 2.42 4.55 0
 0 -5 19 -3.6 4.9 0
 0 -4 2 11.66 1.43 0
 0 -4 3 1575.15 12.28 0
 0 -4 4 456.33 7.45 0
 0 -4 5 2485.06 18.44 0
 0 -4 6 199.03 5.89 0
 0 -4 7 52.68 3.81 0
 0 -4 8 106.57 5.5 0
 0 -4 11 67.08 5.35 0
 0 -4 12 113.46 7.25 0
 0 -4 13 0.33 3.04 0
 0 -4 14 4.92 3.54 0
 0 -4 15 28.95 5.45 0
 0 -4 16 230.71 11.62 0
 0 -4 17 231.46 12.49 0
 0 -4 18 157.98 11.4 0
 0 -4 19 15.69 5.8 0
 0 -3 2 6751.97 20.84 0
 0 -3 3 4643.93 19.58 0
 0 -3 4 503.93 7.42 0
 0 -3 5 482.14 8.04 0
 0 -3 6 70.91 3.91 0
 0 -3 7 25.01 3.17 0
 0 -3 8 457 10.03 0
 0 -3 10 497.86 11.99 0
 0 -3 11 243.71 9.08 0
 0 -3 12 7.53 3.32 0
 0 -3 13 70.36 6.37 0
 0 -3 14 13.01 4.17 0
 0 -3 16 33.67 6.42 0
 0 -3 17 0.63 4.17 0
 0 -3 18 11.44 5.64 0
 0 -3 19 19.62 6.06 0
 0 -3 20 29.29 7.06 0
 0 -2 2 1.13 0.97 0
 0 -2 3 2669.44 14.12 0
 0 -2 4 4433.11 20.75 0
 0 -2 5 21.62 2.33 0
 0 -2 6 0.95 1.54 0
 0 -2 7 1609.9 17 0
 0 -2 8 475.42 10.01 0
 0 -2 10 195.85 7.76 0
 0 -2 11 35.83 4.76 0
 0 -2 12 86.63 6.55 0
 0 -2 13 315.37 11.32 0
 0 -2 15 101.95 8.18 0
 0 -2 16 5.3 4.35 0
 0 -2 17 13.45 5.05 0
 0 -2 18 1.42 5.47 0
 0 -2 19 -2.06 4.65 0
 0 -2 20 19.37 6.42 0
 0 -1 2 8.57 1.28 0
 0 -1 11 296.69 9.91 0
 0 -1 12 414.72 12.08 0
 0 -1 13 24.12 4.63 0
 0 -1 14 593.85 16.12 0
 0 -1 15 6.42 3.98 0
 0 -1 16 75.47 8.05 0
 0 -1 19 34.97 6.91 0
 0 -1 20 -0.01 5.26 0
 0 0 13 1.54 2.7 0
 0 0 14 -0.29 2.66 0
 0 0 15 2.26 3.24 0
 0 0 16 14.94 4.52 0
 0 0 18 8.21 4.77 0
 0 0 19 0.72 4.58 0
 0 0 20 177.47 12.46 0
 0 1 -1 41.39 1.18 0
 0 1 14 585.69 16.1 0
 0 1 15 10.92 4.11 0
 0 1 16 74.96 7.75 0
 0 1 18 31.07 6.44 0
 0 1 19 42.62 7.43 0
 0 1 20 6.63 5.57 0
 0 2 -2 0.71 0.93 0
 0 2 -1 402.82 3.92 0
 0 2 15 99.74 7.67 0
 0 2 16 2 3.87 0
 0 2 18 6.29 4.95 0
 0 2 19 0.35 5.49 0
 0 2 20 21.61 6.88 0
 0 3 -1 281.14 3.81 0
 0 3 16 26.33 6.05 0
 0 3 17 3.11 4.22 0
 0 3 18 5.53 4.8 0
 0 3 19 17.91 6.27 0
 0 3 20 17.44 6.98 0
 0 4 16 246.7 12.39 0
 0 4 17 251.61 12.5 0
 0 4 18 148.53 10.92 0
 0 4 19 24.45 7.22 0
 0 5 16 2.53 4.06 0
 0 5 17 64.23 8.21 0
 0 5 18 1.52 4.66 0
 0 5 19 3.49 5.04 0
 0 6 17 18.88 5.44 0
 0 6 18 7.8 5.78 0
 0 6 19 14.11 5.57 0
 0 7 16 19.49 5.23 0
 0 7 17 5.64 4.73 0
 0 7 18 -4.62 3.91 0
 0 8 16 38.84 6.87 0
 0 8 17 11.66 4.91 0
 0 9 16 15.32 5.18 0
 0 10 15 7.99 4.07 0
 1 -8 5 116.65 3.74 0
 1 -8 10 138.32 6.47 0
 1 -8 11 160.27 7.45 0
 1 -8 13 63.41 6.03 0
 1 -8 14 126.28 8.21 0
 1 -8 15 183.54 9.66 0
 1 -8 16 44.91 6.76 0
 1 -8 17 46.1 6.86 0
 1 -8 18 5.37 4.34 0
 1 -7 4 122.52 3.51 0
 1 -7 7 152.18 5.48 0
 1 -7 8 42.55 3.56 0
 1 -7 10 372.63 10.16 0
 1 -7 11 111.49 6.56 0
 1 -7 12 199.15 8.7 0
 1 -7 13 37.1 5.23 0
 1 -7 14 270.09 11.27 0
 1 -7 16 112.23 8.66 0
 1 -7 17 17.27 5.19 0
 1 -7 18 78.37 8.54 0
 1 -6 3 35.33 1.72 0
 1 -6 6 331.7 7.09 0
 1 -6 7 648.88 10.68 0
 1 -6 8 6.62 2.15 0
 1 -6 10 89.49 5.68 0
 1 -6 12 36.26 4.78 0
 1 -6 13 169.17 8.75 0
 1 -6 14 87.99 6.94 0
 1 -6 15 31.73 5.37 0
 1 -6 16 59.01 7.09 0
 1 -6 17 10.27 4.97 0
 1 -6 18 30.31 6.17 0
 1 -6 19 5.34 5.27 0
 1 -5 2 505.3 4.39 0
 1 -5 3 309.07 4.58 0
 1 -5 5 470.38 7.46 0
 1 -5 6 496.15 8.53 0
 1 -5 7 571.54 10.11 0
 1 -5 10 28.45 4.1 0
 1 -5 11 24.45 3.85 0
 1 -5 12 311.58 10.59 0
 1 -5 13 98.06 6.98 0
 1 -5 15 46.1 6.07 0
 1 -5 16 81.73 8.13 0
 1 -5 17 3.46 4.28 0
 1 -5 18 189.25 11.85 0
 1 -4 4 1382.21 11.18 0
 1 -4 5 1662.74 13.87 0
 1 -4 6 205.67 5.63 0
 1 -4 7 7.91 2.04 0
 1 -4 8 442.48 9.71 0
 1 -4 10 39.49 4.03 0
 1 -4 11 155.35 7.44 0
 1 -4 12 180.18 8.58 0
 1 -4 13 186.87 8.86 0
 1 -4 14 6.13 3.74 0
 1 -4 15 15.76 4.6 0
 1 -4 16 8.91 4.74 0
 1 -4 17 88.9 8.25 0
 1 -4 18 27.12 6.19 0
 1 -4 19 27.2 7.15 0
 1 -3 11 51.17 4.78 0
 1 -3 12 83.12 6.51 0
 1 -3 13 10.74 3.67 0
 1 -3 14 59.99 5.89 0
 1 -3 15 216.7 10.73 0
 1 -3 16 12.99 5.4 0
 1 -3 17 40.26 7.12 0
 1 -3 18 15.54 6.07 0
 1 -3 20 21.07 7.08 0
 1 -2 -1 1499.11 6.64 0
 1 -2 14 110.51 7.67 0
 1 -2 15 69.66 6.83 0
 1 -2 16 68.86 7.32 0
 1 -2 17 64.86 8.07 0
 1 -2 18 28.13 6.66 0
 1 -2 19 9.52 5.96 0
 1 -1 -1 1095.8 6.89 0
 1 -1 15 32.77 5.53 0
 1 -1 16 68.59 7.48 0
 1 -1 17 51.24 7.72 0
 1 -1 18 84.01 9.68 0
 1 -1 19 19.34 6.05 0
 1 -1 20 24.86 6.92 0
 1 0 19 3.97 5.95 0
 1 0 20 -5.68 4.71 0
 1 1 18 78.8 8.57 0
 1 1 19 26.55 6.89 0
 1 1 20 29.95 7.09 0
 1 2 18 27.06 7.38 0
 1 2 19 18.28 6.27 0
 1 2 20 87.81 10.72 0
 1 3 19 105.94 9.65 0
 1 4 19 39.05 7.41 0
 1 5 19 10.67 5.99 0
 2 -7 4 375.68 3.74 0
 2 -7 5 169.47 3.86 0
 2 -7 6 344.75 6.4 0
 2 -7 8 4.38 1.83 0
 2 -7 10 16.94 3.05 0
 2 -7 11 64.2 4.97 0
 2 -7 12 27.88 3.95 0
 2 -7 13 49.71 5.36 0
 2 -7 14 169.5 8.72 0
 2 -7 15 51.9 6.41 0
 2 -7 16 14.98 4.73 0
 2 -7 17 40.33 5.99 0
 2 -7 18 9.34 4.68 0
 2 -6 4 144.72 3.2 0
 2 -6 5 674.82 8.12 0
 2 -6 7 690.11 10.59 0
 2 -6 8 33.01 3.23 0
 2 -6 10 32.58 3.77 0
 2 -6 11 333.64 10.1 0
 2 -6 12 97.87 6.41 0
 2 -6 13 7.19 3.21 0
 2 -6 14 73.67 6.47 0
 2 -6 15 28.69 5.88 0
 2 -6 16 4.35 3.76 0
 2 -6 17 25.9 6.12 0
 2 -6 18 42.44 6.75 0
 2 -5 3 60.99 1.93 0
 2 -5 11 47.92 4.48 0
 2 -5 12 48.82 5.17 0
 2 -5 13 167.06 8.38 0
 2 -5 14 113.55 8 0
 2 -5 15 49.88 6.54 0
 2 -5 16 134.83 8.98 0
 2 -5 17 11.16 4.81 0
 2 -5 18 17.49 5.24 0
 2 -5 19 39.51 6.72 0
 2 -4 1 113.18 2.03 0
 2 -4 13 1.23 3.31 0
 2 -4 14 111.18 8.04 0
 2 -4 17 1.42 4.15 0
 2 -4 18 101.76 9.31 0
 2 -4 19 53.38 7.99 0
 2 -3 0 18.19 1.27 0
 2 -3 15 110.3 8.81 0
 2 -3 16 95.78 8.3 0
 2 -3 17 106.93 8.69 0
 2 -3 18 185.61 11.61 0
 2 -3 19 7.63 5.81 0
 2 -2 18 19.35 5.76 0
 2 -2 19 35.01 7.55 0
 2 -1 18 117.31 10.04 0
 2 0 19 24.29 6.89 0
 3 -6 3 320.72 3.45 0
 3 -6 3 323.38 3.64 0
 3 -6 10 38.16 3.84 0
 3 -6 11 56.27 4.83 0
 3 -6 12 15.08 3.31 0
 3 -6 13 98.91 6.81 0
 3 -6 14 24.06 4.61 0
 3 -6 15 53.56 6.28 0
 3 -6 16 47.64 6.19 0
 3 -6 17 8.87 4.34 0
 3 -6 18 92.96 8.5 0
 3 -5 0 4.77 0.7 0
 3 -5 1 471.57 4.86 0
 3 -5 13 2.63 3.18 0
 3 -5 14 33.64 5.63 0
 3 -5 15 37.3 6.1 0
 3 -5 16 6.11 4.37 0
 3 -5 17 20.08 5.41 0
 3 -4 16 99.23 8.03 0
 3 -4 17 64.18 8.19 0
 3 -4 18 -2.97 3.68 0
 3 -3 17 25.99 6.37 0
 3 -3 18 56.84 7.62 0
 3 -2 19 100.34 10.16 0
 4 -5 15 85.35 7.33 0
 4 -5 16 8.54 4.53 0
 4 -5 17 51.21 7.06 0
 4 -4 17 9.71 4.88 0
 -6 -9 -8 7.09 4.36 0
 -6 -8 -9 11.03 4.84 0
 -5 -12 -4 0.37 5.02 0
 -5 -12 -3 30.13 6.54 0
 -5 -11 -7 20.62 5.83 0
 -5 -11 -6 4.97 5.31 0
 -5 -11 -5 43.74 7.03 0
 -5 -11 -4 52.44 7.32 0
 -5 -11 -3 2.96 4.99 0
 -5 -10 -10 15.64 5.59 0
 -5 -10 -9 0.6 4.12 0
 -5 -10 -8 25.03 5.77 0
 -5 -10 -7 131.73 9.71 0
 -5 -10 -6 111.46 8.65 0
 -5 -10 -5 28.59 6.19 0
 -5 -10 -4 21.73 5.21 0
 -5 -10 -3 107.28 8.51 0
 -5 -9 -12 46.52 6.5 0
 -5 -9 -11 43.82 6.44 0
 -5 -9 -10 28 5.49 0
 -5 -9 -9 26.84 5.33 0
 -5 -9 -8 49.84 6.34 0
 -5 -9 -7 57.42 7.16 0
 -5 -9 -6 64.87 7.89 0
 -5 -9 -5 127.08 8.78 0
 -5 -9 -4 12.43 4.2 0
 -5 -9 -3 129.82 8.54 0
 -5 -8 -12 -1.47 3.11 0
 -5 -8 -11 108.3 8.12 0
 -5 -8 -10 11.26 4.13 0
 -5 -8 -9 28.56 5.52 0
 -5 -8 -8 104.67 8.04 0
 -5 -8 -7 51.96 6.39 0
 -5 -8 -6 79.1 7.54 0
 -5 -8 -5 4.15 3.94 0
 -5 -8 -3 20.96 4.81 0
 -5 -7 -12 81.62 6.78 0
 -5 -7 -11 1.69 3.4 0
 -5 -7 -10 19.57 4.47 0
 -5 -7 -8 72.8 6.37 0
 -5 -7 -7 150.45 8.81 0
 -5 -7 -6 156.04 8.57 0
 -5 -7 -5 158.3 8.6 0
 -5 -7 -4 96.22 6.91 0
 -5 -6 -12 238.56 9.99 0
 -5 -6 -11 8.23 3.39 0
 -5 -6 -10 168.88 8.59 0
 -5 -6 -9 25.16 4.4 0
 -5 -6 -8 70.4 5.97 0
 -5 -6 -7 14.25 4.24 0
 -5 -6 -6 14.42 3.77 0
 -5 -6 -5 3.14 3.1 0
 -5 -6 -4 5.38 3.08 0
 -5 -5 -11 26.5 4.37 0
 -5 -5 -10 85.42 6.22 0
 -5 -5 -9 25.44 4.14 0
 -5 -5 -8 14.35 3.93 0
 -5 -5 -7 68.6 5.43 0
 -5 -5 -6 147 7.32 0
 -5 -5 -5 3.6 2.81 0
 -5 -4 -10 42.22 4.61 0
 -5 -4 -9 221.15 8.34 0
 -5 -4 -8 18.75 3.31 0
 -5 -4 -7 30.98 4.14 0
 -5 -4 -6 75.7 5.59 0
 -5 -3 -8 98.59 5.46 0
 -4 -13 -5 48.69 7.28 0
 -4 -13 -4 13.04 5.54 0
 -4 -13 -3 72.19 8.83 0
 -4 -13 -2 16.12 5.59 0
 -4 -13 -1 34.55 7.04 0
 -4 -13 0 5.24 4.61 0
 -4 -12 -8 5.29 4.67 0
 -4 -12 -7 130.82 9.93 0
 -4 -12 -5 38.85 6.49 0
 -4 -12 -3 93.64 8.31 0
 -4 -12 -2 25.59 5.46 0
 -4 -12 -1 112.53 9.21 0
 -4 -12 0 343.38 14.3 0
 -4 -11 -11 67.74 8.22 0
 -4 -11 -10 10.03 5.32 0
 -4 -11 -8 74.85 8.61 0
 -4 -11 -7 98.42 8.76 0
 -4 -11 -6 67.82 7.83 0
 -4 -11 -4 85.93 8.36 0
 -4 -11 -3 33.25 5.79 0
 -4 -11 -1 65.69 7.74 0
 -4 -11 0 5.61 4.33 0
 -4 -10 -12 12.62 4.63 0
 -4 -10 -11 38.28 6.95 0
 -4 -10 -10 9.45 4.55 0
 -4 -10 -9 11.75 4.53 0
 -4 -10 -8 34.53 5.74 0
 -4 -10 -5 5.05 3.86 0
 -4 -10 -4 98.88 8.06 0
 -4 -10 -3 29.68 5.41 0
 -4 -10 -2 144.59 9.32 0
 -4 -10 -1 36.16 5.56 0
 -4 -10 0 137.75 9.23 0
 -4 -9 -14 36.33 6.42 0
 -4 -9 -13 24.2 5.39 0
 -4 -9 -12 45.66 6.56 0
 -4 -9 -11 71.76 7.31 0
 -4 -9 -10 10.6 4.37 0
 -4 -9 -9 166.24 9.5 0
 -4 -9 -8 22.94 5.01 0
 -4 -9 -7 43.79 6.38 0
 -4 -9 -6 5.27 3.56 0
 -4 -9 -5 129.13 8.25 0
 -4 -9 -4 108.06 7.75 0
 -4 -9 -3 225.78 10.83 0
 -4 -9 -2 16.65 4.31 0
 -4 -9 -1 30.53 5.48 0
 -4 -9 0 25.23 4.98 0
 -4 -8 -15 65.07 6.82 0
 -4 -8 -14 46.73 6.59 0
 -4 -8 -13 70.6 7.19 0
 -4 -8 -12 28.26 5.48 0
 -4 -8 -11 14.8 4.37 0
 -4 -8 -10 143.51 8.52 0
 -4 -8 -9 105.46 7.49 0
 -4 -8 -8 77.36 7.01 0
 -4 -8 -7 232.56 10.21 0
 -4 -8 -6 163.25 9.04 0
 -4 -8 -5 345.78 12.33 0
 -4 -8 -4 100.12 6.99 0
 -4 -8 -3 22.82 4.5 0
 -4 -8 -1 90.94 7.08 0
 -4 -8 0 3.47 3.28 0
 -4 -7 -14 5.55 3.91 0
 -4 -7 -13 29.15 5.37 0
 -4 -7 -12 8.22 3.52 0
 -4 -7 -11 20.1 4.88 0
 -4 -7 -10 80.07 6.95 0
 -4 -7 -9 39.2 5.46 0
 -4 -7 -8 61.54 5.78 0
 -4 -7 -7 92 6.95 0
 -4 -7 -6 139.64 7.99 0
 -4 -7 -5 -2.53 3.13 0
 -4 -7 -4 140.85 7.64 0
 -4 -7 -3 140.07 8.03 0
 -4 -7 -2 61.82 5.86 0
 -4 -7 0 242.47 9.87 0
 -4 -6 -14 14.26 4.05 0
 -4 -6 -13 7.48 3.64 0
 -4 -6 -12 98.65 7 0
 -4 -6 -11 29.41 4.84 0
 -4 -6 -9 51.74 5.58 0
 -4 -6 -8 79.39 5.93 0
 -4 -6 -7 1.77 2.8 0
 -4 -6 -6 84.21 6.17 0
 -4 -6 -4 441.35 12.22 0
 -4 -6 -3 210.78 8.82 0
 -4 -6 -2 41.89 4.93 0
 -4 -6 -1 188.81 8.34 0
 -4 -5 -14 30.93 4.65 0
 -4 -5 -13 29.03 4.65 0
 -4 -5 -11 2.76 3.27 0
 -4 -5 -10 51.06 5.03 0
 -4 -5 -9 37.77 4.61 0
 -4 -5 -7 57.62 5.21 0
 -4 -5 -6 67.82 5.34 0
 -4 -5 -5 366.12 10.48 0
 -4 -5 -4 488.47 12 0
 -4 -5 -3 271.72 9.07 0
 -4 -5 -2 136.28 6.72 0
 -4 -5 -1 279.58 9.47 0
 -4 -4 -13 140.29 6.94 0
 -4 -4 -12 214.52 8.17 0
 -4 -4 -11 111.76 6.15 0
 -4 -4 -10 424.91 10.91 0
 -4 -4 -9 94.61 5.4 0
 -4 -4 -7 243.35 8.02 0
 -4 -4 -6 6.18 2.88 0
 -4 -4 -5 105.87 5.69 0
 -4 -3 -12 41.26 4.03 0
 -4 -3 -11 26.97 3.54 0
 -4 -3 -10 3.51 2.48 0
 -4 -2 -9 45.96 3.47 0
 -4 -2 -8 25.67 2.86 0
 -4 -2 -6 126.95 5.25 0
 -4 -2 -5 303.18 7.55 0
 -4 -2 -4 146.96 5.6 0
 -4 -1 -10 23.15 2.46 0
 -4 -1 -9 74.85 3.62 0
 -4 -1 -8 176.94 5.26 0
 -4 -1 -7 46.44 3.02 0
 -4 -1 -6 167.94 5.23 0
 -3 -14 -5 12.58 5.32 0
 -3 -14 -4 -0.01 4.78 0
 -3 -14 -3 28.77 6.9 0
 -3 -14 -2 2.96 4.32 0
 -3 -14 -1 0.49 4.24 0
 -3 -14 0 104.85 9.4 0
 -3 -13 -8 7.63 4.99 0
 -3 -13 -7 115.27 9.74 0
 -3 -13 -6 20.35 5.54 0
 -3 -13 -5 91.08 8.84 0
 -3 -13 -4 2.15 5.28 0
 -3 -13 -3 163.15 10.89 0
 -3 -13 -2 30.35 6.02 0
 -3 -13 -1 30.84 6.21 0
 -3 -13 0 14.95 5 0
 -3 -13 2 29.83 6.15 0
 -3 -12 -11 63.81 8.57 0
 -3 -12 -9 3.97 4.44 0
 -3 -12 -8 27.92 5.76 0
 -3 -12 -7 186.01 11.19 0
 -3 -12 -6 120.26 8.82 0
 -3 -12 -5 241.86 12.11 0
 -3 -12 -4 67.72 7.76 0
 -3 -12 -3 23.52 5.21 0
 -3 -12 -2 47.25 6.52 0
 -3 -12 0 4.55 4.39 0
 -3 -12 1 38.22 6.57 0
 -3 -11 -12 14.34 4.93 0
 -3 -11 -11 6.39 4.84 0
 -3 -11 -10 52.75 7.11 0
 -3 -11 -9 100.67 8.35 0
 -3 -11 -8 6.37 4.07 0
 -3 -11 -7 13.58 4.94 0
 -3 -11 -6 57.93 6.91 0
 -3 -11 -5 81.97 7.25 0
 -3 -11 -4 29.7 5.3 0
 -3 -11 -3 152.4 9.16 0
 -3 -11 -1 15.45 4.9 0
 -3 -11 0 262.95 11.62 0
 -3 -11 1 21.4 5.05 0
 -3 -10 -12 7.41 4.63 0
 -3 -10 -11 24.53 5.66 0
 -3 -10 -10 42.89 6.28 0
 -3 -10 -9 120.18 8.58 0
 -3 -10 -8 110.32 8.24 0
 -3 -10 -7 18.1 5.11 0
 -3 -10 -6 49.91 6.37 0
 -3 -10 -5 349.65 12.88 0
 -3 -10 -4 106.23 7.71 0
 -3 -10 -3 381.18 12.98 0
 -3 -10 0 42.82 5.89 0
 -3 -10 1 59.56 6.3 0
 -3 -10 2 219.12 9.87 0
 -3 -9 -15 14.91 5.11 0
 -3 -9 -14 6 4.61 0
 -3 -9 -13 11.52 5.24 0
 -3 -9 -11 39.96 6.36 0
 -3 -9 -9 60.28 6.64 0
 -3 -9 -8 176.09 9.78 0
 -3 -9 -7 119.12 7.85 0
 -3 -9 -6 70.26 6.47 0
 -3 -9 -5 23.96 4.47 0
 -3 -9 -4 309.22 11.29 0
 -3 -9 -3 130.45 7.72 0
 -3 -9 -2 153.3 8.42 0
 -3 -9 -1 108.79 7.44 0
 -3 -9 0 91.53 6.42 0
 -3 -9 1 110.32 7.44 0
 -3 -9 2 153.94 8.01 0
 -3 -8 -16 2.11 3.95 0
 -3 -8 -15 31.52 5.59 0
 -3 -8 -14 7.86 4.16 0
 -3 -8 -12 418.84 14 0
 -3 -8 -11 11.68 4.61 0
 -3 -8 -10 42.75 6.14 0
 -3 -8 -9 34.12 5.64 0
 -3 -8 -8 61.79 5.87 0
 -3 -8 -7 62.8 6.24 0
 -3 -8 -6 222.57 9.93 0
 -3 -8 -5 124.73 7.46 0
 -3 -8 -3 63.95 5.35 0
 -3 -8 -2 146.11 7.45 0
 -3 -8 -1 34.83 4.51 0
 -3 -8 0 20.56 3.87 0
 -3 -8 1 35.16 4.9 0
 -3 -8 2 138.74 7.31 0
 -3 -7 -17 74.47 7.28 0
 -3 -7 -16 19.79 4.71 0
 -3 -7 -15 7.42 4.16 0
 -3 -7 -14 6.15 3.6 0
 -3 -7 -13 77.87 7.01 0
 -3 -7 -12 139.61 8.64 0
 -3 -7 -11 51.67 5.63 0
 -3 -7 -9 28.53 4.48 0
 -3 -7 -8 143.12 7.96 0
 -3 -7 -6 286.23 10.32 0
 -3 -7 -5 10.74 3.22 0
 -3 -7 -4 19.61 3.87 0
 -3 -7 -3 96.09 6.23 0
 -3 -7 -2 333.24 10.25 0
 -3 -7 -1 321.52 10.15 0
 -3 -7 0 -0.09 2.2 0
 -3 -7 1 335.86 10.3 0
 -3 -6 -16 48.07 6.22 0
 -3 -6 -15 59.54 6.48 0
 -3 -6 -14 22.71 4.41 0
 -3 -6 -13 100.27 6.97 0
 -3 -6 -12 7.96 3.45 0
 -3 -6 -11 55.07 5.47 0
 -3 -6 -10 30.27 4.43 0
 -3 -6 -9 96.68 6.32 0
 -3 -6 -8 28.68 4.33 0
 -3 -6 -7 294.34 10 0
 -3 -6 -6 160.05 7.26 0
 -3 -6 -5 298.53 9.66 0
 -3 -6 -2 43.04 4.07 0
 -3 -6 -1 50.66 4.25 0
 -3 -6 0 33.25 3.69 0
 -3 -6 1 48.78 4.19 0
 -3 -5 -16 5.16 3.68 0
 -3 -5 -15 23.08 4.18 0
 -3 -5 -14 40.35 5.1 0
 -3 -5 -13 5.38 3.19 0
 -3 -5 -12 76.87 5.86 0
 -3 -5 -11 78.87 5.67 0
 -3 -5 -10 495.5 12.38 0
 -3 -5 -8 173.57 7.29 0
 -3 -5 -7 20.7 3.38 0
 -3 -5 -6 2.79 2.32 0
 -3 -4 -15 158.44 7.78 0
 -3 -4 -14 3.51 2.66 0
 -3 -4 -13 20.98 3.6 0
 -3 -4 -12 64.88 5.31 0
 -3 -4 -11 5.91 2.78 0
 -3 -4 -10 49.07 4.57 0
 -3 -4 -9 145.04 6.4 0
 -3 -4 -3 389.4 9.04 0
 -3 -4 -2 70.58 4.43 0
 -3 -4 0 122.57 5.41 0
 -3 -3 -15 73.7 5.37 0
 -3 -3 -14 54.95 4.63 0
 -3 -3 -13 18.41 3.13 0
 -3 -3 -12 15.81 3.02 0
 -3 -3 -11 42.98 4.06 0
 -3 -3 -7 417.92 9.21 0
 -3 -3 -6 562.35 10.45 0
 -3 -3 -4 175.13 5.79 0
 -3 -3 -3 337.44 7.91 0
 -3 -3 -1 566.07 10.27 0
 -3 -2 -14 13.57 2.88 0
 -3 -2 -13 18.34 3.02 0
 -3 -2 -10 79.65 4.39 0
 -3 -2 -9 84.33 4.44 0
 -3 -2 -8 558.72 9.86 0
 -3 -2 -6 171.18 5.32 0
 -3 -2 -5 148.05 4.98 0
 -3 -2 -4 167.09 5.14 0
 -3 -2 -2 483.45 8.67 0
 -3 -1 -12 8.77 2.21 0
 -3 -1 -11 360.2 7.82 0
 -3 -1 -10 211.65 5.87 0
 -3 -1 -9 167.2 5.17 0
 -3 -1 -8 64.23 3.39 0
 -3 -1 -7 618.32 8.94 0
 -3 -1 -6 315.81 6.35 0
 -3 -1 -5 501.08 7.78 0
 -3 -1 -4 525.08 8.06 0
 -3 -1 -3 9.19 1.72 0
 -3 0 -12 20.36 2.34 0
 -3 0 -11 123.83 4.1 0
 -3 0 -10 1.48 1.28 0
 -3 0 -8 3.12 1.08 0
 -3 0 -7 8.3 1.33 0
 -3 0 -6 319.93 5.47 0
 -3 0 -5 1044.48 9.58 0
 -3 1 -10 204.56 3.62 0
 -3 1 -9 173.21 3.22 0
 -3 1 -8 58.1 1.86 0
 -2 -15 -4 93.79 9.1 0
 -2 -15 -3 10.69 5.43 0
 -2 -15 -2 12.23 5.91 0
 -2 -15 -1 0.75 3.92 0
 -2 -15 0 6.27 4.78 0
 -2 -14 -7 31.11 7.12 0
 -2 -14 -6 155.2 10.38 0
 -2 -14 -5 34.04 6.89 0
 -2 -14 -3 74.67 8.6 0
 -2 -14 -2 28.63 5.88 0
 -2 -14 -1 18.21 5.76 0
 -2 -14 0 286.66 13.11 0
 -2 -14 1 28.54 5.96 0
 -2 -14 2 13.14 5.11 0
 -2 -14 3 65.21 7.26 0
 -2 -13 -10 103.5 9.98 0
 -2 -13 -9 70.28 8.7 0
 -2 -13 -8 91.57 9.13 0
 -2 -13 -7 13.57 4.95 0
 -2 -13 -6 73.1 8.17 0
 -2 -13 -5 195.11 10.84 0
 -2 -13 -4 103.31 8.19 0
 -2 -13 -3 112.42 8.99 0
 -2 -13 -2 25.8 5.51 0
 -2 -13 -1 53.34 7.39 0
 -2 -13 0 10.17 4.62 0
 -2 -13 1 51.67 7.33 0
 -2 -13 2 27.54 5.32 0
 -2 -13 3 107.97 8.21 0
 -2 -12 -11 39.88 6.6 0
 -2 -12 -10 98.28 9.33 0
 -2 -12 -9 44.28 7.41 0
 -2 -12 -8 34.83 6.4 0
 -2 -12 -7 144.3 9.55 0
 -2 -12 -6 36.12 6.35 0
 -2 -12 -5 55.66 7.39 0
 -2 -12 -3 54.22 6.67 0
 -2 -12 -2 103.66 8.1 0
 -2 -12 -1 20.61 4.9 0
 -2 -12 0 111.78 8.29 0
 -2 -12 1 20.57 4.98 0
 -2 -12 2 108.71 7.74 0
 -2 -12 3 55.58 5.9 0
 -2 -11 -11 52.56 7.4 0
 -2 -11 -10 1.2 3.97 0
 -2 -11 -9 192.28 10.56 0
 -2 -11 -8 28.03 5.52 0
 -2 -11 -7 97.03 8.02 0
 -2 -11 -6 9.46 4.14 0
 -2 -11 -5 91.38 7.36 0
 -2 -11 -4 179.68 9.77 0
 -2 -11 -3 306.58 11.82 0
 -2 -11 -2 189.96 9.66 0
 -2 -11 -1 75.37 6.94 0
 -2 -11 0 141.59 8.39 0
 -2 -11 1 80.82 6.76 0
 -2 -11 2 206.47 9.58 0
 -2 -11 3 291.43 10.97 0
 -2 -10 -14 36.35 6.2 0
 -2 -10 -13 107.39 8.6 0
 -2 -10 -12 189.2 10.74 0
 -2 -10 -11 109.87 8.82 0
 -2 -10 -9 3.78 3.7 0
 -2 -10 -8 35.93 6.09 0
 -2 -10 -7 22.22 4.75 0
 -2 -10 -5 136.14 8.01 0
 -2 -10 -4 130.22 7.82 0
 -2 -10 -3 313.78 11.32 0
 -2 -10 -2 12.61 3.64 0
 -2 -10 0 3.16 3.17 0
 -2 -10 1 21.74 4.09 0
 -2 -10 2 15.46 3.87 0
 -2 -10 3 317.86 10.86 0
 -2 -10 4 131.29 7.82 0
 -2 -9 -16 15.3 4.98 0
 -2 -9 -15 75.12 8.19 0
 -2 -9 -13 185.47 10.76 0
 -2 -9 -12 74.39 7.61 0
 -2 -9 -11 28.52 5.32 0
 -2 -9 -10 135.42 8.59 0
 -2 -9 -9 28.39 4.99 0
 -2 -9 -8 396.54 13.07 0
 -2 -9 -7 68.26 6.24 0
 -2 -9 -6 65.99 6.38 0
 -2 -9 -4 143.36 7.65 0
 -2 -9 -3 78.23 5.86 0
 -2 -9 -2 87.04 6.06 0
 -2 -9 -1 172.37 8 0
 -2 -9 0 290.82 10.02 0
 -2 -9 1 168.64 7.81 0
 -2 -9 2 98.37 6.54 0
 -2 -9 3 83.16 5.65 0
 -2 -9 4 155.08 7.8 0
 -2 -8 -17 31.17 6.15 0
 -2 -8 -16 12.67 4.66 0
 -2 -8 -15 62.36 7.55 0
 -2 -8 -14 41.4 6.1 0
 -2 -8 -13 96.32 7.63 0
 -2 -8 -12 29.74 5.09 0
 -2 -8 -11 19.75 4.99 0
 -2 -8 -10 62.18 6.45 0
 -2 -8 -9 120.52 7.91 0
 -2 -8 -8 87.83 6.6 0
 -2 -8 -7 22 4.26 0
 -2 -8 -6 19.03 3.97 0
 -2 -8 -5 275.78 9.99 0
 -2 -8 -3 151.16 7.47 0
 -2 -8 -2 51.14 4.61 0
 -2 -8 -1 181.52 7.72 0
 -2 -8 0 213.46 8.19 0
 -2 -8 1 165.19 7.23 0
 -2 -8 2 50.85 4.77 0
 -2 -8 4 70.17 5.38 0
 -2 -7 -18 10.3 4.39 0
 -2 -7 -17 51.91 7.01 0
 -2 -7 -16 9.81 4.7 0
 -2 -7 -15 41.81 5.91 0
 -2 -7 -13 43.61 6.18 0
 -2 -7 -12 26.4 4.79 0
 -2 -7 -11 63.39 5.95 0
 -2 -7 -10 13.78 3.66 0
 -2 -7 -9 98.96 6.42 0
 -2 -7 -8 0.33 2.94 0
 -2 -7 -7 122.41 6.68 0
 -2 -7 -6 337.47 10.46 0
 -2 -7 -4 392.51 10.71 0
 -2 -7 -3 168.63 7.04 0
 -2 -6 -18 35.56 5.75 0
 -2 -6 -17 23.09 4.77 0
 -2 -6 -16 10.13 4.21 0
 -2 -6 -15 32.01 5.26 0
 -2 -6 -14 79.84 6.97 0
 -2 -6 -13 6.5 3.39 0
 -2 -6 -12 97.15 6.89 0
 -2 -6 -11 335.04 11.02 0
 -2 -6 -10 36.84 4.84 0
 -2 -6 -9 178.19 7.89 0
 -2 -6 -7 712.27 14.19 0
 -2 -6 -6 19.08 3.55 0
 -2 -5 -18 12.56 4.42 0
 -2 -5 -17 4.76 3.6 0
 -2 -5 -16 132.56 8.19 0
 -2 -5 -15 66.57 6.39 0
 -2 -5 -14 110.86 7.26 0
 -2 -5 -12 45.39 4.85 0
 -2 -5 -11 49.36 5.04 0
 -2 -5 -10 33.27 4.47 0
 -2 -5 -8 50.08 4.27 0
 -2 -4 -17 5.72 3.52 0
 -2 -4 -16 22.24 4.55 0
 -2 -4 -15 52.19 5.4 0
 -2 -4 -14 97.42 6.57 0
 -2 -4 -13 4.68 2.75 0
 -2 -4 -11 64.66 5.24 0
 -2 -4 -10 91.34 5.59 0
 -2 -4 -7 291.37 8.1 0
 -2 -4 -6 164.55 6.12 0
 -2 -4 -4 169.95 5.82 0
 -2 -4 -3 341.15 7.95 0
 -2 -4 -2 154.02 5.3 0
 -2 -4 0 461.75 8.82 0
 -2 -4 1 106.22 4.48 0
 -2 -3 -17 110.84 6.88 0
 -2 -3 -16 93.08 6.09 0
 -2 -3 -15 106.92 6.29 0
 -2 -3 -14 260.34 9.16 0
 -2 -3 -9 348.11 8.7 0
 -2 -3 -8 224.72 6.92 0
 -2 -3 -7 6.25 1.94 0
 -2 -3 -6 2068.35 18.55 0
 -2 -3 -5 152 5.23 0
 -2 -3 -4 147 4.93 0
 -2 -3 -2 2539.92 18.73 0
 -2 -3 -1 368.07 7.34 0
 -2 -3 0 21.34 2.64 0
 -2 -3 1 391.81 7.79 0
 -2 -2 -16 183.93 7.73 0
 -2 -2 -15 53.9 4.81 0
 -2 -2 -14 104.6 5.7 0
 -2 -2 -13 99.98 5.61 0
 -2 -2 -10 227.89 6.94 0
 -2 -2 -9 578.9 10.22 0
 -2 -2 -7 122.36 4.52 0
 -2 -2 -6 1396.72 13.74 0
 -2 -2 -4 566.23 8.42 0
 -2 -2 -3 117.84 3.86 0
 -2 -2 -2 209.58 5.12 0
 -2 -2 -1 1305.99 12.26 0
 -2 -2 0 350.22 6.66 0
 -2 -1 -15 123.02 5.9 0
 -2 -1 -14 48.36 4.09 0
 -2 -1 -12 15.6 2.48 0
 -2 -1 -11 276.71 7.15 0
 -2 -1 -10 475.32 8.88 0
 -2 -1 -9 37.04 2.75 0
 -2 -1 -8 268.65 6.11 0
 -2 -1 -7 26.25 2.16 0
 -2 -1 -6 -0.42 1.26 0
 -2 -1 -5 68.32 2.89 0
 -2 -1 -4 990.34 9.53 0
 -2 -1 -3 1831.62 12.63 0
 -2 -1 -2 2108.64 13.51 0
 -2 -1 -1 1758.18 12.51 0
 -2 0 -13 217.48 6.41 0
 -2 0 -12 10.14 2.01 0
 -2 0 -11 103.17 4.23 0
 -2 0 -10 20.21 2.32 0
 -2 0 -9 232.4 5.33 0
 -2 0 -8 201.53 4.64 0
 -2 0 -7 768.23 8.33 0
 -2 0 -6 93.76 2.87 0
 -2 0 -5 648.01 6.74 0
 -2 0 -4 2288.27 11.96 0
 -2 0 -3 586.53 6.07 0
 -2 0 -2 1629.56 10.21 0
 -2 1 -14 51.57 3.28 0
 -2 1 -13 10.81 1.93 0
 -2 1 -12 15.05 2.02 0
 -2 1 -11 273.25 5.77 0
 -2 1 -10 471.8 6.98 0
 -2 1 -9 40.91 2.16 0
 -2 1 -8 259.88 4.4 0
 -2 1 -7 25.58 1.42 0
 -2 1 -6 1.87 0.61 0
 -2 1 -5 69.01 1.69 0
 -2 1 -4 963.56 5.56 0
 -2 2 -12 44.81 2.34 0
 -2 2 -11 520.13 6.6 0
 -2 2 -10 244.29 4.19 0
 -2 2 -9 568.34 5.53 0
 -2 2 -8 244.74 2.99 0
 -1 -16 0 1.22 4.14 0
 -1 -16 1 5.58 4.37 0
 -1 -15 -6 120.75 10.14 0
 -1 -15 -5 94.24 8.55 0
 -1 -15 -4 38.29 6.41 0
 -1 -15 -3 12.14 4.91 0
 -1 -15 -2 65.86 8.05 0
 -1 -15 0 29.49 6.08 0
 -1 -15 1 44.67 6.76 0
 -1 -15 2 58.06 6.62 0
 -1 -15 3 14.18 4.23 0
 -1 -14 -9 0.38 4.35 0
 -1 -14 -8 88.93 9.12 0
 -1 -14 -7 18.78 6.04 0
 -1 -14 -6 35.11 6.15 0
 -1 -14 -5 78.83 7.74 0
 -1 -14 -3 96.75 8.45 0
 -1 -14 -2 4.12 3.74 0
 -1 -14 -1 119.35 8.98 0
 -1 -14 0 2.56 3.98 0
 -1 -14 2 3.92 4.45 0
 -1 -14 3 85.91 7.34 0
 -1 -13 -10 13.37 5.2 0
 -1 -13 -9 4.84 4.51 0
 -1 -13 -8 91.93 8.23 0
 -1 -13 -7 75 8.51 0
 -1 -13 -6 8.03 4.29 0
 -1 -13 -5 119.87 8.79 0
 -1 -13 -4 194.4 10.32 0
 -1 -13 -3 33.77 5.83 0
 -1 -13 -2 14.1 4.47 0
 -1 -13 -1 74.3 6.8 0
 -1 -13 0 39.97 5.65 0
 -1 -13 1 86.14 7.42 0
 -1 -13 2 13.5 4.38 0
 -1 -13 3 36.63 5.63 0
 -1 -13 4 188.58 9.48 0
 -1 -12 -13 21.39 6.65 0
 -1 -12 -12 55.2 7.58 0
 -1 -12 -11 78.87 8.04 0
 -1 -12 -10 48.7 6.81 0
 -1 -12 -9 99.85 8.62 0
 -1 -12 -8 22.15 5.37 0
 -1 -12 -7 140.23 9.37 0
 -1 -12 -6 41.62 6.17 0
 -1 -12 -5 56.89 7.01 0
 -1 -12 -4 90.48 7.28 0
 -1 -12 -3 74.6 7.19 0
 -1 -12 -2 154.05 8.85 0
 -1 -12 -1 52.42 6.11 0
 -1 -12 0 6.26 3.65 0
 -1 -12 1 50.01 6.06 0
 -1 -12 2 162.02 8.76 0
 -1 -12 3 64.95 6.35 0
 -1 -12 4 75.22 5.94 0
 -1 -11 -14 75.04 9.09 0
 -1 -11 -12 76.03 8.67 0
 -1 -11 -11 36.31 6.06 0
 -1 -11 -10 42.37 6.69 0
 -1 -11 -9 43.72 6.86 0
 -1 -11 -7 123.67 8.27 0
 -1 -11 -5 4.62 3.66 0
 -1 -11 -3 71.59 6.41 0
 -1 -11 -2 61.6 6.3 0
 -1 -11 0 310.93 11.08 0
 -1 -11 1 196.32 8.94 0
 -1 -11 2 58.77 5.67 0
 -1 -11 3 66.38 5.56 0
 -1 -11 4 67.13 5.62 0
 -1 -10 -15 37.37 6.97 0
 -1 -10 -14 70.05 8.44 0
 -1 -10 -13 52.57 7.15 0
 -1 -10 -12 11.36 4.78 0
 -1 -10 -11 228.65 11.38 0
 -1 -10 -9 35.39 5.55 0
 -1 -10 -8 31.7 5.66 0
 -1 -10 -7 53.92 5.73 0
 -1 -10 -5 73.8 6.16 0
 -1 -10 -2 248.69 9.67 0
 -1 -10 -1 401.34 11.93 0
 -1 -10 0 119.4 7.08 0
 -1 -10 1 405.55 11.56 0
 -1 -10 3 66.7 5.23 0
 -1 -10 4 312.13 9.93 0
 -1 -9 -16 7.61 4.64 0
 -1 -9 -15 2.35 4.51 0
 -1 -9 -14 49.84 6.81 0
 -1 -9 -13 87.87 7.7 0
 -1 -9 -12 208.64 10.75 0
 -1 -9 -10 14.43 4.08 0
 -1 -9 -9 138.35 8.09 0
 -1 -9 -8 55.45 5.7 0
 -1 -9 -7 52.64 5.55 0
 -1 -9 -6 53.12 5.63 0
 -1 -9 -5 112.4 6.7 0
 -1 -9 -4 96.83 6.41 0
 -1 -9 -2 9.66 3.1 0
 -1 -9 -1 608.45 13.64 0
 -1 -9 0 3.2 2.56 0
 -1 -9 2 12.73 2.97 0
 -1 -9 4 106.85 5.99 0
 -1 -8 -17 48.65 6.77 0
 -1 -8 -16 41.14 6.34 0
 -1 -8 -15 182.44 10.69 0
 -1 -8 -14 126.93 8.68 0
 -1 -8 -13 65.7 6.58 0
 -1 -8 -12 53.63 6.25 0
 -1 -8 -11 171.57 9.23 0
 -1 -8 -9 30.67 4.51 0
 -1 -8 -8 38.94 4.69 0
 -1 -8 -6 214.81 8.77 0
 -1 -8 -5 113.84 6.34 0
 -1 -8 -2 146.34 6.72 0
 -1 -7 -18 85.2 8.28 0
 -1 -7 -17 11.97 4.73 0
 -1 -7 -16 100.15 8.44 0
 -1 -7 -15 19.83 5.4 0
 -1 -7 -14 247.44 11 0
 -1 -7 -13 50.21 6.14 0
 -1 -7 -12 207.46 9.54 0
 -1 -7 -9 112.76 7.03 0
 -1 -7 -8 48.22 5.02 0
 -1 -7 -7 160.8 7.49 0
 -1 -7 1 89.35 4.8 0
 -1 -7 2 803.03 12.99 0
 -1 -6 -19 -2.7 3.28 0
 -1 -6 -18 33.63 5.87 0
 -1 -6 -17 12.62 5.11 0
 -1 -6 -16 65.72 7.25 0
 -1 -6 -15 32.98 5.47 0
 -1 -6 -14 99.44 7.11 0
 -1 -6 -13 188.3 9.16 0
 -1 -6 -12 25.13 4.58 0
 -1 -6 -10 100.75 6.46 0
 -1 -6 -9 370.45 10.74 0
 -1 -6 -8 7.39 2.83 0
 -1 -6 3 35.16 3.25 0
 -1 -6 4 148.63 5.45 0
 -1 -5 -20 20.79 5.12 0
 -1 -5 -19 4.62 3.63 0
 -1 -5 -18 188.84 10.09 0
 -1 -5 -17 5.17 3.61 0
 -1 -5 -16 85.64 7.21 0
 -1 -5 -15 43.7 5.7 0
 -1 -5 -14 46.25 5.47 0
 -1 -5 -13 80.51 6.6 0
 -1 -5 -12 327.54 10.92 0
 -1 -5 -11 23.57 4.07 0
 -1 -5 -10 31.97 4.06 0
 -1 -5 -9 498.15 11.82 0
 -1 -5 -6 497.69 10.56 0
 -1 -5 -1 0.56 1.39 0
 -1 -5 0 568.06 9.6 0
 -1 -5 1 0.95 1.46 0
 -1 -5 2 521.93 9.09 0
 -1 -4 -19 34.14 5.74 0
 -1 -4 -18 16.25 4.27 0
 -1 -4 -17 87.08 7.23 0
 -1 -4 -16 15.54 4.15 0
 -1 -4 -15 21.59 4.3 0
 -1 -4 -14 3.64 3.07 0
 -1 -4 -11 164.46 7.19 0
 -1 -4 -10 40.05 4.08 0
 -1 -4 -7 9.39 2.37 0
 -1 -4 -6 209.65 6.4 0
 -1 -4 -5 1658.6 16.68 0
 -1 -4 -4 1366.69 14.6 0
 -1 -4 -3 98.52 4.1 0
 -1 -4 -1 1039.05 12.04 0
 -1 -4 0 5133.3 25.49 0
 -1 -4 1 1107.26 11.89 0
 -1 -4 2 1942.01 15.89 0
 -1 -4 3 95.84 3.79 0
 -1 -3 -18 20.43 4.73 0
 -1 -3 -16 13.46 3.95 0
 -1 -3 -15 214.41 8.92 0
 -1 -3 -14 54.6 4.94 0
 -1 -3 -13 6.29 2.57 0
 -1 -3 -12 85.3 5.42 0
 -1 -3 -9 91.98 4.67 0
 -1 -3 -5 402.69 7.71 0
 -1 -3 -3 1095.4 11.52 0
 -1 -3 -2 346.06 6.45 0
 -1 -3 -1 2202.33 15.14 0
 -1 -3 0 5085.73 22.61 0
 -1 -3 1 2237.49 15.02 0
 -1 -3 2 349.74 6.23 0
 -1 -2 -18 33.35 5.3 0
 -1 -2 -17 55.05 5.72 0
 -1 -2 -16 65.06 5.44 0
 -1 -2 -15 73.23 5.41 0
 -1 -2 -6 610.3 8.94 0
 -1 -2 -4 1043.67 10.37 0
 -1 -2 -3 1629.51 12.09 0
 -1 -2 -2 371.22 5.66 0
 -1 -2 0 3100.11 15.27 0
 -1 -2 1 1509.13 11.04 0
 -1 -1 -18 71.87 5.88 0
 -1 -1 -17 49.24 4.89 0
 -1 -1 -4 142.15 3.56 0
 -1 -1 -3 4108.5 16.15 0
 -1 -1 -2 9573.33 23.01 0
 -1 -1 -1 1031.32 7.49 0
 -1 -1 0 5142.59 16.75 0
 -1 0 -4 90.59 2.2 0
 -1 0 -3 1475.63 7.61 0
 -1 0 -2 372.52 3.47 0
 -1 0 -1 860.25 5.2 0
 -1 3 -6 305.8 3.85 0
 0 -16 -2 118.35 8.75 0
 0 -16 -1 2.57 3.3 0
 0 -15 -6 121.2 9.8 0
 0 -15 -5 77.38 8.87 0
 0 -15 -3 19.33 5.09 0
 0 -15 -2 0.9 4.27 0
 0 -15 -1 97.2 8.14 0
 0 -15 0 -1.27 2.9 0
 0 -14 -9 33.01 6.45 0
 0 -14 -8 112.16 9.09 0
 0 -14 -7 33.57 6.55 0
 0 -14 -6 366.09 14.37 0
 0 -14 -5 6.7 4.25 0
 0 -14 -4 -1.01 3.47 0
 0 -14 -3 -1.28 3.76 0
 0 -14 -2 53.42 6.53 0
 0 -14 -1 163.29 9.33 0
 0 -14 0 3.6 3.92 0
 0 -14 1 158.3 8.78 0
 0 -13 -11 48.05 7.55 0
 0 -13 -10 56.51 8.35 0
 0 -13 -9 2.01 4.31 0
 0 -13 -8 -2.66 3.77 0
 0 -13 -7 17.24 5.21 0
 0 -13 -6 13.52 5.04 0
 0 -13 -5 7.34 4.16 0
 0 -13 -4 99.46 8.34 0
 0 -13 -3 211.54 10.29 0
 0 -13 -2 195.84 9.77 0
 0 -13 0 -0.42 3.51 0
 0 -13 1 93.96 6.97 0
 0 -13 2 208.09 9.32 0
 0 -13 3 223.91 9.2 0
 0 -12 -13 15.63 6.19 0
 0 -12 -12 3.67 4.59 0
 0 -12 -11 0.26 4.33 0
 0 -12 -10 143.06 10.1 0
 0 -12 -9 38.68 7.22 0
 0 -12 -8 260.58 12.26 0
 0 -12 -7 31.11 5.55 0
 0 -12 -6 89.82 7.98 0
 0 -12 -5 92.67 7.74 0
 0 -12 -4 3.07 3.54 0
 0 -12 -3 66.39 6.7 0
 0 -12 -1 56.52 5.71 0
 0 -12 1 55.19 5.53 0
 0 -12 2 457.8 12.46 0
 0 -12 3 62.64 5.18 0
 0 -12 4 1.99 2.06 0
 0 -11 -14 234.57 12.36 0
 0 -11 -13 56.14 7.5 0
 0 -11 -11 3.27 4.71 0
 0 -11 -10 -2.21 3.48 0
 0 -11 -9 61.57 7.15 0
 0 -11 -8 11.64 4.34 0
 0 -11 -7 26.98 5.15 0
 0 -11 -5 168.25 8.75 0
 0 -11 -4 5.75 3.35 0
 0 -11 -3 264.71 10.24 0
 0 -11 -2 142.27 7.6 0
 0 -11 -1 12.68 3.6 0
 0 -11 0 -1.31 2.56 0
 0 -11 2 129.87 6.72 0
 0 -11 3 258.23 8.88 0
 0 -11 4 4.32 2.75 0
 0 -11 5 171.58 7.14 0
 0 -10 -15 5.52 4.49 0
 0 -10 -14 200.54 11.9 0
 0 -10 -13 -2.64 3.96 0
 0 -10 -12 307.92 13.47 0
 0 -10 -11 108.34 8.43 0
 0 -10 -9 4.36 3.53 0
 0 -10 -8 -2.97 2.47 0
 0 -10 -7 97.74 7.34 0
 0 -10 -6 24.57 4.35 0
 0 -10 -5 16.05 3.88 0
 0 -10 -3 7.03 3.47 0
 0 -10 -2 26.91 3.97 0
 0 -10 0 174.16 7.47 0
 0 -10 1 457.56 11.48 0
 0 -10 2 26.93 3.62 0
 0 -10 3 3.85 2.29 0
 0 -10 4 162.48 6.82 0
 0 -10 5 10.88 2.88 0
 0 -9 -16 27.46 5.84 0
 0 -9 -15 27.07 6.47 0
 0 -9 -14 2.38 4.05 0
 0 -9 -12 58.58 7.06 0
 0 -9 -10 1.01 3.39 0
 0 -9 -9 -0.33 2.74 0
 0 -9 -8 8.46 3.47 0
 0 -9 -6 167.99 8.01 0
 0 -9 -5 56.32 5.3 0
 0 -9 -4 10.72 3.12 0
 0 -9 -3 -2.66 1.99 0
 0 -9 -2 183.68 7.65 0
 0 -9 -1 262.83 8.72 0
 0 -8 -17 11.25 4.79 0
 0 -8 -16 31.97 6.05 0
 0 -8 -15 11.41 4.57 0
 0 -8 -14 -3.97 3.74 0
 0 -8 -13 144.03 8.9 0
 0 -8 -12 180.73 9.52 0
 0 -8 -11 403.21 13.22 0
 0 -8 -10 0.84 3.36 0
 0 -8 -8 211.62 8.92 0
 0 -8 -6 29.64 4.16 0
 0 -8 -5 49.04 4.66 0
 0 -8 -4 70 4.88 0
 0 -8 1 1098.83 15.29 0
 0 -8 2 260.04 7.62 0
 0 -8 3 1034.32 14.29 0
 0 -8 4 77.09 4.38 0
 0 -8 5 49.61 3.48 0
 0 -7 -18 -0.71 3.88 0
 0 -7 -17 8.52 5.21 0
 0 -7 -16 20.02 5.79 0
 0 -7 -15 46.03 6.78 0
 0 -7 -14 1.19 3.54 0
 0 -7 -13 93.04 7.88 0
 0 -7 -12 3.2 3.32 0
 0 -7 -11 33.34 4.85 0
 0 -7 -10 9.53 3.4 0
 0 -7 -9 203.28 8.6 0
 0 -7 -8 50.65 4.53 0
 0 -7 -7 39.75 3.95 0
 0 -7 -6 17.72 3.12 0
 0 -7 -2 1394.34 17.09 0
 0 -7 -1 864.34 13.14 0
 0 -7 0 -2.3 1.44 0
 0 -7 1 861.65 12.55 0
 0 -7 2 1421.14 15.65 0
 0 -7 3 598.44 9.99 0
 0 -7 4 651.3 10.46 0
 0 -7 5 -1.46 1.61 0
 0 -6 -19 10.52 4.95 0
 0 -6 -18 7.29 4.31 0
 0 -6 -17 13.93 5.13 0
 0 -6 -16 102.37 8.12 0
 0 -6 -15 5.67 3.86 0
 0 -6 -13 12.89 3.89 0
 0 -6 -12 529.61 14.07 0
 0 -6 -11 243.18 9.38 0
 0 -6 -10 54.06 4.8 0
 0 -6 -8 84.35 5.52 0
 0 -6 -4 1907.08 19.76 0
 0 -5 -19 -5.31 3.96 0
 0 -5 -18 4.67 3.96 0
 0 -5 -17 69.06 7.24 0
 0 -5 -16 5.73 3.5 0
 0 -5 -3 1090.89 13.26 0
 0 -5 -2 151.39 4.88 0
 0 -5 -1 401.84 7.56 0
 0 -5 0 0.55 1.5 0
 0 -5 1 388.78 7.06 0
 0 -5 2 147.01 4.27 0
 0 -5 3 1050.64 10.94 0
 0 -5 4 1153.73 11.41 0
 0 -4 -20 110.78 8.56 0
 0 -4 -19 14.27 4.35 0
 0 -4 -18 142.13 8.64 0
 0 -4 -3 1526.01 14.44 0
 0 -4 -2 14.8 2.03 0
 0 -4 -1 2983.59 17.91 0
 0 -4 0 1110.81 10.57 0
 0 -4 1 3019.86 16.84 0
 0 -4 2 12.06 1.62 0
 0 -4 3 1584.16 12 0
 0 -3 -20 22.42 5 0
 0 -3 -19 16.11 4.23 0
 0 -3 -1 268.18 4.8 0
 0 -3 0 -0.46 1.31 0
 0 -3 1 268.33 4.4 0
 0 -3 2 6759.7 20.72 0
 0 -3 3 4660.74 17.77 0
 0 -2 -1 398.91 4.89 0
 0 -2 0 285.51 3.81 0
 0 -2 2 0.38 0.76 0
 0 2 -2 0.34 0.76 0
 0 2 0 308.99 3.94 0
 1 -15 -6 125.98 9.39 0
 1 -15 -4 42.97 6.16 0
 1 -15 -3 9.78 4.26 0
 1 -14 -8 85.77 8.68 0
 1 -14 -7 16.83 4.94 0
 1 -14 -5 83.88 8.09 0
 1 -14 -4 57.73 6.97 0
 1 -14 -3 88.33 7.69 0
 1 -14 -1 124.29 7.72 0
 1 -13 -11 44.32 7.25 0
 1 -13 -10 7.09 5.55 0
 1 -13 -9 9.66 5.16 0
 1 -13 -8 98.95 8.91 0
 1 -13 -7 73.33 7.48 0
 1 -13 -5 125.91 8.9 0
 1 -13 -4 191.95 10.06 0
 1 -13 -3 29.99 5.34 0
 1 -13 -1 79.12 6.24 0
 1 -13 0 35.73 4.84 0
 1 -12 -13 25.26 6.87 0
 1 -12 -12 61.11 8.14 0
 1 -12 -11 61.71 7.59 0
 1 -12 -10 56.35 7.79 0
 1 -12 -9 99.01 8.45 0
 1 -12 -7 130.08 9.12 0
 1 -12 -6 51.9 6.38 0
 1 -12 -5 58.17 6.25 0
 1 -12 -4 76.26 6.97 0
 1 -12 -3 72.14 6.48 0
 1 -12 -2 171.19 8.68 0
 1 -12 -1 48.25 4.91 0
 1 -12 0 7.17 2.87 0
 1 -12 1 40.05 4.46 0
 1 -11 -14 77.34 8.46 0
 1 -11 -13 143.03 10.56 0
 1 -11 -11 34.11 6.02 0
 1 -11 -10 56 7.25 0
 1 -11 -9 36.4 5.89 0
 1 -11 -8 50.4 5.91 0
 1 -11 -7 135.67 8.64 0
 1 -11 -6 146.58 8.49 0
 1 -11 -5 8.33 3.54 0
 1 -11 -4 65.68 6.03 0
 1 -11 -2 61.39 5.64 0
 1 -11 -1 182.94 7.96 0
 1 -11 0 300.15 9.84 0
 1 -11 2 61.39 4.49 0
 1 -10 -15 44.69 7.38 0
 1 -10 -14 77.24 7.82 0
 1 -10 -13 42.84 6.78 0
 1 -10 -11 237.15 11.57 0
 1 -10 -10 9.28 4.09 0
 1 -10 -8 33.14 5.52 0
 1 -10 -7 59.32 5.89 0
 1 -10 -6 38.47 5.45 0
 1 -10 -5 72.73 6.21 0
 1 -10 -4 298.18 10.21 0
 1 -10 -2 250.71 8.84 0
 1 -10 -1 412.6 10.86 0
 1 -10 0 123.15 6.27 0
 1 -9 -16 4.52 5.23 0
 1 -9 -15 3 4.76 0
 1 -9 -14 56.24 7.46 0
 1 -9 -13 69.59 8.27 0
 1 -9 -12 183.78 10.35 0
 1 -9 -11 101.42 8.25 0
 1 -9 -10 12.07 4.1 0
 1 -9 -9 148.51 8.77 0
 1 -9 -8 48.13 5.45 0
 1 -9 -7 44.01 5.45 0
 1 -9 -6 44.46 4.99 0
 1 -9 -5 113.7 6.65 0
 1 -9 -4 94.55 5.87 0
 1 -9 -3 388.43 10.58 0
 1 -9 -2 7.02 2.49 0
 1 -9 2 10.32 2.17 0
 1 -9 3 359.32 8.28 0
 1 -9 4 102.26 4.57 0
 1 -9 5 114.65 4.52 0
 1 -8 -17 34.09 6.36 0
 1 -8 -16 41.85 6.76 0
 1 -8 -14 116.4 8.54 0
 1 -8 -13 70.25 7.53 0
 1 -8 -12 56.49 6.49 0
 1 -8 -11 152.55 8.58 0
 1 -8 -10 144.97 8.33 0
 1 -8 -9 41.57 5.23 0
 1 -8 -8 47.61 5.49 0
 1 -8 -7 115.72 7.08 0
 1 -8 -4 431.23 10.85 0
 1 -8 -1 123.02 5.56 0
 1 -8 0 5.25 1.97 0
 1 -8 1 148.43 5.55 0
 1 -8 2 151.57 5.42 0
 1 -8 3 488.36 8.83 0
 1 -8 4 428.96 8.1 0
 1 -8 5 111.93 4.13 0
 1 -7 -18 83.34 9.54 0
 1 -7 -17 17.18 5.47 0
 1 -7 -16 96.42 8.01 0
 1 -7 -15 27.08 5.13 0
 1 -7 -6 126.96 6.32 0
 1 -7 -3 471.21 10.2 0
 1 -7 -2 807.51 12.63 0
 1 -7 -1 95.69 4.64 0
 1 -7 0 365.6 7.96 0
 1 -7 1 96.98 4.25 0
 1 -7 2 799.19 10.69 0
 1 -7 3 476.7 7.93 0
 1 -7 4 129.85 4.24 0
 1 -6 -18 19.27 5.11 0
 1 -6 -3 35 2.96 0
 1 -6 2 333.56 6.32 0
 1 -6 3 35.7 2.25 0
 1 -6 4 145.61 3.93 0
 1 -5 -1 -0.34 1.37 0
 1 -5 0 553.12 7.99 0
 1 -5 1 0.88 1 0
 1 -5 3 314.02 5.02 0
 1 -5 4 733.91 7.3 0
 1 -4 0 5330.29 21.53 0
 1 -4 1 1082.99 8.95 0
 1 -4 2 1868.39 10.68 0
 1 -4 3 100.45 2.38 0
 1 -3 1 2237.76 10.47 0
 1 -3 2 348.85 3.66 0
 1 -3 3 1085.17 5.51 0
 2 -15 -6 52.44 6.81 0
 2 -14 -8 33.94 6.01 0
 2 -14 -7 33.05 6.6 0
 2 -14 -6 160.8 9.76 0
 2 -14 -4 139.39 8.66 0
 2 -13 -10 103.52 9.22 0
 2 -13 -9 69.63 8.54 0
 2 -13 -8 93.92 8.59 0
 2 -13 -7 18.94 4.85 0
 2 -13 -6 73.88 7.43 0
 2 -13 -5 193.1 10.22 0
 2 -13 -4 104.56 7.29 0
 2 -13 -3 111.56 7.41 0
 2 -12 -12 3.84 5.37 0
 2 -12 -11 42.09 6.75 0
 2 -12 -10 114.06 9.28 0
 2 -12 -9 35.18 6.08 0
 2 -12 -8 27.79 5.4 0
 2 -12 -7 122.5 8.47 0
 2 -12 -6 31.27 5.32 0
 2 -12 -5 57.92 6.68 0
 2 -12 -4 14.18 3.87 0
 2 -12 -3 64.24 5.53 0
 2 -12 -2 125.67 7.11 0
 2 -11 -13 7.77 5.12 0
 2 -11 -12 153.54 10.53 0
 2 -11 -10 11.94 4.66 0
 2 -11 -9 190.89 10.72 0
 2 -11 -8 20.74 4.79 0
 2 -11 -7 97.04 7.84 0
 2 -11 -6 6.52 3.59 0
 2 -11 -5 95.14 6.79 0
 2 -11 -4 182.18 8.74 0
 2 -11 -3 283.86 9.97 0
 2 -11 -2 187.26 8.15 0
 2 -11 -1 73.64 5.26 0
 2 -11 0 141.64 6.38 0
 2 -10 -14 25.86 6.49 0
 2 -10 -13 98.79 8.54 0
 2 -10 -12 202.57 11.15 0
 2 -10 -11 110.31 8.39 0
 2 -10 -10 100.76 7.88 0
 2 -10 -9 12.43 4.65 0
 2 -10 -8 32.3 5.43 0
 2 -10 -7 23.83 5.31 0
 2 -10 -5 119.33 7.22 0
 2 -10 -4 117.55 6.69 0
 2 -10 -3 317.22 10.02 0
 2 -10 -2 14.87 3.39 0
 2 -10 -1 21.11 3.46 0
 2 -10 0 3.5 2.41 0
 2 -9 -16 8.55 5.28 0
 2 -9 -15 86.97 8.33 0
 2 -9 -14 122.32 9.62 0
 2 -9 -13 175.42 10.48 0
 2 -9 -12 61.72 7.6 0
 2 -9 -11 22.12 4.8 0
 2 -9 -10 137.66 8.84 0
 2 -9 -9 26.35 4.88 0
 2 -9 -7 78.58 6.53 0
 2 -9 -6 77.95 6.28 0
 2 -9 -5 138.04 7.42 0
 2 -9 -4 155.72 7.42 0
 2 -9 -3 90.62 5.75 0
 2 -9 -2 83.68 5.02 0
 2 -9 1 177.18 6.05 0
 2 -9 2 91.77 4.18 0
 2 -8 -16 20.87 5.38 0
 2 -8 -5 269.38 9.03 0
 2 -8 -4 63.09 4.71 0
 2 -8 0 206.77 6.29 0
 2 -8 1 168.64 5.42 0
 2 -8 2 49.92 3.01 0
 2 -8 3 157.96 4.55 0
 2 -7 -2 226.51 6.94 0
 2 -7 -1 159.54 5.5 0
 2 -7 0 0.57 1.26 0
 2 -7 1 150.6 4.76 0
 2 -7 2 221.84 5.26 0
 2 -6 3 221.05 4.19 0
 2 -6 4 151.24 2.95 0
 2 -5 3 56.34 1.79 0
 2 -4 2 157.68 2.94 0
 2 -4 3 328.72 2.97 0
 2 -1 3 1893.61 8.38 0
 3 -13 -9 117.47 9.11 0
 3 -13 -8 4.55 3.83 0
 3 -13 -7 113.45 8.36 0
 3 -13 -6 31.33 5.06 0
 3 -12 -11 71.11 8.48 0
 3 -12 -10 20.86 5.24 0
 3 -12 -9 9.15 4.27 0
 3 -12 -8 33.36 5.8 0
 3 -12 -7 179.38 9.57 0
 3 -12 -6 129.18 8.52 0
 3 -12 -5 246.77 10.51 0
 3 -11 -12 17.34 5.42 0
 3 -11 -11 13.19 5.13 0
 3 -11 -10 54.6 7.4 0
 3 -11 -9 97.61 7.99 0
 3 -11 -8 8.66 4.19 0
 3 -11 -7 17.34 4.37 0
 3 -11 -6 62.14 6.43 0
 3 -11 -5 93.27 6.81 0
 3 -11 -4 20.76 4.22 0
 3 -11 -3 154.55 7.47 0
 3 -10 -13 109.15 9.47 0
 3 -10 -12 7.38 5.08 0
 3 -10 -11 17.25 5.26 0
 3 -10 -10 46.29 7.05 0
 3 -10 -9 139.19 8.71 0
 3 -10 -8 106.6 8.13 0
 3 -10 -7 14.07 4.7 0
 3 -10 -6 58.62 5.83 0
 3 -10 -5 371.14 11.83 0
 3 -10 -4 108.27 6.56 0
 3 -10 -3 378.88 10.88 0
 3 -10 -2 238.43 8.18 0
 3 -9 -6 62.21 5.18 0
 3 -9 -5 29.34 4.41 0
 3 -9 -4 319.82 10.16 0
 3 -9 -3 132.68 6.63 0
 3 -8 -1 29.09 3.07 0
 3 -8 0 20.02 2.58 0
 3 -7 0 0.54 1.19 0
 3 -7 1 340.51 6.76 0
 3 -7 2 322.68 5.82 0
 3 -6 1 47.32 2.57 0
 3 -6 3 325.93 4.17 0
 3 -5 2 252.89 4.39 0
 3 -5 3 194.92 2.73 0
 3 -4 3 417.97 3.67 0
 3 -2 4 174.73 2.46 0
 4 -12 -9 31.9 5.81 0
 4 -12 -8 5.03 3.69 0
 4 -11 -11 93.61 8.74 0
 4 -11 -10 10.38 4.92 0
 4 -11 -9 16.7 4.79 0
 4 -11 -8 87.05 7.86 0
 4 -11 -7 83.14 7.2 0
 4 -11 -6 73.84 6.22 0
 4 -10 -12 5.77 4.17 0
 4 -10 -11 27.15 5.33 0
 4 -10 -10 6.24 3.9 0
 4 -10 -9 15.98 5.05 0
 4 -10 -7 5.16 3.42 0
 4 -10 -6 32.06 4.89 0
 4 -10 -5 3.71 2.46 0
 4 -9 -4 112.91 6.31 0
 4 -3 4 186.81 2.61 0
 5 -10 -8 34.51 5.28 0
 -5 -4 7 30.67 3.67 0
 -5 -2 3 20.95 3.4 0
 -4 -4 6 8.95 2.11 0
 -4 -4 7 249.38 7.09 0
 -4 -4 8 579.65 10.77 0
 -4 -4 9 96.14 4.68 0
 -4 -3 3 117.9 5.02 0
 -4 -3 4 175.03 6.28 0
 -4 -3 5 73.43 4.19 0
 -4 -3 6 290.35 7.93 0
 -4 -3 7 525.08 10.7 0
 -4 -3 8 40.47 3.48 0
 -4 -3 9 41.14 3.51 0
 -4 -3 10 2.53 2.13 0
 -4 -2 2 292.83 8.3 0
 -4 -2 3 191.38 6.81 0
 -4 -2 4 153.12 6.01 0
 -4 -2 5 299.59 8.27 0
 -4 -2 6 111.51 5.38 0
 -4 -2 7 22.05 3.35 0
 -4 -2 8 23.18 3.47 0
 -4 -2 9 39.16 3.75 0
 -4 -1 1 11.04 2.54 0
 -4 -1 2 210.7 7.13 0
 -4 -1 3 613.93 12.05 0
 -4 -1 4 185.02 6.77 0
 -4 -1 5 297.25 8.52 0
 -4 -1 6 162.82 6.69 0
 -4 -1 9 74.85 5.1 0
 -4 0 0 62.68 4.32 0
 -4 0 1 68.46 4.49 0
 -4 0 2 391.04 9.7 0
 -4 0 3 85.76 5.3 0
 -4 0 4 616.19 12.35 0
 -4 0 5 191.97 7.18 0
 -4 0 6 100.35 5.59 0
 -4 0 7 5.77 2.48 0
 -4 0 8 633.67 13.62 0
 -4 1 0 1009.76 15.91 0
 -4 1 2 197.18 7.45 0
 -4 1 3 624.92 12.59 0
 -4 1 5 292.55 9.23 0
 -4 1 6 166.17 7.1 0
 -4 1 7 44.75 4.57 0
 -4 2 0 38.09 4.6 0
 -4 2 1 650.97 13.27 0
 -4 2 2 305.19 9.11 0
 -4 2 3 183.39 7.23 0
 -4 2 4 145.2 6.63 0
 -4 2 5 307.29 9.59 0
 -4 2 6 114.64 6.36 0
 -4 3 -1 503.49 11.81 0
 -4 3 0 3.22 2.19 0
 -4 3 1 519.8 12.1 0
 -4 3 2 189.49 7.55 0
 -4 3 3 112.86 6.01 0
 -4 4 -2 39.3 3.93 0
 -4 4 -1 268.87 8.92 0
 -4 4 0 134.84 6.5 0
 -4 4 1 259.3 8.82 0
 -4 4 2 46.39 4.26 0
 -4 4 3 16.71 3.47 0
 -4 5 -2 150.45 6.99 0
 -4 5 -1 270.5 9.05 0
 -4 5 0 222.53 8.33 0
 -3 -5 6 2.82 0.97 0
 -3 -5 7 20.71 1.86 0
 -3 -5 8 166.96 4.52 0
 -3 -4 4 2523.77 17.81 0
 -3 -4 6 371.03 7.14 0
 -3 -4 7 524.72 8.65 0
 -3 -4 8 113.51 4.36 0
 -3 -4 9 147.28 5.07 0
 -3 -4 10 48.55 3.23 0
 -3 -3 3 327.39 7 0
 -3 -3 4 167.01 4.95 0
 -3 -3 5 430.54 8.06 0
 -3 -3 7 464.16 8.85 0
 -3 -2 1 1039.2 12.5 0
 -3 -2 2 470.81 8.55 0
 -3 -2 3 417.46 8.11 0
 -3 -2 5 145.64 5.16 0
 -3 -2 6 178.94 5.82 0
 -3 -1 0 105.95 4.36 0
 -3 -1 1 700.89 10.78 0
 -3 -1 2 322.26 7.37 0
 -3 -1 3 11.08 2.05 0
 -3 -1 4 518.34 9.46 0
 -3 -1 5 511.69 9.74 0
 -3 0 0 0.02 1.4 0
 -3 0 1 1208.62 14.58 0
 -3 0 2 163.08 5.54 0
 -3 0 3 765.39 11.67 0
 -3 0 4 331.69 8.11 0
 -3 1 -1 704.29 11.7 0
 -3 1 0 103.06 4.66 0
 -3 1 2 340.04 8.08 0
 -3 1 3 10.11 2.29 0
 -3 1 4 529.62 10.33 0
 -3 2 -2 484.62 9.8 0
 -3 2 -1 1003.6 13.88 0
 -3 2 0 2891.9 23.46 0
 -3 2 2 487.38 9.96 0
 -3 2 3 418.6 9.43 0
 -3 3 -2 540.48 10.68 0
 -3 3 -1 551.55 10.57 0
 -3 3 1 556.64 10.89 0
 -3 3 2 533.56 10.63 0
 -3 3 3 345.06 8.95 0
 -3 4 -2 85.63 4.65 0
 -3 4 0 130.62 5.51 0
 -3 4 1 91.65 5.1 0
 -3 4 2 70.57 4.36 0
 -3 4 3 402.39 9.8 0
 -3 5 -3 195.49 6.8 0
 -3 5 -2 269.53 8.1 0
 -3 5 -1 476.68 10.5 0
 -3 5 0 6.01 2.24 0
 -3 5 2 255.65 8.12 0
 -3 5 3 205.1 7.35 0
 -3 6 -3 318.71 8.75 0
 -3 6 -2 38.6 3.56 0
 -3 6 -1 54.36 4.07 0
 -3 6 0 32.99 3.61 0
 -3 6 1 48.65 4.03 0
 -3 6 2 39.03 3.86 0
 -3 6 3 328.06 9.66 0
 -3 7 -3 96.18 5.32 0
 -3 7 -2 333.72 9.24 0
 -3 7 -1 319.98 9.09 0
 -3 7 0 2.26 2.39 0
 -3 7 1 329.44 9.59 0
 -3 7 2 340 9.93 0
 -3 8 -2 137.35 6.19 0
 -3 8 -1 29.76 3.69 0
 -3 8 0 17.93 3.42 0
 -3 8 1 26.01 3.93 0
 -3 8 2 147.49 6.8 0
 -3 9 -2 153.94 6.86 0
 -3 9 -1 103.1 5.85 0
 -3 9 0 97.46 5.58 0
 -2 -5 6 309.87 4.07 0
 -2 -5 7 1493.04 9.84 0
 -2 -5 8 50.97 2.19 0
 -2 -4 4 173.72 3.57 0
 -2 -4 5 58.33 2.24 0
 -2 -4 6 168.81 3.85 0
 -2 -3 5 144.49 3.87 0
 -2 -2 1 1262 11.06 0
 -2 -2 2 205.61 4.49 0
 -2 -2 3 118.53 3.55 0
 -2 -2 4 540.26 7.54 0
 -2 -1 0 369.6 6.43 0
 -2 -1 1 1755.5 13.53 0
 -2 -1 2 2143.63 14.98 0
 -2 -1 3 1824.14 14.27 0
 -2 0 1 898.81 10.2 0
 -2 0 2 1646.91 13.74 0
 -2 1 -1 1718.09 14.54 0
 -2 1 0 366.27 7.02 0
 -2 1 1 1737.62 14.58 0
 -2 2 -2 210.08 5.51 0
 -2 2 -1 1262.63 12.89 0
 -2 2 1 1260.9 12.99 0
 -2 3 -2 2550.48 18.96 0
 -2 3 -1 390.65 7.5 0
 -2 3 0 19.97 2.37 0
 -2 4 -2 149.53 5.05 0
 -2 4 -1 108.64 4.39 0
 -2 4 0 478.5 8.66 0
 -2 4 1 108.29 4.39 0
 -2 5 -3 62.97 3.38 0
 -2 5 -2 618.5 9.93 0
 -2 5 -1 195.24 5.88 0
 -2 5 0 7.57 1.9 0
 -2 6 -2 472.91 9.12 0
 -2 6 -1 1036.4 13.3 0
 -2 6 0 2.03 1.92 0
 -2 7 -3 169.41 5.72 0
 -2 7 -1 147.01 5.43 0
 -2 7 0 1.35 1.85 0
 -2 7 1 155.44 5.88 0
 -2 8 -3 149.95 5.35 0
 -2 8 -2 42.67 3.15 0
 -2 8 -1 173.78 5.97 0
 -2 8 0 209.81 6.67 0
 -2 8 1 173.83 6.54 0
 -2 9 -2 93.67 4.54 0
 -2 9 -1 170.1 6.01 0
 -2 9 0 283.53 7.87 0
 -2 9 1 179.05 6.54 0
 -2 10 -2 9.77 2.08 0
 -2 10 -1 24.41 2.87 0
 -2 10 0 4.52 1.86 0
 -2 10 1 26.15 3.23 0
 -2 10 2 10.1 2.95 0
 -1 -3 3 1081.61 5.68 0
 -1 -1 1 1066.9 7.03 0
 -1 0 0 1.06 0.95 0
 -1 1 -1 1046.1 8.3 0
 -1 1 0 5129.28 17.98 0
 -1 2 0 3077.83 15.17 0
 -1 3 -2 340.29 5.45 0
 -1 3 -1 2249.54 13.6 0
 -1 4 -2 1889.52 12.86 0
 -1 4 -1 1060.41 9.92 0
 -1 5 -2 520.22 7.25 0
 -1 5 -1 3.71 1.14 0
 -1 6 -2 334.04 6.04 0
 -1 7 -2 824.34 9.76 0
 -1 7 -1 90.17 3.6 0
 -1 8 -2 154.71 4.4 0
 -1 8 0 5.86 1.5 0
 -1 9 -2 11.58 1.6 0
 -1 9 -1 608.47 9.29 0
 -1 9 0 1.46 1.35 0
 -1 10 -2 242.42 5.51 0
 -1 10 0 125.38 4.72 0
 0 -6 7 419.83 4.77 0
 0 -5 6 165.43 3.2 0
 0 -4 4 469.71 4.37 0
 0 -4 5 2393.48 11.38 0
 0 -3 3 4556.63 12.02 0
 0 4 -2 11.65 0.73 0
 0 5 -2 148.82 2.37 0
 0 6 -2 118.01 2.34 0
 0 7 -2 1391.6 8.22 0
 0 7 -1 871.06 8.09 0
 0 8 -2 266.58 3.71 0
 0 8 -1 1091.45 9.29 0
 0 9 -1 245.82 4.56 0
 0 10 -1 430.75 5.77 0
 0 10 0 172.68 4.5 0
 1 -6 8 6.49 1.42 0
 1 -6 9 368.56 7.32 0
 1 -5 5 484.83 7.12 0
 1 -5 8 408.48 7.58 0
 1 -5 9 489.78 8.85 0
 1 -5 10 30.18 2.59 0
 1 -5 11 27.06 2.75 0
 1 -4 3 105.39 3.3 0
 1 -4 4 1403.64 11.58 0
 1 -4 5 1708.3 13.43 0
 1 -4 6 206.95 5.04 0
 1 -3 3 1078.04 9.57 0
 1 -3 4 735.96 8.41 0
 1 -3 5 395.48 6.54 0
 1 -2 1 1476.89 10.28 0
 1 -2 2 376.33 5.48 0
 1 -2 3 1696.83 12.02 0
 1 -1 1 1075.98 8.34 0
 1 -1 2 9967.27 26.84 0
 1 0 0 1.95 1.32 0
 1 0 1 891.35 7.47 0
 1 1 0 5227.96 16.16 0
 1 2 -1 1501.96 7.62 0
 1 3 -1 2261.81 8.85 0
 1 4 -1 1090.27 6.11 0
 2 -7 8 1.48 1.34 0
 2 -6 6 18.72 2.6 0
 2 -6 7 681.71 11 0
 2 -6 8 28.71 2.94 0
 2 -6 9 168.8 5.92 0
 2 -6 10 31 3.15 0
 2 -5 4 164.22 5.2 0
 2 -5 5 268.67 6.79 0
 2 -5 6 330.28 7.69 0
 2 -5 7 1517.27 16.47 0
 2 -5 8 49.86 3.71 0
 2 -5 9 491.89 10.2 0
 2 -5 11 45.39 3.8 0
 2 -5 12 42.81 3.97 0
 2 -4 6 165.75 5.47 0
 2 -4 7 288.99 7.36 0
 2 -4 8 24.57 3.03 0
 2 -4 10 100.26 5.28 0
 2 -4 11 61.49 4.29 0
 2 -4 12 329.93 9.34 0
 2 -3 2 2625.55 19.04 0
 2 -3 3 175.47 5.23 0
 2 -3 6 2099.79 18.86 0
 2 -3 7 6.22 2.22 0
 2 -3 8 217.89 6.81 0
 2 -2 1 1328.12 13.29 0
 2 -2 3 122.74 4.3 0
 2 -2 4 547.41 9.17 0
 2 -1 0 370.59 6.77 0
 2 -1 1 1745.05 14.62 0
 2 -1 2 2098.11 16.23 0
 2 -1 3 1867.8 15.94 0
 2 -1 4 998.41 12.19 0
 2 0 0 554.52 7.96 0
 2 0 1 880.94 10.14 0
 2 0 2 1624.92 14.17 0
 2 1 -1 1775.19 13.36 0
 2 1 0 359.91 6.27 0
 2 1 1 1797.1 14.29 0
 2 1 2 2136.12 16.21 0
 2 2 -1 1256.49 10.92 0
 2 2 0 351.05 6.21 0
 2 2 1 1272.02 11.89 0
 2 3 0 21.18 1.75 0
 2 3 1 395.55 6.6 0
 2 4 -1 108.31 3.09 0
 2 4 0 476.35 6.77 0
 2 5 -1 199.36 4.03 0
 2 5 0 7.55 1.41 0
 2 6 -1 1039.45 8.61 0
 2 6 0 0.63 1.04 0
 2 7 -1 151.52 3.21 0
 2 7 0 1.09 0.96 0
 2 8 -1 176.78 2.99 0
 2 8 0 218.49 4.47 0
 2 9 0 288.85 4.79 0
 3 -7 9 29.21 3.52 0
 3 -6 7 279.89 8.53 0
 3 -6 8 33.92 3.92 0
 3 -6 9 97.67 5.32 0
 3 -5 5 100.85 5.16 0
 3 -5 6 3.94 2.04 0
 3 -5 7 16.65 2.73 0
 3 -5 8 170.16 6.73 0
 3 -5 9 402.52 10.49 0
 3 -4 4 2546.14 23.16 0
 3 -4 6 366.14 9.28 0
 3 -4 7 531.82 11.52 0
 3 -4 8 121.31 5.85 0
 3 -4 9 152.75 6.91 0
 3 -3 3 324.01 8.19 0
 3 -3 4 163 6.04 0
 3 -3 5 416.21 9.59 0
 3 -3 6 572.7 11.47 0
 3 -3 7 445.66 10.42 0
 3 -3 8 457.46 10.89 0
 3 -3 9 7.85 2.51 0
 3 -2 4 164.09 6.29 0
 3 -2 5 148.82 5.91 0
 3 -2 6 174.92 6.6 0
 3 -2 7 84.54 5.03 0
 3 -2 8 549.66 12.03 0
 3 -1 5 488.24 10.36 0
 3 -1 6 324.51 8.72 0
 3 -1 7 637.66 12.51 0
 3 -1 8 66.28 4.61 0
 3 0 0 -1 1.52 0
 3 0 1 1258.67 14.95 0
 3 0 2 155.47 5.45 0
 3 1 2 332.75 7.78 0
 3 1 3 14.92 2.76 0
 3 1 4 545.22 10.63 0
 3 2 -1 1040.18 12.56 0
 3 2 0 2878.88 21.25 0
 3 2 1 1047.15 13.15 0
 3 2 2 483.64 9.43 0
 3 2 3 423.2 9.01 0
 3 2 4 162.2 6.15 0
 3 3 -1 563.1 9.25 0
 3 3 0 25.41 2.4 0
 3 3 1 549.52 9.48 0
 3 3 2 534.25 9.77 0
 3 3 3 326.73 8.02 0
 3 4 -1 97.34 3.88 0
 3 4 0 129.7 4.53 0
 3 4 1 95.36 4.09 0
 3 4 2 86.51 4.49 0
 3 5 0 7.33 1.65 0
 3 5 1 471.85 8.78 0
 3 5 2 269.48 6.99 0
 3 6 -1 49.76 2.73 0
 3 6 0 36.44 2.72 0
 3 6 1 49.66 3.07 0
 3 6 2 40.78 3.31 0
 3 7 -1 341.24 6.32 0
 3 7 0 2.39 1.44 0
 3 7 2 338.66 7.96 0
 3 8 0 19.81 2.08 0
 3 8 1 26.18 2.47 0
 3 9 2 145.74 5.23 0
 3 9 3 121.63 5.18 0
 4 -4 5 102.82 5.84 0
 4 -3 4 179.9 7.2 0
 4 -2 2 299.73 8.81 0
 4 -2 3 189.9 7.54 0
 4 -2 4 154 6.85 0
 4 -2 5 304.43 9.32 0
 4 -2 6 112.32 6.1 0
 4 -1 3 602.31 12.46 0
 4 -1 4 191.45 7.34 0
 4 -1 6 170.26 7.38 0
 4 0 1 74.04 4.78 0
 4 0 3 86.91 5.24 0
 4 0 4 604.41 12.71 0
 4 0 5 185.55 7.26 0
 4 0 6 109.62 5.97 0
 4 1 1 12.72 2.72 0
 4 1 2 211.63 7.35 0
 4 1 3 609.48 12.43 0
 4 1 4 180.4 7.26 0
 4 1 5 297.42 9.1 0
 4 2 0 40.03 3.61 0
 4 2 1 629.81 12.18 0
 4 2 2 296.86 8.64 0
 4 2 3 186.32 6.98 0
 4 2 4 139.61 6.28 0
 4 2 5 310.75 9.56 0
 4 3 0 1.93 2.18 0
 4 3 1 525.24 10.93 0
 4 3 3 108.4 5.42 0
 4 3 4 173.47 6.91 0
 4 3 5 74.69 5.4 0
 4 4 0 125.98 5.51 0
 4 4 1 272.89 8.01 0
 4 4 2 41 3.63 0
 4 4 3 17.79 3.01 0
 4 4 4 57.25 4.5 0
 4 4 5 99.49 5.69 0
 4 5 0 228.02 6.84 0
 4 5 1 255.62 7.62 0
 4 5 2 140.67 5.9 0
 4 5 3 257.27 8.15 0
 4 5 4 456.59 10.99 0
 4 5 5 350.22 10.01 0
 4 6 0 316.92 7.92 0
 4 6 1 210.19 6.9 0
 4 6 2 38.69 3.43 0
 4 6 3 215.13 7.34 0
 4 6 4 405.12 10.29 0
 4 7 0 240.62 6.83 0
 4 7 1 36.23 3.4 0
 4 7 2 66.1 4.34 0
 4 7 4 146.11 6.41 0
 4 8 2 319 8.41 0
 4 8 3 28.73 3.37 0

_iucr_refine_fcf_details
;
data_fk_03410_intdb_10
_computing_structure_refinement   'olex2.refine 1.5-alpha (Bourhis et al., 2015)'
_shelx_refln_list_code            4
loop_
  _space_group_symop_id
  _space_group_symop_operation_xyz
  1  x,y,z
  2  x+1/2,-y+1/2,-z
  3  -x,y+1/2,-z+1/2
  4  -x+1/2,-y,z+1/2

_space_group_crystal_system       orthorhombic
_space_group_IT_number            19
_space_group_name_H-M_alt         'P 21 21 21'
_space_group_name_Hall            ' P 2ac 2ab'
_symmetry_space_group_name_H-M    'P 21 21 21'
_symmetry_space_group_name_Hall   ' P 2ac 2ab'
_symmetry_Int_Tables_number       19
_cell_length_a                    4.7947(12)
_cell_length_b                    9.2922(18)
_cell_length_c                    12.142(3)
_cell_angle_alpha                 90
_cell_angle_beta                  90
_cell_angle_gamma                 90
_cell_volume                      541.0(2)
loop_
  _refln_index_h
  _refln_index_k
  _refln_index_l
  _refln_F_squared_calc
  _refln_F_squared_meas
  _refln_F_squared_sigma
  _refln_F_squared_weight
  _refln_observed_status
-8 -4 -2 38.009 33.850 4.482 7.396 o
-8 -4 -1 37.767 40.075 3.720 9.711 o
-8 -3 -1 11.662 11.602 3.047 18.208 o
-8 -2 -2 8.761 7.065 1.493 69.068 o
-8 -2 -1 0.263 -0.589 1.296 107.567 o
-8 -1 -3 11.257 12.921 2.693 22.850 o
-8 -1 -2 2.062 3.017 1.325 98.737 o
-8 -1 -1 13.729 14.359 1.764 45.458 o
-7 -8 -4 129.134 124.750 5.913 2.271 o
-7 -8 -3 41.721 54.691 4.760 6.185 o
-7 -8 -2 4.123 3.855 1.394 86.475 o
-7 -8 -1 29.077 25.243 2.821 16.966 o
-7 -7 -6 2.316 -0.152 2.022 43.793 o
-7 -7 -5 5.793 4.682 1.275 97.977 o
-7 -7 -4 10.214 11.881 1.396 71.449 o
-7 -7 -3 24.227 22.037 1.765 35.149 o
-7 -7 -2 8.159 7.685 1.377 79.609 o
-7 -7 -1 12.204 8.760 1.751 49.241 o
-7 -6 -8 9.628 11.402 3.895 11.523 o
-7 -6 -7 0.556 -0.679 1.645 66.642 o
-7 -6 -6 25.797 27.068 2.071 26.851 o
-7 -6 -5 17.307 20.324 1.912 36.193 o
-7 -6 -4 6.447 5.581 1.374 84.157 o
-7 -6 -3 19.238 19.231 1.468 50.096 o
-7 -6 -2 24.185 26.825 2.094 27.207 o
-7 -6 -1 1.535 1.162 1.046 159.217 o
-7 -5 -9 6.236 7.618 3.392 15.344 o
-7 -5 -8 12.251 11.509 2.015 38.102 o
-7 -5 -7 33.075 30.345 2.482 18.753 o
-7 -5 -6 38.757 41.768 2.118 18.919 o
-7 -5 -5 6.205 5.437 1.193 108.133 o
-7 -5 -4 9.764 10.125 1.472 67.516 o
-7 -5 -3 2.543 1.725 0.970 178.336 o
-7 -5 -2 16.929 15.591 1.359 60.727 o
-7 -5 -1 140.714 143.554 3.060 2.826 o
-7 -4 -9 5.653 6.109 1.558 67.792 o
-7 -4 -8 0.454 1.203 1.094 148.803 o
-7 -4 -7 2.074 2.670 1.692 61.674 o
-7 -4 -6 72.012 78.674 2.849 7.515 o
-7 -4 -5 12.892 13.001 1.459 62.353 o
-7 -4 -4 20.023 19.350 1.817 37.466 o
-7 -4 -3 3.146 3.716 1.101 136.141 o
-7 -4 -2 8.746 7.753 1.085 114.293 o
-7 -4 -1 78.425 81.748 1.979 8.191 o
-7 -3 -10 10.845 14.584 4.016 10.759 o
-7 -3 -9 20.979 18.945 1.660 41.610 o
-7 -3 -8 16.758 16.667 1.670 45.820 o
-7 -3 -7 12.421 9.569 1.340 74.236 o
-7 -3 -6 1.354 2.610 1.535 75.048 o
-7 -3 -5 2.505 2.344 1.998 44.433 o
-7 -3 -4 61.854 63.385 2.171 11.134 o
-7 -3 -3 32.191 36.275 1.847 25.237 o
-7 -3 -2 49.411 54.349 1.717 16.549 o
-7 -3 -1 30.679 30.590 1.540 32.433 o
-7 -2 -10 17.625 16.996 2.203 29.715 o
-7 -2 -9 16.924 16.188 1.757 42.670 o
-7 -2 -8 90.331 93.273 2.930 5.624 o
-7 -2 -7 0.883 1.684 1.368 95.016 o
-7 -2 -6 7.594 7.156 1.613 61.481 o
-7 -2 -5 4.626 5.544 1.243 104.045 o
-7 -2 -4 5.223 4.376 1.046 140.468 o
-7 -2 -3 72.612 67.897 2.620 8.389 o
-7 -2 -2 35.470 34.068 2.207 20.286 o
-7 -2 -1 28.155 25.219 1.511 37.018 o
-7 -1 -10 12.620 13.883 1.637 52.267 o
-7 -1 -9 25.157 27.911 1.871 30.520 o
-7 -1 -8 34.093 33.011 1.978 23.483 o
-7 -1 -7 0.646 0.380 1.172 130.405 o
-7 -1 -6 20.531 22.271 1.643 41.124 o
-7 -1 -5 13.314 13.384 2.014 37.176 o
-7 -1 -4 6.250 6.025 1.349 86.940 o
-7 -1 -3 75.174 79.580 2.232 8.249 o
-7 -1 -2 27.231 29.894 2.152 24.470 o
-7 -1 -1 10.037 12.484 1.519 62.414 o
-6 -10 -6 4.811 2.978 1.364 89.650 o
-6 -10 -5 2.771 2.874 1.037 154.649 o
-6 -10 -4 39.509 36.793 1.971 20.793 o
-6 -10 -3 7.608 9.406 1.262 91.128 o
-6 -10 -2 0.871 -0.017 1.181 128.386 o
-6 -10 -1 4.804 3.624 1.045 143.592 o
-6 -9 -8 2.212 3.884 1.067 146.783 o
-6 -9 -7 0.986 0.566 0.884 224.368 o
-6 -9 -6 52.617 55.803 2.071 13.875 o
-6 -9 -5 52.628 54.875 1.984 14.364 o
-6 -9 -4 4.151 4.073 1.156 121.494 o
-6 -9 -3 43.740 37.928 2.266 16.922 o
-6 -9 -2 63.876 61.115 2.203 10.903 o
-6 -9 -1 49.718 53.371 2.392 13.235 o
-6 -8 -10 29.857 26.790 3.451 12.238 o
-6 -8 -9 5.886 6.459 1.177 110.096 o
-6 -8 -8 19.720 20.239 1.343 54.113 o
-6 -8 -7 14.980 17.465 1.308 65.298 o
-6 -8 -6 17.557 16.352 1.245 65.578 o
-6 -8 -5 24.279 24.773 1.452 42.236 o
-6 -8 -4 14.462 13.829 1.445 60.549 o
-6 -8 -3 19.271 18.750 1.703 41.687 o
-6 -8 -2 6.680 5.515 1.107 121.080 o
-6 -8 -1 11.933 13.012 1.563 57.327 o
-6 -7 -11 23.733 22.278 2.530 21.548 o
-6 -7 -10 93.918 92.949 3.125 5.247 o
-6 -7 -9 7.833 7.244 1.009 131.866 o
-6 -7 -8 17.413 15.128 1.607 48.473 o
-6 -7 -7 36.215 38.547 1.689 24.717 o
-6 -7 -6 37.038 35.599 1.608 25.997 o
-6 -7 -5 21.389 18.747 1.509 46.430 o
-6 -7 -4 43.418 41.293 1.851 19.665 o
-6 -7 -3 10.313 11.027 1.318 78.566 o
-6 -7 -2 70.962 71.893 2.321 8.965 o
-6 -7 -1 26.925 25.635 1.891 29.803 o
-6 -6 -12 18.207 21.448 2.826 19.155 o
-6 -6 -11 3.017 4.155 1.316 97.685 o
-6 -6 -10 19.971 20.869 1.789 37.789 o
-6 -6 -9 3.374 4.213 1.061 143.851 o
-6 -6 -8 1.682 1.557 0.919 202.191 o
-6 -6 -7 11.934 11.277 1.106 95.847 o
-6 -6 -6 7.541 8.136 1.072 119.837 o
-6 -6 -5 34.313 33.860 1.846 24.823 o
-6 -6 -4 93.007 91.093 2.459 6.000 o
-6 -6 -3 41.867 45.134 1.706 20.687 o
-6 -6 -2 77.746 79.862 2.067 8.229 o
-6 -6 -1 133.980 140.457 2.639 3.142 o
-6 -5 -13 32.034 33.370 4.781 6.857 o
-6 -5 -12 18.464 19.831 1.789 39.188 o
-6 -5 -11 42.444 40.374 2.936 12.774 o
-6 -5 -10 5.288 4.946 1.146 118.995 o
-6 -5 -9 9.795 9.997 1.404 72.838 o
-6 -5 -8 52.007 50.911 1.730 16.232 o
-6 -5 -7 8.809 8.715 1.119 107.479 o
-6 -5 -6 2.140 1.543 0.757 284.857 o
-6 -5 -5 1.485 2.577 0.973 179.947 o
-6 -5 -4 7.552 6.033 0.963 145.567 o
-6 -5 -3 35.397 41.020 1.812 23.171 o
-6 -5 -2 0.716 1.412 0.700 349.380 o
-6 -5 -1 28.738 26.900 1.428 37.656 o
-6 -4 -13 18.980 16.021 1.857 38.049 o
-6 -4 -12 21.908 18.986 1.980 32.350 o
-6 -4 -11 1.577 1.514 1.153 131.502 o
-6 -4 -10 29.119 33.345 2.217 22.341 o
-6 -4 -9 44.513 50.139 2.352 14.788 o
-6 -4 -8 30.971 28.869 1.791 28.508 o
-6 -4 -7 4.167 5.229 1.115 127.800 o
-6 -4 -6 17.424 16.854 1.065 76.876 o
-6 -4 -5 12.724 14.147 1.040 96.214 o
-6 -4 -4 5.635 5.620 0.806 205.290 o
-6 -4 -3 3.971 3.648 0.727 269.804 o
-6 -4 -2 29.335 33.195 1.542 32.419 o
-6 -4 -1 37.439 36.777 1.659 24.892 o
-6 -3 -13 0.058 -1.179 1.052 163.349 o
-6 -3 -12 54.490 60.916 2.758 10.483 o
-6 -3 -11 64.637 64.492 2.473 9.817 o
-6 -3 -10 51.938 52.231 2.624 11.945 o
-6 -3 -9 16.093 14.742 1.581 51.094 o
-6 -3 -8 36.285 38.172 2.065 20.767 o
-6 -3 -7 26.162 23.065 1.546 38.755 o
-6 -3 -6 40.104 38.720 1.518 24.588 o
-6 -3 -5 6.016 5.726 0.698 245.864 o
-6 -3 -4 7.246 7.200 0.772 195.890 o
-6 -3 -3 49.110 49.685 1.588 18.072 o
-6 -3 -2 43.255 43.486 1.914 18.864 o
-6 -3 -1 0.176 1.136 0.821 263.179 o
-6 -2 -14 23.869 24.222 3.951 10.219 o
-6 -2 -13 29.492 30.596 2.084 24.425 o
-6 -2 -12 22.116 23.520 1.819 34.728 o
-6 -2 -11 18.712 17.472 2.231 28.642 o
-6 -2 -10 2.088 2.577 1.280 105.787 o
-6 -2 -9 4.581 2.973 1.341 92.888 o
-6 -2 -8 5.322 6.075 1.503 72.747 o
-6 -2 -7 0.166 -0.373 0.673 396.949 o
-6 -2 -6 28.716 28.302 1.271 40.593 o
-6 -2 -5 1.064 1.311 0.798 269.546 o
-6 -2 -4 8.151 7.901 0.736 195.734 o
-6 -2 -3 127.083 131.989 2.543 3.485 o
-6 -2 -2 50.749 49.477 1.558 17.729 o
-6 -2 -1 35.506 42.527 1.638 24.667 o
-6 -1 -14 32.366 32.774 5.279 5.762 o
-6 -1 -13 0.764 -0.185 1.196 125.416 o
-6 -1 -12 4.597 4.083 1.353 90.568 o
-6 -1 -11 23.342 24.284 2.184 26.507 o
-6 -1 -10 0.073 0.019 0.983 187.092 o
-6 -1 -9 17.828 18.556 1.674 43.931 o
-6 -1 -8 35.970 36.097 1.500 27.799 o
-6 -1 -7 50.941 53.170 1.825 15.739 o
-6 -1 -6 138.012 140.420 2.568 3.058 o
-6 -1 -5 20.542 18.681 1.044 68.662 o
-6 -1 -4 24.410 23.881 1.313 46.790 o
-6 -1 -3 96.007 96.358 2.888 5.269 o
-6 -1 -2 15.272 16.176 1.073 82.715 o
-6 -1 -1 141.019 145.056 3.237 2.755 o
-5 -12 -5 3.186 -1.704 1.834 52.736 o
-5 -12 -4 2.436 1.820 1.279 105.989 o
-5 -12 -3 16.393 17.218 1.756 42.723 o
-5 -12 -2 14.421 14.623 1.577 53.053 o
-5 -12 -1 30.226 29.729 2.578 18.565 o
-5 -11 -8 18.322 20.646 2.316 26.610 o
-5 -11 -7 9.835 8.574 1.149 100.617 o
-5 -11 -6 1.203 1.550 0.841 242.313 o
-5 -11 -5 18.502 18.057 1.556 48.010 o
-5 -11 -4 23.804 24.016 1.466 42.699 o
-5 -11 -3 1.378 1.489 1.050 158.040 o
-5 -11 -2 90.752 95.411 3.011 5.460 o
-5 -11 -1 0.757 0.261 1.144 136.655 o
-5 -10 -10 6.217 8.464 2.085 38.853 o
-5 -10 -9 2.375 2.732 1.088 142.832 o
-5 -10 -8 14.629 14.049 1.328 67.446 o
-5 -10 -7 60.403 67.370 1.973 11.631 o
-5 -10 -6 49.230 51.100 1.783 16.719 o
-5 -10 -5 14.182 13.692 1.197 78.344 o
-5 -10 -4 8.923 10.104 1.034 117.422 o
-5 -10 -3 44.660 48.972 1.724 18.844 o
-5 -10 -2 25.970 24.019 1.576 37.759 o
-5 -10 -1 37.647 39.267 1.715 23.599 o
-5 -9 -12 21.281 23.732 2.856 18.116 o
-5 -9 -11 23.906 20.976 1.986 30.700 o
-5 -9 -10 11.917 11.520 1.341 73.273 o
-5 -9 -9 12.561 12.645 1.425 65.264 o
-5 -9 -8 19.542 22.658 1.369 51.632 o
-5 -9 -7 26.112 26.472 1.292 43.899 o
-5 -9 -6 25.857 26.572 1.573 36.901 o
-5 -9 -5 54.631 52.299 1.735 15.314 o
-5 -9 -4 4.215 5.404 0.883 188.788 o
-5 -9 -3 55.735 57.874 1.937 13.552 o
-5 -9 -2 0.466 0.797 0.893 222.687 o
-5 -9 -1 41.854 41.517 2.138 17.890 o
-5 -8 -12 1.004 0.586 0.979 184.195 o
-5 -8 -11 43.408 46.459 2.196 16.415 o
-5 -8 -10 6.003 5.393 1.031 138.679 o
-5 -8 -9 12.077 11.791 1.115 93.740 o
-5 -8 -8 45.276 44.928 1.454 21.278 o
-5 -8 -7 25.107 24.892 1.313 45.373 o
-5 -8 -6 36.144 35.138 1.346 30.007 o
-5 -8 -5 1.069 0.042 0.692 361.797 o
-5 -8 -4 56.480 57.119 1.750 14.205 o
-5 -8 -3 10.871 9.674 0.957 122.507 o
-5 -8 -2 31.191 28.032 1.886 27.112 o
-5 -8 -1 17.848 17.763 1.433 54.188 o
-5 -7 -13 49.968 53.990 3.060 10.389 o
-5 -7 -12 36.107 36.610 1.986 21.914 o
-5 -7 -11 0.946 1.202 0.728 323.079 o
-5 -7 -10 10.335 9.096 0.939 129.302 o
-5 -7 -9 29.835 29.646 1.318 37.790 o
-5 -7 -8 35.867 38.013 1.279 30.075 o
-5 -7 -7 66.591 70.892 1.538 11.358 o
-5 -7 -6 74.205 72.909 1.978 9.186 o
-5 -7 -5 69.031 72.022 1.649 10.620 o
-5 -7 -4 43.054 45.257 1.587 21.134 o
-5 -7 -3 29.188 27.575 1.525 34.939 o
-5 -7 -2 70.572 74.301 2.354 8.805 o
-5 -7 -1 36.639 40.346 1.556 25.558 o
-5 -6 -15 25.936 24.378 3.350 13.364 o
-5 -6 -14 8.929 10.718 1.758 50.612 o
-5 -6 -13 13.172 13.883 1.835 43.236 o
-5 -6 -12 106.812 111.600 2.582 4.596 o
-5 -6 -11 3.055 3.311 0.763 261.742 o
-5 -6 -10 74.960 77.222 1.912 8.946 o
-5 -6 -9 12.057 11.854 0.905 120.030 o
-5 -6 -8 29.548 31.142 1.367 36.380 o
-5 -6 -7 6.614 5.443 0.760 214.417 o
-5 -6 -6 6.706 7.175 0.727 217.266 o
-5 -6 -5 1.562 1.490 0.590 457.999 o
-5 -6 -4 2.262 2.046 0.742 291.353 o
-5 -6 -3 36.257 38.097 1.560 26.319 o
-5 -6 -2 63.630 66.600 1.926 11.284 o
-5 -6 -1 11.115 9.664 1.074 104.766 o
-5 -5 -15 2.114 4.311 1.984 44.881 o
-5 -5 -14 73.174 78.222 2.936 7.285 o
-5 -5 -13 22.393 17.882 1.808 36.636 o
-5 -5 -12 40.315 42.045 2.193 17.824 o
-5 -5 -11 16.678 14.607 1.005 86.554 o
-5 -5 -10 41.350 40.239 2.094 18.567 o
-5 -5 -9 12.516 11.547 0.862 124.763 o
-5 -5 -8 5.281 5.260 0.691 261.957 o
-5 -5 -7 31.543 29.950 1.093 40.471 o
-5 -5 -6 65.758 67.113 1.384 12.214 o
-5 -5 -5 3.073 3.174 0.634 354.837 o
-5 -5 -4 96.839 95.654 1.730 6.204 o
-5 -5 -3 36.796 42.388 1.459 25.993 o
-5 -5 -2 135.887 133.013 2.441 3.247 o
-5 -5 -1 25.604 31.937 1.566 35.145 o
-5 -4 -16 5.469 4.813 3.220 17.118 o
-5 -4 -15 9.674 8.465 1.121 104.872 o
-5 -4 -14 2.022 1.735 0.887 213.282 o
-5 -4 -13 5.479 5.545 1.027 141.296 o
-5 -4 -12 16.520 13.516 1.407 60.155 o
-5 -4 -11 55.554 61.377 2.622 10.768 o
-5 -4 -10 18.116 17.822 0.967 80.588 o
-5 -4 -9 103.384 102.365 1.873 5.451 o
-5 -4 -8 8.810 8.408 0.727 189.611 o
-5 -4 -7 14.755 14.635 0.840 109.477 o
-5 -4 -6 32.377 33.999 1.126 36.894 o
-5 -4 -5 1.025 1.446 0.474 696.418 o
-5 -4 -4 22.121 25.604 1.229 51.507 o
-5 -4 -3 110.345 106.730 1.578 5.080 o
-5 -4 -2 25.240 23.709 1.138 51.511 o
-5 -4 -1 15.478 16.617 1.070 81.867 o
-5 -3 -16 12.394 9.188 2.200 33.089 o
-5 -3 -15 25.093 25.772 1.611 36.910 o
-5 -3 -14 27.979 26.081 1.728 32.208 o
-5 -3 -13 19.732 20.855 1.661 41.830 o
-5 -3 -12 19.530 19.356 1.492 48.740 o
-5 -3 -11 16.977 14.364 1.251 68.084 o
-5 -3 -10 116.864 112.796 2.707 4.089 o
-5 -3 -9 12.393 11.001 0.934 116.256 o
-5 -3 -8 44.471 47.462 1.368 21.696 o
-5 -3 -7 5.063 6.263 0.736 236.728 o
-5 -3 -6 17.028 17.394 0.693 107.067 o
-5 -3 -5 72.700 69.623 1.328 10.823 o
-5 -3 -4 3.047 3.178 0.599 387.369 o
-5 -3 -3 83.965 85.559 1.597 7.894 o
-5 -3 -2 6.391 4.687 0.582 310.572 o
-5 -3 -1 145.430 149.736 1.882 2.911 o
-5 -2 -16 15.782 15.824 1.626 48.866 o
-5 -2 -15 84.059 84.453 3.051 6.126 o
-5 -2 -14 3.709 1.725 0.912 192.920 o
-5 -2 -13 20.731 20.329 1.374 51.400 o
-5 -2 -12 11.683 9.886 1.333 75.802 o
-5 -2 -11 51.989 55.246 2.063 14.106 o
-5 -2 -10 0.964 2.937 1.219 117.785 o
-5 -2 -9 31.765 32.561 1.680 28.776 o
-5 -2 -8 16.286 17.396 1.358 60.391 o
-5 -2 -7 10.542 9.349 0.652 188.422 o
-5 -2 -6 23.469 21.225 1.005 61.698 o
-5 -2 -5 180.754 184.537 1.828 1.963 o
-5 -2 -4 36.698 33.267 0.713 38.712 o
-5 -2 -3 9.375 9.104 0.587 222.314 o
-5 -2 -2 53.895 66.606 1.463 14.740 o
-5 -2 -1 195.384 193.148 2.384 1.692 o
-5 -1 -16 30.803 32.284 2.391 20.013 o
-5 -1 -15 11.801 11.796 1.261 79.993 o
-5 -1 -14 48.229 52.622 2.077 15.189 o
-5 -1 -13 105.652 112.545 2.429 4.719 o
-5 -1 -12 3.946 3.763 0.996 159.473 o
-5 -1 -11 24.581 21.127 1.554 40.755 o
-5 -1 -10 121.878 126.056 3.239 3.459 o
-5 -1 -9 24.347 26.126 1.315 45.477 o
-5 -1 -8 29.788 31.954 1.163 39.882 o
-5 -1 -7 11.918 13.407 1.134 89.898 o
-5 -1 -6 111.935 111.392 1.518 4.895 o
-5 -1 -5 6.030 4.793 0.413 449.479 o
-5 -1 -4 17.727 15.609 0.726 105.106 o
-5 -1 -3 71.144 70.429 0.982 11.583 o
-5 -1 -2 65.227 66.036 1.321 12.578 o
-5 -1 -1 45.418 47.410 1.247 22.116 o
-4 -14 -2 51.684 49.580 5.582 4.628 o
-4 -14 -1 5.936 6.220 3.075 18.644 o
-4 -13 -5 20.370 21.642 1.840 35.877 o
-4 -13 -4 5.997 7.673 1.348 86.033 o
-4 -13 -3 28.328 30.142 1.937 27.194 o
-4 -13 -2 6.716 8.414 1.331 86.106 o
-4 -13 -1 19.540 16.631 1.740 41.102 o
-4 -12 -8 1.748 2.584 1.467 81.645 o
-4 -12 -7 58.537 60.425 2.614 10.461 o
-4 -12 -6 61.478 68.646 2.993 8.609 o
-4 -12 -5 18.237 15.750 1.483 52.660 o
-4 -12 -4 10.653 11.168 1.522 62.311 o
-4 -12 -3 38.077 40.826 1.974 20.554 o
-4 -12 -2 12.309 11.518 1.259 79.454 o
-4 -12 -1 49.820 55.213 2.696 11.740 o
-4 -11 -11 38.443 37.081 5.130 5.840 o
-4 -11 -10 4.612 3.803 1.115 128.598 o
-4 -11 -9 6.624 8.348 1.609 62.087 o
-4 -11 -8 37.761 33.889 2.245 19.261 o
-4 -11 -7 40.816 43.059 1.921 19.689 o
-4 -11 -6 34.259 35.810 1.858 24.270 o
-4 -11 -5 59.148 60.409 2.124 11.973 o
-4 -11 -4 39.436 39.880 1.798 21.870 o
-4 -11 -3 19.622 19.377 1.678 41.978 o
-4 -11 -2 21.641 21.440 1.603 41.767 o
-4 -11 -1 31.494 34.098 1.864 25.839 o
-4 -10 -12 6.160 5.564 1.200 106.989 o
-4 -10 -11 14.109 17.413 1.769 43.846 o
-4 -10 -10 4.599 3.674 1.090 133.998 o
-4 -10 -9 8.403 7.309 1.087 115.827 o
-4 -10 -8 14.979 16.149 1.266 69.124 o
-4 -10 -7 0.782 1.123 0.886 223.347 o
-4 -10 -6 15.664 13.672 1.348 64.814 o
-4 -10 -5 1.261 1.318 0.769 287.362 o
-4 -10 -4 39.851 42.175 1.538 23.668 o
-4 -10 -3 15.404 15.322 1.042 86.130 o
-4 -10 -2 69.393 65.581 1.744 10.874 o
-4 -10 -1 15.190 15.257 1.214 73.239 o
-4 -9 -14 16.120 14.802 2.656 22.350 o
-4 -9 -13 14.163 10.142 1.685 50.224 o
-4 -9 -12 24.425 24.070 1.634 37.501 o
-4 -9 -11 33.197 34.736 2.314 19.786 o
-4 -9 -10 6.369 4.609 1.103 124.177 o
-4 -9 -9 73.440 78.818 2.089 8.725 o
-4 -9 -8 7.702 8.734 0.854 162.879 o
-4 -9 -7 21.909 20.574 1.255 54.441 o
-4 -9 -6 3.558 2.078 0.706 299.123 o
-4 -9 -5 62.288 64.350 1.551 12.781 o
-4 -9 -4 46.706 48.778 1.394 20.289 o
-4 -9 -3 103.744 104.811 2.472 4.974 o
-4 -9 -2 8.542 7.793 1.004 128.610 o
-4 -9 -1 14.535 15.163 1.119 82.209 o
-4 -8 -15 27.934 30.624 2.503 19.780 o
-4 -8 -14 18.493 22.412 1.954 33.856 o
-4 -8 -13 30.953 32.011 2.322 20.755 o
-4 -8 -12 11.958 12.324 1.469 63.409 o
-4 -8 -11 5.746 6.540 1.047 134.115 o
-4 -8 -10 71.592 70.286 2.107 9.428 o
-4 -8 -9 49.770 51.093 1.649 17.290 o
-4 -8 -8 35.443 35.958 1.266 31.305 o
-4 -8 -7 101.095 102.527 1.728 5.678 o
-4 -8 -6 72.767 71.972 1.750 9.865 o
-4 -8 -5 155.232 155.463 2.285 2.566 o
-4 -8 -4 45.716 46.225 1.508 20.445 o
-4 -8 -3 11.244 11.658 0.849 133.419 o
-4 -8 -2 149.912 143.973 2.369 2.782 o
-4 -8 -1 43.797 43.555 1.512 21.772 o
-4 -7 -15 3.577 0.440 1.624 66.484 o
-4 -7 -14 4.625 4.443 1.188 114.043 o
-4 -7 -13 10.923 11.580 1.403 70.064 o
-4 -7 -12 3.486 2.834 0.731 278.670 o
-4 -7 -11 9.375 7.764 0.752 180.372 o
-4 -7 -10 40.565 38.935 1.239 27.099 o
-4 -7 -9 18.229 17.338 0.888 86.627 o
-4 -7 -8 28.484 28.587 1.160 43.307 o
-4 -7 -7 45.713 44.747 1.271 22.440 o
-4 -7 -6 63.517 63.950 1.384 13.013 o
-4 -7 -5 0.938 1.017 0.569 513.214 o
-4 -7 -4 68.534 66.005 1.479 11.578 o
-4 -7 -3 62.742 60.895 1.442 13.364 o
-4 -7 -2 29.876 29.761 1.031 43.861 o
-4 -7 -1 19.495 17.387 0.896 82.005 o
-4 -6 -16 31.059 31.233 2.420 19.776 o
-4 -6 -15 27.519 29.946 1.803 29.910 o
-4 -6 -14 8.569 7.350 0.923 145.780 o
-4 -6 -13 3.573 4.326 0.750 257.289 o
-4 -6 -12 41.267 40.544 1.201 26.545 o
-4 -6 -11 12.197 11.917 0.787 137.235 o
-4 -6 -10 22.705 20.282 1.031 63.043 o
-4 -6 -9 21.744 20.803 0.783 76.746 o
-4 -6 -8 35.224 36.164 1.052 34.341 o
-4 -6 -7 1.220 0.975 0.568 507.895 o
-4 -6 -6 41.391 39.884 1.158 27.076 o
-4 -6 -5 106.096 105.689 1.515 5.384 o
-4 -6 -4 205.384 198.578 1.880 1.594 o
-4 -6 -3 98.993 97.429 1.499 6.138 o
-4 -6 -2 19.478 19.230 0.681 93.198 o
-4 -6 -1 91.043 92.056 1.420 7.056 o
-4 -5 -17 22.689 23.546 1.485 43.459 o
-4 -5 -16 2.342 0.783 0.835 239.602 o
-4 -5 -15 40.175 42.107 1.478 24.095 o
-4 -5 -14 17.270 15.197 0.991 85.052 o
-4 -5 -13 16.288 15.804 0.938 91.593 o
-4 -5 -12 22.447 20.412 1.082 61.139 o
-4 -5 -11 2.013 1.808 0.587 444.830 o
-4 -5 -10 24.031 24.207 0.890 62.070 o
-4 -5 -9 18.894 16.555 0.726 97.884 o
-4 -5 -8 28.123 25.811 0.845 54.005 o
-4 -5 -7 31.041 30.552 1.120 40.154 o
-4 -5 -6 27.806 29.092 0.838 51.887 o
-4 -5 -5 172.294 164.668 1.703 2.248 o
-4 -5 -4 224.338 219.346 1.748 1.343 o
-4 -5 -3 127.546 120.781 1.292 4.036 o
-4 -5 -2 71.227 62.068 1.259 11.900 o
-4 -5 -1 125.844 125.180 1.633 3.930 o
-4 -4 -17 3.747 3.722 0.934 179.549 o
-4 -4 -16 7.782 7.292 0.947 144.822 o
-4 -4 -15 0.742 0.072 0.722 337.526 o
-4 -4 -14 1.923 0.704 0.726 315.166 o
-4 -4 -13 70.487 66.790 1.631 10.845 o
-4 -4 -12 93.787 99.643 1.885 6.162 o
-4 -4 -11 52.864 50.804 1.350 17.859 o
-4 -4 -10 198.610 189.968 1.997 1.702 o
-4 -4 -9 44.678 45.319 0.955 25.014 o
-4 -4 -8 277.534 263.797 2.582 0.892 o
-4 -4 -7 118.158 112.610 1.353 4.610 o
-4 -4 -6 3.657 3.263 0.356 712.957 o
-4 -4 -5 46.837 46.155 0.700 24.933 o
-4 -4 -4 24.857 25.154 0.766 63.693 o
-4 -4 -3 9.063 7.874 0.548 249.278 o
-4 -4 -2 22.232 19.746 0.755 78.315 o
-4 -4 -1 131.902 118.562 1.731 3.801 o
-4 -3 -18 24.287 20.830 2.673 19.840 o
-4 -3 -17 24.142 27.725 1.700 34.800 o
-4 -3 -16 5.624 5.590 1.030 140.134 o
-4 -3 -15 9.253 9.361 0.978 126.941 o
-4 -3 -14 3.606 2.773 0.874 205.283 o
-4 -3 -13 108.576 111.142 2.490 4.582 o
-4 -3 -12 21.547 19.394 1.197 58.457 o
-4 -3 -11 13.910 12.655 0.757 129.341 o
-4 -3 -10 1.365 2.119 0.562 493.773 o
-4 -3 -9 17.280 14.865 0.898 93.227 o
-4 -3 -8 19.032 19.380 0.999 74.009 o
-4 -3 -7 245.118 235.804 2.467 1.124 o
-4 -3 -6 132.226 126.981 1.547 3.689 o
-4 -3 -5 34.593 33.677 0.762 40.313 o
-4 -3 -4 81.464 85.455 0.961 8.813 o
-4 -3 -3 53.985 51.798 1.101 18.388 o
-4 -3 -2 88.784 90.673 1.454 7.299 o
-4 -3 -1 242.320 240.082 2.438 1.129 o
-4 -2 -18 13.912 14.658 1.830 42.709 o
-4 -2 -17 83.295 84.524 2.343 7.096 o
-4 -2 -16 33.228 35.090 1.568 28.828 o
-4 -2 -15 17.591 18.194 1.261 62.959 o
-4 -2 -14 36.905 38.336 1.632 25.082 o
-4 -2 -13 29.491 31.061 1.692 30.377 o
-4 -2 -12 24.762 26.960 1.398 42.176 o
-4 -2 -11 0.101 -0.480 0.795 285.511 o
-4 -2 -10 48.083 51.069 1.738 17.314 o
-4 -2 -9 21.195 20.125 0.777 79.759 o
-4 -2 -8 12.125 11.537 0.585 176.411 o
-4 -2 -7 14.931 13.777 0.561 145.388 o
-4 -2 -6 59.478 56.015 0.838 16.601 o
-4 -2 -5 146.564 143.588 1.294 3.051 o
-4 -2 -4 76.132 69.465 0.880 10.891 o
-4 -2 -3 88.134 84.673 0.973 8.053 o
-4 -2 -2 142.367 140.519 1.172 3.225 o
-4 -2 -1 277.798 297.759 5.316 0.751 o
-4 -1 -18 4.989 4.867 2.402 30.343 o
-4 -1 -17 10.107 9.600 1.216 90.576 o
-4 -1 -16 4.421 6.066 1.151 119.020 o
-4 -1 -15 2.314 1.908 0.982 174.916 o
-4 -1 -14 28.347 28.596 1.425 37.326 o
-4 -1 -13 8.496 6.035 1.097 116.019 o
-4 -1 -12 46.613 47.577 1.588 19.307 o
-4 -1 -11 5.034 5.137 0.783 222.078 o
-4 -1 -10 9.332 8.867 0.526 245.068 o
-4 -1 -9 33.859 34.016 0.868 39.468 o
-4 -1 -8 84.122 83.980 1.081 8.474 o
-4 -1 -7 22.340 20.794 0.495 88.572 o
-4 -1 -6 78.665 77.888 0.901 9.776 o
-4 -1 -5 137.241 139.966 1.186 3.382 o
-4 -1 -4 92.829 90.665 0.738 7.376 o
-4 -1 -3 281.040 285.733 1.736 0.850 o
-4 -1 -2 91.944 95.226 1.146 7.024 o
-4 -1 -1 5.082 4.331 0.464 446.623 o
-3 -14 -6 6.406 10.302 3.881 11.741 o
-3 -14 -5 6.786 5.615 1.385 82.436 o
-3 -14 -4 1.796 2.591 1.172 125.712 o
-3 -14 -3 11.307 14.847 1.728 48.662 o
-3 -14 -2 1.800 -0.325 1.095 146.702 o
-3 -14 -1 0.287 -0.230 1.067 158.257 o
-3 -13 -8 2.733 2.688 1.326 97.794 o
-3 -13 -7 51.738 53.756 2.453 12.575 o
-3 -13 -6 14.946 12.622 1.375 65.064 o
-3 -13 -5 37.721 42.482 2.127 19.047 o
-3 -13 -4 0.559 0.818 1.199 124.277 o
-3 -13 -3 69.469 75.491 2.348 8.875 o
-3 -13 -2 11.573 12.887 1.580 56.822 o
-3 -13 -1 15.796 15.476 1.487 55.554 o
-3 -12 -12 28.732 30.044 3.634 11.208 o
-3 -12 -11 28.726 29.483 2.636 18.362 o
-3 -12 -10 11.099 14.191 1.584 56.409 o
-3 -12 -9 3.090 1.490 0.979 173.404 o
-3 -12 -8 14.520 12.484 1.496 58.408 o
-3 -12 -7 84.366 83.339 2.854 6.393 o
-3 -12 -6 54.967 55.238 2.387 12.174 o
-3 -12 -5 108.294 111.480 3.335 4.078 o
-3 -12 -4 30.577 28.619 1.541 33.182 o
-3 -12 -3 14.010 11.509 1.408 65.133 o
-3 -12 -2 23.622 22.487 1.527 41.815 o
-3 -12 -1 12.314 11.188 1.546 58.853 o
-3 -11 -13 8.750 11.155 2.791 21.870 o
-3 -11 -12 5.952 5.994 1.412 80.668 o
-3 -11 -11 5.593 3.619 1.160 117.455 o
-3 -11 -10 24.204 25.928 1.641 36.794 o
-3 -11 -9 46.124 43.262 2.087 16.841 o
-3 -11 -8 4.182 4.152 0.886 192.287 o
-3 -11 -7 7.908 7.579 0.961 140.354 o
-3 -11 -6 32.440 26.892 1.862 27.152 o
-3 -11 -5 41.506 40.118 1.588 22.903 o
-3 -11 -4 10.905 12.225 1.037 105.946 o
-3 -11 -3 71.589 70.809 2.376 8.843 o
-3 -11 -2 116.129 117.663 2.861 3.951 o
-3 -11 -1 7.183 7.891 1.066 122.515 o
-3 -10 -14 4.611 8.454 2.006 42.371 o
-3 -10 -13 46.239 51.468 2.993 11.249 o
-3 -10 -12 3.731 3.286 1.248 107.401 o
-3 -10 -11 10.651 8.768 1.204 91.631 o
-3 -10 -10 19.863 17.733 1.514 48.404 o
-3 -10 -9 59.668 56.073 2.453 11.128 o
-3 -10 -8 42.123 48.421 2.044 17.521 o
-3 -10 -7 7.973 8.563 0.991 131.810 o
-3 -10 -6 22.043 23.107 1.070 59.889 o
-3 -10 -5 172.084 165.355 2.326 2.178 o
-3 -10 -4 50.960 52.095 1.418 17.954 o
-3 -10 -3 175.542 171.505 2.569 2.052 o
-3 -10 -2 101.868 106.153 2.003 5.347 o
-3 -10 -1 25.238 22.764 1.621 37.717 o
-3 -9 -15 7.448 5.797 1.440 76.012 o
-3 -9 -14 4.055 1.857 1.303 99.701 o
-3 -9 -13 6.516 5.162 1.744 54.870 o
-3 -9 -12 0.051 1.487 1.047 163.025 o
-3 -9 -11 18.781 19.140 1.255 60.506 o
-3 -9 -10 10.001 8.768 1.189 94.907 o
-3 -9 -9 31.076 28.415 1.786 28.653 o
-3 -9 -8 80.752 81.200 1.907 8.076 o
-3 -9 -7 49.315 51.040 1.313 19.292 o
-3 -9 -6 30.532 31.395 1.152 39.616 o
-3 -9 -5 10.501 10.078 0.814 149.009 o
-3 -9 -4 143.470 145.635 2.405 2.902 o
-3 -9 -3 63.053 57.450 1.208 14.359 o
-3 -9 -2 70.497 67.385 1.395 11.275 o
-3 -9 -1 51.505 51.131 1.303 18.507 o
-3 -8 -16 0.108 -0.460 1.284 109.767 o
-3 -8 -15 15.688 13.989 1.274 69.315 o
-3 -8 -14 3.039 4.719 1.061 144.057 o
-3 -8 -13 30.572 31.641 1.782 28.123 o
-3 -8 -12 199.005 200.948 3.528 1.523 o
-3 -8 -11 4.403 3.128 0.760 249.537 o
-3 -8 -10 21.779 20.051 1.266 54.564 o
-3 -8 -9 18.131 17.904 0.926 83.334 o
-3 -8 -8 28.460 25.324 1.053 48.182 o
-3 -8 -7 26.601 24.986 0.957 54.150 o
-3 -8 -6 107.615 104.006 1.759 5.221 o
-3 -8 -5 57.748 58.641 1.290 15.371 o
-3 -8 -4 38.023 37.579 1.176 29.947 o
-3 -8 -3 31.401 30.818 0.998 42.004 o
-3 -8 -2 65.947 66.643 0.985 13.058 o
-3 -8 -1 17.196 14.005 0.498 134.557 o
-3 -7 -17 28.820 34.982 2.340 20.740 o
-3 -7 -16 9.075 9.843 1.555 62.608 o
-3 -7 -15 2.451 3.624 0.852 220.061 o
-3 -7 -14 3.981 4.132 0.808 225.406 o
-3 -7 -13 30.800 34.913 1.471 31.998 o
-3 -7 -12 62.715 65.219 1.587 12.506 o
-3 -7 -11 25.581 25.590 0.996 54.117 o
-3 -7 -10 8.236 7.843 0.554 260.976 o
-3 -7 -9 13.005 13.526 0.617 153.634 o
-3 -7 -8 67.116 67.557 1.036 12.603 o
-3 -7 -7 202.130 194.037 2.015 1.642 o
-3 -7 -6 142.940 140.935 1.660 3.126 o
-3 -7 -5 5.778 5.475 0.351 504.498 o
-3 -7 -4 8.967 8.904 0.489 264.563 o
-3 -7 -3 40.555 45.285 0.744 29.221 o
-3 -7 -2 161.891 152.956 1.218 2.594 o
-3 -7 -1 151.598 151.868 1.346 2.818 o
-3 -6 -18 40.905 42.370 2.342 16.538 o
-3 -6 -17 5.634 5.539 1.014 143.848 o
-3 -6 -16 23.254 22.724 1.026 59.787 o
-3 -6 -15 27.146 26.352 1.075 48.710 o
-3 -6 -14 9.137 10.386 0.753 171.280 o
-3 -6 -13 48.723 47.778 1.114 21.316 o
-3 -6 -12 6.810 5.974 0.544 311.287 o
-3 -6 -11 26.786 28.236 0.786 55.836 o
-3 -6 -10 17.094 15.892 0.667 112.922 o
-3 -6 -9 44.319 44.990 0.936 25.450 o
-3 -6 -8 15.366 13.629 0.563 142.364 o
-3 -6 -7 134.509 131.738 1.144 3.609 o
-3 -6 -6 71.927 69.066 0.729 11.892 o
-3 -6 -5 147.771 145.770 1.337 2.986 o
-3 -6 -4 83.039 78.971 1.218 8.785 o
-3 -6 -3 163.729 149.105 0.776 2.629 o
-3 -6 -2 20.590 18.503 0.625 93.629 o
-3 -6 -1 20.825 22.713 0.419 94.102 o
-3 -5 -18 28.384 28.203 2.095 25.177 o
-3 -5 -17 9.021 8.888 0.931 137.750 o
-3 -5 -16 1.124 1.757 0.647 393.889 o
-3 -5 -15 14.900 15.006 1.010 90.999 o
-3 -5 -14 16.962 16.713 0.807 98.915 o
-3 -5 -13 0.590 1.043 0.489 696.057 o
-3 -5 -12 32.046 33.455 1.000 39.692 o
-3 -5 -11 34.200 33.836 0.934 38.192 o
-3 -5 -10 233.155 231.922 2.224 1.219 o
-3 -5 -9 182.695 185.743 1.945 1.920 o
-3 -5 -8 78.070 76.624 1.026 9.832 o
-3 -5 -7 8.629 9.221 0.391 306.877 o
-3 -5 -6 1.998 2.055 0.246 1441.840 o
-3 -5 -5 46.769 43.595 0.656 25.988 o
-3 -5 -4 3.844 4.031 0.252 869.334 o
-3 -5 -3 88.572 92.140 0.820 7.695 o
-3 -5 -2 115.807 118.532 1.118 4.649 o
-3 -5 -1 216.177 217.249 1.470 1.427 o
-3 -4 -18 0.178 0.355 0.741 325.480 o
-3 -4 -17 27.011 28.876 1.405 38.858 o
-3 -4 -16 43.922 43.657 1.526 21.588 o
-3 -4 -15 73.528 77.000 1.475 9.873 o
-3 -4 -14 3.059 2.112 0.568 435.383 o
-3 -4 -13 9.541 8.326 0.643 207.405 o
-3 -4 -12 27.625 29.795 0.973 48.245 o
-3 -4 -11 3.282 2.393 0.448 594.677 o
-3 -4 -10 24.187 22.950 0.757 68.312 o
-3 -4 -9 73.257 67.931 1.148 11.170 o
-3 -4 -8 56.296 56.169 1.080 16.900 o
-3 -4 -7 258.658 242.619 1.343 1.057 o
-3 -4 -6 168.777 167.533 1.169 2.328 o
-3 -4 -5 113.441 105.457 0.767 5.218 o
-3 -4 -4 1170.930 1178.200 3.959 0.051 o
-3 -4 -3 194.043 190.225 1.583 1.776 o
-3 -4 -2 34.867 33.643 0.800 39.490 o
-3 -4 -1 39.006 41.676 0.528 33.556 o
-3 -3 -19 2.015 1.238 1.530 75.541 o
-3 -3 -18 24.009 25.490 1.340 45.481 o
-3 -3 -17 10.051 9.457 1.008 118.447 o
-3 -3 -16 3.266 1.090 0.856 221.543 o
-3 -3 -15 33.712 33.206 1.169 35.310 o
-3 -3 -14 25.457 25.568 1.054 52.498 o
-3 -3 -13 9.022 8.470 0.717 190.348 o
-3 -3 -12 6.921 8.289 0.692 221.581 o
-3 -3 -11 16.009 17.308 0.847 97.979 o
-3 -3 -10 43.628 42.495 1.313 23.701 o
-3 -3 -9 5.252 3.326 0.579 352.471 o
-3 -3 -8 227.391 222.610 2.121 1.295 o
-3 -3 -7 208.730 203.697 1.504 1.554 o
-3 -3 -6 253.295 261.817 1.776 1.026 o
-3 -3 -5 197.200 197.599 1.379 1.709 o
-3 -3 -4 79.771 77.374 0.819 9.724 o
-3 -3 -3 150.287 153.758 1.143 2.849 o
-3 -3 -2 243.131 241.567 1.820 1.138 o
-3 -3 -1 259.561 260.580 1.972 0.994 o
-3 -2 -19 41.776 40.684 2.250 17.189 o
-3 -2 -18 11.118 10.296 1.300 79.377 o
-3 -2 -17 12.739 12.773 1.107 91.291 o
-3 -2 -16 68.669 72.814 1.984 9.908 o
-3 -2 -15 12.722 14.587 1.173 82.748 o
-3 -2 -14 5.888 5.664 0.633 281.366 o
-3 -2 -13 6.408 7.183 0.699 231.674 o
-3 -2 -12 10.150 9.626 1.066 109.089 o
-3 -2 -11 65.253 68.112 1.815 11.176 o
-3 -2 -10 31.364 34.641 0.878 41.897 o
-3 -2 -9 38.817 37.491 0.821 33.236 o
-3 -2 -8 271.895 256.900 1.868 0.947 o
-3 -2 -7 44.514 40.152 0.629 28.907 o
-3 -2 -6 89.401 82.465 0.804 8.143 o
-3 -2 -5 65.252 68.919 0.793 13.282 o
-3 -2 -4 77.039 78.901 0.567 10.221 o
-3 -2 -3 188.726 193.698 1.469 1.825 o
-3 -2 -2 207.516 226.738 2.006 1.439 o
-3 -2 -1 457.876 474.465 2.361 0.322 o
-3 -1 -19 79.904 82.668 2.616 7.074 o
-3 -1 -18 8.619 10.418 1.153 100.878 o
-3 -1 -17 9.654 11.483 1.385 73.498 o
-3 -1 -16 19.249 19.959 1.296 57.090 o
-3 -1 -15 21.360 18.026 1.241 57.880 o
-3 -1 -14 61.731 65.367 1.680 12.425 o
-3 -1 -13 27.768 30.120 1.628 32.972 o
-3 -1 -12 2.849 2.684 0.529 482.355 o
-3 -1 -11 179.158 168.086 1.712 2.112 o
-3 -1 -10 100.225 96.899 1.137 6.269 o
-3 -1 -9 82.392 79.277 0.871 9.172 o
-3 -1 -8 32.028 29.184 0.604 49.524 o
-3 -1 -7 283.579 291.505 2.011 0.825 o
-3 -1 -6 164.809 149.125 1.124 2.581 o
-3 -1 -5 233.422 231.407 1.495 1.241 o
-3 -1 -4 221.896 243.583 1.405 1.282 o
-3 -1 -3 4.835 5.096 0.244 711.272 o
-3 -1 -2 147.318 153.602 1.003 2.937 o
-3 -1 -1 328.980 329.170 1.835 0.631 o
-2 -15 -5 33.987 35.043 5.069 6.114 o
-2 -15 -4 37.078 41.462 2.676 15.124 o
-2 -15 -3 7.015 6.223 1.606 62.921 o
-2 -15 -2 6.274 4.732 1.431 79.162 o
-2 -15 -1 1.437 -0.024 1.120 141.056 o
-2 -14 -8 18.361 17.347 4.431 8.645 o
-2 -14 -7 13.976 15.289 1.754 45.343 o
-2 -14 -6 66.809 73.368 2.860 8.187 o
-2 -14 -5 14.324 14.950 1.499 57.020 o
-2 -14 -4 70.621 65.620 2.538 8.891 o
-2 -14 -3 27.116 30.194 2.174 24.145 o
-2 -14 -2 9.852 13.444 1.509 62.737 o
-2 -14 -1 12.543 9.704 1.676 52.251 o
-2 -13 -10 45.876 46.070 2.955 11.812 o
-2 -13 -9 34.491 33.256 2.323 19.541 o
-2 -13 -8 44.042 42.923 2.073 17.551 o
-2 -13 -7 8.426 6.792 1.172 103.750 o
-2 -13 -6 33.172 31.424 1.777 26.894 o
-2 -13 -5 91.539 96.339 2.331 6.046 o
-2 -13 -4 44.019 47.560 2.133 16.530 o
-2 -13 -3 52.113 51.975 1.968 14.893 o
-2 -13 -2 12.998 12.443 1.225 80.005 o
-2 -13 -1 22.473 25.729 2.035 29.268 o
-2 -12 -12 0.134 -2.211 1.293 108.161 o
-2 -12 -11 18.052 18.546 1.833 38.552 o
-2 -12 -10 41.868 47.370 2.458 15.006 o
-2 -12 -9 15.099 18.724 1.640 47.568 o
-2 -12 -8 11.101 13.387 1.322 74.628 o
-2 -12 -7 59.964 63.822 2.348 10.853 o
-2 -12 -6 16.050 15.490 1.286 66.542 o
-2 -12 -5 27.584 25.108 1.554 36.530 o
-2 -12 -4 4.196 2.196 0.856 210.410 o
-2 -12 -3 25.046 23.527 1.350 45.110 o
-2 -12 -2 52.051 49.155 1.805 16.080 o
-2 -12 -1 13.573 10.766 1.180 84.651 o
-2 -11 -14 21.671 12.385 3.560 12.888 o
-2 -11 -13 3.480 4.363 1.702 59.633 o
-2 -11 -12 75.518 83.131 2.876 7.009 o
-2 -11 -11 24.624 26.007 1.675 35.646 o
-2 -11 -10 2.499 2.614 1.118 135.541 o
-2 -11 -9 85.993 88.480 2.433 6.613 o
-2 -11 -8 9.790 11.162 0.889 135.756 o
-2 -11 -7 42.075 46.206 1.286 23.767 o
-2 -11 -6 3.424 3.492 0.595 378.859 o
-2 -11 -5 46.156 42.680 1.321 22.359 o
-2 -11 -4 83.805 81.645 2.095 7.501 o
-2 -11 -3 134.406 137.331 2.793 3.126 o
-2 -11 -2 92.192 91.937 2.220 6.258 o
-2 -11 -1 36.032 38.156 1.571 26.289 o
-2 -10 -15 2.351 2.437 1.922 48.011 o
-2 -10 -14 13.836 14.887 1.492 58.006 o
-2 -10 -13 43.562 49.822 2.635 13.447 o
-2 -10 -12 85.386 95.608 2.812 5.975 o
-2 -10 -11 50.939 51.114 1.702 16.655 o
-2 -10 -10 43.103 45.089 1.546 21.474 o
-2 -10 -9 3.650 2.861 0.708 291.153 o
-2 -10 -8 17.217 18.940 1.194 66.803 o
-2 -10 -7 10.880 10.164 0.738 161.644 o
-2 -10 -6 54.744 51.222 1.184 17.877 o
-2 -10 -5 60.081 59.961 1.306 14.518 o
-2 -10 -4 59.685 60.013 1.070 15.306 o
-2 -10 -3 155.702 148.600 1.759 2.709 o
-2 -10 -2 5.385 4.442 0.452 444.600 o
-2 -10 -1 11.616 12.470 0.667 160.622 o
-2 -9 -16 5.665 4.893 1.372 86.095 o
-2 -9 -15 38.291 39.759 1.884 21.518 o
-2 -9 -14 56.265 62.504 2.288 11.722 o
-2 -9 -13 85.867 88.031 2.017 7.123 o
-2 -9 -12 32.725 33.282 1.517 30.489 o
-2 -9 -11 13.679 11.937 1.025 98.340 o
-2 -9 -10 62.439 64.189 1.683 12.393 o
-2 -9 -9 12.163 11.247 1.064 100.048 o
-2 -9 -8 185.538 180.193 2.118 1.905 o
-2 -9 -7 30.260 30.282 0.943 44.911 o
-2 -9 -6 28.697 31.215 0.896 47.465 o
-2 -9 -5 61.211 58.573 1.478 13.876 o
-2 -9 -4 66.402 67.725 1.446 11.888 o
-2 -9 -3 40.901 37.980 1.269 26.888 o
-2 -9 -2 45.426 42.238 0.781 26.618 o
-2 -9 -1 74.524 81.109 0.941 10.123 o
-2 -8 -17 13.502 16.155 1.729 46.391 o
-2 -8 -16 7.722 6.187 1.088 119.747 o
-2 -8 -15 26.817 26.041 1.232 44.984 o
-2 -8 -14 20.884 19.932 1.127 62.453 o
-2 -8 -13 42.992 45.725 1.339 23.005 o
-2 -8 -12 18.256 16.218 0.862 90.373 o
-2 -8 -11 10.930 10.594 0.724 162.598 o
-2 -8 -10 32.706 32.928 0.984 39.517 o
-2 -8 -9 47.664 52.237 1.194 20.364 o
-2 -8 -8 36.564 38.577 0.896 33.989 o
-2 -8 -7 11.380 11.285 0.570 188.779 o
-2 -8 -6 11.385 11.264 0.529 198.210 o
-2 -8 -5 132.149 123.442 1.072 3.853 o
-2 -8 -4 32.986 28.659 0.788 45.283 o
-2 -8 -3 79.758 72.198 0.880 10.064 o
-2 -8 -2 23.295 21.875 0.560 80.386 o
-2 -8 -1 92.067 79.782 0.721 8.039 o
-2 -7 -18 6.453 4.480 1.012 142.933 o
-2 -7 -17 23.340 23.822 1.111 55.347 o
-2 -7 -16 5.415 5.377 0.731 239.901 o
-2 -7 -15 21.593 21.596 0.998 65.494 o
-2 -7 -14 83.538 84.443 1.450 8.159 o
-2 -7 -13 19.358 20.403 0.875 79.286 o
-2 -7 -12 11.307 12.404 0.693 158.446 o
-2 -7 -11 27.070 27.468 0.800 55.645 o
-2 -7 -10 8.302 7.868 0.492 286.426 o
-2 -7 -9 51.228 44.846 1.046 21.209 o
-2 -7 -8 1.094 1.136 0.261 1786.800 o
-2 -7 -7 60.718 59.011 0.862 15.683 o
-2 -7 -6 161.287 154.610 1.100 2.599 o
-2 -7 -5 84.889 79.034 0.736 8.951 o
-2 -7 -4 179.726 175.646 0.796 2.103 o
-2 -7 -3 81.507 77.564 0.871 9.414 o
-2 -7 -2 104.833 107.310 1.109 5.590 o
-2 -7 -1 73.282 71.019 0.735 11.430 o
-2 -6 -18 15.510 16.073 1.067 82.729 o
-2 -6 -17 11.972 10.838 0.897 124.025 o
-2 -6 -16 3.941 3.713 0.623 341.086 o
-2 -6 -15 13.255 12.910 0.843 120.261 o
-2 -6 -14 33.850 34.841 1.068 35.998 o
-2 -6 -13 3.024 2.653 0.469 565.278 o
-2 -6 -12 44.475 43.893 0.891 25.995 o
-2 -6 -11 156.386 158.499 1.349 2.638 o
-2 -6 -10 14.525 13.934 0.458 161.783 o
-2 -6 -9 83.301 81.348 1.085 8.732 o
-2 -6 -8 14.881 13.441 0.393 169.043 o
-2 -6 -7 333.988 323.160 1.414 0.630 o
-2 -6 -6 10.236 9.032 0.333 290.682 o
-2 -6 -5 336.866 319.827 1.256 0.627 o
-2 -6 -4 58.734 67.430 0.506 15.668 o
-2 -6 -3 103.073 100.328 1.095 5.951 o
-2 -6 -2 207.443 218.394 1.331 1.503 o
-2 -6 -1 457.631 479.639 2.447 0.320 o
-2 -5 -19 20.972 19.404 1.434 49.324 o
-2 -5 -18 7.508 7.576 0.884 160.212 o
-2 -5 -17 3.700 2.855 0.685 305.786 o
-2 -5 -16 62.191 65.046 1.377 13.201 o
-2 -5 -15 26.024 27.160 0.993 52.202 o
-2 -5 -14 48.282 50.724 1.204 20.362 o
-2 -5 -13 75.936 73.769 1.313 10.002 o
-2 -5 -12 22.021 21.569 0.714 78.186 o
-2 -5 -11 24.103 22.213 0.612 75.177 o
-2 -5 -10 16.699 14.973 0.592 125.118 o
-2 -5 -9 237.546 228.540 2.280 1.199 o
-2 -5 -8 23.733 22.777 0.450 81.277 o
-2 -5 -7 700.356 698.083 2.432 0.143 o
-2 -5 -6 149.934 148.656 0.986 2.935 o
-2 -5 -5 123.420 120.153 0.824 4.318 o
-2 -5 -4 72.595 73.546 0.624 11.429 o
-2 -5 -3 29.770 27.836 0.358 59.010 o
-2 -5 -2 271.274 276.064 1.885 0.907 o
-2 -5 -1 88.873 90.534 0.801 7.758 o
-2 -4 -19 23.985 26.857 1.465 41.160 o
-2 -4 -18 44.028 47.113 1.757 19.151 o
-2 -4 -17 1.791 2.735 0.658 361.671 o
-2 -4 -16 10.460 9.461 0.924 130.458 o
-2 -4 -15 24.943 23.177 1.247 48.683 o
-2 -4 -14 45.248 48.738 1.139 22.586 o
-2 -4 -13 2.127 1.512 0.517 551.238 o
-2 -4 -12 151.950 155.675 1.938 2.687 o
-2 -4 -11 29.915 30.081 0.793 48.690 o
-2 -4 -10 43.572 44.146 0.812 27.018 o
-2 -4 -9 9.946 8.970 0.802 159.058 o
-2 -4 -8 12.753 12.070 0.503 182.737 o
-2 -4 -7 135.869 136.705 1.083 3.492 o
-2 -4 -6 77.763 79.046 0.615 10.062 o
-2 -4 -5 26.512 25.796 0.459 67.735 o
-2 -4 -4 76.913 81.560 0.808 9.848 o
-2 -4 -3 159.534 155.855 0.737 2.649 o
-2 -4 -2 69.174 72.151 0.559 12.321 o
-2 -4 -1 46.983 51.337 0.448 24.269 o
-2 -3 -20 29.590 29.359 5.018 6.423 o
-2 -3 -19 6.967 6.749 1.017 134.850 o
-2 -3 -18 78.479 87.653 2.302 7.431 o
-2 -3 -17 46.415 51.079 1.388 19.986 o
-2 -3 -16 47.351 47.727 1.183 21.552 o
-2 -3 -15 50.252 50.937 1.187 19.600 o
-2 -3 -14 121.651 121.207 1.648 4.169 o
-2 -3 -13 14.725 13.907 0.908 103.665 o
-2 -3 -12 17.947 15.225 0.930 87.798 o
-2 -3 -11 63.809 55.490 1.374 13.941 o
-2 -3 -10 228.491 216.942 2.121 1.307 o
-2 -3 -9 182.066 165.706 2.292 2.032 o
-2 -3 -8 104.897 102.396 1.030 5.779 o
-2 -3 -7 2.528 2.369 0.318 983.541 o
-2 -3 -6 946.958 972.598 2.517 0.077 o
-2 -3 -5 63.729 68.821 0.807 13.639 o
-2 -3 -4 66.370 65.222 0.642 13.676 o
-2 -3 -3 75.918 78.673 0.550 10.435 o
-2 -3 -2 1107.720 1176.710 4.230 0.055 o
-2 -3 -1 156.495 174.407 0.927 2.509 o
-2 -2 -20 1.007 4.133 3.453 15.107 o
-2 -2 -19 14.251 13.948 1.318 68.876 o
-2 -2 -18 6.042 5.506 1.058 132.620 o
-2 -2 -17 11.945 10.863 1.074 100.202 o
-2 -2 -16 80.822 85.396 1.615 8.219 o
-2 -2 -15 23.110 24.430 1.017 58.804 o
-2 -2 -14 46.204 48.458 1.150 22.121 o
-2 -2 -13 48.921 43.605 1.070 22.466 o
-2 -2 -12 23.990 18.332 0.941 66.489 o
-2 -2 -11 242.935 230.527 2.371 1.156 o
-2 -2 -10 116.895 108.103 1.244 4.821 o
-2 -2 -9 271.790 263.312 1.971 0.931 o
-2 -2 -8 113.533 112.522 1.413 4.823 o
-2 -2 -7 56.925 56.814 0.773 17.504 o
-2 -2 -6 609.569 655.302 2.091 0.179 o
-2 -2 -5 307.133 328.399 1.849 0.691 o
-2 -2 -4 230.163 257.164 1.055 1.187 o
-2 -2 -3 68.022 57.278 0.571 14.371 o
-2 -2 -2 93.571 97.038 0.721 7.009 o
-2 -2 -1 544.863 600.878 3.162 0.218 o
-2 -1 -20 4.338 3.492 2.306 33.097 o
-2 -1 -19 63.638 63.851 2.331 10.376 o
-2 -1 -18 53.514 61.657 1.828 14.059 o
-2 -1 -17 22.481 21.584 1.516 43.663 o
-2 -1 -16 86.441 90.499 2.305 6.649 o
-2 -1 -15 51.247 54.378 1.312 17.979 o
-2 -1 -14 22.348 22.126 1.028 62.043 o
-2 -1 -13 5.442 4.946 0.742 237.056 o
-2 -1 -12 6.940 7.660 0.554 286.263 o
-2 -1 -11 127.454 125.991 1.575 3.870 o
-2 -1 -10 228.811 213.194 1.504 1.341 o
-2 -1 -9 20.397 19.001 0.576 96.325 o
-2 -1 -8 121.450 122.056 1.189 4.288 o
-2 -1 -7 10.576 12.764 0.322 246.642 o
-2 -1 -6 0.871 0.304 0.252 2170.350 o
-2 -1 -5 27.546 33.379 0.432 56.733 o
-2 -1 -4 458.758 463.551 1.496 0.328 o
-2 -1 -3 789.957 858.142 2.964 0.106 o
-2 -1 -2 864.886 986.883 3.606 0.086 o
-2 -1 -1 791.270 815.152 2.919 0.110 o
-1 -15 -6 58.828 55.469 2.947 9.689 o
-1 -15 -5 39.675 42.928 2.391 16.410 o
-1 -15 -4 17.817 17.823 1.873 37.745 o
-1 -15 -3 5.140 5.418 1.405 82.892 o
-1 -15 -2 26.716 28.389 1.821 30.482 o
-1 -15 -1 19.433 18.659 1.850 37.137 o
-1 -14 -9 2.441 0.903 1.257 110.372 o
-1 -14 -8 40.374 43.190 2.361 16.432 o
-1 -14 -7 7.780 10.646 1.424 73.695 o
-1 -14 -6 28.592 26.789 2.789 17.208 o
-1 -14 -5 35.451 36.661 2.417 17.975 o
-1 -14 -4 25.499 28.503 2.169 25.140 o
-1 -14 -3 39.421 39.701 2.042 19.683 o
-1 -14 -2 0.256 0.735 0.837 254.035 o
-1 -14 -1 53.187 55.183 2.083 13.770 o
-1 -13 -11 22.565 24.264 2.136 27.654 o
-1 -13 -10 3.333 2.986 1.166 122.934 o
-1 -13 -9 1.878 1.995 1.000 170.764 o
-1 -13 -8 40.652 44.151 1.921 19.562 o
-1 -13 -7 32.093 32.228 1.783 27.156 o
-1 -13 -6 4.506 3.623 0.912 182.676 o
-1 -13 -5 57.617 56.316 2.036 12.947 o
-1 -13 -4 86.443 89.538 2.329 6.659 o
-1 -13 -3 14.903 16.582 1.362 62.857 o
-1 -13 -2 6.616 7.016 0.994 140.739 o
-1 -13 -1 36.939 34.841 1.475 27.910 o
-1 -12 -13 8.647 9.842 1.844 46.995 o
-1 -12 -12 26.627 28.754 1.891 29.153 o
-1 -12 -11 31.740 35.508 2.025 23.352 o
-1 -12 -10 24.799 27.051 1.764 33.170 o
-1 -12 -9 44.706 45.694 2.004 17.448 o
-1 -12 -8 9.838 9.581 1.075 109.013 o
-1 -12 -7 59.081 63.257 2.473 10.634 o
-1 -12 -6 19.717 19.071 1.103 66.816 o
-1 -12 -5 23.188 26.314 1.273 48.092 o
-1 -12 -4 36.416 38.025 1.217 30.459 o
-1 -12 -3 34.788 34.989 1.125 34.226 o
-1 -12 -2 72.055 73.541 1.507 10.299 o
-1 -12 -1 23.063 22.354 1.063 58.989 o
-1 -11 -15 6.982 3.970 2.782 22.663 o
-1 -11 -14 34.287 36.191 2.143 20.979 o
-1 -11 -13 57.316 59.813 2.824 9.990 o
-1 -11 -12 33.632 33.273 1.993 23.437 o
-1 -11 -11 17.529 16.977 1.505 51.772 o
-1 -11 -10 20.301 20.125 1.616 43.133 o
-1 -11 -9 15.550 17.146 1.342 62.609 o
-1 -11 -8 21.612 21.270 1.381 49.462 o
-1 -11 -7 58.633 61.768 1.753 13.198 o
-1 -11 -6 64.845 64.152 1.569 12.238 o
-1 -11 -5 3.464 3.571 0.627 348.612 o
-1 -11 -4 34.582 33.440 1.037 36.443 o
-1 -11 -3 33.738 32.744 1.000 38.238 o
-1 -11 -2 29.317 28.784 0.954 47.005 o
-1 -11 -1 86.934 87.004 1.612 7.505 o
-1 -10 -16 34.079 36.773 3.562 10.818 o
-1 -10 -15 18.261 17.875 1.413 54.498 o
-1 -10 -14 32.164 34.635 1.772 26.656 o
-1 -10 -13 22.907 21.540 1.321 49.855 o
-1 -10 -12 3.658 3.088 0.892 196.754 o
-1 -10 -11 104.800 104.621 2.519 4.894 o
-1 -10 -10 3.012 2.824 0.950 180.270 o
-1 -10 -9 14.792 14.515 1.082 85.533 o
-1 -10 -8 15.936 15.735 0.928 93.836 o
-1 -10 -7 23.900 25.027 0.906 60.904 o
-1 -10 -6 20.754 20.887 0.905 73.031 o
-1 -10 -5 35.702 34.072 0.962 36.125 o
-1 -10 -4 141.692 137.449 1.734 3.194 o
-1 -10 -3 31.604 30.744 0.752 46.414 o
-1 -10 -2 114.204 115.192 1.323 4.751 o
-1 -10 -1 189.418 182.698 1.498 1.884 o
-1 -9 -17 8.144 3.366 2.161 36.540 o
-1 -9 -16 2.437 2.903 1.164 125.566 o
-1 -9 -15 3.640 2.646 0.797 240.325 o
-1 -9 -14 23.761 24.221 1.137 53.383 o
-1 -9 -13 37.543 39.003 1.456 26.558 o
-1 -9 -12 87.534 95.424 1.933 6.759 o
-1 -9 -11 48.339 46.872 1.308 20.545 o
-1 -9 -10 5.671 5.658 0.652 274.502 o
-1 -9 -9 68.466 68.497 1.652 10.992 o
-1 -9 -8 25.876 23.847 0.955 56.486 o
-1 -9 -7 22.820 22.960 1.054 59.254 o
-1 -9 -6 23.675 23.124 0.810 67.272 o
-1 -9 -5 54.896 52.086 0.794 19.110 o
-1 -9 -4 44.668 46.086 0.739 26.108 o
-1 -9 -3 187.788 172.132 1.228 1.991 o
-1 -9 -2 6.231 5.006 0.366 478.936 o
-1 -9 -1 297.598 281.637 1.516 0.798 o
-1 -8 -18 4.952 3.171 1.146 122.345 o
-1 -8 -17 21.723 22.589 1.122 58.688 o
-1 -8 -16 18.830 20.599 1.125 65.902 o
-1 -8 -15 75.279 81.983 1.791 8.816 o
-1 -8 -14 52.576 56.188 1.450 16.624 o
-1 -8 -13 29.696 28.962 1.117 42.658 o
-1 -8 -12 25.920 27.060 0.932 54.278 o
-1 -8 -11 76.834 78.075 1.329 9.536 o
-1 -8 -10 65.249 62.744 1.324 12.918 o
-1 -8 -9 16.261 14.548 0.697 117.915 o
-1 -8 -8 18.032 19.118 0.711 97.266 o
-1 -8 -7 58.647 54.722 0.785 17.236 o
-1 -8 -6 99.689 97.236 0.949 6.384 o
-1 -8 -5 50.399 50.148 0.654 22.053 o
-1 -8 -4 201.922 196.581 1.425 1.661 o
-1 -8 -3 234.035 230.571 1.536 1.239 o
-1 -8 -2 73.871 70.881 0.832 11.225 o
-1 -8 -1 59.072 64.664 0.663 15.738 o
-1 -7 -18 35.208 37.588 1.408 28.996 o
-1 -7 -17 7.456 7.797 0.836 172.625 o
-1 -7 -16 45.382 48.594 1.322 21.361 o
-1 -7 -15 12.772 12.031 0.948 110.701 o
-1 -7 -14 118.233 121.723 1.973 4.185 o
-1 -7 -13 22.058 20.524 0.836 73.576 o
-1 -7 -12 91.717 95.859 1.388 6.853 o
-1 -7 -11 57.306 55.685 1.026 16.826 o
-1 -7 -10 168.138 169.501 1.715 2.276 o
-1 -7 -9 63.776 55.248 0.866 15.326 o
-1 -7 -8 20.520 20.150 0.410 101.955 o
-1 -7 -7 80.753 71.282 0.650 10.178 o
-1 -7 -6 57.841 56.447 0.682 17.467 o
-1 -7 -5 182.864 169.128 1.476 2.067 o
-1 -7 -4 56.777 57.781 0.689 17.593 o
-1 -7 -3 231.491 221.645 1.206 1.297 o
-1 -7 -2 377.862 376.972 1.508 0.484 o
-1 -7 -1 46.206 41.422 0.544 27.638 o
-1 -6 -19 2.022 1.616 0.753 288.914 o
-1 -6 -18 13.586 14.490 1.086 88.544 o
-1 -6 -17 5.044 5.765 0.882 182.463 o
-1 -6 -16 29.029 27.881 1.266 40.611 o
-1 -6 -15 15.845 14.159 0.889 100.737 o
-1 -6 -14 39.485 42.659 1.116 27.809 o
-1 -6 -13 80.862 84.785 1.359 8.544 o
-1 -6 -12 15.034 14.767 0.670 127.511 o
-1 -6 -11 15.914 15.279 0.684 119.218 o
-1 -6 -10 45.968 44.086 0.696 26.145 o
-1 -6 -9 174.305 168.163 1.084 2.234 o
-1 -6 -8 5.004 3.234 0.209 850.414 o
-1 -6 -7 311.848 306.028 1.367 0.714 o
-1 -6 -6 157.992 158.364 1.178 2.622 o
-1 -6 -5 174.143 166.844 1.220 2.239 o
-1 -6 -4 70.692 66.783 0.651 12.479 o
-1 -6 -3 14.811 16.314 0.248 168.990 o
-1 -6 -2 155.201 152.033 0.938 2.773 o
-1 -6 -1 136.620 143.307 0.934 3.384 o
-1 -5 -20 10.750 9.687 2.386 28.987 o
-1 -5 -19 6.383 5.566 0.844 186.224 o
-1 -5 -18 88.375 87.988 2.186 6.728 o
-1 -5 -17 3.176 2.504 0.672 326.982 o
-1 -5 -16 36.774 38.443 1.328 28.706 o
-1 -5 -15 21.360 19.672 0.913 72.582 o
-1 -5 -14 21.752 20.558 0.905 70.896 o
-1 -5 -13 37.051 40.932 1.048 30.869 o
-1 -5 -12 158.986 152.058 1.556 2.628 o
-1 -5 -11 15.177 12.231 0.527 154.237 o
-1 -5 -10 13.438 14.035 0.519 162.953 o
-1 -5 -9 233.939 225.006 1.791 1.251 o
-1 -5 -8 201.411 190.618 1.194 1.709 o
-1 -5 -7 274.593 260.961 1.448 0.932 o
-1 -5 -6 222.080 225.814 1.213 1.352 o
-1 -5 -5 235.253 219.938 0.995 1.280 o
-1 -5 -4 316.322 341.399 1.428 0.651 o
-1 -5 -3 138.537 142.880 0.752 3.351 o
-1 -5 -2 237.609 235.844 0.847 1.211 o
-1 -5 -1 0.395 0.341 0.146 5672.660 o
-1 -4 -20 41.251 49.818 3.729 9.040 o
-1 -4 -19 17.183 15.268 1.154 73.204 o
-1 -4 -18 11.395 11.328 0.853 132.824 o
-1 -4 -17 37.084 41.130 1.441 26.378 o
-1 -4 -16 7.420 6.134 0.725 215.951 o
-1 -4 -15 10.173 8.236 0.734 176.211 o
-1 -4 -14 3.685 3.305 0.551 418.693 o
-1 -4 -13 91.853 87.229 1.386 7.230 o
-1 -4 -12 88.337 83.963 1.319 7.795 o
-1 -4 -11 77.868 75.241 1.060 9.928 o
-1 -4 -10 19.433 18.620 0.521 105.113 o
-1 -4 -9 126.184 118.540 1.268 4.143 o
-1 -4 -8 203.413 208.859 2.500 1.527 o
-1 -4 -7 3.777 3.589 0.262 886.934 o
-1 -4 -6 89.297 97.348 0.695 7.414 o
-1 -4 -5 744.053 773.044 1.734 0.124 o
-1 -4 -4 578.033 636.207 1.689 0.196 o
-1 -4 -3 37.050 46.303 0.377 34.074 o
-1 -4 -2 813.245 884.130 2.569 0.100 o
-1 -4 -1 491.650 499.786 1.232 0.285 o
-1 -3 -20 9.695 8.955 1.431 71.559 o
-1 -3 -19 51.351 52.560 2.124 14.253 o
-1 -3 -18 8.956 7.928 0.843 159.853 o
-1 -3 -17 22.525 19.954 1.131 59.225 o
-1 -3 -16 6.403 6.346 0.729 224.292 o
-1 -3 -15 98.689 101.115 1.624 5.950 o
-1 -3 -14 23.581 25.122 0.921 60.900 o
-1 -3 -13 3.704 3.664 0.570 393.853 o
-1 -3 -12 34.223 39.531 0.838 36.491 o
-1 -3 -11 24.471 22.287 0.700 70.631 o
-1 -3 -10 49.898 52.767 0.810 21.074 o
-1 -3 -9 48.940 44.537 0.826 23.571 o
-1 -3 -8 69.297 71.401 0.896 11.973 o
-1 -3 -7 235.571 233.588 1.680 1.215 o
-1 -3 -6 134.128 144.441 1.224 3.404 o
-1 -3 -5 174.941 183.130 0.956 2.112 o
-1 -3 -4 321.889 333.328 1.080 0.649 o
-1 -3 -3 481.073 506.437 1.444 0.291 o
-1 -3 -2 122.810 160.440 0.639 3.584 o
-1 -3 -1 984.035 1047.860 2.555 0.070 o
-1 -2 -20 35.120 33.242 2.512 17.647 o
-1 -2 -19 6.321 6.039 1.015 139.650 o
-1 -2 -18 13.308 13.302 1.012 98.684 o
-1 -2 -17 29.675 29.327 1.029 44.421 o
-1 -2 -16 28.924 28.478 1.102 44.229 o
-1 -2 -15 29.383 30.712 0.967 45.272 o
-1 -2 -14 52.719 53.267 1.223 18.061 o
-1 -2 -13 83.714 78.695 1.501 8.406 o
-1 -2 -12 78.319 77.442 1.173 9.567 o
-1 -2 -11 121.540 109.234 1.373 4.523 o
-1 -2 -10 291.729 277.467 1.923 0.822 o
-1 -2 -9 219.308 205.931 2.475 1.404 o
-1 -2 -8 309.218 316.717 1.865 0.701 o
-1 -2 -7 632.038 655.809 2.670 0.170 o
-1 -2 -6 274.140 285.552 1.148 0.885 o
-1 -2 -5 585.181 658.914 2.956 0.187 o
-1 -2 -4 443.919 478.275 1.437 0.335 o
-1 -2 -3 707.942 768.853 1.723 0.132 o
-1 -2 -2 158.677 172.571 0.747 2.494 o
-1 -2 -1 639.077 680.885 2.871 0.164 o
-1 -1 -20 10.536 11.859 1.640 54.991 o
-1 -1 -19 9.589 10.004 1.207 92.346 o
-1 -1 -18 34.742 35.749 1.459 29.215 o
-1 -1 -17 22.833 21.424 0.968 64.399 o
-1 -1 -16 31.018 29.530 1.017 42.862 o
-1 -1 -15 13.441 13.361 0.755 130.276 o
-1 -1 -14 56.084 52.836 1.407 16.253 o
-1 -1 -13 87.882 84.900 1.576 7.552 o
-1 -1 -12 45.399 42.743 0.911 25.647 o
-1 -1 -11 296.515 278.675 1.743 0.805 o
-1 -1 -10 63.513 61.174 1.021 14.236 o
-1 -1 -9 364.793 354.213 2.521 0.522 o
-1 -1 -8 26.693 22.465 0.592 68.156 o
-1 -1 -7 70.272 70.995 0.851 11.881 o
-1 -1 -6 380.292 402.751 1.474 0.460 o
-1 -1 -5 433.536 450.494 1.629 0.360 o
-1 -1 -4 71.516 66.676 0.543 12.421 o
-1 -1 -3 1782.450 1907.290 4.562 0.021 o
-1 -1 -2 4344.510 4525.060 12.024 0.004 o
-1 -1 -1 548.149 491.374 3.182 0.247 o
0 0 2 2771.370 2843.110 14.363 0.009 o
0 0 4 52.842 52.239 0.875 19.642 o
0 0 6 529.880 549.803 3.049 0.240 o
0 0 8 752.007 793.329 4.931 0.118 o
0 0 10 4.420 5.587 0.621 315.255 o
0 0 12 183.975 168.340 2.141 2.002 o
0 0 14 1.695 1.620 0.593 447.877 o
0 0 16 7.145 7.509 0.981 139.961 o
0 0 18 4.809 3.917 1.756 55.577 o
0 0 20 76.423 77.314 3.041 6.899 o
0 1 1 15.809 19.423 0.204 146.384 o
0 1 2 4.030 4.307 0.168 989.414 o
0 1 3 1.520 3.040 0.173 1902.220 o
0 1 4 189.567 199.768 0.947 1.801 o
0 1 5 3642.190 3864.370 13.250 0.005 o
0 1 6 4.699 4.480 0.266 722.568 o
0 1 7 33.798 32.395 0.579 44.645 o
0 1 8 297.576 304.235 1.655 0.759 o
0 1 9 146.956 141.483 1.190 3.082 o
0 1 10 0.581 1.970 0.434 826.538 o
0 1 11 146.343 134.405 1.441 3.159 o
0 1 12 193.275 189.569 2.053 1.760 o
0 1 13 13.767 14.487 0.702 132.105 o
0 1 14 267.790 273.629 3.001 0.902 o
0 1 15 3.719 3.553 0.558 407.269 o
0 1 16 32.451 31.573 0.987 40.518 o
0 1 17 2.759 2.931 0.897 201.084 o
0 1 18 10.775 13.301 1.174 88.989 o
0 1 19 16.808 16.166 1.392 58.654 o
0 1 20 1.070 0.785 0.975 185.049 o
0 2 0 101.340 138.368 0.617 4.999 o
0 2 1 213.613 186.343 0.529 1.619 o
0 2 2 1.899 0.426 0.107 3315.800 o
0 2 3 1219.410 1248.920 3.628 0.047 o
0 2 4 2053.980 2042.100 6.569 0.017 o
0 2 5 9.229 10.119 0.305 311.554 o
0 2 6 2.293 1.007 0.224 1651.370 o
0 2 7 720.489 741.783 2.476 0.132 o
0 2 8 208.616 223.664 1.573 1.461 o
0 2 9 257.005 242.994 1.905 1.054 o
0 2 10 91.163 96.089 1.096 7.086 o
0 2 11 20.285 14.012 0.562 109.825 o
0 2 12 39.651 40.887 0.940 29.987 o
0 2 13 146.232 142.591 1.514 3.041 o
0 2 14 63.306 59.755 1.189 14.057 o
0 2 15 45.163 48.966 1.498 20.191 o
0 2 16 2.824 1.770 0.728 295.653 o
0 2 17 10.295 7.896 1.047 114.405 o
0 2 18 1.365 1.125 0.729 317.151 o
0 2 19 1.524 0.799 0.823 252.599 o
0 2 20 8.214 7.082 1.120 111.611 o
0 3 1 123.180 127.665 0.436 4.214 o
0 3 2 2883.120 3213.280 9.254 0.008 o
0 3 3 2035.450 2161.880 4.937 0.016 o
0 3 4 212.874 235.855 1.019 1.390 o
0 3 5 193.896 218.289 1.159 1.642 o
0 3 6 41.056 33.618 0.457 36.011 o
0 3 7 8.669 9.750 0.474 267.640 o
0 3 8 197.332 206.022 1.475 1.658 o
0 3 9 478.938 504.931 3.165 0.289 o
0 3 10 224.298 233.786 1.814 1.288 o
0 3 11 129.389 113.857 1.430 4.067 o
0 3 12 2.386 2.257 0.440 667.297 o
0 3 13 33.623 30.871 0.987 39.591 o
0 3 14 8.452 8.155 0.631 225.894 o
0 3 15 146.187 141.883 2.710 2.812 o
0 3 16 16.182 14.356 1.108 79.966 o
0 3 17 1.522 1.326 0.690 347.671 o
0 3 18 5.442 5.135 0.857 190.155 o
0 3 19 7.024 7.363 0.861 170.263 o
0 3 20 11.230 10.366 1.073 103.394 o
0 4 0 397.946 513.276 1.974 0.363 o
0 4 1 1368.150 1417.120 3.219 0.037 o
0 4 2 4.253 5.842 0.157 852.290 o
0 4 3 649.351 719.984 1.655 0.155 o
0 4 4 195.010 212.749 0.870 1.668 o
0 4 5 1054.770 1136.680 3.496 0.060 o
0 4 6 102.258 97.162 0.955 6.186 o
0 4 7 31.100 25.918 0.463 56.615 o
0 4 8 51.910 50.699 0.745 20.869 o
0 4 9 29.657 27.509 0.593 55.543 o
0 4 10 197.654 207.894 1.434 1.646 o
0 4 11 32.026 27.559 0.728 48.641 o
0 4 12 45.359 48.681 1.104 22.771 o
0 4 13 2.029 0.468 0.605 439.142 o
0 4 14 0.854 1.787 0.650 395.406 o
0 4 15 12.594 11.378 1.032 102.141 o
0 4 16 110.900 113.694 1.950 4.699 o
0 4 17 114.326 117.039 2.223 4.339 o
0 4 18 69.017 69.075 1.633 10.894 o
0 4 19 7.398 7.843 0.868 164.131 o
0 4 20 46.499 50.683 2.465 13.729 o
0 5 1 172.624 184.973 0.742 2.142 o
0 5 2 58.085 69.755 0.474 15.553 o
0 5 3 506.307 494.098 1.868 0.276 o
0 5 4 503.152 548.206 1.466 0.260 o
0 5 5 302.255 307.817 1.184 0.742 o
0 5 6 67.978 78.161 0.590 11.915 o
0 5 7 270.304 270.162 1.612 0.928 o
0 5 8 63.614 52.422 1.244 14.765 o
0 5 9 42.473 40.699 0.872 28.549 o
0 5 10 63.706 59.014 0.890 14.761 o
0 5 11 69.281 65.091 1.588 11.285 o
0 5 12 32.675 33.117 1.219 35.448 o
0 5 13 13.813 11.265 1.011 100.661 o
0 5 14 6.248 6.533 0.847 182.609 o
0 5 15 6.362 5.645 0.884 173.531 o
0 5 16 2.971 2.541 0.647 350.957 o
0 5 17 29.296 31.553 1.387 36.019 o
0 5 18 0.722 0.459 0.671 386.339 o
0 5 19 0.081 0.499 0.778 295.804 o
0 6 0 18.470 18.957 0.448 114.180 o
0 6 1 14.858 13.802 0.280 180.134 o
0 6 2 53.716 54.822 0.522 19.780 o
0 6 3 12.918 13.558 0.311 203.456 o
0 6 4 884.054 913.538 2.215 0.088 o
0 6 5 7.345 6.971 0.205 489.216 o
0 6 6 78.834 77.228 0.744 9.939 o
0 6 7 220.216 196.213 1.079 1.496 o
0 6 8 39.309 37.185 0.621 34.755 o
0 6 9 409.513 379.642 2.143 0.431 o
0 6 10 24.936 28.079 0.796 59.356 o
0 6 11 128.392 114.569 1.824 3.977 o
0 6 12 231.218 248.091 2.839 1.156 o
0 6 13 4.628 5.442 0.681 275.413 o
0 6 14 0.743 -0.220 0.542 588.480 o
0 6 15 1.886 3.774 0.844 227.549 o
0 6 16 45.387 48.403 1.668 19.070 o
0 6 17 5.926 6.284 0.869 178.863 o
0 6 18 1.812 2.274 0.759 283.081 o
0 6 19 4.621 4.150 0.855 200.648 o
0 7 1 393.656 400.351 1.213 0.442 o
0 7 2 656.969 654.094 1.779 0.163 o
0 7 3 294.660 288.396 1.837 0.793 o
0 7 4 304.534 293.482 1.345 0.756 o
0 7 5 0.254 0.102 0.108 10446.700 o
0 7 6 8.436 7.458 0.241 406.889 o
0 7 7 17.498 20.274 0.447 116.088 o
0 7 8 20.397 21.525 0.540 92.901 o
0 7 9 93.730 91.417 1.165 7.023 o
0 7 10 6.098 4.234 0.514 370.161 o
0 7 11 14.517 14.630 0.803 114.831 o
0 7 12 0.970 1.657 0.627 421.304 o
0 7 13 39.231 40.279 1.312 26.759 o
0 7 14 0.006 0.460 0.698 368.929 o
0 7 15 16.282 18.198 1.138 73.032 o
0 7 16 9.082 8.803 0.860 152.285 o
0 7 17 2.157 2.733 0.742 288.395 o
0 7 18 0.004 -0.997 0.671 402.699 o
0 7 19 0.944 -2.465 2.516 28.523 o
0 8 0 156.347 147.675 1.380 2.753 o
0 8 1 524.685 506.990 1.833 0.259 o
0 8 2 124.030 122.029 0.939 4.230 o
0 8 3 501.673 484.463 1.870 0.283 o
0 8 4 33.280 31.894 0.522 46.512 o
0 8 5 28.235 24.126 0.531 63.759 o
0 8 6 12.896 11.251 0.430 199.721 o
0 8 7 59.843 64.291 1.094 14.610 o
0 8 8 91.018 94.435 1.300 7.041 o
0 8 9 25.716 23.611 0.774 63.227 o
0 8 10 0.001 -0.003 0.427 991.521 o
0 8 11 185.236 180.683 2.341 1.886 o
0 8 12 82.631 81.726 1.780 8.017 o
0 8 13 68.090 68.484 1.658 11.043 o
0 8 14 0.004 -0.322 0.659 416.557 o
0 8 15 4.812 4.605 0.884 187.089 o
0 8 16 14.245 15.187 0.968 96.818 o
0 8 17 4.021 5.291 0.832 209.744 o
0 8 18 55.492 55.044 2.916 10.191 o
0 9 1 114.836 115.858 0.884 4.824 o
0 9 2 83.524 80.838 0.711 9.029 o
0 9 3 0.181 0.404 0.189 4218.340 o
0 9 4 4.791 5.496 0.356 553.063 o
0 9 5 24.043 23.299 0.684 71.042 o
0 9 6 73.970 77.645 1.256 10.087 o
0 9 7 289.060 274.227 2.910 0.820 o
0 9 8 3.694 2.974 0.455 546.963 o
0 9 9 0.015 0.391 0.431 956.397 o
0 9 10 0.482 -0.480 0.500 699.909 o
0 9 11 24.425 23.226 1.020 57.381 o
0 9 12 24.531 25.828 1.235 47.863 o
0 9 13 227.745 232.582 2.890 1.224 o
0 9 14 2.799 2.397 0.740 283.826 o
0 9 15 12.959 13.408 1.091 91.429 o
0 9 16 11.006 11.528 0.987 113.635 o
0 9 17 54.404 53.480 2.162 13.355 o
0 10 0 84.167 81.568 1.422 8.279 o
0 10 1 221.756 207.794 1.361 1.423 o
0 10 2 14.898 14.172 0.577 142.032 o
0 10 3 2.182 2.494 0.420 720.605 o
0 10 4 80.193 76.037 1.007 9.583 o
0 10 5 4.858 4.980 0.443 464.066 o
0 10 6 10.945 11.552 0.731 157.311 o
0 10 7 49.684 45.309 1.214 20.867 o
0 10 8 0.251 -0.315 0.543 605.373 o
0 10 9 0.011 0.465 0.602 493.098 o
0 10 10 4.140 4.841 0.674 291.637 o
0 10 11 46.752 49.704 1.859 17.200 o
0 10 12 141.324 143.285 2.727 2.902 o
0 10 13 0.020 -1.411 0.939 205.271 o
0 10 14 81.457 91.533 2.452 6.821 o
0 10 15 2.605 2.505 0.776 262.912 o
0 10 16 8.145 9.486 1.809 49.043 o
0 11 1 8.129 6.860 0.624 241.780 o
0 11 2 63.120 60.759 1.135 14.114 o
0 11 3 121.376 117.133 1.423 4.336 o
0 11 4 1.874 1.655 0.515 562.037 o
0 11 5 73.768 76.857 1.320 10.086 o
0 11 6 54.807 53.063 1.381 16.715 o
0 11 7 14.206 12.453 0.850 115.926 o
0 11 8 5.977 5.301 0.816 199.985 o
0 11 9 25.767 25.993 1.230 46.355 o
0 11 10 0.251 0.896 0.921 210.137 o
0 11 11 0.341 0.294 0.774 297.587 o
0 11 12 19.221 18.470 1.668 43.022 o
0 11 13 22.687 25.802 1.766 34.896 o
0 11 14 102.024 104.398 2.623 4.966 o
0 11 15 3.807 1.627 2.126 39.117 o
0 12 0 17.830 20.320 1.611 45.451 o
0 12 1 24.737 26.752 1.014 53.982 o
0 12 2 208.946 209.251 2.527 1.474 o
0 12 3 26.261 28.221 1.135 46.987 o
0 12 4 0.528 0.392 0.504 675.626 o
0 12 5 39.922 41.775 1.251 26.507 o
0 12 6 42.422 43.993 1.483 22.520 o
0 12 7 11.772 14.006 1.338 71.640 o
0 12 8 110.589 114.355 2.179 4.585 o
0 12 9 18.433 19.158 1.521 48.898 o
0 12 10 72.550 69.392 2.542 8.477 o
0 12 11 1.308 -0.142 0.965 189.137 o
0 12 12 3.313 2.043 1.154 126.546 o
0 12 13 11.024 9.738 1.419 70.028 o
0 13 1 45.997 42.382 1.388 22.009 o
0 13 2 90.099 90.816 1.698 6.959 o
0 13 3 100.534 99.261 1.843 5.745 o
0 13 4 49.359 50.194 1.390 19.009 o
0 13 5 3.898 2.927 0.809 230.915 o
0 13 6 5.172 4.196 0.920 174.475 o
0 13 7 9.012 8.750 1.102 109.164 o
0 13 8 1.055 -0.409 0.883 226.422 o
0 13 9 0.745 0.519 0.943 199.318 o
0 13 10 24.965 27.641 1.919 29.788 o
0 13 11 20.013 19.312 1.492 48.214 o
0 13 12 67.099 75.827 4.595 5.110 o
0 14 0 3.644 3.120 0.926 184.507 o
0 14 1 82.000 75.532 2.113 7.945 o
0 14 2 19.601 24.528 1.443 47.627 o
0 14 3 0.057 -0.573 0.667 406.669 o
0 14 4 0.023 0.424 0.797 283.256 o
0 14 5 0.638 1.416 0.961 190.576 o
0 14 6 167.034 169.625 2.811 2.158 o
0 14 7 18.470 17.947 1.569 47.559 o
0 14 8 52.186 54.080 2.507 12.245 o
0 14 9 16.184 16.364 1.528 52.571 o
0 14 10 40.372 39.632 3.662 9.747 o
0 15 1 38.473 42.634 1.827 21.436 o
0 15 2 0.132 0.363 0.920 212.359 o
0 15 3 9.803 8.409 1.387 75.466 o
0 15 4 42.253 39.246 2.792 13.689 o
0 15 5 30.675 35.355 2.012 23.965 o
0 15 6 54.945 56.136 2.844 10.434 o
0 15 7 0.998 -0.092 1.440 86.564 o
0 16 1 0.197 1.197 1.538 76.108 o
0 16 2 49.657 55.144 4.077 7.320 o
0 16 3 0.055 0.540 2.428 30.698 o
1 0 1 368.344 411.145 1.562 0.472 o
1 0 2 138.517 178.294 0.909 2.859 o
1 0 3 641.740 688.532 2.258 0.162 o
1 0 4 58.394 41.911 0.366 20.903 o
1 0 5 360.652 417.923 2.643 0.473 o
1 0 6 2.012 2.196 0.225 1535.540 o
1 0 7 6.707 5.253 0.298 509.168 o
1 0 8 113.903 120.375 1.069 4.711 o
1 0 9 35.609 34.681 0.867 37.199 o
1 0 10 70.265 67.765 0.939 12.084 o
1 0 11 12.116 9.363 0.617 180.719 o
1 0 12 99.663 104.215 1.362 5.927 o
1 0 13 0.377 -0.164 0.400 1084.240 o
1 0 14 249.110 250.977 2.432 1.060 o
1 0 15 16.480 14.564 0.909 95.678 o
1 0 16 211.132 213.351 2.538 1.437 o
1 0 17 114.652 117.041 2.139 4.364 o
1 0 18 10.296 11.118 1.143 96.487 o
1 0 19 0.255 0.206 1.055 161.762 o
1 0 20 1.108 -0.301 1.113 143.789 o
1 1 0 2232.600 2395.210 5.220 0.014 o
1 1 1 548.834 501.546 1.353 0.246 o
1 1 2 4342.300 4542.340 11.842 0.004 o
1 1 3 1782.660 1942.930 6.147 0.021 o
1 1 4 71.557 66.130 0.595 12.421 o
1 1 5 433.569 445.866 1.800 0.362 o
1 1 6 380.807 406.249 1.580 0.456 o
1 1 7 70.284 72.352 0.781 11.832 o
1 1 8 26.438 23.414 0.499 70.237 o
1 1 9 365.274 356.369 1.768 0.524 o
1 1 10 63.452 62.526 1.004 14.116 o
1 1 11 296.351 282.460 2.021 0.795 o
1 1 12 45.549 45.702 0.978 24.259 o
1 1 13 87.888 80.488 1.111 8.212 o
1 1 14 56.110 56.290 1.343 15.988 o
1 1 15 13.396 12.703 0.936 108.221 o
1 1 16 30.875 30.939 1.254 37.491 o
1 1 17 22.930 22.239 1.423 45.879 o
1 1 18 34.765 35.314 1.569 27.833 o
1 1 19 9.540 10.983 1.091 105.489 o
1 1 20 10.514 12.838 1.586 57.610 o
1 2 0 1347.550 1473.750 5.394 0.036 o
1 2 1 638.962 702.754 1.948 0.161 o
1 2 2 158.551 175.053 0.913 2.463 o
1 2 3 708.069 783.649 3.640 0.130 o
1 2 4 443.865 476.657 1.811 0.335 o
1 2 5 585.227 661.815 2.364 0.187 o
1 2 6 274.134 284.716 1.663 0.880 o
1 2 7 632.168 649.069 3.305 0.171 o
1 2 8 308.983 320.440 1.733 0.698 o
1 2 9 219.252 206.761 1.449 1.446 o
1 2 10 291.988 286.728 1.671 0.808 o
1 2 11 121.042 108.312 1.171 4.629 o
1 2 12 78.506 76.401 1.015 9.795 o
1 2 13 83.652 79.609 1.317 8.566 o
1 2 14 52.711 51.817 1.319 17.881 o
1 2 15 29.245 30.799 1.514 33.868 o
1 2 16 28.959 30.619 1.645 31.682 o
1 2 17 29.624 31.260 1.636 31.204 o
1 2 18 13.376 12.835 1.068 93.296 o
1 2 19 6.287 5.945 1.020 138.759 o
1 2 20 35.155 38.095 2.406 17.963 o
1 3 0 2194.080 2302.750 8.521 0.014 o
1 3 1 984.929 1050.340 2.721 0.070 o
1 3 2 122.791 161.609 0.678 3.562 o
1 3 3 481.059 504.059 1.789 0.291 o
1 3 4 321.684 342.018 1.538 0.636 o
1 3 5 175.159 182.082 1.068 2.111 o
1 3 6 134.282 144.581 0.836 3.448 o
1 3 7 235.906 235.101 1.179 1.219 o
1 3 8 69.267 70.978 0.809 12.143 o
1 3 9 48.909 45.875 0.588 24.270 o
1 3 10 50.055 53.210 0.719 21.243 o
1 3 11 24.448 22.833 0.608 73.386 o
1 3 12 34.230 37.375 0.734 38.931 o
1 3 13 3.691 3.894 0.528 434.486 o
1 3 14 23.563 24.911 1.487 41.878 o
1 3 15 98.610 101.023 2.300 5.480 o
1 3 16 6.347 5.300 0.907 168.103 o
1 3 17 22.610 21.701 1.360 48.732 o
1 3 18 8.936 10.745 1.123 103.437 o
1 3 19 51.576 54.101 1.846 15.351 o
1 3 20 9.661 15.019 2.488 26.505 o
1 4 0 2322.650 2453.870 5.135 0.013 o
1 4 1 492.098 506.317 1.378 0.282 o
1 4 2 812.369 884.929 2.698 0.100 o
1 4 3 37.010 46.202 0.440 33.836 o
1 4 4 577.070 642.489 2.205 0.195 o
1 4 5 744.678 777.645 2.987 0.123 o
1 4 6 89.010 99.410 0.975 7.203 o
1 4 7 3.703 3.600 0.306 796.068 o
1 4 8 203.252 204.289 1.796 1.591 o
1 4 9 126.240 120.175 1.276 4.105 o
1 4 10 19.333 17.415 0.654 99.469 o
1 4 11 77.839 77.007 1.449 9.308 o
1 4 12 88.612 84.628 1.375 7.682 o
1 4 13 91.927 93.110 2.149 6.303 o
1 4 14 3.735 2.979 0.991 163.534 o
1 4 15 10.297 9.135 1.080 107.531 o
1 4 16 7.421 7.549 1.068 122.036 o
1 4 17 37.125 38.112 1.850 22.654 o
1 4 18 11.312 12.494 1.154 90.656 o
1 4 19 17.137 17.743 1.455 54.069 o
1 4 20 41.351 46.941 2.354 15.815 o
1 5 0 246.002 256.695 0.794 1.096 o
1 5 1 0.418 0.493 0.123 6519.660 o
1 5 2 237.422 238.843 1.212 1.196 o
1 5 3 138.656 146.507 1.129 3.251 o
1 5 4 316.733 341.407 1.196 0.652 o
1 5 5 235.493 215.496 1.235 1.289 o
1 5 6 222.215 225.248 1.572 1.343 o
1 5 7 274.294 261.324 1.803 0.927 o
1 5 8 201.116 195.440 1.656 1.665 o
1 5 9 233.785 227.050 1.605 1.251 o
1 5 10 13.377 13.735 0.627 148.343 o
1 5 11 15.123 12.254 0.794 118.898 o
1 5 12 159.258 153.435 2.078 2.539 o
1 5 13 36.825 40.362 1.394 27.288 o
1 5 14 21.821 21.100 1.572 42.722 o
1 5 15 21.394 19.069 1.428 49.266 o
1 5 16 36.585 39.793 1.577 25.490 o
1 5 17 3.199 2.785 0.892 200.797 o
1 5 18 88.245 89.778 2.542 6.279 o
1 5 19 6.411 6.533 0.997 142.141 o
1 6 0 108.573 117.209 0.721 5.169 o
1 6 1 136.756 143.408 0.772 3.396 o
1 6 2 155.148 154.632 0.993 2.741 o
1 6 3 14.716 16.353 0.462 148.651 o
1 6 4 70.812 69.431 0.666 12.154 o
1 6 5 174.494 172.186 1.147 2.194 o
1 6 6 157.691 158.495 1.316 2.614 o
1 6 7 311.652 307.038 1.859 0.708 o
1 6 8 4.979 3.169 0.277 741.483 o
1 6 9 174.462 171.148 1.648 2.166 o
1 6 10 45.850 43.610 1.026 24.362 o
1 6 11 16.076 16.495 0.751 108.405 o
1 6 12 14.973 12.988 0.815 115.162 o
1 6 13 80.608 86.659 1.951 7.754 o
1 6 14 39.419 41.447 1.594 23.502 o
1 6 15 15.719 14.899 1.177 75.192 o
1 6 16 28.970 27.956 1.410 37.387 o
1 6 17 5.083 5.724 0.989 151.675 o
1 6 18 13.677 14.005 1.058 91.638 o
1 6 19 2.026 2.846 1.421 86.400 o
1 7 0 175.752 176.304 0.952 2.152 o
1 7 1 46.394 41.749 0.435 27.841 o
1 7 2 378.146 380.745 1.495 0.481 o
1 7 3 230.909 219.049 1.654 1.298 o
1 7 4 56.883 58.990 0.922 16.739 o
1 7 5 183.308 170.757 1.314 2.060 o
1 7 6 57.804 57.133 0.608 17.517 o
1 7 7 80.580 69.513 0.778 10.242 o
1 7 8 20.553 20.220 0.621 90.533 o
1 7 9 63.836 56.305 1.081 14.642 o
1 7 10 168.149 169.575 1.868 2.259 o
1 7 11 57.115 54.962 1.349 15.865 o
1 7 12 91.671 94.698 1.770 6.604 o
1 7 13 22.191 18.405 1.261 55.419 o
1 7 14 118.296 119.056 2.292 4.106 o
1 7 15 12.709 12.688 0.950 109.285 o
1 7 16 45.410 46.582 1.611 19.777 o
1 7 17 7.465 6.834 0.972 141.960 o
1 7 18 35.355 38.936 1.566 26.513 o
1 8 0 1.921 2.003 0.170 1978.410 o
1 8 1 59.288 61.654 0.601 16.254 o
1 8 2 73.747 72.906 0.739 11.163 o
1 8 3 233.622 234.023 1.508 1.231 o
1 8 4 201.708 191.901 1.520 1.684 o
1 8 5 50.383 47.231 0.772 22.343 o
1 8 6 99.522 96.670 1.233 6.282 o
1 8 7 58.604 56.215 0.819 16.907 o
1 8 8 18.041 19.280 0.532 109.973 o
1 8 9 16.329 16.429 0.802 102.558 o
1 8 10 65.228 63.874 1.226 13.031 o
1 8 11 76.842 76.239 1.518 9.395 o
1 8 12 25.922 25.893 1.175 47.843 o
1 8 13 29.772 31.694 1.368 35.927 o
1 8 14 52.766 53.805 1.622 16.135 o
1 8 15 75.241 76.506 1.883 9.003 o
1 8 16 18.901 18.206 1.165 65.927 o
1 8 17 21.594 19.189 1.237 56.767 o
1 8 18 4.946 2.209 3.355 15.877 o
1 9 0 1.493 0.914 0.142 3038.140 o
1 9 1 297.864 276.370 1.438 0.808 o
1 9 2 6.203 5.230 0.338 500.664 o
1 9 3 187.585 175.286 1.380 1.963 o
1 9 4 44.548 46.481 0.752 25.982 o
1 9 5 54.614 51.599 0.808 19.280 o
1 9 6 23.593 24.877 0.686 70.061 o
1 9 7 22.928 22.170 0.818 69.966 o
1 9 8 25.734 25.727 0.796 60.161 o
1 9 9 68.545 68.099 1.209 11.931 o
1 9 10 5.692 5.509 0.557 333.378 o
1 9 11 48.075 46.862 1.288 20.784 o
1 9 12 87.264 92.901 1.695 7.119 o
1 9 13 37.295 35.285 1.185 31.224 o
1 9 14 23.712 24.758 1.234 49.693 o
1 9 15 3.656 3.635 0.764 252.543 o
1 9 16 2.452 1.973 0.774 268.656 o
1 9 17 8.093 5.856 1.723 54.789 o
1 10 0 53.506 55.972 0.766 18.974 o
1 10 1 189.617 184.750 1.374 1.875 o
1 10 2 114.355 112.876 1.112 4.869 o
1 10 3 31.704 31.099 0.831 44.587 o
1 10 4 141.514 140.023 1.519 3.202 o
1 10 5 35.984 33.178 0.773 38.835 o
1 10 6 20.564 18.043 0.736 87.758 o
1 10 7 23.823 26.181 1.038 55.194 o
1 10 8 15.975 14.721 0.832 104.839 o
1 10 9 14.943 14.655 0.866 105.771 o
1 10 10 3.009 3.174 0.587 400.669 o
1 10 11 104.646 106.382 1.998 5.186 o
1 10 12 3.667 4.638 0.734 263.689 o
1 10 13 22.896 24.833 1.258 49.923 o
1 10 14 32.073 35.637 1.403 31.900 o
1 10 15 18.164 17.424 1.093 72.614 o
1 10 16 34.164 33.816 2.279 19.993 o
1 11 0 137.869 139.905 1.652 3.284 o
1 11 1 86.847 87.144 1.301 7.800 o
1 11 2 29.206 27.097 0.917 49.280 o
1 11 3 33.794 34.591 1.103 35.629 o
1 11 4 34.482 31.738 1.073 36.821 o
1 11 5 3.449 3.480 0.631 346.978 o
1 11 6 64.753 67.123 1.586 11.925 o
1 11 7 58.811 59.856 1.389 14.595 o
1 11 8 21.599 20.602 1.055 63.819 o
1 11 9 15.502 17.145 1.005 86.300 o
1 11 10 20.377 24.206 1.411 48.088 o
1 11 11 17.454 17.072 1.197 67.956 o
1 11 12 33.599 31.581 1.586 29.405 o
1 11 13 57.485 62.421 2.174 11.917 o
1 11 14 34.283 36.809 1.885 23.725 o
1 12 0 4.880 3.972 0.647 304.049 o
1 12 1 23.011 22.306 0.943 64.140 o
1 12 2 72.037 75.675 1.567 10.036 o
1 12 3 34.672 31.931 1.299 32.978 o
1 12 4 36.301 35.312 1.110 32.989 o
1 12 5 23.071 22.922 1.063 58.443 o
1 12 6 19.598 20.497 1.046 68.661 o
1 12 7 58.775 61.072 1.517 14.032 o
1 12 8 9.798 8.714 0.895 141.127 o
1 12 9 44.669 49.309 1.781 18.404 o
1 12 10 24.724 24.011 1.393 43.893 o
1 12 11 31.669 29.450 1.838 27.265 o
1 12 12 26.664 29.306 1.799 30.649 o
1 12 13 8.609 10.980 1.727 52.332 o
1 13 0 18.224 18.674 1.152 67.550 o
1 13 1 37.023 37.535 1.507 26.676 o
1 13 2 6.727 8.098 0.915 155.664 o
1 13 3 14.966 14.357 0.982 94.486 o
1 13 4 86.282 90.686 1.682 7.322 o
1 13 5 57.728 57.872 1.608 14.354 o
1 13 6 4.434 4.595 0.850 202.335 o
1 13 7 31.819 30.991 1.390 34.094 o
1 13 8 40.636 42.169 1.728 21.573 o
1 13 9 1.900 2.383 0.959 183.543 o
1 13 10 3.349 3.709 0.986 165.083 o
1 13 11 22.550 24.038 1.794 34.898 o
1 14 0 0.024 0.477 0.934 206.554 o
1 14 1 53.261 57.167 2.589 11.510 o
1 14 2 0.264 1.272 0.915 212.111 o
1 14 3 39.311 41.471 1.602 23.475 o
1 14 4 25.502 27.527 1.728 33.323 o
1 14 5 35.557 36.990 1.482 28.009 o
1 14 6 28.652 30.373 1.687 31.194 o
1 14 7 7.745 8.201 1.054 122.029 o
1 14 8 40.430 42.374 1.712 21.753 o
1 14 9 2.439 3.371 1.358 93.458 o
1 15 0 12.715 13.255 1.864 42.651 o
1 15 1 19.455 19.809 1.771 39.047 o
1 15 2 26.433 25.544 2.087 26.643 o
1 15 3 5.143 6.140 1.045 137.575 o
1 15 4 17.792 20.466 1.930 35.390 o
1 15 5 39.575 42.152 3.007 12.679 o
1 15 6 58.957 58.774 2.061 12.370 o
1 15 7 8.543 11.034 2.088 37.432 o
1 16 0 2.083 0.568 1.929 48.031 o
1 16 1 3.208 2.600 2.036 42.604 o
2 0 0 259.892 250.879 1.073 1.032 o
2 0 1 391.835 415.260 1.239 0.434 o
2 0 2 663.030 767.404 2.015 0.144 o
2 0 3 289.906 275.284 1.144 0.842 o
2 0 4 953.874 1054.650 3.934 0.072 o
2 0 5 304.903 302.133 1.161 0.743 o
2 0 6 45.314 42.555 0.546 27.864 o
2 0 7 346.605 356.998 1.781 0.560 o
2 0 8 101.920 94.169 1.202 6.211 o
2 0 9 118.805 108.528 1.285 4.700 o
2 0 10 11.830 9.864 0.448 220.617 o
2 0 11 51.666 46.587 0.802 21.739 o
2 0 12 4.831 4.101 0.449 477.750 o
2 0 13 112.403 103.740 1.659 5.012 o
2 0 14 7.791 6.827 0.681 223.981 o
2 0 15 98.162 107.024 2.286 5.344 o
2 0 16 28.006 26.384 1.464 37.716 o
2 0 17 12.520 10.175 1.112 95.139 o
2 0 18 1.652 1.274 0.842 239.581 o
2 0 19 12.600 14.086 1.475 61.059 o
2 0 20 9.829 9.335 2.281 31.759 o
2 1 0 159.495 171.612 0.872 2.481 o
2 1 1 791.815 828.047 3.146 0.108 o
2 1 2 865.566 985.446 3.499 0.086 o
2 1 3 789.340 845.956 3.176 0.107 o
2 1 4 458.406 452.351 1.991 0.333 o
2 1 5 27.535 32.243 0.430 58.001 o
2 1 6 0.849 0.405 0.203 2945.950 o
2 1 7 10.608 12.268 0.345 245.399 o
2 1 8 120.984 123.705 1.102 4.293 o
2 1 9 20.491 19.672 0.523 97.419 o
2 1 10 228.799 215.928 1.665 1.325 o
2 1 11 127.450 125.658 1.120 3.981 o
2 1 12 6.943 6.724 0.406 384.697 o
2 1 13 5.410 5.031 0.556 346.380 o
2 1 14 22.331 24.608 1.166 54.246 o
2 1 15 51.211 53.511 1.555 16.960 o
2 1 16 86.250 92.115 2.291 6.617 o
2 1 17 22.401 21.836 1.511 43.783 o
2 1 18 53.444 57.974 1.812 14.568 o
2 1 19 63.439 72.050 2.489 9.461 o
2 2 0 151.762 161.791 0.996 2.736 o
2 2 1 544.534 591.352 1.711 0.223 o
2 2 2 93.799 96.240 0.861 6.964 o
2 2 3 68.029 56.001 0.600 14.502 o
2 2 4 230.241 256.867 1.403 1.180 o
2 2 5 307.079 326.287 1.573 0.696 o
2 2 6 610.326 661.952 2.625 0.177 o
2 2 7 56.746 56.560 1.014 16.907 o
2 2 8 113.556 115.622 0.978 4.875 o
2 2 9 271.804 261.275 1.523 0.943 o
2 2 10 117.032 112.352 1.240 4.707 o
2 2 11 243.005 236.296 1.630 1.160 o
2 2 12 24.009 20.685 0.611 77.929 o
2 2 13 48.980 43.419 1.233 21.484 o
2 2 14 46.351 47.738 1.765 18.219 o
2 2 15 22.984 25.395 1.582 39.517 o
2 2 16 80.947 84.084 3.549 5.683 o
2 2 17 11.904 8.200 1.332 76.972 o
2 2 18 6.050 6.818 1.267 96.475 o
2 2 19 14.274 12.184 1.321 70.146 o
2 3 0 4.930 9.286 0.228 551.359 o
2 3 1 156.120 181.274 1.102 2.438 o
2 3 2 1108.370 1193.530 2.830 0.055 o
2 3 3 75.635 79.635 0.595 10.371 o
2 3 4 66.124 68.666 0.853 13.013 o
2 3 5 63.801 65.166 0.712 14.240 o
2 3 6 946.100 975.107 4.635 0.077 o
2 3 7 2.589 2.511 0.405 724.743 o
2 3 8 104.489 102.853 1.518 5.570 o
2 3 9 181.944 165.026 1.306 2.123 o
2 3 10 228.757 225.786 1.723 1.287 o
2 3 11 63.701 58.285 1.078 14.426 o
2 3 12 17.768 17.485 0.768 97.269 o
2 3 13 14.788 15.615 0.959 95.169 o
2 3 14 121.845 118.632 2.585 3.858 o
2 3 15 50.317 51.346 1.746 16.570 o
2 3 16 47.626 50.873 1.750 17.414 o
2 3 17 46.462 51.439 2.062 15.845 o
2 3 18 78.515 86.237 2.390 7.366 o
2 3 19 6.982 6.193 1.203 103.800 o
2 3 20 29.499 26.586 4.054 9.397 o
2 4 0 226.353 219.604 1.264 1.341 o
2 4 1 46.726 50.051 0.541 24.499 o
2 4 2 69.098 72.315 0.728 12.140 o
2 4 3 159.751 157.538 1.123 2.599 o
2 4 4 76.704 80.704 0.824 9.931 o
2 4 5 26.420 25.171 0.484 68.234 o
2 4 6 77.724 80.675 0.935 9.676 o
2 4 7 136.086 136.409 1.545 3.410 o
2 4 8 12.745 13.343 0.466 182.321 o
2 4 9 9.936 10.396 0.394 263.631 o
2 4 10 43.695 45.081 0.669 27.487 o
2 4 11 29.959 30.981 0.943 44.831 o
2 4 12 151.932 156.793 2.266 2.622 o
2 4 13 2.112 1.635 0.611 415.063 o
2 4 14 45.265 47.671 1.636 19.458 o
2 4 15 24.856 26.582 1.387 42.582 o
2 4 16 10.418 10.095 0.950 124.803 o
2 4 17 1.777 1.811 0.901 208.386 o
2 4 18 43.907 48.167 1.979 17.487 o
2 4 19 23.973 24.370 1.673 36.763 o
2 5 0 4.371 3.644 0.284 767.631 o
2 5 1 88.947 90.129 0.827 7.758 o
2 5 2 271.259 288.963 1.354 0.887 o
2 5 3 29.745 28.574 0.463 56.664 o
2 5 4 72.215 73.287 0.932 11.186 o
2 5 5 123.426 119.983 1.136 4.260 o
2 5 6 149.987 151.134 1.157 2.886 o
2 5 7 700.799 698.326 2.510 0.143 o
2 5 8 23.806 24.065 0.611 73.361 o
2 5 9 237.924 237.916 1.910 1.179 o
2 5 10 16.666 16.209 0.681 112.984 o
2 5 11 23.963 22.381 0.963 61.287 o
2 5 12 22.174 23.041 0.980 63.549 o
2 5 13 75.549 74.954 1.609 9.517 o
2 5 14 48.423 48.705 1.436 19.378 o
2 5 15 25.871 28.045 1.740 32.677 o
2 5 16 62.116 64.882 1.907 11.744 o
2 5 17 3.717 2.575 1.045 149.471 o
2 5 18 7.475 7.296 1.142 110.039 o
2 5 19 20.952 22.107 2.399 24.183 o
2 6 0 1.278 0.906 0.202 2397.010 o
2 6 1 457.701 479.959 1.913 0.321 o
2 6 2 207.555 220.492 1.350 1.492 o
2 6 3 103.354 101.053 0.831 6.006 o
2 6 4 58.941 65.415 0.831 15.331 o
2 6 5 336.754 322.730 2.433 0.615 o
2 6 6 10.239 8.711 0.381 279.048 o
2 6 7 334.535 323.312 2.174 0.622 o
2 6 8 14.845 14.328 0.550 145.322 o
2 6 9 83.059 81.929 1.061 8.748 o
2 6 10 14.600 14.492 0.665 131.658 o
2 6 11 156.420 157.364 2.074 2.557 o
2 6 12 44.377 42.377 1.414 22.551 o
2 6 13 3.062 2.118 0.581 419.783 o
2 6 14 33.780 32.960 1.522 29.825 o
2 6 15 13.325 11.961 1.033 98.646 o
2 6 16 3.952 2.982 0.892 195.235 o
2 6 17 11.920 10.405 1.096 98.369 o
2 6 18 15.593 14.633 1.190 74.761 o
2 7 0 0.342 0.540 0.162 4802.060 o
2 7 1 73.334 71.408 0.573 11.537 o
2 7 2 104.848 105.953 0.911 5.704 o
2 7 3 81.267 78.953 0.797 9.410 o
2 7 4 179.380 178.684 1.176 2.067 o
2 7 5 85.104 78.173 0.812 8.928 o
2 7 6 160.977 157.550 1.250 2.563 o
2 7 7 60.701 57.034 0.920 15.846 o
2 7 8 1.102 1.536 0.334 1214.770 o
2 7 9 51.314 47.859 0.974 20.840 o
2 7 10 8.356 7.825 0.588 245.479 o
2 7 11 27.049 28.411 1.198 44.181 o
2 7 12 11.388 13.972 1.033 101.699 o
2 7 13 19.251 21.217 1.188 61.280 o
2 7 14 83.703 85.313 1.919 7.559 o
2 7 15 21.509 21.362 1.447 47.128 o
2 7 16 5.483 4.435 0.929 169.484 o
2 7 17 23.350 24.266 1.451 43.469 o
2 7 18 6.487 1.659 2.991 19.811 o
2 8 0 104.747 99.299 0.839 5.965 o
2 8 1 91.918 80.775 0.723 7.999 o
2 8 2 23.171 21.878 0.481 83.863 o
2 8 3 79.944 71.441 0.822 10.150 o
2 8 4 33.016 30.964 0.607 46.484 o
2 8 5 131.973 120.684 1.158 3.895 o
2 8 6 11.398 11.705 0.588 182.292 o
2 8 7 11.403 11.154 0.749 151.803 o
2 8 8 36.487 36.947 1.155 31.596 o
2 8 9 47.576 52.607 1.328 19.577 o
2 8 10 32.729 36.741 1.222 33.781 o
2 8 11 10.902 9.172 0.884 135.994 o
2 8 12 18.253 17.345 1.096 72.296 o
2 8 13 42.875 43.864 1.438 22.712 o
2 8 14 20.895 22.318 1.242 55.227 o
2 8 15 26.845 26.898 1.326 41.942 o
2 8 16 7.680 7.410 0.978 138.318 o
2 8 17 13.532 14.103 1.810 43.910 o
2 9 0 129.702 131.390 1.440 3.724 o
2 9 1 74.635 78.151 0.915 10.370 o
2 9 2 45.308 42.010 0.644 27.567 o
2 9 3 41.310 38.017 0.723 31.697 o
2 9 4 66.577 66.952 0.930 12.977 o
2 9 5 61.614 60.382 1.159 14.486 o
2 9 6 28.793 33.341 1.221 39.009 o
2 9 7 30.338 31.946 1.187 38.830 o
2 9 8 185.509 181.326 2.061 1.903 o
2 9 9 12.137 11.093 0.811 136.091 o
2 9 10 62.519 66.391 1.579 12.449 o
2 9 11 13.736 11.410 0.854 120.228 o
2 9 12 32.976 30.414 1.266 35.581 o
2 9 13 85.876 86.842 1.714 7.510 o
2 9 14 56.390 53.915 1.610 15.182 o
2 9 15 38.175 39.349 1.627 24.259 o
2 9 16 5.633 4.217 0.954 161.910 o
2 10 0 2.321 1.763 0.336 993.395 o
2 10 1 11.552 10.883 0.544 194.984 o
2 10 2 5.342 5.814 0.476 400.224 o
2 10 3 156.034 148.940 1.737 2.701 o
2 10 4 59.608 58.642 1.087 15.478 o
2 10 5 60.137 55.882 1.406 14.710 o
2 10 6 54.761 50.716 1.246 17.694 o
2 10 7 10.988 10.528 0.864 135.401 o
2 10 8 17.106 16.791 0.929 88.008 o
2 10 9 3.620 3.420 0.625 348.458 o
2 10 10 43.236 44.576 1.353 23.055 o
2 10 11 50.806 52.029 1.431 17.952 o
2 10 12 85.459 87.337 1.692 7.551 o
2 10 13 43.469 46.016 1.697 19.981 o
2 10 14 13.813 13.965 1.164 81.602 o
2 10 15 2.356 4.487 1.317 98.351 o
2 11 0 65.979 66.563 1.314 12.383 o
2 11 1 36.000 35.732 1.178 32.156 o
2 11 2 91.782 90.804 1.539 6.951 o
2 11 3 134.479 134.466 2.021 3.380 o
2 11 4 83.412 79.278 1.840 7.988 o
2 11 5 46.316 43.452 1.256 22.567 o
2 11 6 3.470 2.933 0.725 281.663 o
2 11 7 41.881 43.907 1.394 23.549 o
2 11 8 9.761 11.275 0.899 133.754 o
2 11 9 85.837 82.036 1.763 7.695 o
2 11 10 2.513 2.719 0.817 240.283 o
2 11 11 24.651 25.618 1.439 41.817 o
2 11 12 75.546 74.817 2.484 8.017 o
2 11 13 3.552 2.769 1.055 147.255 o
2 11 14 21.731 25.286 3.248 14.487 o
2 12 0 53.064 50.439 2.175 13.873 o
2 12 1 13.655 8.823 1.135 91.279 o
2 12 2 52.071 53.483 1.366 17.599 o
2 12 3 25.144 26.123 1.242 46.687 o
2 12 4 4.188 4.701 0.713 268.571 o
2 12 5 27.491 26.872 1.140 46.113 o
2 12 6 16.107 15.314 0.988 88.632 o
2 12 7 60.099 61.598 1.587 13.443 o
2 12 8 11.097 12.337 0.984 112.059 o
2 12 9 15.181 16.032 1.138 78.049 o
2 12 10 42.098 49.552 1.900 18.368 o
2 12 11 18.080 18.202 1.392 55.496 o
2 12 12 0.142 0.547 0.933 206.071 o
2 12 13 3.719 5.465 2.176 36.968 o
2 13 0 3.496 4.062 1.018 154.641 o
2 13 1 22.488 23.324 1.687 37.908 o
2 13 2 12.883 12.913 1.448 63.110 o
2 13 3 52.115 53.603 1.405 17.379 o
2 13 4 43.904 46.205 1.611 20.424 o
2 13 5 91.613 89.371 1.897 6.708 o
2 13 6 33.319 32.017 1.371 32.852 o
2 13 7 8.382 6.983 0.952 141.535 o
2 13 8 44.239 43.977 1.733 19.803 o
2 13 9 34.592 30.464 1.922 24.495 o
2 13 10 45.815 45.523 1.942 17.566 o
2 13 11 0.573 -0.396 1.817 54.661 o
2 14 0 122.863 127.104 3.193 3.435 o
2 14 1 12.505 13.883 1.586 55.008 o
2 14 2 9.745 7.788 1.667 55.949 o
2 14 3 27.090 27.848 1.889 29.183 o
2 14 4 70.634 67.709 1.976 10.007 o
2 14 5 14.269 9.062 1.184 84.583 o
2 14 6 66.733 70.370 2.024 10.262 o
2 14 7 14.042 14.158 1.138 83.070 o
2 14 8 18.381 18.547 1.529 48.952 o
2 14 9 14.725 16.898 2.642 22.629 o
2 15 0 3.186 2.442 1.186 120.151 o
2 15 1 1.454 0.633 1.369 94.780 o
2 15 2 6.298 3.466 1.627 63.236 o
2 15 3 7.042 7.134 1.609 62.312 o
2 15 4 37.078 36.355 3.289 11.867 o
2 15 5 33.970 34.794 3.329 12.087 o
2 15 6 21.695 21.166 4.049 9.976 o
3 0 1 532.258 574.602 2.792 0.232 o
3 0 2 64.954 74.621 0.786 12.707 o
3 0 3 345.048 348.744 1.692 0.573 o
3 0 4 151.587 154.673 1.160 2.806 o
3 0 5 470.520 483.782 2.332 0.307 o
3 0 6 155.732 148.465 1.279 2.770 o
3 0 7 4.567 3.349 0.333 677.241 o
3 0 8 1.285 1.276 0.261 1690.620 o
3 0 9 210.223 193.509 1.862 1.572 o
3 0 10 0.144 0.432 0.345 1444.090 o
3 0 11 62.486 60.667 1.133 14.293 o
3 0 12 6.844 7.901 0.697 222.860 o
3 0 13 33.666 30.024 1.485 31.455 o
3 0 14 105.253 107.245 2.222 4.995 o
3 0 15 0.249 0.650 0.721 341.498 o
3 0 16 90.513 100.989 2.682 5.634 o
3 0 17 4.031 3.716 1.069 140.647 o
3 0 18 7.830 6.868 1.231 97.231 o
3 0 19 4.665 2.062 1.183 117.743 o
3 1 0 48.374 47.240 0.498 24.504 o
3 1 1 328.668 326.287 1.453 0.639 o
3 1 2 147.369 153.344 1.189 2.920 o
3 1 3 4.849 5.980 0.328 568.444 o
3 1 4 221.967 248.779 1.647 1.256 o
3 1 5 233.160 228.971 1.573 1.249 o
3 1 6 164.639 148.243 1.134 2.593 o
3 1 7 283.778 282.568 1.702 0.846 o
3 1 8 31.977 26.914 0.568 52.184 o
3 1 9 82.694 80.014 0.974 8.996 o
3 1 10 100.409 96.837 1.147 6.252 o
3 1 11 179.650 171.223 2.253 2.031 o
3 1 12 2.869 3.872 0.685 310.791 o
3 1 13 27.831 29.204 1.381 38.504 o
3 1 14 61.618 65.003 1.659 12.544 o
3 1 15 21.399 16.118 1.514 47.604 o
3 1 16 19.401 19.501 1.348 54.855 o
3 1 17 9.676 10.715 1.278 83.850 o
3 1 18 8.680 11.807 1.398 73.693 o
3 1 19 79.863 86.921 3.284 6.005 o
3 2 0 1207.820 1327.910 4.593 0.045 o
3 2 1 457.108 480.813 1.958 0.321 o
3 2 2 208.074 222.896 1.420 1.474 o
3 2 3 188.687 197.446 1.546 1.799 o
3 2 4 77.116 77.960 0.904 10.003 o
3 2 5 65.266 67.564 0.630 13.675 o
3 2 6 89.222 83.590 1.250 7.781 o
3 2 7 44.459 40.326 1.002 26.328 o
3 2 8 271.978 253.370 2.895 0.930 o
3 2 9 38.726 37.661 1.053 30.787 o
3 2 10 31.080 35.639 1.072 38.302 o
3 2 11 65.343 64.333 1.302 12.777 o
3 2 12 10.168 9.483 0.853 145.136 o
3 2 13 6.381 5.042 0.875 178.091 o
3 2 14 5.910 4.356 1.076 131.404 o
3 2 15 12.676 14.015 1.233 78.294 o
3 2 16 68.776 69.792 2.130 9.777 o
3 2 17 12.707 9.044 1.423 67.817 o
3 2 18 11.000 11.642 1.232 84.562 o
3 2 19 41.662 41.603 3.758 9.216 o
3 3 0 13.255 10.736 0.490 187.172 o
3 3 1 259.414 253.974 1.738 1.016 o
3 3 2 243.295 251.958 1.666 1.110 o
3 3 3 150.286 156.940 1.000 2.825 o
3 3 4 80.001 76.846 0.699 9.824 o
3 3 5 197.420 199.918 2.124 1.653 o
3 3 6 253.450 258.713 2.220 1.023 o
3 3 7 208.997 202.438 3.245 1.454 o
3 3 8 227.537 227.450 2.318 1.268 o
3 3 9 5.258 4.146 0.557 359.356 o
3 3 10 43.546 42.486 1.268 24.118 o
3 3 11 15.984 17.805 0.895 92.884 o
3 3 12 6.953 7.950 0.745 204.096 o
3 3 13 9.004 8.017 1.171 100.762 o
3 3 14 25.565 27.227 1.387 41.518 o
3 3 15 33.523 35.184 1.681 27.055 o
3 3 16 3.247 2.735 0.862 212.836 o
3 3 17 10.061 8.748 1.121 103.315 o
3 3 18 23.908 22.572 1.497 42.385 o
3 3 19 2.034 2.141 2.054 42.243 o
3 4 0 61.611 60.337 0.654 15.639 o
3 4 1 39.191 42.040 0.721 31.804 o
3 4 2 34.735 37.077 0.739 38.465 o
3 4 3 194.361 187.188 1.253 1.807 o
3 4 4 1170.440 1177.580 4.806 0.051 o
3 4 5 113.205 110.042 2.164 4.572 o
3 4 6 168.225 166.391 1.366 2.333 o
3 4 7 259.100 241.539 1.681 1.051 o
3 4 8 56.262 54.762 0.964 17.538 o
3 4 9 73.374 68.618 1.108 11.151 o
3 4 10 24.175 22.365 0.793 67.657 o
3 4 11 3.245 2.141 0.687 316.971 o
3 4 12 27.705 31.481 1.453 36.048 o
3 4 13 9.552 8.742 0.950 131.859 o
3 4 14 3.102 1.759 0.813 241.208 o
3 4 15 73.573 78.514 2.344 8.277 o
3 4 16 44.059 41.495 1.654 20.961 o
3 4 17 26.968 23.977 1.350 42.745 o
3 4 18 0.174 0.189 0.887 228.667 o
3 5 0 2.043 2.299 0.223 1523.460 o
3 5 1 216.235 220.603 2.006 1.392 o
3 5 2 115.966 122.661 1.380 4.468 o
3 5 3 88.567 94.715 0.947 7.491 o
3 5 4 3.886 3.866 0.264 849.711 o
3 5 5 46.793 43.023 0.990 24.237 o
3 5 6 1.991 1.555 0.287 1284.420 o
3 5 7 8.598 9.614 0.449 280.108 o
3 5 8 77.956 77.761 1.130 9.647 o
3 5 9 182.615 188.278 2.223 1.882 o
3 5 10 233.520 233.068 2.391 1.206 o
3 5 11 34.039 34.280 1.152 34.797 o
3 5 12 32.387 32.116 1.313 34.521 o
3 5 13 0.587 0.659 0.581 510.728 o
3 5 14 17.055 17.112 1.070 77.142 o
3 5 15 14.899 12.409 1.082 88.105 o
3 5 16 1.116 1.027 0.861 234.172 o
3 5 17 9.019 5.883 1.174 103.095 o
3 5 18 28.376 25.700 2.198 24.167 o
3 6 0 17.539 16.283 0.495 124.695 o
3 6 1 20.799 23.759 0.457 90.398 o
3 6 2 20.512 18.446 0.527 99.973 o
3 6 3 163.865 146.215 1.228 2.622 o
3 6 4 83.196 80.008 0.862 9.021 o
3 6 5 148.154 142.703 1.185 3.035 o
3 6 6 71.933 70.659 1.133 11.187 o
3 6 7 134.754 131.788 1.405 3.553 o
3 6 8 15.431 13.907 0.720 121.754 o
3 6 9 44.297 44.955 1.310 22.781 o
3 6 10 17.084 15.817 0.918 90.631 o
3 6 11 26.753 26.061 1.036 50.627 o
3 6 12 6.840 5.141 0.716 231.547 o
3 6 13 48.429 49.028 1.312 20.041 o
3 6 14 9.147 12.136 1.157 96.617 o
3 6 15 27.011 28.024 1.399 39.400 o
3 6 16 23.437 20.669 1.396 47.108 o
3 6 17 5.642 4.358 1.009 147.413 o
3 7 0 0.425 0.429 0.192 3715.990 o
3 7 1 151.505 149.824 1.221 2.859 o
3 7 2 161.733 150.132 1.156 2.632 o
3 7 3 40.785 44.032 0.679 29.976 o
3 7 4 9.002 8.732 0.531 249.777 o
3 7 5 5.798 5.989 0.483 377.733 o
3 7 6 142.857 144.364 1.518 3.106 o
3 7 7 202.455 199.861 1.862 1.617 o
3 7 8 66.874 66.678 1.283 12.258 o
3 7 9 12.974 13.386 0.840 120.935 o
3 7 10 8.210 6.558 0.876 161.117 o
3 7 11 25.718 27.114 1.275 44.441 o
3 7 12 62.590 65.294 1.721 12.150 o
3 7 13 30.671 32.833 1.505 32.254 o
3 7 14 3.915 3.818 0.875 199.178 o
3 7 15 2.476 2.448 0.882 210.348 o
3 7 16 9.079 8.169 1.120 107.308 o
3 7 17 28.765 25.575 3.686 11.123 o
3 8 0 9.036 8.079 0.344 330.661 o
3 8 1 17.155 14.033 0.487 135.917 o
3 8 2 65.932 65.183 0.833 13.502 o
3 8 3 31.557 30.538 0.637 48.632 o
3 8 4 37.958 36.084 0.947 33.271 o
3 8 5 57.745 61.992 1.469 14.330 o
3 8 6 107.541 102.392 1.663 5.322 o
3 8 7 26.707 26.542 1.144 47.256 o
3 8 8 28.613 27.719 1.174 43.333 o
3 8 9 18.188 18.258 1.179 66.471 o
3 8 10 21.764 23.700 1.281 51.421 o
3 8 11 4.412 4.181 0.883 191.532 o
3 8 12 199.410 207.428 2.873 1.544 o
3 8 13 30.540 30.934 1.513 32.883 o
3 8 14 3.056 3.247 0.890 200.754 o
3 8 15 15.719 14.943 1.237 70.859 o
3 8 16 0.108 -0.359 1.236 118.344 o
3 9 0 42.511 42.181 1.026 26.782 o
3 9 1 51.625 48.332 1.107 19.970 o
3 9 2 70.358 69.785 1.081 11.642 o
3 9 3 63.286 58.211 0.998 14.742 o
3 9 4 143.291 140.145 1.763 3.108 o
3 9 5 10.457 11.060 0.849 139.447 o
3 9 6 30.522 31.956 0.967 42.982 o
3 9 7 49.459 54.390 1.329 18.529 o
3 9 8 80.893 87.462 1.844 7.821 o
3 9 9 31.030 32.239 1.271 36.408 o
3 9 10 9.991 10.739 0.963 123.072 o
3 9 11 18.632 18.640 1.321 57.833 o
3 9 12 0.055 -0.832 0.770 305.254 o
3 9 13 6.460 7.085 0.998 140.378 o
3 9 14 4.117 6.346 1.162 117.413 o
3 9 15 7.470 5.337 1.708 56.326 o
3 10 0 23.462 21.962 1.309 49.312 o
3 10 1 25.073 25.492 1.087 52.066 o
3 10 2 101.769 107.541 1.666 5.513 o
3 10 3 175.980 175.637 2.300 2.047 o
3 10 4 50.798 50.116 1.344 18.741 o
3 10 5 172.532 170.315 2.144 2.154 o
3 10 6 21.998 23.742 1.057 59.918 o
3 10 7 8.048 7.700 0.766 188.430 o
3 10 8 42.252 44.818 1.346 23.539 o
3 10 9 59.524 64.442 1.413 13.780 o
3 10 10 19.798 19.952 1.020 70.266 o
3 10 11 10.764 8.362 0.810 153.715 o
3 10 12 3.770 3.727 0.695 292.060 o
3 10 13 46.158 49.135 1.738 18.227 o
3 10 14 4.616 5.870 1.911 47.010 o
3 11 0 111.258 119.540 2.802 4.125 o
3 11 1 7.169 8.423 1.017 130.720 o
3 11 2 115.963 111.422 2.222 4.390 o
3 11 3 71.834 67.007 1.479 10.913 o
3 11 4 10.934 11.022 0.950 120.396 o
3 11 5 41.447 43.181 1.320 24.607 o
3 11 6 32.469 30.823 1.350 34.358 o
3 11 7 7.888 7.954 0.858 163.221 o
3 11 8 4.184 2.744 0.830 219.621 o
3 11 9 46.119 44.180 1.768 18.858 o
3 11 10 24.415 25.483 1.338 45.060 o
3 11 11 5.590 5.821 0.894 175.032 o
3 11 12 6.034 6.436 0.935 159.227 o
3 11 13 8.733 13.808 2.379 29.124 o
3 12 0 0.133 0.060 1.026 171.394 o
3 12 1 12.272 15.341 1.615 53.009 o
3 12 2 23.434 28.172 1.808 32.727 o
3 12 3 13.945 15.022 1.316 68.593 o
3 12 4 30.592 29.771 1.612 31.482 o
3 12 5 108.099 107.962 2.032 4.940 o
3 12 6 54.955 57.198 1.510 15.532 o
3 12 7 84.302 79.440 1.801 7.937 o
3 12 8 14.480 13.841 1.058 89.537 o
3 12 9 3.067 3.560 0.836 222.792 o
3 12 10 11.066 12.710 1.049 103.049 o
3 12 11 28.681 30.120 1.798 29.299 o
3 13 0 7.446 7.942 1.219 98.404 o
3 13 1 15.774 12.075 1.786 43.957 o
3 13 2 11.563 9.931 1.888 43.422 o
3 13 3 69.704 74.007 2.508 8.604 o
3 13 4 0.560 -0.409 1.109 145.906 o
3 13 5 37.640 35.241 1.769 23.926 o
3 13 6 14.946 15.856 1.283 68.370 o
3 13 7 51.934 53.436 1.872 15.221 o
3 13 8 2.760 1.846 0.767 269.930 o
3 13 9 58.834 59.381 2.134 12.085 o
3 14 0 47.675 46.139 2.349 14.561 o
3 14 1 0.295 0.690 1.394 92.625 o
3 14 2 1.820 0.913 1.554 73.540 o
3 14 3 11.315 12.702 1.929 41.223 o
3 14 4 1.789 0.564 1.172 127.920 o
3 14 5 6.842 6.307 1.957 43.922 o
3 14 6 6.439 7.289 2.129 37.494 o
3 14 7 2.032 0.317 2.139 39.205 o
4 0 0 31.987 29.095 1.353 35.429 o
4 0 1 34.385 33.814 0.801 39.938 o
4 0 2 176.157 187.299 2.096 1.984 o
4 0 3 39.572 40.362 0.686 32.483 o
4 0 4 307.439 287.160 1.887 0.752 o
4 0 5 83.970 88.208 0.964 8.335 o
4 0 6 56.802 48.877 0.782 19.027 o
4 0 7 1.911 1.670 0.290 1275.220 o
4 0 8 318.151 297.297 2.075 0.701 o
4 0 9 280.714 271.579 2.650 0.862 o
4 0 10 1.573 0.449 0.608 446.262 o
4 0 11 12.149 10.963 0.931 117.951 o
4 0 12 34.127 32.206 1.865 25.054 o
4 0 13 0.518 0.365 0.878 230.710 o
4 0 14 0.310 0.177 0.817 268.387 o
4 0 15 1.848 3.159 1.082 145.360 o
4 0 16 107.540 112.050 2.388 4.667 o
4 0 17 26.975 27.624 1.840 30.189 o
4 0 18 11.261 9.064 2.049 37.993 o
4 1 0 448.274 473.737 2.974 0.329 o
4 1 1 5.057 5.819 0.659 278.873 o
4 1 2 91.940 99.449 1.251 6.772 o
4 1 3 280.918 286.102 1.999 0.845 o
4 1 4 92.855 87.536 1.096 7.331 o
4 1 5 137.023 138.473 1.054 3.431 o
4 1 6 78.576 76.764 1.004 9.769 o
4 1 7 22.320 21.607 0.640 80.658 o
4 1 8 84.325 85.868 1.588 7.849 o
4 1 9 33.867 33.847 1.036 36.972 o
4 1 10 9.413 8.804 0.779 169.074 o
4 1 11 5.018 4.164 0.768 233.547 o
4 1 12 46.566 48.781 1.954 16.806 o
4 1 13 8.513 8.366 0.939 139.977 o
4 1 14 28.324 28.158 1.783 30.331 o
4 1 15 2.294 2.238 0.896 206.491 o
4 1 16 4.419 3.882 1.042 145.364 o
4 1 17 10.016 8.000 1.147 101.113 o
4 1 18 4.995 3.952 2.114 38.940 o
4 2 0 22.727 18.486 0.686 82.310 o
4 2 1 277.661 292.704 2.932 0.828 o
4 2 2 142.235 138.941 1.726 3.160 o
4 2 3 87.927 85.689 1.144 7.894 o
4 2 4 76.091 68.214 0.810 11.088 o
4 2 5 146.757 145.774 1.236 3.025 o
4 2 6 59.510 53.943 0.714 17.244 o
4 2 7 15.109 13.369 0.651 133.859 o
4 2 8 12.056 10.899 0.590 179.292 o
4 2 9 21.098 19.858 0.726 83.335 o
4 2 10 47.946 48.197 1.587 18.727 o
4 2 11 0.105 0.128 0.580 533.254 o
4 2 12 24.862 26.665 1.345 43.691 o
4 2 13 29.589 31.378 1.742 29.384 o
4 2 14 36.910 34.591 1.721 24.973 o
4 2 15 17.740 19.591 1.354 56.866 o
4 2 16 33.073 34.310 1.595 28.771 o
4 2 17 83.320 84.499 2.517 6.867 o
4 2 18 13.893 14.911 2.074 34.804 o
4 3 0 2.080 1.037 0.311 1196.490 o
4 3 1 243.002 240.140 2.037 1.137 o
4 3 2 88.404 90.191 1.121 7.625 o
4 3 3 53.966 54.527 1.014 18.233 o
4 3 4 81.183 80.245 1.158 9.002 o
4 3 5 34.556 32.898 0.567 43.366 o
4 3 6 132.272 131.387 1.709 3.575 o
4 3 7 244.821 244.528 1.956 1.116 o
4 3 8 18.892 18.568 0.670 97.723 o
4 3 9 17.284 16.706 0.791 98.927 o
4 3 10 1.354 0.839 0.487 662.861 o
4 3 11 13.848 13.547 0.845 115.591 o
4 3 12 21.581 19.052 1.048 65.840 o
4 3 13 108.414 111.164 2.076 4.819 o
4 3 14 3.615 3.295 0.973 168.635 o
4 3 15 9.204 8.388 1.075 113.132 o
4 3 16 5.663 4.986 1.021 143.150 o
4 3 17 24.204 23.004 1.447 43.364 o
4 3 18 24.327 26.106 3.397 13.133 o
4 4 0 57.321 61.399 0.980 16.050 o
4 4 1 131.909 125.531 1.673 3.694 o
4 4 2 22.070 18.696 0.689 84.025 o
4 4 3 8.977 8.049 0.640 216.735 o
4 4 4 24.904 26.776 0.750 62.278 o
4 4 5 47.026 47.570 0.994 22.871 o
4 4 6 3.669 3.026 0.507 474.824 o
4 4 7 118.305 115.185 1.376 4.535 o
4 4 8 277.312 270.932 2.430 0.882 o
4 4 9 44.555 46.750 1.111 23.631 o
4 4 10 198.887 202.592 2.319 1.612 o
4 4 11 52.883 55.056 1.532 16.333 o
4 4 12 94.255 92.898 1.835 6.418 o
4 4 13 70.298 66.764 1.812 10.486 o
4 4 14 1.942 1.883 0.836 238.139 o
4 4 15 0.766 1.059 0.842 246.698 o
4 4 16 7.714 7.718 1.172 104.468 o
4 4 17 3.778 2.124 1.200 116.583 o
4 5 0 110.087 107.322 1.073 5.276 o
4 5 1 125.973 122.360 1.609 3.985 o
4 5 2 71.070 67.072 1.024 11.860 o
4 5 3 127.631 122.321 1.511 3.949 o
4 5 4 224.081 215.847 1.665 1.362 o
4 5 5 172.837 164.954 2.008 2.206 o
4 5 6 27.714 25.973 0.924 52.397 o
4 5 7 30.929 31.194 1.111 40.114 o
4 5 8 28.128 29.379 1.077 45.271 o
4 5 9 18.884 15.239 0.899 87.114 o
4 5 10 24.020 26.334 1.187 49.754 o
4 5 11 1.984 1.955 0.674 349.503 o
4 5 12 22.470 22.917 1.217 53.372 o
4 5 13 16.282 19.489 1.137 71.671 o
4 5 14 17.252 17.497 1.295 62.251 o
4 5 15 40.130 40.650 1.997 19.685 o
4 5 16 2.310 3.893 1.015 160.650 o
4 6 0 152.228 150.237 1.722 2.773 o
4 6 1 90.983 94.258 1.469 6.926 o
4 6 2 19.366 19.085 0.788 86.861 o
4 6 3 99.092 94.537 1.479 6.250 o
4 6 4 205.395 197.656 2.290 1.574 o
4 6 5 106.066 110.343 1.945 5.032 o
4 6 6 41.136 41.680 1.343 24.970 o
4 6 7 1.231 0.241 0.576 505.822 o
4 6 8 35.248 31.962 1.356 31.643 o
4 6 9 21.604 21.076 1.084 62.013 o
4 6 10 22.539 18.934 1.154 59.074 o
4 6 11 12.032 11.513 0.976 110.975 o
4 6 12 41.400 41.074 1.552 23.068 o
4 6 13 3.620 3.713 0.988 163.195 o
4 6 14 8.510 9.435 1.093 111.077 o
4 6 15 27.394 29.047 1.725 31.685 o
4 6 16 31.146 31.945 1.954 25.254 o
4 7 0 107.914 110.487 1.277 5.237 o
4 7 1 19.548 15.996 0.719 96.821 o
4 7 2 30.039 29.975 1.021 43.731 o
4 7 3 62.941 53.841 1.335 14.480 o
4 7 4 68.590 68.275 1.263 11.802 o
4 7 5 0.939 0.363 0.546 565.818 o
4 7 6 63.496 64.535 1.718 12.058 o
4 7 7 45.792 46.042 1.298 21.912 o
4 7 8 28.561 28.462 1.226 41.719 o
4 7 9 18.278 18.679 1.088 71.240 o
4 7 10 40.363 41.254 1.793 21.283 o
4 7 11 9.415 11.126 1.355 76.751 o
4 7 12 3.505 4.142 0.971 167.825 o
4 7 13 10.927 10.534 1.395 71.423 o
4 7 14 4.597 3.436 1.161 120.208 o
4 7 15 3.586 2.006 1.187 119.419 o
4 8 0 4.212 3.630 0.498 454.493 o
4 8 1 43.806 39.854 1.041 26.578 o
4 8 2 149.852 149.768 1.973 2.792 o
4 8 3 11.234 12.094 0.733 152.673 o
4 8 4 45.661 46.511 1.264 22.097 o
4 8 5 155.123 163.484 2.393 2.473 o
4 8 6 72.649 73.724 1.917 9.447 o
4 8 7 101.162 109.459 2.016 5.285 o
4 8 8 35.394 36.137 1.467 28.559 o
4 8 9 49.839 56.072 1.735 16.094 o
4 8 10 71.428 76.846 2.325 8.627 o
4 8 11 5.692 6.494 0.993 146.201 o
4 8 12 11.958 11.519 1.212 84.524 o
4 8 13 30.841 35.641 1.788 26.851 o
4 8 14 18.391 16.806 1.687 43.743 o
4 8 15 27.930 31.088 4.387 8.172 o
4 9 0 13.137 13.268 1.021 98.356 o
4 9 1 14.627 12.999 1.098 86.588 o
4 9 2 8.555 8.190 0.825 166.076 o
4 9 3 103.572 99.388 1.846 5.547 o
4 9 4 46.769 49.406 1.215 21.244 o
4 9 5 62.531 62.858 1.570 12.831 o
4 9 6 3.539 3.663 0.759 256.836 o
4 9 7 21.880 23.915 1.123 57.256 o
4 9 8 7.645 8.083 0.894 155.491 o
4 9 9 73.414 76.136 1.974 9.092 o
4 9 10 6.435 7.014 0.941 153.833 o
4 9 11 33.033 33.139 1.607 28.968 o
4 9 12 24.387 26.544 1.586 37.764 o
4 9 13 14.071 15.685 1.691 47.709 o
4 9 14 16.087 10.802 2.539 24.613 o
4 10 0 61.899 62.353 2.021 11.660 o
4 10 1 15.316 15.033 1.388 61.882 o
4 10 2 69.433 70.790 2.662 8.476 o
4 10 3 15.442 15.310 1.169 75.881 o
4 10 4 39.653 41.067 1.519 24.220 o
4 10 5 1.262 1.791 0.660 377.872 o
4 10 6 15.492 15.173 1.036 86.619 o
4 10 7 0.786 2.458 0.779 279.834 o
4 10 8 15.052 12.680 1.270 72.016 o
4 10 9 8.363 7.527 1.142 107.268 o
4 10 10 4.628 4.372 1.079 135.177 o
4 10 11 14.048 12.001 1.202 80.072 o
4 10 12 6.079 4.152 1.260 99.994 o
4 11 0 1.409 1.467 0.993 175.747 o
4 11 1 31.603 31.697 2.543 18.358 o
4 11 2 21.697 17.528 1.534 45.865 o
4 11 3 19.500 16.117 1.406 54.351 o
4 11 4 39.353 41.708 1.667 22.768 o
4 11 5 59.203 61.371 1.845 12.814 o
4 11 6 34.177 33.927 1.436 30.519 o
4 11 7 40.712 40.491 1.626 22.826 o
4 11 8 37.823 38.070 1.488 26.302 o
4 11 9 6.585 9.693 1.046 125.011 o
4 11 10 4.602 3.191 0.904 186.088 o
4 11 11 38.290 39.946 2.223 18.440 o
4 12 0 156.279 159.497 3.479 2.288 o
4 12 1 50.017 59.898 3.161 9.714 o
4 12 2 12.267 14.894 1.853 42.844 o
4 12 3 38.281 38.083 1.894 21.748 o
4 12 4 10.637 8.400 1.363 76.253 o
4 12 5 18.196 18.067 1.487 51.180 o
4 12 6 61.384 61.926 2.259 11.054 o
4 12 7 58.545 61.776 2.755 9.939 o
4 12 8 1.738 0.987 0.850 235.435 o
4 12 9 18.207 18.719 1.578 47.104 o
4 13 0 0.567 0.655 1.143 136.739 o
4 13 1 19.408 18.964 1.924 35.069 o
4 13 2 6.699 5.683 1.459 75.287 o
4 13 3 28.266 29.606 2.960 15.572 o
4 13 4 6.032 6.463 1.509 71.278 o
4 13 5 20.358 20.814 1.866 35.479 o
4 13 7 14.541 15.716 3.331 15.004 o
4 14 0 1.843 0.051 2.935 20.924 o
5 0 1 88.919 89.595 1.505 7.293 o
5 0 2 0.004 0.026 0.333 1628.090 o
5 0 3 93.875 86.144 1.159 7.258 o
5 0 4 1.909 2.264 0.349 965.693 o
5 0 5 61.147 60.957 0.987 14.977 o
5 0 6 62.535 63.472 1.121 13.956 o
5 0 7 14.113 15.263 0.708 126.898 o
5 0 8 248.422 241.037 3.484 1.052 o
5 0 9 12.932 12.333 0.952 108.910 o
5 0 10 0.353 -0.447 0.549 587.311 o
5 0 11 0.000 0.573 0.669 399.314 o
5 0 12 53.540 57.255 1.766 14.827 o
5 0 13 0.178 0.594 0.849 248.258 o
5 0 14 2.343 1.958 1.064 150.199 o
5 0 15 1.575 1.997 1.126 136.890 o
5 0 16 17.788 19.056 1.465 52.022 o
5 1 0 54.532 52.998 1.436 16.573 o
5 1 1 45.521 44.596 1.101 23.760 o
5 1 2 65.236 64.929 1.154 13.072 o
5 1 3 71.064 73.047 1.164 11.080 o
5 1 4 17.771 18.090 0.627 107.237 o
5 1 5 6.021 5.307 0.538 340.602 o
5 1 6 111.757 103.519 1.459 5.143 o
5 1 7 11.822 12.849 0.904 119.012 o
5 1 8 29.531 30.877 1.184 40.295 o
5 1 9 24.314 22.867 1.232 50.252 o
5 1 10 121.916 120.959 2.349 3.911 o
5 1 11 24.569 23.762 1.288 47.454 o
5 1 12 3.970 3.395 0.874 200.756 o
5 1 13 105.751 109.123 2.325 4.860 o
5 1 14 48.145 56.130 1.852 15.950 o
5 1 15 11.855 12.703 1.606 55.148 o
5 1 16 30.910 32.275 1.740 28.424 o
5 2 0 83.187 80.942 1.574 8.252 o
5 2 1 195.386 192.719 1.885 1.729 o
5 2 2 53.728 61.914 1.189 16.425 o
5 2 3 9.432 10.805 0.804 155.642 o
5 2 4 36.724 31.558 1.143 33.777 o
5 2 5 180.584 184.933 2.047 1.944 o
5 2 6 23.418 24.172 1.209 51.366 o
5 2 7 10.632 10.324 0.914 129.205 o
5 2 8 16.277 17.282 1.086 77.705 o
5 2 9 31.735 33.761 1.539 30.634 o
5 2 10 0.955 0.845 0.704 346.837 o
5 2 11 52.200 54.248 1.630 16.197 o
5 2 12 11.681 11.047 1.239 83.052 o
5 2 13 20.712 19.791 1.237 57.699 o
5 2 14 3.726 3.914 1.004 157.849 o
5 2 15 84.112 84.642 2.352 7.011 o
5 2 16 15.788 15.143 1.881 39.586 o
5 3 0 30.692 26.158 0.978 46.360 o
5 3 1 145.533 149.250 2.252 2.844 o
5 3 2 6.427 3.886 0.682 260.281 o
5 3 3 84.117 86.279 2.003 7.373 o
5 3 4 3.020 2.436 0.739 281.311 o
5 3 5 72.874 74.508 1.486 10.136 o
5 3 6 16.951 16.058 1.058 79.650 o
5 3 7 5.045 3.827 0.721 258.670 o
5 3 8 44.586 41.522 1.472 22.193 o
5 3 9 12.306 12.374 0.950 111.572 o
5 3 10 117.099 126.369 2.558 3.901 o
5 3 11 16.980 16.486 1.068 78.246 o
5 3 12 19.631 20.130 1.230 59.515 o
5 3 13 19.819 20.159 1.373 52.734 o
5 3 14 27.960 28.669 1.938 27.697 o
5 3 15 25.106 24.267 1.342 44.842 o
5 3 16 12.373 10.629 1.614 55.265 o
5 4 0 9.016 5.578 0.793 181.149 o
5 4 1 15.469 16.923 0.827 102.799 o
5 4 2 25.132 21.723 0.965 59.540 o
5 4 3 110.388 108.410 1.847 4.906 o
5 4 4 21.942 20.146 0.973 67.543 o
5 4 5 1.019 0.572 0.692 359.177 o
5 4 6 32.311 35.011 1.577 29.277 o
5 4 7 14.823 13.234 0.890 106.643 o
5 4 8 8.789 9.037 0.857 154.154 o
5 4 9 103.335 103.646 1.921 5.386 o
5 4 10 17.989 17.775 1.160 68.431 o
5 4 11 55.398 58.737 1.624 14.763 o
5 4 12 16.505 16.550 1.290 64.575 o
5 4 13 5.471 5.305 1.116 123.484 o
5 4 14 1.993 1.535 1.037 159.696 o
5 4 15 9.668 9.443 1.230 90.227 o
5 4 16 5.428 6.737 3.331 15.961 o
5 5 0 14.961 15.856 0.947 95.211 o
5 5 1 25.631 29.225 1.313 42.331 o
5 5 2 135.717 132.521 2.065 3.361 o
5 5 3 36.686 41.258 1.317 27.979 o
5 5 4 96.430 93.786 1.811 6.241 o
5 5 5 3.026 2.065 0.695 315.125 o
5 5 6 65.767 65.275 1.634 11.788 o
5 5 7 31.401 30.104 1.555 31.820 o
5 5 8 5.315 4.316 0.745 240.482 o
5 5 9 12.388 11.114 0.976 110.404 o
5 5 10 41.525 35.988 1.914 20.738 o
5 5 11 16.617 14.941 1.072 80.856 o
5 5 12 40.222 41.066 1.693 22.289 o
5 5 13 22.366 22.450 1.547 42.374 o
5 5 14 73.234 78.505 2.721 7.642 o
5 5 15 2.113 1.041 1.935 47.644 o
5 6 0 119.220 120.021 2.428 3.995 o
5 6 1 11.056 12.390 0.982 112.343 o
5 6 2 64.038 63.928 1.376 12.921 o
5 6 3 36.293 34.568 1.231 31.660 o
5 6 4 2.213 2.668 0.745 286.043 o
5 6 5 1.544 1.651 0.733 308.742 o
5 6 6 6.785 6.001 1.078 125.128 o
5 6 7 6.570 6.001 0.793 200.219 o
5 6 8 29.601 29.828 1.474 34.744 o
5 6 9 12.031 11.628 1.023 104.845 o
5 6 10 75.169 76.552 2.275 8.334 o
5 6 11 3.051 3.768 0.887 200.259 o
5 6 12 106.718 112.258 2.800 4.453 o
5 6 13 13.141 11.130 1.364 69.812 o
5 6 14 8.930 8.085 1.497 67.965 o
5 7 0 8.883 10.495 0.846 151.467 o
5 7 1 36.761 40.909 1.236 28.971 o
5 7 2 70.558 71.108 1.798 10.152 o
5 7 3 29.084 30.868 1.363 36.994 o
5 7 4 42.829 42.786 1.404 23.277 o
5 7 5 69.215 69.346 1.756 10.576 o
5 7 6 74.377 77.824 1.881 9.033 o
5 7 7 66.529 66.834 1.700 11.352 o
5 7 8 35.673 35.499 1.514 27.967 o
5 7 9 29.994 28.725 1.566 33.096 o
5 7 10 10.276 10.345 1.341 77.162 o
5 7 11 0.925 0.064 0.953 195.245 o
5 7 12 35.885 38.295 1.905 22.532 o
5 7 13 49.950 53.797 3.061 10.398 o
5 7 14 41.107 36.050 5.232 5.591 o
5 8 0 84.288 87.832 2.576 6.591 o
5 8 1 17.875 16.679 1.021 79.012 o
5 8 2 31.213 30.117 1.357 35.564 o
5 8 3 10.904 10.253 1.133 97.212 o
5 8 4 56.731 62.485 1.637 13.940 o
5 8 5 1.086 0.280 0.672 381.219 o
5 8 6 36.428 33.783 1.624 26.605 o
5 8 7 25.157 25.469 1.518 39.311 o
5 8 8 45.129 45.454 1.757 19.055 o
5 8 9 11.974 10.380 1.307 77.016 o
5 8 10 5.998 5.347 0.973 152.499 o
5 8 11 43.319 44.980 1.955 18.309 o
5 8 12 0.995 0.341 0.994 179.129 o
5 8 13 5.304 3.351 1.586 67.162 o
5 9 0 17.123 18.423 1.648 45.552 o
5 9 1 42.002 51.006 2.513 14.290 o
5 9 2 0.454 0.751 0.804 273.225 o
5 9 3 55.865 60.779 1.886 13.415 o
5 9 4 4.138 4.626 0.932 175.476 o
5 9 5 54.690 56.561 1.826 14.382 o
5 9 6 25.708 23.547 1.627 36.899 o
5 9 7 26.061 26.067 1.354 42.483 o
5 9 8 19.382 20.043 1.334 55.100 o
5 9 9 12.543 12.535 1.086 94.371 o
5 9 10 11.981 11.883 1.159 89.239 o
5 9 11 23.836 23.937 1.712 36.056 o
5 10 0 82.014 76.684 2.708 7.010 o
5 10 1 37.659 39.281 2.234 18.618 o
5 10 2 25.929 22.348 1.531 39.647 o
5 10 3 44.749 47.378 1.872 18.071 o
5 10 4 8.887 9.755 1.164 99.622 o
5 10 5 14.213 14.969 1.303 69.079 o
5 10 6 49.067 49.928 1.864 16.477 o
5 10 7 60.342 63.167 1.828 12.466 o
5 10 8 14.608 13.871 1.106 84.767 o
5 10 9 2.364 2.291 1.171 125.088 o
5 10 10 6.220 6.035 1.762 53.769 o
5 11 0 4.643 4.902 1.308 95.577 o
5 11 1 0.753 -0.621 1.054 160.869 o
5 11 2 90.601 95.635 3.723 4.771 o
5 11 3 1.350 1.080 1.064 154.686 o
5 11 4 23.853 24.274 1.685 36.588 o
5 11 5 18.577 16.245 1.624 46.169 o
5 11 6 1.212 1.235 1.068 153.763 o
5 11 7 9.909 8.272 1.197 94.797 o
5 11 8 18.272 20.715 2.367 25.713 o
5 12 0 3.356 3.249 1.435 83.170 o
5 12 1 30.212 27.497 2.401 20.727 o
5 12 2 14.379 12.715 2.050 35.763 o
5 12 3 16.363 18.900 2.198 29.945 o
5 12 4 2.424 1.993 1.888 49.746 o
6 0 0 49.249 53.033 2.689 12.016 o
6 0 1 79.767 85.115 2.770 6.770 o
6 0 2 1.258 3.007 0.763 282.607 o
6 0 3 1.470 3.299 0.957 184.309 o
6 0 4 1.109 1.273 0.710 335.563 o
6 0 5 7.786 8.371 0.858 162.496 o
6 0 6 2.669 3.335 1.052 150.053 o
6 0 7 10.773 9.563 1.201 90.668 o
6 0 8 126.850 123.458 2.918 3.483 o
6 0 9 2.700 2.738 1.001 165.561 o
6 0 10 79.264 85.788 2.764 6.791 o
6 0 11 115.568 125.878 3.949 3.309 o
6 0 12 12.344 12.285 1.685 50.864 o
6 0 13 15.339 15.265 1.698 46.505 o
6 0 14 9.910 6.733 3.718 12.695 o
6 1 0 15.275 12.527 1.422 61.681 o
6 1 1 141.193 141.175 2.864 2.894 o
6 1 2 15.277 13.435 1.399 62.425 o
6 1 3 95.703 98.872 2.749 5.339 o
6 1 4 24.282 25.315 1.834 32.508 o
6 1 5 20.340 19.049 1.537 46.341 o
6 1 6 138.218 143.867 3.502 2.751 o
6 1 7 50.807 51.505 2.008 15.063 o
6 1 8 36.056 33.287 1.470 29.002 o
6 1 9 17.911 18.659 1.237 63.318 o
6 1 10 0.076 -0.726 0.709 358.900 o
6 1 11 23.283 21.786 1.417 45.933 o
6 1 12 4.581 6.182 1.586 66.575 o
6 1 13 0.784 -0.653 1.368 95.978 o
6 1 14 32.482 40.811 4.683 6.955 o
6 2 0 73.637 69.432 2.285 8.872 o
6 2 1 35.536 38.360 1.817 23.632 o
6 2 2 50.876 53.586 2.354 13.176 o
6 2 3 126.849 132.549 3.127 3.275 o
6 2 4 8.060 6.816 0.859 165.466 o
6 2 5 1.098 1.103 0.686 360.057 o
6 2 6 28.614 29.405 1.283 39.857 o
6 2 7 0.173 -0.044 0.704 362.830 o
6 2 8 5.318 4.914 0.807 210.487 o
6 2 9 4.509 3.948 0.858 201.044 o
6 2 10 2.098 2.884 0.839 231.487 o
6 2 11 18.774 17.703 1.367 56.105 o
6 2 12 22.072 18.665 1.629 41.798 o
6 2 13 29.603 27.095 1.967 26.834 o
6 2 14 23.929 22.925 2.703 19.348 o
6 3 0 7.049 8.558 0.984 137.376 o
6 3 1 0.169 1.129 0.913 213.622 o
6 3 2 43.392 43.947 1.645 20.807 o
6 3 3 49.046 47.010 1.497 19.095 o
6 3 4 7.196 6.107 0.904 161.602 o
6 3 5 6.008 5.351 0.964 154.603 o
6 3 6 40.040 37.873 1.649 23.498 o
6 3 7 26.156 29.603 1.680 33.203 o
6 3 8 36.384 40.636 1.549 25.689 o
6 3 9 16.176 15.381 1.139 76.415 o
6 3 10 52.106 55.461 2.141 13.709 o
6 3 11 64.789 67.494 1.865 11.178 o
6 3 12 54.320 56.488 2.242 12.752 o
6 3 13 0.060 -0.384 0.931 208.763 o
6 3 14 53.164 63.374 4.057 6.936 o
6 4 0 2.270 3.404 0.916 195.095 o
6 4 1 37.330 37.280 1.951 21.688 o
6 4 2 29.412 31.360 1.710 30.033 o
6 4 3 3.970 2.715 0.743 266.198 o
6 4 4 5.688 6.075 0.913 168.200 o
6 4 5 12.740 13.417 1.192 82.331 o
6 4 6 17.473 18.049 1.226 65.304 o
6 4 7 4.122 5.245 0.923 176.748 o
6 4 8 31.158 32.742 1.824 26.898 o
6 4 9 44.472 45.676 1.622 20.229 o
6 4 10 29.133 28.929 1.625 32.506 o
6 4 11 1.600 3.052 0.884 213.201 o
6 4 12 21.954 21.864 1.591 41.689 o
6 4 13 18.946 17.988 2.456 24.414 o
6 5 0 99.838 96.351 2.832 5.118 o
6 5 1 28.758 28.152 1.962 27.061 o
6 5 2 0.716 0.985 0.744 314.011 o
6 5 3 35.489 36.396 1.741 24.981 o
6 5 4 7.523 6.244 0.920 155.328 o
6 5 5 1.476 2.695 0.781 270.560 o
6 5 6 2.141 1.683 0.754 286.309 o
6 5 7 8.945 9.237 0.987 126.976 o
6 5 8 51.937 52.648 1.691 16.204 o
6 5 9 9.706 9.372 1.018 118.375 o
6 5 10 5.280 4.087 1.147 119.984 o
6 5 11 42.502 44.827 1.931 18.764 o
6 5 12 18.451 13.841 1.818 40.336 o
6 5 13 32.182 26.540 3.249 13.210 o
6 6 0 4.250 4.365 1.003 154.915 o
6 6 1 133.964 138.658 2.919 3.082 o
6 6 2 77.692 86.278 1.948 8.074 o
6 6 3 42.002 40.260 1.568 22.833 o
6 6 4 92.871 94.520 1.927 6.382 o
6 6 5 34.223 33.606 1.608 28.111 o
6 6 6 7.526 5.849 0.948 149.477 o
6 6 7 12.030 11.417 0.979 110.792 o
6 6 8 1.663 2.461 0.804 255.652 o
6 6 9 3.402 2.847 0.849 216.968 o
6 6 10 19.945 19.130 1.518 47.425 o
6 6 11 3.030 2.100 1.173 123.220 o
6 6 12 18.221 16.462 2.921 18.480 o
6 7 0 19.756 18.135 1.652 43.244 o
6 7 1 26.979 26.439 1.330 41.938 o
6 7 2 71.132 71.418 2.089 9.453 o
6 7 3 10.342 7.750 1.085 108.935 o
6 7 4 43.602 44.185 1.641 20.711 o
6 7 5 21.460 21.115 1.241 55.305 o
6 7 6 37.283 40.581 1.810 22.491 o
6 7 7 36.090 39.077 1.659 24.998 o
6 7 8 17.511 16.437 1.490 52.788 o
6 7 9 7.764 7.940 1.121 111.472 o
6 7 10 94.067 99.797 2.716 5.433 o
6 7 11 23.631 21.415 1.651 38.736 o
6 8 0 9.836 9.403 1.307 81.937 o
6 8 1 11.904 12.870 1.532 59.231 o
6 8 2 6.663 5.187 1.219 103.455 o
6 8 3 19.450 17.923 1.317 57.326 o
6 8 4 14.469 13.754 1.194 77.911 o
6 8 5 24.402 23.286 1.413 44.039 o
6 8 6 17.515 15.396 1.518 52.081 o
6 8 7 15.023 18.184 1.317 64.094 o
6 8 8 19.670 17.546 1.391 53.858 o
6 8 9 5.871 7.027 1.189 107.598 o
6 8 10 29.812 29.951 2.462 19.831 o
6 9 0 21.038 18.688 1.611 43.274 o
6 9 1 49.677 52.221 2.716 11.899 o
6 9 2 63.700 60.809 2.608 9.799 o
6 9 3 43.766 43.828 2.337 15.736 o
6 9 4 4.123 2.449 1.001 160.038 o
6 9 5 52.504 45.962 2.320 13.750 o
6 9 6 52.739 52.258 1.916 14.960 o
6 9 7 0.989 -1.651 0.991 181.020 o
6 9 8 2.195 2.182 1.434 85.105 o
6 10 0 9.376 9.022 1.367 77.519 o
6 10 1 4.845 8.127 2.224 34.841 o
6 10 2 0.881 0.415 1.243 115.556 o
6 10 3 7.623 6.954 1.465 72.886 o
6 10 4 39.487 40.282 2.425 16.511 o
6 10 5 2.794 -0.856 1.912 48.732 o
6 10 6 4.795 3.564 3.136 18.107 o
7 0 1 36.976 40.303 2.013 20.670 o
7 0 2 0.105 -1.177 1.042 166.366 o
7 0 3 15.757 16.369 1.882 39.180 o
7 0 4 31.544 30.899 2.269 21.341 o
7 0 5 80.706 87.252 2.929 6.411 o
7 0 6 59.064 63.649 2.228 11.376 o
7 0 7 92.971 94.470 2.387 5.960 o
7 0 8 0.643 0.604 1.046 162.826 o
7 0 9 4.649 3.249 1.222 109.604 o
7 0 10 0.397 -1.646 1.398 92.349 o
7 1 0 41.632 43.930 1.866 19.709 o
7 1 1 10.063 9.171 1.574 60.704 o
7 1 2 27.331 31.143 1.994 26.525 o
7 1 3 75.372 80.663 3.470 6.198 o
7 1 4 6.312 4.501 1.557 68.048 o
7 1 5 13.271 10.221 1.776 46.844 o
7 1 6 20.480 16.984 1.701 41.503 o
7 1 7 0.624 0.126 0.958 194.515 o
7 1 8 34.174 37.453 1.852 24.019 o
7 1 9 25.231 26.345 2.484 21.235 o
7 1 10 12.617 13.181 1.980 38.672 o
7 2 0 31.599 32.200 1.802 27.140 o
7 2 1 28.004 26.053 2.460 20.842 o
7 2 2 35.286 35.117 1.985 22.517 o
7 2 3 72.500 73.815 2.711 7.937 o
7 2 4 5.223 6.152 1.348 88.520 o
7 2 5 4.621 4.287 1.078 135.608 o
7 2 6 7.664 8.128 1.472 71.472 o
7 2 7 0.889 -0.298 0.971 188.504 o
7 2 8 90.481 98.638 3.356 5.056 o
7 2 9 16.915 16.447 1.635 47.157 o
7 2 10 17.562 19.470 2.129 30.863 o
7 3 0 5.151 4.557 0.956 163.126 o
7 3 1 30.610 32.184 1.658 29.923 o
7 3 2 49.339 50.678 2.278 14.121 o
7 3 3 32.074 28.281 2.617 17.942 o
7 3 4 61.720 66.383 2.602 9.716 o
7 3 5 2.482 3.216 1.093 140.702 o
7 3 6 1.321 -0.166 1.084 150.673 o
7 3 7 12.337 10.821 1.422 67.130 o
7 3 8 16.793 14.028 1.504 54.345 o
7 3 9 20.934 21.765 1.575 43.135 o
7 3 10 10.817 14.328 3.015 18.520 o
7 4 0 32.731 35.718 1.852 25.051 o
7 4 1 78.407 86.914 2.620 7.019 o
7 4 2 8.737 8.098 1.219 95.291 o
7 4 3 3.157 2.335 1.444 82.892 o
7 4 4 20.090 14.920 1.914 36.094 o
7 4 5 12.925 11.800 1.405 66.753 o
7 4 6 72.031 72.118 2.424 8.626 o
7 4 7 2.120 1.870 0.927 195.797 o
7 4 8 0.448 0.538 0.933 204.860 o
7 4 9 5.561 6.539 1.150 115.291 o
7 4 10 14.300 15.437 3.154 16.621 o
7 5 0 30.660 28.320 1.755 29.418 o
7 5 1 140.871 144.255 3.215 2.773 o
7 5 2 16.909 14.327 1.479 55.263 o
7 5 3 2.552 2.062 1.109 138.314 o
7 5 4 9.823 8.071 1.459 69.779 o
7 5 5 6.221 2.958 1.301 95.422 o
7 5 6 38.805 35.114 2.270 18.571 o
7 5 7 32.977 38.736 1.990 22.656 o
7 5 8 12.286 11.235 1.273 78.528 o
7 5 9 6.258 3.962 1.727 56.446 o
7 6 0 5.495 5.428 1.188 110.622 o
7 6 1 1.533 0.386 0.968 186.199 o
7 6 2 24.072 29.203 1.954 29.200 o
7 6 3 19.259 17.790 1.426 52.705 o
7 6 4 6.481 5.362 1.283 94.985 o
7 6 5 17.177 17.124 1.582 48.727 o
7 6 6 25.796 25.256 1.514 38.946 o
7 6 7 0.530 0.447 0.912 214.168 o
7 6 8 9.608 3.951 3.532 14.109 o
7 7 0 0.714 0.282 0.941 200.605 o
7 7 1 12.237 13.062 1.616 54.071 o
7 7 2 8.195 7.733 1.485 70.018 o
7 7 3 24.181 23.750 2.084 28.035 o
7 7 4 10.266 10.263 1.643 55.820 o
7 7 5 5.870 5.965 1.580 65.985 o
7 7 6 2.313 -0.149 3.033 19.580 o
7 7 7 3.947 4.273 2.111 39.308 o
7 8 0 0.251 0.206 1.429 88.357 o
7 8 1 29.071 31.589 3.886 9.961 o
7 8 2 4.167 7.530 2.805 22.405 o
7 8 4 129.210 117.868 7.590 1.795 o
8 0 0 0.877 2.037 2.019 44.002 o
8 0 1 34.291 29.806 2.408 19.237 o
8 0 2 0.045 -0.049 1.392 93.424 o
8 0 3 44.529 50.679 3.454 9.685 o
8 0 4 22.742 25.878 2.289 24.747 o
8 1 0 11.001 10.309 1.791 47.738 o
8 1 1 13.652 14.152 1.775 45.151 o
8 1 2 2.065 1.276 1.346 96.944 o
8 1 3 11.266 9.679 1.665 53.962 o
8 1 4 5.757 4.114 1.437 79.608 o
8 1 5 9.924 8.913 3.043 18.572 o
8 2 0 4.713 6.254 1.635 62.769 o
8 2 1 0.266 -0.894 1.251 115.361 o
8 2 2 8.663 7.997 1.475 70.043 o
8 2 3 30.698 28.932 1.973 25.839 o
8 2 4 11.115 12.045 2.096 35.957 o
8 2 5 32.105 27.271 4.562 7.548 o
8 3 0 8.144 7.524 1.564 64.215 o
8 3 1 11.669 13.419 2.283 30.563 o
8 3 2 14.605 13.032 1.917 39.705 o
8 3 3 1.103 1.929 1.324 100.889 o
8 3 4 17.989 20.128 3.243 15.203 o
8 4 0 22.993 23.136 2.957 16.901 o
8 4 1 37.774 47.171 5.670 4.828 o
8 4 2 37.995 43.914 3.881 8.965 o
8 4 3 3.444 5.358 2.428 29.951 o
;
_iucr_refine_instructions_details
;
TITL 
CELL 0.71073 4.7947 9.2922 12.1421 90 90 90
ZERR 4 0.0012 0.0018 0.0027 0 0 0
LATT -1
SYMM 0.5-X,-Y,0.5+Z
SYMM 0.5+X,0.5-Y,-Z
SYMM -X,0.5+Y,0.5-Z
SFAC C H N O
UNIT 12 36 4 16

L.S. 4
PLAN  20
SIZE 0.14 0.17 0.11
TEMP -173.15
CONF
FMAP 2
MORE -1
BOND $H
ACTA
WGHT 0.050348 0.027134
FVAR 1.464997
REM <olex2.extras>
REM <HklSrc "%.\\fk_03410_intdb_10.hkl">
REM </olex2.extras>

O1    4     0.76748  0.36262  0.70098  11.00000  0.01097  0.00806  0.01374 =
 -0.00272 -0.00023 -0.00031
O2    4     0.98045  0.45884  0.84697  11.00000  0.01636  0.01022  0.01686 =
 -0.00138 -0.00787  0.00237

AFIX 6
C1    4     1.36133  0.57840  0.99625  11.00000  0.01577  0.01459  0.01254 =
 0.00169 -0.00290 -0.00201
Ha    2     1.23747  0.55045  0.95096  11.00000 -1.50000
Hb    2     1.41507  0.50181  1.02812  11.00000 -1.50000
AFIX 0

O     4     0.94765  0.67335  0.60416  11.00000  0.01480  0.00985  0.01530 =
 -0.00201  0.00489 -0.00277
AFIX 147
H     2     0.99719  0.75803  0.61840  11.00000 -1.50000
AFIX 0
N1    3     0.71465  0.71087  0.83376  11.00000  0.01081  0.00767  0.00981 =
 -0.00028 -0.00036  0.00052
AFIX 137
H1a   2     0.89104  0.74213  0.81986  11.00000 -1.20000
H1b   2     0.59402  0.78622  0.82897  11.00000 -1.20000
H1c   2     0.70688  0.67261  0.90268  11.00000 -1.20000
AFIX 0
C     1     0.81063  0.46294  0.76824  11.00000  0.00756  0.00663  0.01140 =
 0.00052  0.00045 -0.00064
C2    1     0.63614  0.59904  0.75157  11.00000  0.00790  0.00690  0.00949 =
 -0.00043 -0.00041 -0.00003
AFIX 13
H2    2     0.43616  0.57332  0.76418  11.00000 -1.20000
AFIX 0
C3    1     0.66329  0.65463  0.63402  11.00000  0.01151  0.01029  0.01004 =
 0.00067 -0.00059 -0.00007
AFIX 23
H3a   2     0.56435  0.74773  0.62736  11.00000 -1.20000
H3b   2     0.57444  0.58555  0.58281  11.00000 -1.20000
AFIX 0
HKLF 4

END
Q1 1 0.8 0.40625 0.744444 11 0.05 0.49
Q2 1 0.633333 0.625 0.7 11 0.05 0.44
Q3 1 0.733333 0.53125 0.766667 11 0.05 0.42
Q4 1 0.933333 0.46875 0.8 11 0.05 0.36
Q5 1 0.666667 0.65625 0.8 11 0.05 0.34
Q6 1 0.966667 0.375 0.855556 11 0.05 0.26
Q7 1 1.4 0.65625 1 11 0.05 0.22
Q8 1 0.8 0.3125 0.655556 11 0.05 0.21
Q9 1 0.866667 0.65625 0.6 11 0.05 0.2
Q10 1 0.6 0.71875 0.611111 11 0.05 0.2

  REM The information below was added by Olex2.
  REM
  REM R1 = 0.0309 for 2723 Fo > 4sig(Fo) and 0.0349 for all 2920 data
  REM 78 parameters refined using 0 restraints
  REM Highest difference peak 0.4880, deepest hole -0.2022
  REM Mean Shift 0.0000, Max Shift -0.0002.

  REM +++ Tabular Listing of Refinement Information +++
  REM R1_all = 0.0349
  REM R1_gt = 0.0309
  REM wR_ref = 0.0800
  REM GOOF = 1.0778
  REM Shift_max = -0.0002
  REM Shift_mean = 0.0000
  REM Reflections_all = 2920
  REM Reflections_gt = 2723
  REM Parameters = 78
  REM Hole = -0.2022
  REM Peak = 0.4880
  REM Flack = 0.20(19)

  
;
_olex2_exptl_crystal_mounting_method  'Cryo loop'
_olex2_submission_special_instructions  'No special instructions were received'
