data_fk_03405_intdb_v128_1_0_background
_audit_creation_date               2024-03-13
_audit_creation_method
;
Olex2 1.5-alpha
(compiled 2023.11.24 svn.r209d9fb2 for OlexSys, GUI svn.r6869)
;
_audit_contact_author_address      ?
_audit_contact_author_email        ?
_audit_contact_author_name         ''
_audit_contact_author_phone        ?
_publ_contact_author_id_orcid      ?
_publ_section_references
;
Bourhis, L.J., Dolomanov, O.V., Gildea, R.J., Howard, J.A.K., Puschmann, H.
 (2015). Acta Cryst. A71, 59-75.

Dolomanov, O.V., Bourhis, L.J., Gildea, R.J, Howard, J.A.K. & Puschmann, H.
 (2009), J. Appl. Cryst. 42, 339-341.
;
_chemical_name_systematic          '2-Amino-3-hydroxybutanoic acid'
_chemical_formula_moiety           'C4 H9 N O3'
_chemical_formula_sum              'C4 H9 N O3'
_chemical_formula_weight           119.121
_chemical_absolute_configuration   unk
loop_
  _atom_type_symbol
  _atom_type_scat_dispersion_real
  _atom_type_scat_dispersion_imag
  _atom_type_scat_Cromer_Mann_a1
  _atom_type_scat_Cromer_Mann_a2
  _atom_type_scat_Cromer_Mann_a3
  _atom_type_scat_Cromer_Mann_a4
  _atom_type_scat_Cromer_Mann_b1
  _atom_type_scat_Cromer_Mann_b2
  _atom_type_scat_Cromer_Mann_b3
  _atom_type_scat_Cromer_Mann_b4
  _atom_type_scat_Cromer_Mann_c
  _atom_type_scat_source
  _atom_type_scat_dispersion_source
 C 0.00313 0.00162 2.31000 1.02000 1.58860 0.86500 20.84390 10.20750 0.56870
 51.65120 0.21560 'International Tables Volume C Table 6.1.1.4 (pp. 500-502)'
 'Brennan, Cowan, Rev. Sci. Instrum., 1992, 63, 850'
 H 0.00000 0.00000 0.49300 0.32291 0.14019 0.04081 10.51090 26.12570 3.14236
 57.79970 0.00304 'International Tables Volume C Table 6.1.1.4 (pp. 500-502)'
 'Brennan, Cowan, Rev. Sci. Instrum., 1992, 63, 850'
 N 0.00612 0.00332 12.21260 3.13220 2.01250 1.16630 0.00570 9.89330 28.99750
 0.58260 -11.52900 'International Tables Volume C Table 6.1.1.4 (pp. 500-502)'
 'Brennan, Cowan, Rev. Sci. Instrum., 1992, 63, 850'
 O 0.01085 0.00610 3.04850 2.28680 1.54630 0.86700 13.27710 5.70110 0.32390
 32.90890 0.25080 'International Tables Volume C Table 6.1.1.4 (pp. 500-502)'
 'Brennan, Cowan, Rev. Sci. Instrum., 1992, 63, 850'

_space_group_crystal_system        'orthorhombic'
_space_group_IT_number             19
_space_group_name_H-M_alt          'P 21 21 21'
_space_group_name_Hall             ' P 2ac 2ab'
loop_
  _space_group_symop_id
  _space_group_symop_operation_xyz
 1 x,y,z
 2 x+1/2,-y+1/2,-z
 3 -x,y+1/2,-z+1/2
 4 -x+1/2,-y,z+1/2

_symmetry_Int_Tables_number        19
_cell_length_a                     5.1155(4)
_cell_length_b                     7.6409(6)
_cell_length_c                     13.6231(11)
_cell_angle_alpha                  90
_cell_angle_beta                   90
_cell_angle_gamma                  90
_cell_volume                       532.49(7)
_cell_formula_units_Z              4
_cell_measurement_temperature      100
_exptl_absorpt_coefficient_mu      0.127
_exptl_absorpt_correction_T_max    1
_exptl_absorpt_correction_T_min    1
_exptl_absorpt_correction_type     multi-scan
_exptl_crystal_colour              'clear colourless'
_exptl_crystal_colour_lustre       clear
_exptl_crystal_colour_modifier     .
_exptl_crystal_colour_primary      colourless
_exptl_crystal_density_diffrn      1.486
_exptl_crystal_description         block
_exptl_crystal_F_000               256.220
_exptl_crystal_size_max            0.19
_exptl_crystal_size_mid            0.16
_exptl_crystal_size_min            0.12
_diffrn_reflns_av_R_equivalents    0.0252
_diffrn_reflns_av_unetI/netI       0.0175
_diffrn_reflns_Laue_measured_fraction_full  1.0000
_diffrn_reflns_Laue_measured_fraction_max  0.9809
_diffrn_reflns_limit_h_max         8
_diffrn_reflns_limit_h_min         -7
_diffrn_reflns_limit_k_max         13
_diffrn_reflns_limit_k_min         -12
_diffrn_reflns_limit_l_max         24
_diffrn_reflns_limit_l_min         -23
_diffrn_reflns_number              28086
_diffrn_reflns_point_group_measured_fraction_full  1.0000
_diffrn_reflns_point_group_measured_fraction_max  0.9712
_diffrn_reflns_theta_full          25.2417
_diffrn_reflns_theta_max           38.85
_diffrn_reflns_theta_min           2.99
_diffrn_ambient_temperature        100
_diffrn_detector                   Pilatus200K
_diffrn_detector_area_resol_mean   5.81
_diffrn_detector_type              'DECTRIS PILATUS 200K'
_diffrn_measured_fraction_theta_full  1.0000
_diffrn_measured_fraction_theta_max  0.9809
_diffrn_measurement_device         'Eulerian 4-circle diffractometer'
_diffrn_measurement_device_type    'STOE STADIVARI'
_diffrn_measurement_method         'rotation method, \w scans'
_diffrn_radiation_collimation      '0.6 mm diameter'
_diffrn_radiation_monochromator    'Graded multilayer mirror'
_diffrn_radiation_probe            x-ray
_diffrn_radiation_type             'Mo K\a'
_diffrn_radiation_wavelength       0.71073
_diffrn_source                     'Genix Mo'
_reflns_Friedel_coverage           0.958
_reflns_limit_h_max                8
_reflns_limit_h_min                -8
_reflns_limit_k_max                13
_reflns_limit_k_min                -13
_reflns_limit_l_max                24
_reflns_limit_l_min                -23
_reflns_number_gt                  2809
_reflns_number_total               2972
_reflns_threshold_expression       I>=2u(I)
_computing_molecular_graphics      'Olex2 1.5-alpha (Dolomanov et al., 2009)'
_computing_publication_material    'Olex2 1.5-alpha (Dolomanov et al., 2009)'
_computing_structure_refinement   
 'olex2.refine 1.5-alpha (Bourhis et al., 2015)'
_computing_structure_solution     
 'olex2.solve 1.5-alpha (Bourhis et al., 2015)'
_refine_diff_density_max           0.4735
_refine_diff_density_min           -0.2045
_refine_diff_density_rms           0.0596
_refine_ls_abs_structure_details  
 'Hooft, R.W.W., Straver, L.H., Spek, A.L. (2010). J. Appl. Cryst., 43, 665-668.'
_refine_ls_abs_structure_Flack     0.06(16)
_refine_ls_d_res_high              0.5665
_refine_ls_d_res_low               6.8116
_refine_ls_goodness_of_fit_ref     1.0678
_refine_ls_hydrogen_treatment      constr
_refine_ls_matrix_type             full
_refine_ls_number_constraints      9
_refine_ls_number_parameters       100
_refine_ls_number_reflns           2972
_refine_ls_number_restraints       0
_refine_ls_R_factor_all            0.0328
_refine_ls_R_factor_gt             0.0298
_refine_ls_restrained_S_all        1.0678
_refine_ls_shift/su_max            0.0005
_refine_ls_shift/su_mean           0.0001
_refine_ls_structure_factor_coef   Fsqd
_refine_ls_weighting_details      
 'w=1/[\s^2^(Fo^2^)+(0.0467P)^2^+0.0525P] where P=(Fo^2^+2Fc^2^)/3'
_refine_ls_weighting_scheme        calc
_refine_ls_wR_factor_gt            0.0755
_refine_ls_wR_factor_ref           0.0772
_olex2_refinement_description
;
1. Fixed Uiso
 At 1.2 times of:
  All C(H) groups, All N(H,H,H) groups
 At 1.5 times of:
  All C(H,H,H) groups, All O(H) groups
;
_atom_sites_solution_primary       iterative
loop_
  _atom_site_label
  _atom_site_type_symbol
  _atom_site_fract_x
  _atom_site_fract_y
  _atom_site_fract_z
  _atom_site_U_iso_or_equiv
  _atom_site_adp_type
  _atom_site_occupancy
  _atom_site_refinement_flags_posn
 O1 O 0.30835(9) 0.45488(6) 0.24514(4) 0.01153(9) Uani 1.000000 .
 O2 O 0.72311(10) 0.46148(7) 0.19076(3) 0.01232(9) Uani 1.000000 .
 O3 O 0.77788(11) 0.39753(6) 0.51331(3) 0.01066(9) Uani 1.000000 .
 H3 H 0.795(3) 0.4619(18) 0.5625(9) 0.01599(13) Uiso 1.000000 R
 N2 N 0.89704(11) 0.25914(7) 0.33751(4) 0.00783(8) Uani 1.000000 .
 H2a H 1.013(2) 0.3242(15) 0.3033(9) 0.00940(10) Uiso 1.000000 R
 H2b H 0.979(2) 0.2385(16) 0.3947(9) 0.00940(10) Uiso 1.000000 R
 H2c H 0.868(2) 0.1569(15) 0.3101(8) 0.00940(10) Uiso 1.000000 R
 C C 0.67816(12) 0.49183(7) 0.43087(4) 0.00826(9) Uani 1.000000 .
 H H 0.816(2) 0.5829(16) 0.4074(8) 0.00991(11) Uiso 1.000000 R
 C1 C 0.55085(11) 0.42912(7) 0.25318(4) 0.00763(9) Uani 1.000000 .
 C2 C 0.64387(11) 0.35217(7) 0.35124(4) 0.00671(9) Uani 1.000000 .
 H2 H 0.520(2) 0.2662(15) 0.3766(9) 0.00805(10) Uiso 1.000000 R
 C3 C 0.42586(14) 0.58516(9) 0.45716(5) 0.01332(11) Uani 1.000000 .
 H3a H 0.296(3) 0.4997(18) 0.4763(10) 0.01998(16) Uiso 1.000000 R
 H3b H 0.455(3) 0.6633(17) 0.5123(10) 0.01998(16) Uiso 1.000000 R
 H3c H 0.373(3) 0.6582(17) 0.4022(10) 0.01998(16) Uiso 1.000000 R

loop_
  _atom_site_aniso_label
  _atom_site_aniso_U_11
  _atom_site_aniso_U_22
  _atom_site_aniso_U_33
  _atom_site_aniso_U_12
  _atom_site_aniso_U_13
  _atom_site_aniso_U_23
 O1 0.00705(16) 0.01416(17) 0.01337(19) 0.00028(14) -0.00186(15) 0.00454(16)
 O2 0.00984(18) 0.0189(2) 0.00824(17) 0.00000(16) 0.00108(14) 0.00509(15)
 O3 0.0154(2) 0.01065(17) 0.00595(15) 0.00331(15) -0.00277(14) -0.00119(13)
 N2 0.00803(19) 0.00850(18) 0.00697(17) 0.00138(15) -0.00021(14) 0.00015(14)
 C 0.0097(2) 0.00811(19) 0.0070(2) 0.00090(17) -0.00083(16) -0.00039(15)
 C1 0.00766(19) 0.00797(19) 0.00728(19) -0.00057(15) -0.00105(17) 0.00084(15)
 C2 0.0067(2) 0.00723(18) 0.00618(18) 0.00032(16) -0.00028(15) 0.00039(15)
 C3 0.0136(2) 0.0139(2) 0.0125(2) 0.0059(2) -0.0003(2) -0.00273(19)

loop_
  _geom_bond_atom_site_label_1
  _geom_bond_atom_site_label_2
  _geom_bond_distance
  _geom_bond_site_symmetry_2
  _geom_bond_publ_flag
 O1 C1 1.2608(7) . ?
 O2 C1 1.2494(7) . ?
 O3 H3 0.836(13) . ?
 O3 C 1.4285(7) . ?
 N2 H2a 0.905(12) . ?
 N2 H2b 0.898(12) . ?
 N2 H2c 0.879(11) . ?
 N2 C2 1.4891(8) . ?
 C H 1.042(12) . ?
 C C2 1.5318(8) . ?
 C C3 1.5174(9) . ?
 C1 C2 1.5351(8) . ?
 C2 H2 0.977(11) . ?
 C3 H3a 0.968(13) . ?
 C3 H3b 0.971(13) . ?
 C3 H3c 0.972(14) . ?

loop_
  _geom_angle_atom_site_label_1
  _geom_angle_atom_site_label_2
  _geom_angle_atom_site_label_3
  _geom_angle
  _geom_angle_site_symmetry_1
  _geom_angle_site_symmetry_3
  _geom_angle_publ_flag
 C O3 H3 111.8(9) . . ?
 H2b N2 H2a 103.6(10) . . ?
 H2c N2 H2a 112.5(10) . . ?
 H2c N2 H2b 107.0(11) . . ?
 C2 N2 H2a 112.0(7) . . ?
 C2 N2 H2b 112.4(8) . . ?
 C2 N2 H2c 109.2(8) . . ?
 H C O3 109.6(7) . . ?
 C2 C O3 104.26(4) . . ?
 C2 C H 109.0(6) . . ?
 C3 C O3 110.81(5) . . ?
 C3 C H 109.6(7) . . ?
 C3 C C2 113.40(5) . . ?
 O2 C1 O1 127.15(6) . . ?
 C2 C1 O1 116.13(5) . . ?
 C2 C1 O2 116.71(5) . . ?
 C C2 N2 108.78(5) . . ?
 C1 C2 N2 110.07(5) . . ?
 C1 C2 C 112.64(4) . . ?
 H2 C2 N2 106.8(7) . . ?
 H2 C2 C 107.0(7) . . ?
 H2 C2 C1 111.3(7) . . ?
 H3a C3 C 109.4(8) . . ?
 H3b C3 C 109.9(8) . . ?
 H3b C3 H3a 108.2(11) . . ?
 H3c C3 C 109.0(8) . . ?
 H3c C3 H3a 113.8(11) . . ?
 H3c C3 H3b 106.6(10) . . ?

loop_
  _geom_torsion_atom_site_label_1
  _geom_torsion_atom_site_label_2
  _geom_torsion_atom_site_label_3
  _geom_torsion_atom_site_label_4
  _geom_torsion
  _geom_torsion_site_symmetry_1
  _geom_torsion_site_symmetry_2
  _geom_torsion_site_symmetry_3
  _geom_torsion_site_symmetry_4
  _geom_torsion_publ_flag
 O1 C1 C2 N2 155.64(5) . . . . ?
 O1 C1 C2 C -82.78(6) . . . . ?
 O2 C1 C2 N2 -25.29(6) . . . . ?
 O2 C1 C2 C 96.29(6) . . . . ?
 O3 C C2 N2 -54.57(5) . . . . ?
 O3 C C2 C1 -176.89(4) . . . . ?
 N2 C2 C C3 -175.19(5) . . . . ?

loop_
  _diffrn_refln_index_h
  _diffrn_refln_index_k
  _diffrn_refln_index_l
  _diffrn_refln_intensity_net
  _diffrn_refln_intensity_u
  _diffrn_refln_scale_group_code
 -6 4 9 73.4 7.72 0
 -6 5 9 104.89 9.69 0
 -6 5 10 38.99 7.43 0
 -6 6 9 23.78 7.46 0
 -6 7 9 92.85 11.6 0
 -6 7 10 253.19 15.07 0
 -6 7 11 63.22 9.46 0
 -6 8 9 77.18 11.02 0
 -6 8 10 -1.72 5.8 0
 -5 1 8 280.48 7.98 0
 -5 3 9 14.99 4.54 0
 -5 3 10 163.77 8.8 0
 -5 3 11 66.06 6.37 0
 -5 4 9 7.13 4.31 0
 -5 4 10 164.51 9.97 0
 -5 4 12 9.17 4.34 0
 -5 4 13 23.29 5.21 0
 -5 5 10 9.5 5.13 0
 -5 5 11 43.41 6.81 0
 -5 5 12 161.73 11.02 0
 -5 6 10 46.91 7.93 0
 -5 6 11 40.88 7.41 0
 -5 6 12 188.02 12.8 0
 -5 6 13 158.22 11.79 0
 -5 6 14 25.86 6.44 0
 -5 7 9 -2.53 5.72 0
 -5 7 10 144.46 12.3 0
 -5 7 11 24.6 7.43 0
 -5 7 12 160.92 12.32 0
 -5 7 13 62.71 9.27 0
 -5 7 14 65.71 9.5 0
 -5 8 10 28.56 7.97 0
 -5 8 11 23.46 7.92 0
 -5 8 12 47.92 9.9 0
 -5 8 13 5.04 6.17 0
 -5 9 9 171.69 14.6 0
 -5 9 10 59.08 11.38 0
 -5 9 11 134.91 14.53 0
 -4 -1 5 113.42 2.66 0
 -4 0 7 52.14 3.06 0
 -4 0 8 21.16 2.25 0
 -4 0 9 427.13 7.37 0
 -4 0 10 610.02 8.88 0
 -4 1 8 218.4 7.03 0
 -4 1 9 670.96 11.95 0
 -4 1 10 3.99 2.41 0
 -4 1 11 179.93 6.75 0
 -4 1 12 46.47 4.22 0
 -4 2 8 13.63 3.64 0
 -4 2 9 171.3 7.75 0
 -4 2 10 12.91 3.31 0
 -4 2 14 159.8 8.05 0
 -4 3 11 16 4.28 0
 -4 3 12 233.44 10.19 0
 -4 3 13 186.07 9.63 0
 -4 3 14 331.28 12.48 0
 -4 3 15 79.94 7.3 0
 -4 4 9 3.32 3.81 0
 -4 4 10 10.62 4.46 0
 -4 4 11 102.12 8.48 0
 -4 4 12 113.98 8.7 0
 -4 4 13 193.67 10.37 0
 -4 4 14 43.25 6.86 0
 -4 4 15 43.93 6.98 0
 -4 4 16 21.77 5.85 0
 -4 5 10 473.03 16.28 0
 -4 5 11 371.83 15.08 0
 -4 5 12 61.17 7.85 0
 -4 5 13 30.35 6.61 0
 -4 5 14 79.65 9.5 0
 -4 5 15 6.28 4.91 0
 -4 5 16 34.57 7.44 0
 -4 5 17 72.76 9.65 0
 -4 6 9 38.04 7.16 0
 -4 6 11 51.5 8.53 0
 -4 6 12 71.17 8.93 0
 -4 6 13 137.98 11.14 0
 -4 6 14 42.94 7.64 0
 -4 6 15 129.27 10.77 0
 -4 6 16 66.03 9.22 0
 -4 6 17 95.35 11.06 0
 -4 7 10 99.31 10.9 0
 -4 7 11 312.23 16.67 0
 -4 7 12 146.34 12.69 0
 -4 7 13 19.88 7.1 0
 -4 7 14 25.88 7.42 0
 -4 7 15 96.35 11.84 0
 -4 7 16 34.86 9.06 0
 -4 8 9 121.08 11.4 0
 -4 8 10 56.04 10.44 0
 -4 8 11 103.8 12.03 0
 -4 8 12 204.44 15.19 0
 -4 8 14 5.22 6.6 0
 -4 8 15 25.69 8.32 0
 -4 9 8 17.65 8 0
 -4 9 9 121.31 14.23 0
 -4 9 10 38.53 9.09 0
 -4 9 12 7.01 7.83 0
 -4 9 13 55.81 10.31 0
 -4 10 8 60.42 11.78 0
 -4 10 9 65.41 11.67 0
 -4 10 10 24.99 9.35 0
 -3 -1 3 40.83 1.87 0
 -3 0 6 22.49 2.2 0
 -3 0 7 0.18 1.24 0
 -3 0 8 244.77 5.83 0
 -3 0 9 9.07 2.11 0
 -3 0 10 34.62 3.24 0
 -3 0 11 52.18 3.75 0
 -3 0 12 206.45 6.86 0
 -3 0 13 3.71 2.47 0
 -3 1 7 118.93 5.3 0
 -3 1 8 732.95 12.16 0
 -3 1 9 665.21 11.97 0
 -3 1 10 568.35 11.6 0
 -3 1 11 149.33 6.72 0
 -3 1 12 231.54 8.26 0
 -3 1 13 196.12 8.24 0
 -3 1 16 100.04 6.75 0
 -3 2 8 225.79 8.39 0
 -3 2 9 301.76 9.38 0
 -3 2 10 150.67 7.28 0
 -3 2 15 34.21 5.36 0
 -3 2 16 104.07 7.98 0
 -3 2 17 122.25 8.71 0
 -3 3 11 25.39 4.7 0
 -3 3 12 24.31 4.63 0
 -3 3 13 41.28 5.76 0
 -3 3 15 57.3 7 0
 -3 3 16 46.76 6.41 0
 -3 3 18 25.33 5.88 0
 -3 4 9 210.95 10.01 0
 -3 4 10 143.87 8.64 0
 -3 4 11 27.37 5.3 0
 -3 4 12 -1.91 3.75 0
 -3 4 13 276.07 12.47 0
 -3 4 14 89.6 8.28 0
 -3 4 15 190.01 11.58 0
 -3 4 16 203.51 12.15 0
 -3 4 17 105.68 10.15 0
 -3 4 18 98.43 9.95 0
 -3 4 19 18.05 6.31 0
 -3 5 9 340.31 13.63 0
 -3 5 10 5.76 4.45 0
 -3 5 11 296.89 13.42 0
 -3 5 12 43.02 6.63 0
 -3 5 13 204.06 11.68 0
 -3 5 15 43.35 7.34 0
 -3 5 19 1.75 6.5 0
 -3 6 9 3.94 5.58 0
 -3 6 10 56.89 8.45 0
 -3 6 11 461.09 17.69 0
 -3 6 12 26.29 6.97 0
 -3 6 13 40.87 8.3 0
 -3 6 14 219.24 13.88 0
 -3 6 15 12.77 6.42 0
 -3 6 16 132.08 11.33 0
 -3 6 17 3.5 6.79 0
 -3 6 18 110.23 11.93 0
 -3 6 19 23.88 7.7 0
 -3 6 20 141.11 13.3 0
 -3 7 9 41.09 7.35 0
 -3 7 10 58.92 8.89 0
 -3 7 12 220.13 13.66 0
 -3 7 13 217.15 14.26 0
 -3 7 14 7.05 6.56 0
 -3 7 15 12.9 6.64 0
 -3 7 16 37.64 9.16 0
 -3 7 17 -0.95 5.72 0
 -3 7 18 34.73 9.28 0
 -3 8 8 174.26 13.05 0
 -3 8 9 93.53 10.17 0
 -3 8 10 56.75 10.05 0
 -3 8 11 128.78 12.16 0
 -3 8 16 25.9 8.25 0
 -3 9 8 166.06 13.21 0
 -3 9 9 4.89 6.63 0
 -3 9 10 18.64 8.61 0
 -3 9 11 91.7 11.97 0
 -3 9 12 130.58 12.66 0
 -3 9 13 -0.59 6.32 0
 -3 9 15 74.41 12.28 0
 -3 10 8 38.7 9.42 0
 -3 10 9 58.81 10.25 0
 -3 10 10 111.83 12.53 0
 -3 10 11 29.94 8.84 0
 -3 10 12 55.73 10.6 0
 -3 11 6 21.12 8.4 0
 -3 11 8 12.83 8.42 0
 -3 11 9 12.23 8.36 0
 -2 -2 1 246.18 4.29 0
 -2 -1 1 473.18 5.63 0
 -2 -1 2 487.42 4.54 0
 -2 -1 7 297.15 4.9 0
 -2 0 5 1021.96 9.66 0
 -2 0 8 8.88 1.94 0
 -2 0 9 53.6 3.78 0
 -2 0 10 498.44 10.24 0
 -2 0 11 226.09 7.48 0
 -2 0 12 121.72 6.26 0
 -2 0 13 324.64 9.61 0
 -2 1 6 1498.85 15.55 0
 -2 1 7 316.83 7.78 0
 -2 1 8 53.62 4.13 0
 -2 1 9 189.12 6.97 0
 -2 1 11 18.43 3.54 0
 -2 1 12 565.15 13.28 0
 -2 1 15 116.14 7.78 0
 -2 1 16 5.78 3.65 0
 -2 2 8 305.26 9.06 0
 -2 2 9 268.95 8.81 0
 -2 2 13 487.55 13.99 0
 -2 2 15 151.95 9 0
 -2 2 16 135.38 9.31 0
 -2 2 17 134.22 9.39 0
 -2 2 18 39 7.01 0
 -2 3 7 614.91 13.7 0
 -2 3 8 344.73 10.98 0
 -2 3 12 22.77 4.88 0
 -2 3 13 45.43 6.13 0
 -2 3 14 75.54 7.66 0
 -2 3 15 32.35 5.97 0
 -2 3 17 23.46 6.53 0
 -2 3 18 27.2 6.25 0
 -2 3 19 200.79 12.65 0
 -2 3 20 158.75 11.12 0
 -2 4 9 229.59 10.44 0
 -2 4 11 -0.32 3.43 0
 -2 4 12 18.94 4.67 0
 -2 4 13 52.12 6.82 0
 -2 4 14 56.28 7.36 0
 -2 4 15 221.13 12.05 0
 -2 4 16 196.21 12.5 0
 -2 4 17 65.51 8.56 0
 -2 4 18 72.24 9.54 0
 -2 4 19 102.43 10.57 0
 -2 4 21 38.95 7.52 0
 -2 5 8 205.05 10.6 0
 -2 5 9 124.56 8.49 0
 -2 5 10 343.6 13.56 0
 -2 5 11 25.84 6.05 0
 -2 5 12 189.13 11.63 0
 -2 5 13 172.65 11.27 0
 -2 5 14 119.14 9.77 0
 -2 5 15 8.07 5.51 0
 -2 5 17 11.46 5.93 0
 -2 5 18 104.54 12.15 0
 -2 5 19 40.92 8.49 0
 -2 5 20 41.55 8.78 0
 -2 5 21 87.46 11.07 0
 -2 6 10 302.02 13.8 0
 -2 6 11 69.57 8.2 0
 -2 6 12 0.76 4.6 0
 -2 6 13 188.17 12.77 0
 -2 6 14 22.47 6.59 0
 -2 6 15 16.12 6.78 0
 -2 6 16 28.56 7.43 0
 -2 6 17 204.99 14.89 0
 -2 6 18 55.9 9.41 0
 -2 6 19 57.11 9.88 0
 -2 6 20 29.5 8.51 0
 -2 7 9 67.69 9.22 0
 -2 7 11 149.99 11.98 0
 -2 7 12 89.48 10.05 0
 -2 7 13 104.07 11.04 0
 -2 7 14 60.79 9.05 0
 -2 7 16 31.62 8.3 0
 -2 7 17 29.34 8.23 0
 -2 7 18 49.76 10.02 0
 -2 7 19 29.07 9.64 0
 -2 8 7 49.73 8.95 0
 -2 8 8 24.94 6.83 0
 -2 8 9 28.9 7.28 0
 -2 8 10 43.84 8.98 0
 -2 8 11 3.01 5.66 0
 -2 8 12 165.77 12.84 0
 -2 8 16 20.96 8.04 0
 -2 8 17 279.1 18.1 0
 -2 9 7 8.64 5.67 0
 -2 9 8 113.26 11.8 0
 -2 9 9 12.26 6.93 0
 -2 9 10 145.82 13.5 0
 -2 9 11 15.72 8.41 0
 -2 9 15 -2.88 6.59 0
 -2 9 16 33.28 9.26 0
 -2 10 6 29.29 8.55 0
 -2 10 8 35.77 8.39 0
 -2 10 9 45.78 9.54 0
 -2 10 11 109.68 13.59 0
 -2 10 12 33.4 10.45 0
 -2 10 13 -0.44 7.97 0
 -2 11 5 31.82 9.42 0
 -2 11 6 -0.25 6.91 0
 -2 11 7 33.15 10.28 0
 -2 11 9 4.9 6.89 0
 -2 11 10 81.64 13.91 0
 -2 12 4 56.42 10.63 0
 -2 12 5 24.94 9.27 0
 -2 12 6 10.7 8.98 0
 -1 -1 0 5909.29 16.58 0
 -1 0 3 15.25 1.42 0
 -1 0 4 -0.08 1.12 0
 -1 0 5 4101.72 19.8 0
 -1 0 6 2226.84 16.45 0
 -1 0 8 39.06 3.18 0
 -1 0 9 800.07 13.02 0
 -1 0 10 296.69 8.85 0
 -1 0 11 121.09 6.49 0
 -1 0 12 2244.56 25.19 0
 -1 1 4 427.04 7.23 0
 -1 1 5 1887.24 16.16 0
 -1 1 6 2388.24 19.3 0
 -1 1 7 289.08 7.47 0
 -1 1 9 247.65 8.06 0
 -1 1 10 967.39 16.24 0
 -1 1 15 3.65 3.58 0
 -1 1 16 199.31 10.58 0
 -1 2 5 757.5 12.26 0
 -1 2 6 419.49 9.64 0
 -1 2 7 1027.42 15.48 0
 -1 2 9 164.43 7.22 0
 -1 2 10 123.4 7.33 0
 -1 2 14 4.38 3.75 0
 -1 2 15 76.09 7.81 0
 -1 2 16 42.91 6.87 0
 -1 2 17 13.46 5.53 0
 -1 2 18 179.64 11.61 0
 -1 3 6 317.72 9.68 0
 -1 3 7 209.35 8.05 0
 -1 3 8 1895.62 24.05 0
 -1 3 12 100.35 7.93 0
 -1 3 13 373.8 13.52 0
 -1 3 14 248.43 12.22 0
 -1 3 16 150.27 10.35 0
 -1 3 18 11.34 5.79 0
 -1 3 19 203.93 13.33 0
 -1 4 6 457.28 12.26 0
 -1 4 11 124.6 8.53 0
 -1 4 12 310.66 12.76 0
 -1 4 13 99.95 8.73 0
 -1 4 14 280.89 13.43 0
 -1 4 15 54.63 8.19 0
 -1 4 16 147.54 10.75 0
 -1 4 17 180.47 12.26 0
 -1 4 18 218.24 14.26 0
 -1 4 19 15.95 7.55 0
 -1 4 20 258.98 15.72 0
 -1 4 21 12.63 8.26 0
 -1 5 8 1267.38 23.48 0
 -1 5 9 514.79 15.61 0
 -1 5 10 86.53 7.45 0
 -1 5 12 100.24 8.5 0
 -1 5 13 52.39 7.46 0
 -1 5 14 50.71 7.44 0
 -1 5 15 97.03 10.46 0
 -1 5 16 2.99 5.51 0
 -1 5 17 2.17 5.58 0
 -1 5 18 70.27 9.68 0
 -1 5 19 50.59 9.4 0
 -1 5 20 2.97 6.52 0
 -1 5 21 32.56 9.13 0
 -1 6 6 256.69 11.21 0
 -1 6 7 128.67 8.55 0
 -1 6 9 122.32 9.08 0
 -1 6 10 10.91 4.87 0
 -1 6 11 188.25 11.27 0
 -1 6 12 19.95 6.05 0
 -1 6 13 82.05 9.45 0
 -1 6 14 48.28 8.19 0
 -1 6 16 259.56 15.9 0
 -1 6 17 66.81 10.81 0
 -1 6 19 81.48 11.56 0
 -1 6 20 13.9 7.58 0
 -1 7 6 50.28 6.96 0
 -1 7 7 348.86 14.72 0
 -1 7 8 124.75 9.69 0
 -1 7 9 153.49 10.98 0
 -1 7 11 396.8 16.63 0
 -1 7 13 145.27 12.44 0
 -1 7 14 101.37 11.7 0
 -1 7 15 102.57 11 0
 -1 7 16 25.66 8.12 0
 -1 7 18 30.13 8.67 0
 -1 8 7 14.05 5.62 0
 -1 8 8 45.72 8.55 0
 -1 8 12 41.58 8.23 0
 -1 8 13 262.12 15.54 0
 -1 8 14 13.05 6.78 0
 -1 8 15 60.28 9.93 0
 -1 8 16 23.31 8.17 0
 -1 8 17 21.98 8.53 0
 -1 8 18 6.72 7.76 0
 -1 9 5 257.49 14.25 0
 -1 9 6 41.73 7.86 0
 -1 9 8 41.93 8.74 0
 -1 9 9 46.1 9.66 0
 -1 9 10 19.01 8.23 0
 -1 9 11 -0.69 7 0
 -1 9 13 14.11 7.48 0
 -1 9 15 165.73 14.5 0
 -1 10 4 25.03 7.6 0
 -1 10 5 21.42 7.07 0
 -1 10 6 11.39 6.47 0
 -1 10 7 111.79 12.21 0
 -1 10 8 244.09 15.81 0
 -1 10 9 37.14 8.5 0
 -1 10 10 172.87 14.97 0
 -1 10 12 98.95 12.55 0
 -1 10 13 65.45 11.56 0
 -1 11 3 6.47 6.63 0
 -1 11 4 141.02 13.02 0
 -1 11 5 19.32 9.1 0
 -1 11 6 165.23 13.61 0
 -1 11 7 38.58 10.27 0
 -1 11 8 75.91 11.33 0
 -1 11 9 225.81 16.86 0
 -1 11 10 3.78 6.94 0
 -1 11 11 15.13 8.33 0
 -1 12 2 67 10.56 0
 -1 12 3 205.27 15.26 0
 -1 12 4 26.37 8.65 0
 -1 12 5 80.6 12.55 0
 -1 12 6 7.23 7.87 0
 -1 12 7 -0.51 7 0
 -1 12 8 51.79 11.08 0
 -1 13 -1 27.57 8.65 0
 -1 13 0 51.7 9.92 0
 -1 13 1 31.73 9.17 0
 0 0 -2 1394.67 8.34 0
 0 0 2 1286.57 7.83 0
 0 0 3 0.85 1.35 0
 0 0 4 5216.25 22.72 0
 0 0 5 -0.36 1.54 0
 0 0 7 -0.94 2.45 0
 0 0 8 108.69 5.35 0
 0 0 9 0.13 2.05 0
 0 0 10 1062.07 16.98 0
 0 1 2 616.2 6.97 0
 0 1 3 2052.02 14.2 0
 0 1 4 4924.18 24.39 0
 0 1 5 419.89 8.4 0
 0 1 6 540.62 10.12 0
 0 1 7 2278.21 21.86 0
 0 1 8 61.15 4.48 0
 0 1 9 48.78 4.55 0
 0 1 10 124.81 7.04 0
 0 1 13 571.78 15.39 0
 0 1 14 14.13 5.24 0
 0 2 3 4967.22 26.3 0
 0 2 4 7600.79 34.77 0
 0 2 6 3122.37 25.44 0
 0 2 7 1033.6 15.99 0
 0 2 8 8.58 3.26 0
 0 2 9 8.29 3.08 0
 0 2 13 -1.97 3.22 0
 0 2 14 129.42 9.02 0
 0 2 15 118.73 9.63 0
 0 2 16 1050.05 24.26 0
 0 2 17 54.53 8.08 0
 0 3 4 3476.79 27.16 0
 0 3 5 7.82 2.78 0
 0 3 6 61.04 4.68 0
 0 3 7 454.31 11.53 0
 0 3 8 21.65 3.81 0
 0 3 12 -2.7 3.57 0
 0 3 13 240.48 11.71 0
 0 3 14 7.31 5.14 0
 0 3 15 243.68 13.22 0
 0 3 16 5.14 4.95 0
 0 3 18 179.63 12.66 0
 0 4 4 387.26 10.63 0
 0 4 5 599.03 13.41 0
 0 4 10 30.78 5.22 0
 0 4 11 227.68 10.91 0
 0 4 13 222.84 11.99 0
 0 4 14 9.04 5.32 0
 0 4 15 675.06 21.24 0
 0 4 16 82.81 10.11 0
 0 4 17 509.75 19.56 0
 0 4 18 5.29 5.78 0
 0 4 19 96.7 12.04 0
 0 4 20 51.4 9.82 0
 0 5 4 131.45 7.38 0
 0 5 8 37.2 5.87 0
 0 5 10 6.45 4.47 0
 0 5 12 0.09 3.73 0
 0 5 16 236.49 14.12 0
 0 5 18 287.14 16.77 0
 0 5 19 65.79 11.13 0
 0 5 20 336.19 18.85 0
 0 5 21 342.79 18.87 0
 0 6 6 72.41 6.54 0
 0 6 7 -2.03 3.63 0
 0 6 8 335.14 13.19 0
 0 6 9 22.92 6.12 0
 0 6 10 63.12 7.82 0
 0 6 11 12.32 4.94 0
 0 6 13 406.26 17.1 0
 0 6 14 532.88 19.95 0
 0 6 15 182.74 12.93 0
 0 6 16 -4.2 5.55 0
 0 6 17 391.11 19.68 0
 0 6 18 18.46 8.12 0
 0 6 19 -3.16 6.06 0
 0 6 20 22.71 8.44 0
 0 7 4 0.44 3.34 0
 0 7 5 662.45 18.3 0
 0 7 6 23.07 5.22 0
 0 7 7 151.25 10.25 0
 0 7 8 4.56 4.76 0
 0 7 9 38.35 7.13 0
 0 7 11 288.82 14.79 0
 0 7 12 106.47 10.63 0
 0 7 13 17.97 7.31 0
 0 7 14 17.77 7.92 0
 0 7 15 9.09 6.98 0
 0 7 16 179.99 14.03 0
 0 7 18 44.8 9.71 0
 0 8 4 418.77 16.05 0
 0 8 6 325.32 14.85 0
 0 8 7 158.41 11.28 0
 0 8 8 164.79 11.96 0
 0 8 9 67.68 9.57 0
 0 8 10 15.94 6.8 0
 0 8 11 20.01 6.89 0
 0 8 12 12.84 6.58 0
 0 8 13 -1.78 5.52 0
 0 8 14 460.5 21.23 0
 0 8 15 12.17 8.3 0
 0 8 16 115.6 14.13 0
 0 8 17 150.51 13.83 0
 0 8 18 138.96 15.01 0
 0 9 4 2.4 4.76 0
 0 9 5 77.59 8.44 0
 0 9 6 32.24 6.96 0
 0 9 7 29.99 7.82 0
 0 9 8 41.48 8.02 0
 0 9 9 370.31 17.3 0
 0 9 10 229.37 14.57 0
 0 9 12 43.88 9.06 0
 0 9 13 70.91 10.63 0
 0 9 14 40.19 10.47 0
 0 9 16 57.4 10.83 0
 0 10 2 1002.21 26.16 0
 0 10 3 85.45 9.28 0
 0 10 5 8.43 6.19 0
 0 10 7 189.26 13.19 0
 0 10 8 22.65 8.58 0
 0 10 11 -0.09 6.7 0
 0 10 12 61.58 10.78 0
 0 10 14 78.56 12.37 0
 0 11 0 0.72 5.33 0
 0 11 1 5.63 5.94 0
 0 11 2 -1.73 6.09 0
 0 11 4 73.72 10.16 0
 0 11 5 -2.12 5.76 0
 0 11 6 166.32 14.33 0
 0 11 7 32.58 8.54 0
 0 11 8 119.45 12.58 0
 0 11 9 31.48 10.72 0
 0 11 10 28.91 8.98 0
 0 11 11 8.99 8.12 0
 0 11 12 -1.02 7.11 0
 0 12 -2 104.76 11.22 0
 0 12 -1 151.38 12.25 0
 0 12 0 111.9 11.13 0
 0 12 1 155.95 13.12 0
 0 12 2 108.34 13.14 0
 0 12 3 13.46 7.95 0
 0 12 4 2.68 7.04 0
 0 12 5 9.33 7.38 0
 0 12 6 7.41 6.95 0
 0 12 7 -4.59 6.07 0
 0 12 8 11.89 7.58 0
 0 13 -4 10.56 6.59 0
 0 13 -3 5.63 6.18 0
 0 13 -2 245.45 15.47 0
 0 13 -1 25.38 7.46 0
 0 13 0 2.3 6.14 0
 0 13 1 29.07 8.57 0
 0 13 2 241.01 16.03 0
 0 13 3 -1.79 6.31 0
 1 1 -5 1847.24 11.26 0
 1 1 1 2724.77 14.1 0
 1 1 2 1757.59 13.32 0
 1 1 3 217.24 5.56 0
 1 1 5 1877.34 18.84 0
 1 1 6 2447.54 22.97 0
 1 1 7 301.39 9.32 0
 1 1 8 1015.24 16.95 0
 1 1 9 241.19 9.02 0
 1 1 12 27.62 4.96 0
 1 2 -5 719.47 7.21 0
 1 2 0 144.97 3.54 0
 1 2 1 6812.38 25.92 0
 1 2 2 3984.97 21.95 0
 1 2 3 1404.43 14.6 0
 1 2 4 2690.17 22.03 0
 1 2 5 752.35 13.04 0
 1 2 6 420.27 10.32 0
 1 2 7 1060.43 17.07 0
 1 2 8 994.28 17.63 0
 1 2 11 443.79 13.85 0
 1 2 12 657.43 17.67 0
 1 2 13 496.33 16.28 0
 1 2 14 3.03 4.62 0
 1 2 15 76.51 8.66 0
 1 3 1 56.62 3.46 0
 1 3 2 220.17 6.61 0
 1 3 3 198.32 6.64 0
 1 3 4 800.46 13.43 0
 1 3 5 192.63 7.18 0
 1 3 6 295.68 9.34 0
 1 3 7 203.36 8.65 0
 1 3 11 32.09 5.24 0
 1 3 12 105.62 8.4 0
 1 3 13 373.3 14.57 0
 1 3 14 262.79 13.51 0
 1 3 15 172.22 11.17 0
 1 3 16 162.79 11.51 0
 1 4 2 1393.66 17.37 0
 1 4 3 1687.35 19.86 0
 1 4 4 1125.78 17.16 0
 1 4 5 280.67 9.42 0
 1 4 6 429.25 11.82 0
 1 4 9 344.42 12.43 0
 1 4 11 124.18 8.91 0
 1 4 13 97.58 8.88 0
 1 4 14 287.2 14.71 0
 1 4 15 49.26 7.98 0
 1 4 16 165.73 12.66 0
 1 4 17 175.58 13.34 0
 1 4 18 231.24 14.58 0
 1 5 1 8.61 2.72 0
 1 5 3 78.31 5.64 0
 1 5 8 1315.73 23.94 0
 1 5 9 515.03 15.83 0
 1 5 10 87.9 8.63 0
 1 5 12 89.05 8.47 0
 1 5 13 35.21 7.52 0
 1 5 14 57.56 8.39 0
 1 5 16 6.13 6.24 0
 1 5 17 4.54 6.55 0
 1 5 18 74.34 10.66 0
 1 5 19 40.79 9.67 0
 1 6 1 196.29 8.58 0
 1 6 6 274.04 11.53 0
 1 6 7 140.16 9.12 0
 1 6 8 107.95 8.53 0
 1 6 9 130.82 10.11 0
 1 6 10 5.01 4.6 0
 1 6 12 22.75 6.93 0
 1 6 13 69.81 8.89 0
 1 6 14 54.12 8.52 0
 1 6 15 323.22 17.24 0
 1 6 16 278.42 16.28 0
 1 6 17 75.18 11.77 0
 1 6 18 55.83 10.18 0
 1 6 19 74.75 12.14 0
 1 7 2 95.43 7.1 0
 1 7 3 200.42 9.76 0
 1 7 4 20.16 4.71 0
 1 7 5 16.08 4.61 0
 1 7 6 65.33 7.1 0
 1 7 7 340.08 14.13 0
 1 7 8 126.28 10.14 0
 1 7 10 179.41 11.55 0
 1 7 11 386.36 17.35 0
 1 7 12 43.44 7.96 0
 1 7 13 150.97 12.99 0
 1 7 14 95.54 11.59 0
 1 7 16 26.73 8.32 0
 1 7 17 222.02 16.64 0
 1 7 18 44.23 10.48 0
 1 7 19 43.07 10.3 0
 1 8 0 291.94 11.65 0
 1 8 1 253.55 11.16 0
 1 8 2 207.54 10.5 0
 1 8 4 3.73 4.8 0
 1 8 5 381.19 14.77 0
 1 8 6 68.36 8.35 0
 1 8 7 9.27 5.43 0
 1 8 8 44.88 7.24 0
 1 8 9 158.5 12.01 0
 1 8 10 304.71 15.43 0
 1 8 11 199.06 13.69 0
 1 8 12 36.8 8.2 0
 1 8 13 246.59 15.93 0
 1 8 14 19.44 7.71 0
 1 8 16 12.72 8.12 0
 1 8 17 7.01 8.53 0
 1 9 0 207.57 11.13 0
 1 9 1 79.13 7.8 0
 1 9 2 86.58 8.8 0
 1 9 4 246.04 13.31 0
 1 9 5 233.61 12.65 0
 1 9 6 33.27 7.42 0
 1 9 7 268.88 14.24 0
 1 9 8 33.42 7.5 0
 1 9 9 41.93 8.33 0
 1 9 10 19.16 7.21 0
 1 9 11 -5.79 6.87 0
 1 9 12 97.19 11.49 0
 1 9 13 9.15 7.15 0
 1 9 14 58.01 10.29 0
 1 9 15 160.77 15.27 0
 1 9 16 17.52 8.97 0
 1 10 -2 125.14 9.5 0
 1 10 -1 6.12 5.12 0
 1 10 0 4.07 5.08 0
 1 10 1 10.24 6.12 0
 1 10 2 146.6 11.07 0
 1 10 3 79.75 8.63 0
 1 10 4 20.79 6.18 0
 1 10 5 22.09 6.67 0
 1 10 6 20.94 7.67 0
 1 10 7 99.18 10.27 0
 1 10 8 259.1 15.29 0
 1 10 9 32.12 9.04 0
 1 10 10 152.16 14.06 0
 1 10 11 1.43 6.87 0
 1 10 12 101.75 13.72 0
 1 10 13 58.38 11.3 0
 1 10 14 270.56 18 0
 1 11 -4 147.33 10.16 0
 1 11 -3 -0.81 4.35 0
 1 11 -2 32.49 6.32 0
 1 11 -1 60.31 8.87 0
 1 11 0 7.1 5.85 0
 1 11 1 48.3 8.54 0
 1 11 2 36.85 7.46 0
 1 11 3 2.54 5.26 0
 1 11 4 165.17 12.36 0
 1 11 5 13.36 6.69 0
 1 11 6 162.31 13.62 0
 1 11 7 41.71 9.11 0
 1 11 8 70.62 11.25 0
 1 11 9 210.88 16.09 0
 1 11 10 8.72 7.43 0
 1 11 11 0.99 7.12 0
 1 12 -3 209.48 12.35 0
 1 12 -2 80.52 9.69 0
 1 12 -1 9.22 5.39 0
 1 12 0 20.67 6.6 0
 1 12 1 8.46 6.14 0
 1 12 2 68.5 9.37 0
 1 12 3 217.95 14.58 0
 1 12 4 30.1 8.73 0
 1 12 5 81.29 11.51 0
 1 12 7 2 6.67 0
 1 12 8 65.13 11.08 0
 1 13 0 38.07 7.93 0
 1 13 1 20.71 7.11 0
 1 13 2 47.06 9.25 0
 1 13 3 2.61 6.18 0
 2 2 -1 245.5 4.19 0
 2 2 1 247.6 5.81 0
 2 2 2 1067.81 12.96 0
 2 2 3 328.94 8.1 0
 2 2 4 134.21 5.82 0
 2 2 5 119.68 5.95 0
 2 2 6 55.57 5.12 0
 2 2 7 30.53 4.36 0
 2 2 10 217.15 10.18 0
 2 2 11 50.91 6.11 0
 2 3 -8 344.12 4.17 0
 2 3 -3 1419.93 7.76 0
 2 3 -2 63.32 2.3 0
 2 3 0 1321.73 12.76 0
 2 3 1 1202.2 13.56 0
 2 3 2 69.89 4.57 0
 2 3 3 1460.34 17.46 0
 2 3 4 1212.89 17.41 0
 2 3 5 101.32 5.79 0
 2 3 10 306.15 12.65 0
 2 3 11 3.34 5.01 0
 2 3 12 18.37 5.05 0
 2 3 13 32.78 6.3 0
 2 3 14 74.86 8.24 0
 2 4 -7 564.77 5.61 0
 2 4 -6 711.12 6.19 0
 2 4 -5 64.42 2.18 0
 2 4 -4 255.75 4.58 0
 2 4 -3 1657.03 12.5 0
 2 4 0 60.78 3.7 0
 2 4 1 432.15 9.21 0
 2 4 2 394.09 9.36 0
 2 4 4 250.59 8.9 0
 2 4 5 66.04 5.25 0
 2 4 8 348.27 12.41 0
 2 4 9 255.89 11.39 0
 2 4 10 88.36 7.65 0
 2 4 11 4.47 4 0
 2 4 12 22.17 5.85 0
 2 4 14 47.24 7.83 0
 2 4 15 218.49 13.19 0
 2 5 -4 629.23 9.1 0
 2 5 -1 75.73 4.37 0
 2 5 1 71.77 5.01 0
 2 5 2 239.46 8.14 0
 2 5 3 746.42 14.96 0
 2 5 8 225.09 10.77 0
 2 5 9 114.37 8.55 0
 2 5 12 208.1 12.97 0
 2 5 13 176.68 12.4 0
 2 5 14 107.42 10.55 0
 2 5 15 12.93 6.09 0
 2 5 16 146.47 12.26 0
 2 5 17 14.12 7.21 0
 2 6 -2 215.85 7.3 0
 2 6 -1 997.56 15.67 0
 2 6 0 188.95 7.35 0
 2 6 1 976.44 16.87 0
 2 6 5 78.93 7.25 0
 2 6 6 194.08 10.04 0
 2 6 7 114.1 8.35 0
 2 6 8 213.13 11.36 0
 2 6 9 409.66 15.74 0
 2 6 11 76.52 8.76 0
 2 6 12 4.07 5.38 0
 2 6 13 187.93 12.86 0
 2 6 16 30.21 8.94 0
 2 6 17 219.51 15.28 0
 2 6 18 53.74 9.96 0
 2 7 -4 156.53 6.63 0
 2 7 -3 261.74 8.44 0
 2 7 -2 123.39 6.55 0
 2 7 3 249.37 10.64 0
 2 7 4 134.89 8.89 0
 2 7 5 412.2 14.2 0
 2 7 6 429.07 14.87 0
 2 7 7 149.42 10.42 0
 2 7 8 68.34 8.65 0
 2 7 10 19.71 6.1 0
 2 7 11 153.98 11.53 0
 2 7 12 96.14 10.78 0
 2 7 13 111.14 12.05 0
 2 7 14 58.19 10.7 0
 2 7 17 40.53 9.67 0
 2 7 18 55.87 11.31 0
 2 8 0 53.37 6.21 0
 2 8 2 139.81 8.75 0
 2 8 3 145.29 8.94 0
 2 8 4 115.3 8.47 0
 2 8 5 46.37 6.72 0
 2 8 6 156.52 10.91 0
 2 8 7 50.4 8.34 0
 2 8 8 22.15 6.9 0
 2 8 9 16.16 6.31 0
 2 8 10 41.43 7.69 0
 2 8 11 4.93 5.95 0
 2 8 12 146.76 12.47 0
 2 8 13 138.51 13.76 0
 2 8 14 57.47 11.21 0
 2 8 16 10.76 7.85 0
 2 8 17 278.37 18.17 0
 2 9 -3 9.14 3.81 0
 2 9 -2 37.62 5.34 0
 2 9 -1 60.9 5.94 0
 2 9 0 33.02 5.38 0
 2 9 1 69.72 7.33 0
 2 9 2 30.55 6.26 0
 2 9 3 7.52 4.8 0
 2 9 4 79.28 8.73 0
 2 9 6 25.6 6.76 0
 2 9 7 16.94 6.59 0
 2 9 8 86.55 10.8 0
 2 9 9 4.79 6.99 0
 2 9 11 18.04 7.79 0
 2 9 12 42.5 9.59 0
 2 9 14 253.04 16.84 0
 2 9 15 -2.55 6.72 0
 2 10 -2 181.56 9.63 0
 2 10 -1 86.95 7.35 0
 2 10 0 1.83 4.51 0
 2 10 1 78.08 7.94 0
 2 10 2 171.52 10.82 0
 2 10 3 81.01 9.59 0
 2 10 4 20.51 6.71 0
 2 10 5 35.53 7.2 0
 2 10 6 25.42 7.02 0
 2 10 7 114.46 10.83 0
 2 10 8 33.38 8.09 0
 2 10 9 51.49 9.53 0
 2 10 10 25.17 7.94 0
 2 10 11 88.82 11.65 0
 2 10 12 28.66 8.59 0
 2 10 13 5.18 7.23 0
 2 11 0 4.84 4.35 0
 2 11 1 36.32 6.91 0
 2 11 2 7.31 5.43 0
 2 11 3 34.29 7.48 0
 2 11 4 48.68 8.07 0
 2 11 6 6.22 6.24 0
 2 11 7 29.9 7.83 0
 2 11 8 127.91 12.12 0
 2 11 9 8.41 7.11 0
 2 11 10 95.2 12.84 0
 2 12 1 21.29 5.7 0
 2 12 2 91.12 9.84 0
 2 12 3 0.98 5.88 0
 2 12 4 65.35 9.52 0
 2 12 5 28.77 8.4 0
 2 12 6 22.51 7.76 0
 2 12 7 37.5 8.86 0
 2 12 8 3.71 6.91 0
 3 3 3 652.16 12.55 0
 3 3 4 401.25 10.95 0
 3 3 5 1983.82 24.47 0
 3 3 8 567.76 15.5 0
 3 3 9 834.59 19.78 0
 3 4 -2 297.96 5.44 0
 3 4 2 283.94 8.49 0
 3 4 3 58.97 4.87 0
 3 4 4 214.22 8.72 0
 3 4 7 275.08 11.41 0
 3 4 8 65.79 6.79 0
 3 4 9 204.43 10.74 0
 3 4 10 149.96 9.71 0
 3 4 11 27.97 6.52 0
 3 4 12 2.18 4.39 0
 3 5 -3 222.47 4.86 0
 3 5 -2 797.88 10.51 0
 3 5 0 144.8 5.79 0
 3 5 1 335.91 9.13 0
 3 5 2 798.87 14.93 0
 3 5 3 218.93 8.7 0
 3 5 6 226.03 10.25 0
 3 5 7 126.45 8.96 0
 3 5 8 86.54 8.35 0
 3 5 9 323.29 13.65 0
 3 5 10 4.62 5.64 0
 3 5 11 297.61 14.13 0
 3 5 12 56.36 8.73 0
 3 5 13 195.01 13.02 0
 3 5 14 56.93 8.87 0
 3 6 -3 54.44 3.19 0
 3 6 -2 47.31 3.47 0
 3 6 0 146.28 6.63 0
 3 6 1 338.15 9.99 0
 3 6 5 244.65 10.94 0
 3 6 6 78.91 7.72 0
 3 6 7 4.64 4.28 0
 3 6 8 4.57 5.12 0
 3 6 9 5.2 4.76 0
 3 6 10 59.68 8.19 0
 3 6 11 499.09 19.23 0
 3 6 12 26.54 7.23 0
 3 6 13 32.19 7.61 0
 3 6 15 4.88 6.59 0
 3 6 16 138.77 12.81 0
 3 7 -1 360.32 9.91 0
 3 7 2 193.1 9.04 0
 3 7 4 26.4 5.6 0
 3 7 5 22.42 5.08 0
 3 7 7 520.12 17.21 0
 3 7 10 57.6 8.66 0
 3 7 11 54.43 9.28 0
 3 7 14 16.04 8.06 0
 3 7 15 6.25 8.23 0
 3 7 16 35.54 9.71 0
 3 8 1 8.57 3.51 0
 3 8 2 103.61 7.41 0
 3 8 3 78.89 7 0
 3 8 4 22.37 5.45 0
 3 8 5 110.85 9.07 0
 3 8 6 3.39 4.47 0
 3 8 7 28.54 7.05 0
 3 8 8 163.11 11.65 0
 3 8 10 52.52 9.3 0
 3 8 11 121.96 11.53 0
 3 8 12 122.84 11.78 0
 3 8 13 24.65 8.82 0
 3 8 14 73.54 11.51 0
 3 8 15 118.75 14.64 0
 3 8 16 32.55 9.37 0
 3 9 1 -1.47 3.75 0
 3 9 2 25.81 5.69 0
 3 9 3 -1.51 3.97 0
 3 9 4 149.1 10.11 0
 3 9 5 267.03 13.51 0
 3 9 6 60.96 8.58 0
 3 9 7 193.45 12.65 0
 3 9 8 159.78 12.7 0
 3 9 10 14.38 6.89 0
 3 9 13 10.54 7.41 0
 3 9 14 2.94 7.34 0
 3 10 3 173.17 10.87 0
 3 10 4 84.52 9.21 0
 3 10 5 26.65 7.3 0
 3 10 7 6.22 6.41 0
 3 10 8 27.17 7.4 0
 3 10 9 63.88 10.24 0
 3 10 10 104.38 12.62 0
 3 10 12 60.17 11.11 0
 3 11 4 29.26 7.24 0
 3 11 5 7.37 6.27 0
 3 11 6 25.48 7.51 0
 3 11 7 119.46 11.78 0
 3 11 8 14.38 7.92 0
 3 11 9 11.37 6.82 0
 3 11 10 74.08 11.59 0
 4 5 5 93.1 7.34 0
 4 5 6 402.22 14.07 0
 4 5 7 97.18 8 0
 4 6 1 146.4 6.79 0
 4 6 3 24.06 4.04 0
 4 6 5 18.61 4.82 0
 4 6 6 1.76 3.74 0
 4 6 7 45.31 6.95 0
 4 6 8 102.62 9.45 0
 4 6 10 0.68 4.84 0
 4 7 4 0.04 3.41 0
 4 7 6 116.15 9.43 0
 4 7 7 236.8 12.67 0
 4 7 8 116.92 9.56 0
 4 7 10 120.52 10.81 0
 4 7 11 316.23 16.48 0
 4 7 12 144.16 13.46 0
 4 8 3 76.27 7.04 0
 4 8 4 116.28 8.58 0
 4 8 6 5.09 4.73 0
 4 8 7 53.94 8.28 0
 4 8 8 11.42 6.8 0
 4 8 9 108.22 11.19 0
 4 8 10 50.27 8.82 0
 4 8 11 99.93 10.67 0
 4 8 13 114.99 14.1 0
 4 9 4 16.63 4.72 0
 4 9 5 298.74 13.91 0
 4 9 6 27.77 6.24 0
 4 9 7 81.79 10.15 0
 4 9 8 24.77 6.89 0
 4 9 9 112.7 11.08 0
 4 9 10 44.47 8.73 0
 4 9 11 141.25 12.99 0
 4 9 12 4.46 7.91 0
 4 9 13 43.51 9.53 0
 4 10 7 174.89 12.67 0
 4 10 8 71.72 10.34 0
 4 10 9 73.91 10.12 0
 4 10 10 43.09 9 0
 4 10 11 27.03 8.09 0
 4 11 8 24.22 7.84 0
 -1 1 0 5842.42 19.15 0
 -1 2 -1 6884.65 18.75 0
 -1 2 0 148.08 3.31 0
 -1 3 -1 49.4 1.77 0
 -1 3 0 3.1 1.22 0
 -1 4 -1 338.79 3.79 0
 -1 6 0 79.62 2.41 0
 0 -4 5 619.11 5.51 0
 0 5 -1 44.25 1.44 0
 0 6 0 711.86 7.4 0
 0 7 0 0.04 0.72 0
 0 7 1 206.32 5 0
 1 -5 8 1248.5 9.33 0
 1 -4 6 439.31 5.52 0
 1 -3 3 191.66 3.01 0
 1 -2 1 6560.42 18.63 0
 1 -2 3 1449.83 9.64 0
 1 -1 0 5758.51 19.48 0
 1 -1 1 2674.37 12.77 0
 1 -1 2 1739.39 10.85 0
 1 0 -1 2722.16 14.7 0
 1 0 0 1.18 1.25 0
 1 0 1 2665.79 13.79 0
 1 1 -2 1751.48 12.58 0
 1 1 -1 2638.49 14.42 0
 1 1 0 5811.1 21.13 0
 1 1 1 2714.34 15.27 0
 1 2 -2 4169.39 19.54 0
 1 2 -1 6734.46 24.01 0
 1 2 0 140.49 3.79 0
 1 2 1 6775.62 25.92 0
 1 3 -2 226.88 4.99 0
 1 3 -1 55.08 2.95 0
 1 4 0 229.36 5.37 0
 1 4 1 333.28 6.9 0
 1 5 -2 478.9 7.16 0
 1 5 1 7.58 2.1 0
 1 6 -2 84.36 3.24 0
 1 6 -1 198.63 5.11 0
 1 6 2 87.05 4.41 0
 1 7 -1 19.51 2.24 0
 1 7 0 132.25 4.63 0
 1 7 2 101.91 4.99 0
 1 8 1 284.79 7.05 0
 1 8 3 164.21 6.66 0
 1 9 6 40.07 4.8 0
 2 -5 6 298.52 4.84 0
 2 -5 7 56.73 2.59 0
 2 -5 8 204.92 4.91 0
 2 -5 9 112.44 4.13 0
 2 -5 10 347.34 7.49 0
 2 -5 11 27.08 3.23 0
 2 -5 12 190.91 6.69 0
 2 -5 13 176.8 6.85 0
 2 -4 3 1634.45 12.7 0
 2 -4 4 258.08 5.34 0
 2 -4 5 57.72 2.85 0
 2 -4 6 694.32 9.25 0
 2 -4 7 554.59 8.81 0
 2 -4 8 366.59 7.83 0
 2 -4 9 252.12 7.1 0
 2 -4 10 90.26 4.79 0
 2 -3 2 66.96 3.31 0
 2 -3 3 1441.14 13.06 0
 2 -3 4 1177.12 12.06 0
 2 -3 5 88.97 3.84 0
 2 -3 6 218.74 5.95 0
 2 -3 7 609.68 10.34 0
 2 -2 0 4952.51 26.09 0
 2 -2 2 1049.54 11.83 0
 2 -2 3 312.24 6.86 0
 2 -2 4 137.02 4.88 0
 2 -2 5 116.34 4.66 0
 2 -2 6 55.14 3.86 0
 2 -1 -1 463.75 8.8 0
 2 -1 0 1.5 2.15 0
 2 -1 1 453.31 8.18 0
 2 -1 2 462.53 8.24 0
 2 -1 3 1803.27 16.25 0
 2 -1 4 777.91 11.32 0
 2 0 -2 0.93 1.99 0
 2 0 -1 817.53 11.52 0
 2 0 0 5148.9 27.46 0
 2 0 1 811.04 11.07 0
 2 0 2 3.54 1.94 0
 2 0 3 28.97 3.56 0
 2 0 4 976.59 13.25 0
 2 1 -2 484.02 9.31 0
 2 1 -1 456.03 8.77 0
 2 1 0 3.94 2.31 0
 2 1 1 452.81 8.7 0
 2 1 2 486.02 9.36 0
 2 1 3 1800.67 18.12 0
 2 2 -3 304.67 7.85 0
 2 2 -1 247.56 6.82 0
 2 2 0 4962.63 28.82 0
 2 2 1 243.23 6.77 0
 2 2 2 1048.76 13.96 0
 2 2 3 321.16 8.23 0
 2 3 -3 1463.91 16.49 0
 2 3 -2 64.78 4.42 0
 2 3 -1 1207.1 14.77 0
 2 3 0 1349.89 15.63 0
 2 3 1 1145.52 14.69 0
 2 3 2 62.28 4.16 0
 2 3 3 1421.17 17.46 0
 2 4 -3 1691.26 17.96 0
 2 4 -2 390.56 8.67 0
 2 4 -1 449.5 9.5 0
 2 4 0 69.56 4.16 0
 2 4 2 391.07 9.46 0
 2 5 -3 757.83 12.21 0
 2 5 -1 80.45 4.74 0
 2 5 0 392.87 9.23 0
 2 5 2 247.24 8.05 0
 2 5 3 775.89 14.34 0
 2 6 -3 98.8 5.05 0
 2 6 -2 221.19 7.04 0
 2 6 1 1006.21 15.57 0
 2 6 2 206.98 7.72 0
 2 6 3 96.63 5.8 0
 2 7 0 109.29 5.64 0
 2 7 1 320.68 9.18 0
 2 7 2 127.5 6.62 0
 2 7 5 414.11 12.42 0
 2 7 6 412.79 12.79 0
 2 8 1 370.65 9.95 0
 2 8 4 98.6 6.17 0
 2 8 5 59.66 5.73 0
 2 8 6 144.78 8.58 0
 2 8 7 41.15 6.1 0
 2 9 4 70.83 5.5 0
 2 9 5 287.61 10.6 0
 2 9 6 33.91 5.43 0
 2 9 7 13.18 4.61 0
 2 9 8 95.81 7.88 0
 2 9 9 15.92 5.12 0
 2 9 10 121.62 9.58 0
 2 10 9 47.86 6.2 0
 2 10 10 21.2 5.54 0
 2 10 11 86.16 9.62 0
 2 10 12 21.93 6.72 0
 2 10 13 6.99 6.13 0
 3 -5 6 218.86 6.24 0
 3 -5 7 127.38 5.06 0
 3 -5 8 79.63 4.33 0
 3 -5 9 322.27 8.12 0
 3 -5 10 2.68 2.08 0
 3 -5 11 305.06 8.59 0
 3 -4 3 61.03 4.28 0
 3 -4 6 150.83 6.02 0
 3 -4 7 287.66 8.01 0
 3 -4 8 49.96 4.17 0
 3 -4 10 147.16 6.76 0
 3 -4 14 98.34 6.97 0
 3 -4 15 184.44 9.15 0
 3 -4 16 189.54 9.59 0
 3 -3 2 165.84 6.41 0
 3 -3 3 632.09 11.48 0
 3 -3 4 374.1 9.08 0
 3 -3 5 2021.29 20.87 0
 3 -3 6 145.81 6.21 0
 3 -3 7 227.27 7.75 0
 3 -3 8 549.43 12 0
 3 -3 9 827.91 15.3 0
 3 -3 12 27.61 4.49 0
 3 -3 13 52.41 6.4 0
 3 -3 14 47.26 6.29 0
 3 -3 15 55.33 6.61 0
 3 -3 17 152.84 9.79 0
 3 -3 18 19.43 5.24 0
 3 -3 19 35.65 6.59 0
 3 -2 1 878.87 14.11 0
 3 -2 2 477.48 10.39 0
 3 -2 3 530.76 10.91 0
 3 -2 5 236.15 7.89 0
 3 -2 6 112.4 5.99 0
 3 -2 7 140.65 6.73 0
 3 -2 11 226.15 9.63 0
 3 -1 -1 858.22 14.8 0
 3 -1 0 736.9 13.22 0
 3 -1 1 847.26 13.98 0
 3 -1 2 1267.45 17.04 0
 3 -1 3 49.11 4.34 0
 3 -1 4 56.56 4.59 0
 3 -1 5 620.06 12.8 0
 3 -1 6 872.83 15.36 0
 3 -1 7 108.73 6.53 0
 3 0 -2 1065.38 16.44 0
 3 0 -1 1466.88 19.15 0
 3 0 0 1.71 2.49 0
 3 0 1 1486.63 18.87 0
 3 0 2 1083.56 16.21 0
 3 0 3 1.99 2.31 0
 3 0 4 1852 21.52 0
 3 0 5 244.76 8.48 0
 3 0 6 24.96 4.01 0
 3 1 -3 48.82 4.61 0
 3 1 -1 844.13 14.68 0
 3 1 0 709.88 13.27 0
 3 1 1 849.08 14.74 0
 3 1 2 1287.71 18.16 0
 3 1 3 41.18 4.2 0
 3 2 -3 523.22 12.32 0
 3 2 -1 885.46 15.19 0
 3 2 0 347.83 9.97 0
 3 2 1 861.84 15.1 0
 3 2 2 456.8 11.24 0
 3 2 3 519.36 12.06 0
 3 2 4 188.62 8.1 0
 3 3 -2 169.96 7.34 0
 3 3 -1 26.52 4.06 0
 3 3 0 28.56 3.93 0
 3 3 1 27.37 3.79 0
 3 4 -4 190.94 8.01 0
 3 4 -3 61.5 5.45 0
 3 4 -2 298.66 9.81 0
 3 4 -1 25.47 3.99 0
 3 4 0 72.02 5.89 0
 3 4 1 21.71 3.67 0
 3 4 6 158.35 8.49 0
 3 4 7 279.96 11.28 0
 3 5 -3 230.11 8.73 0
 3 5 -2 756.78 15.15 0
 3 5 -1 310.27 10.16 0
 3 5 5 147.59 8.11 0
 3 5 7 121.31 7.88 0
 3 5 8 93.54 7.42 0
 3 6 3 54.98 5.82 0
 3 6 4 292.9 11.15 0
 3 6 5 249.19 10.51 0
 3 6 6 89.66 7.29 0
 3 6 7 0.7 3.46 0
 3 6 8 10.67 4.46 0
 3 6 9 7.3 4.28 0
 3 7 1 373.53 11.82 0
 3 7 2 197.7 9.03 0
 3 7 3 77.73 6.75 0
 3 7 4 30.9 5.58 0
 3 7 5 28.7 5.11 0
 3 7 6 175.79 9.74 0
 3 7 7 527.1 16.38 0
 3 7 8 40.33 6.28 0
 3 7 9 52.15 7.38 0
 3 7 10 75.88 9.32 0
 3 7 11 60.03 7.92 0
 3 8 0 594 14.11 0
 3 8 1 5.12 3.16 0
 3 8 2 118.79 7.27 0
 3 8 3 88.48 6.95 0
 3 8 4 20.4 4.67 0
 3 8 5 95.98 7.89 0
 3 8 6 0.22 3.71 0
 3 8 8 193.96 11.39 0
 3 8 9 88.28 8.99 0
 3 8 10 54.74 8.39 0
 3 8 11 114.24 10.38 0
 3 8 12 125.95 10.91 0
 3 8 13 28.4 7.9 0
 3 8 14 72.47 10 0
 3 8 16 31.66 8.44 0
 3 9 3 5.37 3.05 0
 3 9 4 147.13 8.84 0
 3 9 5 276.56 11.67 0
 3 9 6 78.25 7.67 0
 3 9 7 179.82 10.72 0
 3 9 8 152.02 10.32 0
 3 9 9 2.74 4.64 0
 3 9 10 13.67 5.98 0
 3 9 11 76.97 8.75 0
 3 9 12 127.1 11.28 0
 3 9 13 9.76 6.13 0
 3 9 14 3.19 5.86 0
 3 9 15 77.53 10.6 0
 3 10 8 37.14 6.17 0
 3 10 9 61.69 8.21 0
 3 10 10 95.57 9.26 0
 3 10 11 33.26 7.15 0
 3 10 12 60.49 8.84 0
 3 10 13 3.81 5.39 0
 4 -5 6 369.6 9.95 0
 4 -5 7 102.3 5.9 0
 4 -4 3 61.88 5.34 0
 4 -4 5 23.04 4.34 0
 4 -4 10 10.61 4.07 0
 4 -4 11 95.8 6.57 0
 4 -4 12 126.25 7.47 0
 4 -4 14 52.91 6.38 0
 4 -4 15 49.7 6.1 0
 4 -3 2 22 4.03 0
 4 -3 3 349.56 10.88 0
 4 -3 9 533.78 13.82 0
 4 -3 10 461.19 13.4 0
 4 -3 11 20.43 4.5 0
 4 -3 12 234.18 10.49 0
 4 -3 13 178.27 9.44 0
 4 -3 14 318.41 12.46 0
 4 -3 15 86.45 7.83 0
 4 -3 16 15.36 5.47 0
 4 -3 18 22.75 6.24 0
 4 -2 8 11.63 3.98 0
 4 -2 10 5.12 3.71 0
 4 -2 11 113.56 8.21 0
 4 -2 12 85.67 7.79 0
 4 -2 13 18.27 5.55 0
 4 -2 14 171.59 10.62 0
 4 -2 15 347.18 14.33 0
 4 -2 17 15.61 5.87 0
 4 -2 18 31.23 7.28 0
 4 -2 19 37.25 8.03 0
 4 -2 20 94.43 10.54 0
 4 -1 8 226.03 9.8 0
 4 -1 10 5.2 4.28 0
 4 -1 11 200.66 10.61 0
 4 -1 12 40.6 6.33 0
 4 -1 13 331.22 13.66 0
 4 -1 14 36.88 6.67 0
 4 -1 15 160.21 11.09 0
 4 -1 16 153.48 11.34 0
 4 -1 17 18.45 6.28 0
 4 -1 18 15.65 6.73 0
 4 -1 19 140.52 12.11 0
 4 -1 20 1.87 5.61 0
 4 -1 21 7.88 6.23 0
 4 0 6 16.06 4.09 0
 4 0 7 51.74 6.29 0
 4 0 8 23.93 4.67 0
 4 0 9 424.61 14.04 0
 4 0 10 636.63 17.58 0
 4 0 11 339.72 13.35 0
 4 0 12 5.92 4.26 0
 4 0 13 110.91 9 0
 4 0 14 83.94 8.43 0
 4 0 15 42.46 7.93 0
 4 0 16 354.66 16.31 0
 4 0 17 -3.87 4.84 0
 4 0 18 121.5 11.67 0
 4 0 19 24.98 7.49 0
 4 0 20 3.92 5.98 0
 4 0 21 28.3 7.96 0
 4 1 5 125.88 7.72 0
 4 1 6 288.36 10.98 0
 4 1 7 1583.13 25.74 0
 4 1 8 212.44 10.23 0
 4 1 9 679.86 18.15 0
 4 1 10 2.06 3.8 0
 4 1 12 37.56 6.28 0
 4 1 13 316.94 14.49 0
 4 1 14 44.81 7.64 0
 4 1 15 176.33 11.91 0
 4 1 16 151.26 11.43 0
 4 1 17 18.91 6.61 0
 4 1 19 132.91 12.79 0
 4 1 20 5.08 6.26 0
 4 2 7 195.98 9.89 0
 4 2 8 16.23 4.37 0
 4 2 9 173.17 10.25 0
 4 2 10 12.47 4.69 0
 4 2 11 129.28 10.16 0
 4 2 12 103.2 9.72 0
 4 2 13 19.03 6.4 0
 4 2 14 179.45 11.75 0
 4 2 15 314.55 16.05 0
 4 2 16 99.83 11.58 0
 4 2 17 8.62 6.64 0
 4 2 18 30.02 8.7 0
 4 2 19 44.34 8.87 0
 4 2 20 82.13 11.37 0
 4 3 -3 368.6 12.42 0
 4 3 -2 20.98 4.59 0
 4 3 -1 161.81 8.4 0
 4 3 1 162.9 8.45 0
 4 3 2 23.07 4.74 0
 4 3 3 358.71 12.63 0
 4 3 5 50.38 6.12 0
 4 3 6 184.94 9.79 0
 4 3 8 565.74 17.33 0
 4 3 9 545.83 17.58 0
 4 3 10 475.05 16.59 0
 4 3 11 14.41 5.86 0
 4 3 12 238.59 13.34 0
 4 3 13 173.36 12.35 0
 4 3 16 24.98 7.41 0
 4 3 17 15.88 7.41 0
 4 3 18 31.58 9.07 0
 4 3 19 93.36 11.89 0
 4 4 -4 92.99 7.04 0
 4 4 -3 58.27 7.04 0
 4 4 -2 153.46 8.72 0
 4 4 0 13.23 4.69 0
 4 4 1 286.36 11.19 0
 4 4 2 158.47 9.24 0
 4 4 3 55.39 6.78 0
 4 4 6 46.99 6.68 0
 4 4 8 65.68 7.46 0
 4 4 10 16.12 5.53 0
 4 4 11 87.6 8.68 0
 4 4 12 119.72 9.91 0
 4 4 13 207.05 12.65 0
 4 4 15 42.87 8.29 0
 4 4 16 27.21 7.95 0
 4 4 17 54.6 9.3 0
 4 4 18 160.32 13.24 0
 4 5 -3 65.3 6.48 0
 4 5 -2 129.08 8.08 0
 4 5 -1 59.36 6.24 0
 4 5 0 102.81 7.44 0
 4 5 1 60.39 6.9 0
 4 5 2 133.32 8.42 0
 4 5 4 362.13 13.4 0
 4 5 5 77.2 7.38 0
 4 5 7 103.08 8.52 0
 4 5 8 549.05 17.71 0
 4 5 9 163.64 10.58 0
 4 5 11 386.32 16.4 0
 4 5 14 90.77 11.13 0
 4 5 15 5.23 6.11 0
 4 5 16 36.17 8.19 0
 4 5 17 76.89 10.62 0
 4 6 -3 30.89 5.78 0
 4 6 -2 30.34 5.4 0
 4 6 -1 144.02 8.7 0
 4 6 0 15.68 4.67 0
 4 6 1 152.74 9.11 0
 4 6 2 30.18 5.85 0
 4 6 3 32.88 5.86 0
 4 6 5 9.32 4.34 0
 4 6 6 9.1 4.69 0
 4 6 7 47.58 7.58 0
 4 6 9 38.02 7.7 0
 4 6 10 -0.88 4.68 0
 4 6 11 56.43 8.83 0
 4 6 12 73.47 10.23 0
 4 6 13 149.35 12.64 0
 4 6 14 33.52 8.02 0
 4 6 17 83.6 11.89 0
 4 7 -2 288.65 11.77 0
 4 7 0 15.74 5.23 0
 4 7 1 220.57 10.4 0
 4 7 2 280.48 12.17 0
 4 7 3 88.92 7.75 0
 4 7 4 7.63 4.54 0
 4 7 5 133.13 9.42 0
 4 7 6 119.87 9.63 0
 4 7 7 225.39 12.15 0
 4 7 8 93.89 9.57 0
 4 7 9 71.68 8.98 0
 4 7 10 117 10.23 0
 4 7 11 298.45 15.58 0
 4 7 13 19.42 7.26 0
 4 7 14 29.73 8.08 0
 4 7 15 85.11 11.51 0
 4 8 -2 124.81 8.18 0
 4 8 -1 37.14 5.93 0
 4 8 0 95.73 7.86 0
 4 8 2 123.29 8.78 0
 4 8 3 63.77 7.26 0
 4 8 4 142.52 10.01 0
 4 8 5 17.81 5.5 0
 4 8 6 7.57 4.9 0
 4 8 7 39.24 7.45 0
 4 8 8 7.76 5.77 0
 4 8 9 123.38 10.99 0
 4 8 10 63.16 8.97 0
 4 8 11 87.48 11.48 0
 4 8 12 201.96 14.03 0
 4 8 14 7.9 6.95 0
 4 9 2 12.51 4.55 0
 4 9 3 113.14 8.83 0
 4 9 4 18.28 5.22 0
 4 9 5 310.18 13.87 0
 4 9 6 36.8 6.96 0
 4 9 7 67.04 8.27 0
 4 9 8 15.63 5.71 0
 4 9 10 45.28 7.83 0
 4 9 11 117.86 11.19 0
 4 9 12 9.85 6.95 0
 4 9 13 56.48 9.83 0
 4 10 6 156.29 10.35 0
 4 10 7 160.7 11.19 0
 4 10 8 69.43 8.51 0
 4 10 9 77.79 9.13 0
 4 10 10 29.3 6.89 0
 4 10 11 25.49 7.72 0
 5 -5 6 38.05 5.33 0
 5 -5 7 -0.23 3.26 0
 5 -5 8 190.59 8.97 0
 5 -5 9 136.05 7.75 0
 5 -4 3 28.74 5.16 0
 5 -4 4 51.41 6.34 0
 5 -4 5 -2.05 3.4 0
 5 -4 7 92.86 7.05 0
 5 -4 8 190.79 9.63 0
 5 -4 9 9.38 4.33 0
 5 -4 10 181.35 9.6 0
 5 -4 11 377.83 13.35 0
 5 -4 12 0.63 3.86 0
 5 -4 13 22.25 5.06 0
 5 -3 2 276.31 11.45 0
 5 -3 3 208.32 10.27 0
 5 -3 4 472.57 14.13 0
 5 -3 5 214.42 10.35 0
 5 -3 6 85.38 7.54 0
 5 -3 7 23.35 5.28 0
 5 -3 8 18.69 5.09 0
 5 -3 9 8.53 4.22 0
 5 -3 10 177.52 9.77 0
 5 -3 11 61.12 7.16 0
 5 -3 13 79.58 7.67 0
 5 -3 14 26.82 6.13 0
 5 -3 15 320.08 13.87 0
 5 -3 16 53.05 7.94 0
 5 -2 0 42.3 6.4 0
 5 -2 1 153.09 9.37 0
 5 -2 2 190.41 9.72 0
 5 -2 3 501.07 14.9 0
 5 -2 4 18.01 5.24 0
 5 -2 7 107.65 8.19 0
 5 -2 8 50.34 7.03 0
 5 -2 9 52.64 6.72 0
 5 -2 11 -1.63 3.93 0
 5 -2 12 21.38 5.5 0
 5 -2 13 30.12 6.75 0
 5 -2 14 165.56 11.22 0
 5 -2 15 62.62 8.23 0
 5 -2 16 15.42 5.9 0
 5 -2 18 42.29 7.5 0
 5 -2 19 16.39 6.25 0
 5 -1 -1 92.15 7.61 0
 5 -1 0 65.52 6.77 0
 5 -1 1 87.52 7.3 0
 5 -1 2 367.74 13.47 0
 5 -1 4 368.41 13.12 0
 5 -1 5 504.55 15.42 0
 5 -1 6 4.63 3.94 0
 5 -1 7 56.93 6.5 0
 5 -1 8 289.34 12.9 0
 5 -1 9 31.31 6.09 0
 5 -1 10 79.35 8.31 0
 5 -1 11 7.36 4.47 0
 5 -1 12 77.61 9.28 0
 5 -1 13 60.22 7.96 0
 5 -1 14 271.9 14.14 0
 5 -1 15 209.89 13.31 0
 5 -1 16 155.43 11.48 0
 5 -1 17 -5.87 4.56 0
 5 -1 18 86.57 10.41 0
 5 -1 19 11.78 6.03 0
 5 0 -2 493.81 15.52 0
 5 0 -1 865.43 20.27 0
 5 0 0 3.73 4.35 0
 5 0 1 860.74 20.06 0
 5 0 2 495.58 15.26 0
 5 0 3 122.16 8.65 0
 5 0 4 1.92 3.93 0
 5 0 5 17.13 4.93 0
 5 0 6 135.89 9.6 0
 5 0 7 8.68 4.4 0
 5 0 8 201.36 11.22 0
 5 0 10 5.36 4.7 0
 5 0 12 3.49 4.75 0
 5 0 13 255.42 13.78 0
 5 0 15 1.58 5.24 0
 5 0 16 100.58 10.53 0
 5 0 17 245.93 15.23 0
 5 0 18 0.03 6.96 0
 5 0 19 57.05 9.58 0
 5 1 -2 415.28 14.48 0
 5 1 -1 101.27 8.32 0
 5 1 1 103.9 7.74 0
 5 1 2 365.13 13.5 0
 5 1 3 49.59 6.52 0
 5 1 5 510.08 16.32 0
 5 1 6 4.37 4.87 0
 5 1 7 51.37 6.96 0
 5 1 8 284.61 13.26 0
 5 1 9 46.78 7.49 0
 5 1 10 80.51 8.16 0
 5 1 12 76.79 8.47 0
 5 1 13 49.22 7.66 0
 5 1 14 244.57 14.56 0
 5 1 15 218.03 14.43 0
 5 1 17 7.26 6.29 0
 5 1 18 97.32 11.89 0
 5 1 19 17.06 7.65 0
 5 2 -3 494.81 16.41 0
 5 2 -1 156.8 9.66 0
 5 2 0 44.47 6.31 0
 5 2 1 144.27 8.98 0
 5 2 2 194.83 10.83 0
 5 2 3 480.48 15.57 0
 5 2 4 17.1 4.88 0
 5 2 5 399.13 15.04 0
 5 2 6 245.9 11.96 0
 5 2 7 91.28 8.53 0
 5 2 8 63.06 7.84 0
 5 2 9 52.22 7.8 0
 5 2 11 -2.6 4.34 0
 5 2 12 25.9 6.68 0
 5 2 13 24.4 6.49 0
 5 2 14 135.68 12.11 0
 5 2 15 70.66 9.93 0
 5 2 16 17.49 8.29 0
 5 2 17 510.05 21.63 0
 5 3 -3 247.32 12.27 0
 5 3 -1 198.76 10.72 0
 5 3 0 92.92 7.87 0
 5 3 4 482.3 16.1 0
 5 3 5 208.6 11.21 0
 5 3 6 80.11 8.49 0
 5 3 7 15.4 4.89 0
 5 3 8 13.26 4.95 0
 5 3 9 5.66 5.05 0
 5 3 10 184.96 11.88 0
 5 3 11 54.39 8.21 0
 5 3 12 25.25 7.31 0
 5 3 13 88.8 10.57 0
 5 3 14 23.07 7.35 0
 5 3 15 328.27 17.87 0
 5 3 16 52.83 9.56 0
 5 3 17 0.14 6.12 0
 5 3 18 32.02 9.07 0
 5 4 -3 32.43 6.07 0
 5 4 -2 171.8 10.1 0
 5 4 -1 448.24 15.92 0
 5 4 0 270.92 12.55 0
 5 4 1 455.64 15.73 0
 5 4 4 47.97 6.87 0
 5 4 5 0.8 4.31 0
 5 4 6 116.23 9.57 0
 5 4 7 95.19 8.97 0
 5 4 8 189.28 11.7 0
 5 4 9 3.46 5.15 0
 5 4 10 166.43 12.17 0
 5 4 11 398.73 17.36 0
 5 4 12 5.06 6.07 0
 5 4 13 17.47 6.43 0
 5 4 16 47.35 9.96 0
 5 4 17 18.05 7.69 0
 5 5 -2 46.78 7.23 0
 5 5 -1 628.31 18.51 0
 5 5 0 39.95 6.76 0
 5 5 1 648.99 19.11 0
 5 5 2 44.7 6.81 0
 5 5 4 58.9 7.98 0
 5 5 5 -0.12 5.06 0
 5 5 6 41.31 7.09 0
 5 5 7 -2.32 5.18 0
 5 5 8 194.36 12.67 0
 5 5 9 114.22 10.47 0
 5 5 10 7.12 5.52 0
 5 5 12 178.36 13.65 0
 5 5 13 88.94 11.04 0
 5 5 14 41.05 8.8 0
 5 5 15 4.86 7.5 0
 5 5 16 40.41 9.25 0
 5 6 -3 56.97 7.91 0
 5 6 -1 48.86 7.33 0
 5 6 0 543.74 17.82 0
 5 6 1 29.62 6.64 0
 5 6 2 113.7 9.26 0
 5 6 4 101.99 9.61 0
 5 6 5 240.48 13.69 0
 5 6 6 29.08 6.52 0
 5 6 7 37.09 7.39 0
 5 6 8 18.61 6.54 0
 5 6 9 59.24 8.72 0
 5 6 10 38.19 8.79 0
 5 6 11 48.42 8.78 0
 5 6 12 178.26 13.14 0
 5 6 14 33.72 9.09 0
 5 6 15 66.47 10.65 0
 5 7 -2 205.8 11.71 0
 5 7 -1 82.37 8.21 0
 5 7 0 275.27 13.1 0
 5 7 1 85.85 9.19 0
 5 7 2 189.19 11.81 0
 5 7 5 -0.54 5.86 0
 5 7 6 49.01 7.75 0
 5 7 7 60.3 8.97 0
 5 7 8 122.53 11.59 0
 5 7 9 -1.28 5.16 0
 5 7 10 126.57 11.89 0
 5 7 12 149.18 13.05 0
 5 7 14 43.97 8.88 0
 5 8 -2 32.74 6.15 0
 5 8 -1 199.61 11.92 0
 5 8 0 79.08 9.52 0
 5 8 1 204.45 11.99 0
 5 8 2 39.09 7.27 0
 5 8 4 141.42 11.08 0
 5 8 5 54.32 8.22 0
 5 8 6 11.44 6.21 0
 5 8 8 19.2 6.71 0
 5 8 9 26.82 7.46 0
 5 8 10 32.19 8.54 0
 5 8 11 26.04 7.67 0
 5 8 12 55.96 9.46 0
 5 9 0 30.6 5.79 0
 5 9 2 34.39 7.44 0
 5 9 3 79.26 9.54 0
 5 9 4 23.01 6.4 0
 5 9 5 9.91 5.87 0
 5 9 6 182.55 12.8 0
 5 9 7 31.77 7.27 0
 5 9 8 15.29 6.41 0
 5 9 9 159.82 12.86 0
 5 9 10 57.78 10.05 0
 5 10 6 59.28 9.18 0
 5 10 7 21.73 6.41 0
 5 10 8 5.76 5.6 0
 6 -5 7 114.57 8.44 0
 6 -4 5 102.78 8.71 0
 6 -4 6 228.65 11.85 0
 6 -4 7 104.87 8.69 0
 6 -4 8 3.21 3.94 0
 6 -4 9 71.23 7.72 0
 6 -4 10 76.88 8.43 0
 6 -4 11 3.36 4.37 0
 6 -3 4 16.7 5.25 0
 6 -3 5 44.74 7.47 0
 6 -3 6 156.45 10.09 0
 6 -3 7 54.02 7.7 0
 6 -3 8 101.73 8.9 0
 6 -3 9 243.94 12.24 0
 6 -3 10 110.08 9.5 0
 6 -3 11 0.94 5.66 0
 6 -3 12 49.1 7.25 0
 6 -3 13 52.98 7.59 0
 6 -3 14 111.85 9.86 0
 6 -2 1 25.85 6.62 0
 6 -2 2 20.01 6.2 0
 6 -2 3 116.92 10.01 0
 6 -2 4 93.03 9.15 0
 6 -2 5 142.6 10.38 0
 6 -2 6 88.43 8.33 0
 6 -2 7 43.95 7.01 0
 6 -2 8 4.57 5.56 0
 6 -2 9 140.03 11.05 0
 6 -2 10 121.81 10.42 0
 6 -2 11 89.13 9.2 0
 6 -2 12 163.17 11.9 0
 6 -2 13 50.12 8.93 0
 6 -2 15 17.54 6.21 0
 6 -2 16 10.18 6.05 0
 6 -2 17 -4.32 4.73 0
 6 -1 0 0.04 4.25 0
 6 -1 1 10.67 5.11 0
 6 -1 3 2.47 5.33 0
 6 -1 4 8.34 5 0
 6 -1 5 20.66 5.72 0
 6 -1 6 1.06 4.92 0
 6 -1 7 57.52 7.64 0
 6 -1 8 70.14 8.39 0
 6 -1 10 79.09 9.3 0
 6 -1 11 55.18 8.91 0
 6 -1 12 1.78 5.46 0
 6 -1 13 56.66 8.87 0
 6 -1 14 64.47 9.67 0
 6 -1 15 33.67 8.31 0
 6 -1 16 189.82 13.7 0
 6 0 -1 111.8 9.97 0
 6 0 0 37.74 6.84 0
 6 0 2 6.89 5.76 0
 6 0 3 -1.2 4.93 0
 6 0 4 39.01 7.07 0
 6 0 5 127.8 10.06 0
 6 0 7 76.96 9.05 0
 6 0 8 25.33 6.58 0
 6 0 9 11.07 5.6 0
 6 0 10 22.96 7.22 0
 6 0 11 26.22 6.94 0
 6 0 12 27.06 7.19 0
 6 0 14 162.48 12.5 0
 6 0 15 107.33 11.52 0
 6 0 16 11.41 6.69 0
 6 0 17 43.76 9.4 0
 6 1 -2 109.43 10.54 0
 6 1 -1 21.52 5.97 0
 6 1 0 0.44 4.43 0
 6 1 2 103.17 9.47 0
 6 1 3 0.07 4.19 0
 6 1 4 4.54 5.39 0
 6 1 6 3.87 5.57 0
 6 1 7 65.4 8.66 0
 6 1 8 62.26 8.94 0
 6 1 12 2.5 5.86 0
 6 1 13 50.59 9.09 0
 6 1 14 60.56 9.55 0
 6 1 15 19.85 8.37 0
 6 1 16 170.26 13.52 0
 6 2 -2 23.57 6.12 0
 6 2 -1 28.75 7.31 0
 6 2 0 38.35 7.21 0
 6 2 1 38.41 7.08 0
 6 2 2 22.46 5.99 0
 6 2 4 93.45 8.86 0
 6 2 5 130.28 11.07 0
 6 2 6 86.98 8.95 0
 6 2 7 50.36 8.07 0
 6 2 8 -1.46 5.19 0
 6 2 9 144.34 11.38 0
 6 2 10 137.46 12.21 0
 6 2 12 160.47 12.59 0
 6 2 13 57.52 9.48 0
 6 2 14 38.15 8.34 0
 6 2 16 2.52 6.4 0
 6 3 -1 121.36 11.05 0
 6 3 0 22.22 6.55 0
 6 3 1 122.63 10.04 0
 6 3 2 33.93 6.86 0
 6 3 3 104.29 9.52 0
 6 3 4 18.05 6.28 0
 6 3 5 54.36 8.88 0
 6 3 6 172.35 12.01 0
 6 3 8 89.22 9.9 0
 6 3 9 246.69 14.98 0
 6 3 11 9.59 7.46 0
 6 3 12 67 10.11 0
 6 3 13 46.62 9.63 0
 6 4 -2 153.34 12.02 0
 6 4 -1 184.49 12.57 0
 6 4 0 7.12 5.55 0
 6 4 2 145.83 11.78 0
 6 4 4 173.79 11.87 0
 6 4 5 105.21 11.19 0
 6 4 7 104.01 10.18 0
 6 4 8 2.59 5.4 0
 6 4 9 81.89 10.46 0
 6 4 12 44.61 9.53 0
 6 4 13 165.99 14.19 0
 6 4 14 75.14 11.35 0
 6 4 15 3.89 6.8 0
 6 5 -1 -5.9 5.92 0
 6 5 0 216.9 12.99 0
 6 5 1 4.24 5.46 0
 6 5 2 62.01 8.68 0
 6 5 3 162.71 11.79 0
 6 5 4 141.68 12.07 0
 6 5 5 20.49 6.72 0
 6 5 6 219.1 14.4 0
 6 5 7 119.41 12.02 0
 6 5 8 39.2 9.03 0
 6 5 9 97.18 11.75 0
 6 5 10 35.86 8.68 0
 6 5 11 17.76 7.37 0
 6 5 12 61.11 10.25 0
 6 5 14 51.95 10.14 0
 6 6 -2 32.52 7.11 0
 6 6 -1 22.68 7.62 0
 6 6 0 483.54 18.78 0
 6 6 2 24.31 6.98 0
 6 6 3 233.1 13.87 0
 6 6 4 1.46 5.34 0
 6 6 5 84.49 10.22 0
 6 6 6 51.39 9.84 0
 6 6 8 17.69 8.19 0
 6 6 9 13.49 6.8 0
 6 6 11 24.82 8.06 0
 6 6 12 164.64 13.6 0
 6 7 -2 187.9 13.13 0
 6 7 -1 107.49 10.6 0
 6 7 0 -2.09 5.62 0
 6 7 1 113.02 11.61 0
 6 7 2 200.52 13.75 0
 6 7 3 52.52 9.48 0
 6 7 4 26.58 7.2 0
 6 7 5 38.58 8.31 0
 6 7 6 60.14 9.38 0
 6 7 7 16.39 7.15 0
 6 7 8 39.02 8.62 0
 6 7 9 105.61 13.04 0
 6 7 10 256.3 16.13 0
 6 8 -1 32.83 7.89 0
 6 8 0 5.79 5.65 0
 6 8 1 36.45 8.1 0
 6 8 2 104.14 11.27 0
 6 8 3 15.18 6.78 0
 6 8 4 27.97 7.57 0
 6 8 5 26.33 8.22 0
 6 8 6 58.25 9.63 0
 6 8 7 52.05 9.24 0
 6 8 8 99.5 12.05 0
 6 8 9 83.08 12.31 0
 6 9 0 -2.62 4.9 0
 6 9 1 4.65 5.47 0
 6 9 2 22.52 7.63 0
 6 9 3 17.96 7.07 0
 6 9 4 84.68 10.2 0
 6 9 5 1.38 5.86 0
 6 9 6 123.98 11.43 0
 7 -4 7 18.14 6.08 0
 7 -4 8 111.66 10.21 0
 7 -4 9 11.37 6.09 0
 7 -3 4 11.73 6.33 0
 7 -3 5 31.83 7.02 0
 7 -3 6 19.78 6.46 0
 7 -3 9 19.54 6.69 0
 7 -3 10 7.96 5.93 0
 7 -3 12 2.33 5.01 0
 7 -2 3 40.97 8.3 0
 7 -2 4 18.64 6.55 0
 7 -2 6 202.22 13.6 0
 7 -2 7 24.27 7.44 0
 7 -2 8 11.17 6.46 0
 7 -2 9 29.01 7.15 0
 7 -2 10 62.99 9.73 0
 7 -2 12 58.78 9.02 0
 7 -2 13 45.17 8.52 0
 7 -2 14 112.62 11.2 0
 7 -1 1 57.85 9.66 0
 7 -1 2 125.09 11.33 0
 7 -1 3 65.46 9.21 0
 7 -1 4 34.67 7.7 0
 7 -1 5 139.49 12.64 0
 7 -1 6 49.79 8.68 0
 7 -1 7 50.6 8.59 0
 7 -1 8 65.65 10.04 0
 7 -1 9 7.28 6.78 0
 7 -1 11 95.76 11.26 0
 7 -1 12 39.61 9.35 0
 7 -1 13 16.08 7.95 0
 7 -1 14 25.09 7.25 0
 7 0 0 3.65 6.95 0
 7 0 1 102.46 10.7 0
 7 0 2 0.54 5.38 0
 7 0 3 77.35 10.74 0
 7 0 4 90.46 9.95 0
 7 0 7 10.22 7.6 0
 7 0 8 79.87 10.48 0
 7 0 9 13.12 6.57 0
 7 0 10 13.34 7.88 0
 7 0 11 39.03 9.01 0
 7 0 12 9.23 6.35 0
 7 0 13 131.07 12.87 0
 7 1 0 1.64 6.91 0
 7 1 2 124.12 11.19 0
 7 1 3 89.66 11.61 0
 7 1 4 28.29 7.6 0
 7 1 6 38.62 9.08 0
 7 1 7 53.4 9.69 0
 7 1 8 64.64 9.95 0
 7 1 10 23.16 8.13 0
 7 1 11 110.79 13.24 0
 7 1 12 32.95 8.82 0
 7 1 13 18.51 8.39 0
 7 2 -1 222.55 14.09 0
 7 2 0 85.18 10.48 0
 7 2 1 270.81 16.06 0
 7 2 2 432.89 19.66 0
 7 2 3 41.88 8.33 0
 7 2 4 22.16 8.16 0
 7 2 5 15.05 7.31 0
 7 2 6 203.29 14.1 0
 7 2 7 29.3 8.31 0
 7 2 8 0.82 7.14 0
 7 2 9 20.49 7.64 0
 7 2 11 3.46 6.53 0
 7 2 13 30.62 8.96 0
 7 3 -1 44.5 8.64 0
 7 3 0 18.5 7.38 0
 7 3 3 1.71 5.79 0
 7 3 4 4.33 6.13 0
 7 3 6 22.67 7.73 0
 7 3 7 126.22 13.35 0
 7 3 8 29.48 8.28 0
 7 3 11 66.73 11.31 0
 7 3 12 5.32 7.58 0
 7 4 -1 38.92 8.2 0
 7 4 0 98.3 11.15 0
 7 4 3 42.83 8.79 0
 7 4 4 68.12 10.92 0
 7 4 5 79.1 11.15 0
 7 4 6 39.98 8.92 0
 7 4 7 16.15 7.78 0
 7 4 8 109.29 13.14 0
 7 4 9 13.13 7.34 0
 7 4 11 21.29 8.48 0
 7 5 0 -1.67 5.99 0
 7 5 1 91.57 12.17 0
 7 5 2 104.14 12.38 0
 7 5 4 10.64 6.56 0
 7 5 6 78.39 11.69 0
 7 5 7 80.36 11.96 0
 7 5 8 65.6 10.83 0
 7 5 9 49.62 10.52 0
 7 5 10 5.44 7.22 0
 7 6 -1 59.25 9.53 0
 7 6 0 262.63 15.86 0
 7 6 1 65.12 10.34 0
 7 6 2 121.72 13.71 0
 7 6 3 14.45 7.31 0
 7 6 4 37.58 9.49 0
 7 6 5 33.43 9.43 0
 7 6 7 20.76 8.73 0
 7 6 8 19.18 8.47 0
 7 7 0 15.94 8.25 0
 7 7 1 25.24 8.79 0
 7 7 3 43.3 9.99 0
 7 7 4 40.33 8.9 0
 7 7 5 65.12 10.31 0
 7 7 6 -0.01 6.51 0
 7 8 0 54.96 10.14 0
 7 8 1 86.02 11.26 0
 8 -3 7 29.84 8.24 0
 8 -3 9 1.42 6.02 0
 8 -2 6 100.47 11.95 0
 8 -2 7 189.67 14.53 0
 8 -2 8 11.03 7.22 0
 8 -2 9 23.87 8.27 0
 8 -1 3 6.75 6.57 0
 8 -1 4 80.04 11.39 0
 8 -1 6 127.24 12.67 0
 8 -1 7 81.66 10.81 0
 8 -1 8 28.79 9.23 0
 8 -1 9 111.04 11.87 0
 8 0 2 8.8 8.57 0
 8 0 3 77.23 11.47 0
 8 0 4 251.76 16.43 0
 8 0 5 140.13 13.67 0
 8 0 6 484.97 21.83 0
 8 0 7 27.09 9.67 0
 8 0 8 36.67 9.17 0
 8 1 1 35.12 9.06 0
 8 1 2 24.71 9.21 0
 8 1 3 9.85 7.43 0
 8 1 4 82.82 12.17 0
 8 1 5 21.8 8.25 0
 8 1 6 128.04 14.12 0
 8 1 7 76.78 12.15 0
 8 1 8 22.57 8.48 0
 8 1 9 106.65 13.64 0
 8 2 1 34.36 9.43 0
 8 2 2 42.45 9.88 0
 8 2 3 128.49 13.05 0
 8 2 4 114.41 12.72 0
 8 2 5 95.95 12.4 0
 8 2 6 118.53 12.58 0
 8 2 8 12.94 8.14 0
 8 3 1 45 10.08 0
 8 3 5 120.5 14.13 0
 8 3 6 43.98 10.61 0
 8 4 1 120.94 14.24 0
 8 4 4 20.35 8.67 0
 8 4 5 50 10.72 0
 -2 -3 -8 323.74 3.94 0
 -2 -3 -7 577.34 5.86 0
 -2 0 -14 104.23 4.27 0
 -2 0 -13 319.08 6.7 0
 -2 0 -12 127.1 4.19 0
 -2 0 -11 212.13 4.85 0
 -2 1 -15 115.77 5.74 0
 -2 1 -14 13.53 2.77 0
 -2 1 -13 22.53 3.05 0
 -2 1 -11 15.57 2.47 0
 -2 1 -10 174.62 5.49 0
 -2 2 -15 165.2 7.56 0
 -2 2 -14 41.73 4.65 0
 -2 2 -13 501.73 11.72 0
 -2 2 -12 150.31 6.73 0
 -2 2 -11 56.82 4.67 0
 -2 2 -10 211.98 7.28 0
 -2 2 -9 262.06 7.52 0
 -2 3 -16 75.13 6.61 0
 -2 3 -12 17.8 3.84 0
 -2 3 -11 3.96 3.35 0
 -2 3 -10 291.96 9.47 0
 -2 4 -16 189.97 10.06 0
 -2 4 -15 242.41 11.11 0
 -2 4 -13 56.38 6.32 0
 -1 -2 -15 85.55 5.23 0
 -1 -2 -4 2668.85 14.04 0
 -1 -2 -3 1431.29 10.37 0
 -1 -1 -16 209.23 7.89 0
 -1 -1 -15 3.02 2.57 0
 -1 -1 -13 50.62 4.21 0
 -1 -1 -12 23.02 2.98 0
 -1 -1 -11 422.11 8.7 0
 -1 0 -15 145.93 7.11 0
 -1 0 -14 187.85 7.45 0
 -1 0 -13 -2.01 2.52 0
 -1 0 -11 117.82 5.33 0
 -1 0 -10 303.62 7.47 0
 -1 0 -8 39.44 2.83 0
 -1 0 -7 296.84 5.68 0
 -1 0 -6 2201.67 13.09 0
 -1 1 -17 120.96 7.45 0
 -1 1 -14 367.27 10.79 0
 -1 1 -13 51.23 5.08 0
 -1 1 -12 20.08 3.62 0
 -1 1 -11 426.08 10.08 0
 -1 1 -10 986.28 14.3 0
 -1 1 -9 242.28 6.86 0
 -1 1 -8 986.69 12.64 0
 -1 1 -5 1844.27 14.14 0
 -1 2 -18 183.65 9.67 0
 -1 2 -17 13.46 4.27 0
 -1 2 -16 46.45 5.61 0
 -1 2 -12 637.28 14.06 0
 -1 2 -11 447.78 11.31 0
 -1 2 -10 126.94 6.62 0
 -1 2 -9 183.2 7.12 0
 -1 2 -8 978.05 14.56 0
 -1 2 -7 1055.98 14.54 0
 -1 2 -6 430.79 9.11 0
 -1 2 -5 735.39 11.41 0
 -1 2 -4 2675.43 20.27 0
 -1 2 -3 1436.6 14.45 0
 -1 3 -18 9.52 4.44 0
 -1 3 -17 34.5 5.77 0
 -1 3 -15 181.79 9.59 0
 -1 3 -11 37.86 5.17 0
 -1 3 -10 489.45 12.7 0
 -1 3 -9 693.51 14.53 0
 -1 3 -8 1961.11 23.34 0
 -1 3 -7 204.36 7.73 0
 -1 3 -6 300.09 9.11 0
 -1 3 -5 189.87 7.18 0
 -1 3 -4 796.45 13.54 0
 -1 4 -19 11.95 5.74 0
 -1 4 -18 230.06 12.79 0
 -1 4 -17 181.66 11.31 0
 -1 4 -16 159.29 10.5 0
 -1 4 -15 47.36 7.26 0
 -1 4 -14 265.61 12.13 0
 -1 4 -13 105.46 7.9 0
 -1 4 -12 330.89 12.61 0
 -1 4 -8 238.55 9.73 0
 -1 4 -7 162.49 7.88 0
 -1 4 -5 280.93 9.69 0
 -1 4 -4 1118.31 17.81 0
 -1 5 -19 35.41 7.96 0
 -1 5 -18 71.99 9.91 0
 -1 5 -17 -0.49 5.37 0
 -1 5 -16 2.55 6.04 0
 -1 5 -15 116.8 9.56 0
 -1 5 -14 51.36 7.69 0
 -1 5 -13 39.45 6.75 0
 -1 5 -12 89.84 8.08 0
 -1 5 -11 213.08 11.48 0
 -1 5 -10 83.68 7.59 0
 -1 5 -9 512.59 15.6 0
 -1 6 -18 61.52 9.28 0
 -1 6 -17 55.65 9.21 0
 -1 6 -16 282.81 15.3 0
 -1 6 -15 319.7 15.9 0
 -1 6 -14 39.97 7.5 0
 -1 6 -13 59.85 8.35 0
 -1 6 -12 17.31 6.07 0
 -1 6 -11 185.36 11.56 0
 -1 6 -10 5.22 5.44 0
 -1 6 -8 119.15 8.87 0
 -1 7 -18 49.83 9.35 0
 -1 7 -17 196.21 14.25 0
 -1 7 -16 26.25 8.25 0
 -1 7 -15 104.02 12.62 0
 -1 7 -14 101.76 10.7 0
 -1 7 -13 147.68 11.69 0
 -1 7 -12 48.6 9.13 0
 -1 7 -11 378.42 16.55 0
 -1 7 -10 173.94 12.23 0
 -1 7 -9 157.84 11.52 0
 0 -1 -19 80.84 7.48 0
 0 -1 -17 14.13 4.45 0
 0 -1 1 2329.08 11.76 0
 0 -1 2 633.8 6.99 0
 0 0 -19 -0.11 4.38 0
 0 0 -18 221.23 10.66 0
 0 0 -17 5.05 3.95 0
 0 0 -16 324.44 12.08 0
 0 0 -13 1.31 3.12 0
 0 1 -20 1.95 4.48 0
 0 1 -19 99.47 8.35 0
 0 1 -18 203.14 10.99 0
 0 1 -17 18.61 5.25 0
 0 1 -16 48.67 6.49 0
 0 1 -15 13.25 4.63 0
 0 1 -12 1302.8 20.67 0
 0 1 -8 64.7 4.71 0
 0 1 -7 2239.41 20.38 0
 0 1 -6 535.83 9.71 0
 0 1 -5 418.95 7.99 0
 0 1 -4 4882.58 23.33 0
 0 1 -3 2019.91 13.76 0
 0 1 -2 618.14 6.97 0
 0 1 -1 2382.68 12.14 0
 0 2 -20 26.1 6.3 0
 0 2 -19 342.07 14.32 0
 0 2 -18 444.19 15.61 0
 0 2 -17 69.08 8.31 0
 0 2 -16 1077.53 22.79 0
 0 2 -15 105.56 7.82 0
 0 2 -14 127.03 8.14 0
 0 2 -11 1150.45 19.62 0
 0 2 -10 3.32 3.31 0
 0 2 -9 7.36 3.37 0
 0 2 -8 10.13 2.95 0
 0 2 -7 1011.56 15.15 0
 0 2 -6 3208.42 25.41 0
 0 2 -4 7637.62 34.65 0
 0 2 -3 4913.83 26.3 0
 0 2 -2 219.36 5.82 0
 0 2 -1 5728.96 25.84 0
 0 2 0 9869.74 32.54 0
 0 3 -20 164.44 11.55 0
 0 3 -18 189.11 11.97 0
 0 3 -17 -1.91 4.23 0
 0 3 -15 221.18 11.6 0
 0 3 -14 6.32 4.55 0
 0 3 -13 222.97 10.95 0
 0 3 -9 930.22 17.76 0
 0 3 -8 26.06 4.15 0
 0 3 -7 466.06 11.76 0
 0 3 -5 6.15 2.74 0
 0 3 -4 3572.51 27.88 0
 0 3 -3 3618.65 27.21 0
 0 3 -1 123.85 5.47 0
 0 3 0 0.18 2.47 0
 0 4 -20 62.97 9.85 0
 0 4 -19 106.91 10.81 0
 0 4 -18 5.13 5.73 0
 0 4 -17 494.77 17.93 0
 0 4 -16 97.51 9.1 0
 0 4 -15 634.18 19.02 0
 0 4 -13 217.64 11.23 0
 0 4 -11 241.54 10.94 0
 0 4 -7 1273.17 21.15 0
 0 4 -5 616.89 14.02 0
 0 4 -4 379.55 10.99 0
 0 4 -3 3890.2 32.35 0
 0 4 -2 1646.52 20.67 0
 0 4 -1 2069.8 22.63 0
 0 5 -21 316.5 17.26 0
 0 5 -20 326.36 17.19 0
 0 5 -19 68.87 10.39 0
 0 5 -18 291.93 15.39 0
 0 5 -17 46.33 8.22 0
 0 5 -16 211.88 13.01 0
 0 5 -14 260.07 13.43 0
 0 5 -13 103.86 9.62 0
 0 5 -12 2.46 4.77 0
 0 5 -11 21.32 5.46 0
 0 5 -10 7.11 4.75 0
 0 5 -9 8.22 4.25 0
 0 5 -8 31.56 5.25 0
 0 5 -4 122.16 8.03 0
 0 5 -3 132.46 7.44 0
 0 5 -2 32.28 4.87 0
 0 6 -21 92.81 12.29 0
 0 6 -20 29.46 8.36 0
 0 6 -19 0.27 7.38 0
 0 6 -18 16.61 8.33 0
 0 6 -16 3.95 5.83 0
 0 6 -15 179.85 13.61 0
 0 6 -13 406.44 17.1 0
 0 6 -12 83.89 8.96 0
 0 6 -9 18.53 5.48 0
 0 6 -8 307 13.36 0
 0 6 -5 539.32 16.1 0
 0 7 -20 6.74 7.32 0
 0 7 -19 7.15 7.15 0
 0 7 -18 63.32 10.47 0
 0 7 -17 13.71 7.79 0
 0 7 -16 188.61 14.98 0
 0 7 -15 6.42 6.53 0
 0 7 -14 7.06 6.5 0
 0 7 -13 6.91 6.34 0
 0 7 -12 93.37 10.35 0
 0 7 -11 270.72 15.46 0
 0 7 -10 43.09 7.56 0
 0 7 -9 42.7 7.63 0
 0 7 -8 6.53 4.86 0
 0 7 -7 136.57 10.44 0
 0 7 -6 20.26 5.58 0
 0 7 -5 666.82 19.24 0
 0 7 -4 0.76 3.73 0
 0 8 -18 140.31 14.79 0
 0 8 -17 136.8 14.49 0
 0 8 -15 5.49 7.37 0
 0 8 -14 421.46 20.65 0
 0 8 -12 7.23 6.67 0
 0 8 -11 21.39 7.4 0
 0 8 -10 15.94 6.81 0
 0 8 -8 172.35 12.28 0
 0 8 -6 329.97 15.92 0
 0 9 -17 33.74 9.93 0
 0 9 -16 66.53 12.93 0
 0 9 -15 67.07 11.84 0
 0 9 -14 39.66 9.89 0
 0 9 -13 77.87 11.78 0
 0 9 -11 127.79 12.65 0
 0 9 -10 219.97 15.65 0
 1 -2 -20 37.89 7.15 0
 1 -1 -20 18.38 5.75 0
 1 -1 2 1709.33 11.68 0
 1 0 -21 37.26 6.99 0
 1 0 -20 18.81 5.95 0
 1 0 -18 34.09 7.11 0
 1 1 -21 3.93 6.37 0
 1 1 -20 12.17 6 0
 1 1 -17 128.87 10.02 0
 1 1 -16 210.28 11.42 0
 1 1 -14 372.78 13.64 0
 1 1 -13 46.93 6.27 0
 1 2 -22 68.57 9.63 0
 1 2 -21 39.1 8.24 0
 1 2 -20 30.14 7.13 0
 1 2 -19 14.14 6.28 0
 1 2 -18 195.94 12.22 0
 1 2 -17 10.02 5.39 0
 1 2 -16 34.64 7.05 0
 1 2 -15 75.8 8.83 0
 1 2 -14 0.52 4.16 0
 1 2 -13 490.33 15.36 0
 1 2 -9 168.09 8.01 0
 1 2 -8 955.27 17.38 0
 1 2 -7 1065.38 17.4 0
 1 2 -5 734.66 13.07 0
 1 2 -3 1457.28 15.78 0
 1 2 -2 4030.57 24.41 0
 1 2 -1 6867.38 29.51 0
 1 2 0 144.03 4.44 0
 1 2 1 6719.07 25.21 0
 1 3 -22 5.12 6.32 0
 1 3 -21 141.57 12.3 0
 1 3 -20 165.04 12.82 0
 1 3 -19 197.72 13.71 0
 1 3 -18 8.25 6.83 0
 1 3 -17 33.8 7.04 0
 1 3 -16 161.43 11.78 0
 1 3 -14 252.2 12.41 0
 1 3 -13 357.75 13.99 0
 1 3 -12 105.98 8.34 0
 1 3 -8 1898.59 25.56 0
 1 3 -7 219.18 8.62 0
 1 3 -6 305.05 9.77 0
 1 3 -4 779.04 14.13 0
 1 3 -2 222.94 7.49 0
 1 3 -1 53.27 4.58 0
 1 3 0 7.83 2.52 0
 1 3 2 221.89 6.14 0
 1 4 -22 82.06 11.23 0
 1 4 -21 21.13 8.13 0
 1 4 -19 9.8 6.81 0
 1 4 -18 218.03 14.17 0
 1 4 -16 158.6 12.05 0
 1 4 -15 59.51 8.52 0
 1 4 -14 279.42 14.16 0
 1 4 -13 84.06 8.93 0
 1 4 -12 317.85 13.96 0
 1 4 -10 14.18 4.37 0
 1 4 -4 1144.33 18.56 0
 1 4 -3 1678.38 21.8 0
 1 4 -2 1386.01 19.18 0
 1 4 -1 328.06 9.76 0
 1 4 0 244.7 8.17 0
 1 4 1 330.39 8.9 0
 1 5 -22 -1.01 5.95 0
 1 5 -21 24.05 8.75 0
 1 5 -20 2.28 7.2 0
 1 5 -19 47.77 9.59 0
 1 5 -18 85.85 10.91 0
 1 5 -17 -3.53 5.57 0
 1 5 -15 104.09 10.24 0
 1 5 -14 55.44 8.9 0
 1 5 -11 195.33 11.22 0
 1 5 -10 89.19 8.34 0
 1 5 -9 504.87 16.51 0
 1 5 -8 1233.39 24.27 0
 1 5 -2 491.4 13.26 0
 1 5 -1 6.9 3.76 0
 1 5 0 10.08 3.34 0
 1 5 1 5.32 3.33 0
 1 6 -21 42.82 9.34 0
 1 6 -20 11.99 8.59 0
 1 6 -19 86.37 11.72 0
 1 6 -18 44.67 9.55 0
 1 6 -17 67.22 10.24 0
 1 6 -16 251.32 15.53 0
 1 6 -15 325.77 17.7 0
 1 6 -14 39.52 8.07 0
 1 6 -12 18.09 6.34 0
 1 6 -10 4.11 4.68 0
 1 6 -9 112.89 9.32 0
 1 6 -8 102.3 8.67 0
 1 6 -7 122.38 9.11 0
 1 6 -5 1068.34 22.67 0
 1 7 -19 37.63 9.66 0
 1 7 -18 35.79 9.63 0
 1 7 -17 200.02 15.36 0
 1 7 -16 15.79 7.93 0
 1 7 -15 94.17 12.24 0
 1 7 -10 174.04 12.2 0
 1 7 -9 157.3 11.25 0
 1 7 -8 127.5 10.92 0
 1 7 -7 344.77 15.12 0
 1 7 -4 23.21 5.9 0
 1 7 -3 214.07 11.3 0
 1 7 -1 23.21 5.46 0
 1 8 -18 1.49 8.83 0
 1 8 -17 11.79 8.24 0
 1 8 -16 13.91 8.47 0
 1 8 -14 18.07 9.84 0
 1 8 -13 243.09 17.19 0
 1 8 -12 36.23 9.39 0
 1 8 -11 208.74 14.58 0
 1 8 -10 290.2 17.12 0
 1 8 -9 137.83 12.03 0
 1 8 -7 13.7 6.07 0
 1 8 -6 72.56 8.92 0
 1 8 -5 365.51 16.55 0
 1 8 -4 7.77 6.09 0
 1 9 -16 25.75 9.48 0
 1 9 -12 112.23 14.25 0
 1 9 -11 4.31 7 0
 1 9 -10 25.29 9.36 0
 1 9 -8 53.26 9.64 0
 1 9 -6 38.23 8.26 0
 1 10 -13 70.68 12.75 0
 1 10 -12 113.12 15.34 0
 1 10 -11 2.23 7.53 0
 1 10 -10 157.38 15.63 0
 1 10 -9 29.84 8.97 0
 2 -1 -22 203.56 14.19 0
 2 -1 -21 52.87 8.97 0
 2 -1 -20 127.52 11.94 0
 2 0 -22 11.79 7.11 0
 2 0 -21 18.78 7.77 0
 2 0 -20 8.83 6.54 0
 2 0 -19 60.06 9.53 0
 2 1 -23 -3.06 6.5 0
 2 1 -22 199.23 14.59 0
 2 1 -21 41.94 8.86 0
 2 1 -20 120.68 11.45 0
 2 1 -19 29.06 8.63 0
 2 1 -18 171.46 13.32 0
 2 1 -17 197.37 12.58 0
 2 1 -16 2.42 5 0
 2 2 -21 195.03 14.15 0
 2 2 -20 10.8 7.22 0
 2 2 -18 30.03 7.67 0
 2 2 -17 154.83 11.91 0
 2 2 -16 150.62 11.24 0
 2 2 -15 144.48 11.68 0
 2 2 -14 46.26 7.53 0
 2 2 -13 513 17.49 0
 2 2 -12 157.82 9.9 0
 2 2 -1 247.68 6.78 0
 2 2 0 4953.32 26.53 0
 2 2 1 240.25 5.79 0
 2 2 3 323.27 5.07 0
 2 3 -22 36.95 8.83 0
 2 3 -21 67.3 10.72 0
 2 3 -20 136.97 12.99 0
 2 3 -19 222.56 14.82 0
 2 3 -18 31.09 7.84 0
 2 3 -17 29.15 8.16 0
 2 3 -13 45.83 7.69 0
 2 3 -12 15.51 5.77 0
 2 3 -11 2.05 4.68 0
 2 3 -10 276.48 11.92 0
 2 3 -6 216.17 9.11 0
 2 3 -5 97.4 6.35 0
 2 3 -4 1223.29 18.62 0
 2 3 -3 1493.44 19.76 0
 2 3 -2 70.46 5.32 0
 2 3 -1 1182.04 15.79 0
 2 3 0 1384.72 16.25 0
 2 3 1 1207.84 14.32 0
 2 3 2 69.11 3.84 0
 2 4 -22 0.38 7.36 0
 2 4 -21 38.48 10.67 0
 2 4 -19 106.37 13.01 0
 2 4 -18 55.58 10.2 0
 2 4 -17 77.28 10.62 0
 2 4 -16 204.72 13.61 0
 2 4 -15 238.73 13.99 0
 2 4 -13 49.53 7.81 0
 2 4 -11 6.17 5.13 0
 2 4 -10 101.36 9.03 0
 2 4 -8 350.18 13.13 0
 2 4 -3 1626.26 22.3 0
 2 4 -2 391.59 10.87 0
 2 4 -1 426.68 10.96 0
 2 4 0 68.78 5.15 0
 2 4 1 437.91 10.12 0
 2 4 2 389.4 9.27 0
 2 4 3 1664.82 17.63 0
 2 5 -21 96.72 12.67 0
 2 5 -19 32.77 8.88 0
 2 5 -18 124.86 12.53 0
 2 5 -17 11.86 7.36 0
 2 5 -15 12.85 6.69 0
 2 5 -14 117.8 10.58 0
 2 5 -13 183.7 13.05 0
 2 5 -12 205.46 12.49 0
 2 5 -11 29.17 6.57 0
 2 5 -10 348.48 14.76 0
 2 5 -8 205.3 11.32 0
 2 5 -7 60.93 7.62 0
 2 5 0 390.3 11.66 0
 2 5 1 70.56 5.74 0
 2 5 2 253.81 8.7 0
 2 6 -20 24.56 9.93 0
 2 6 -18 44.81 9.97 0
 2 6 -17 210.61 15.15 0
 2 6 -16 36.84 8.97 0
 2 6 -15 18.38 8.19 0
 2 6 -13 183.4 13.74 0
 2 6 -12 2.19 5.81 0
 2 6 -8 203.33 12.16 0
 2 6 -7 118.61 9.72 0
 2 6 -5 72.7 8.19 0
 2 7 -18 48.39 10.57 0
 2 7 -17 30.76 9.31 0
 2 7 -16 16.46 9.15 0
 2 7 -15 77.94 11.69 0
 2 7 -14 77.56 12.19 0
 2 7 -13 127.63 12.97 0
 2 7 -12 97.89 12.08 0
 2 7 -10 25.74 7.14 0
 2 7 -8 69.19 9.06 0
 2 7 -6 428.95 17.05 0
 2 7 -5 407.58 15.84 0
 2 7 -4 148.45 10.25 0
 2 7 -3 251.94 12.85 0
 2 7 -2 127.75 9.27 0
 2 7 -1 305.58 13.08 0
 2 7 0 99.49 7.73 0
 2 8 -17 287.57 19.84 0
 2 8 -16 18.41 9.94 0
 2 8 -15 112.22 13.95 0
 2 8 -14 61.26 11.01 0
 2 8 -13 148.95 14.28 0
 2 8 -12 166.34 14.08 0
 2 8 -10 49.9 10.58 0
 2 8 -9 26.55 7.89 0
 2 8 -8 23.62 7.33 0
 2 8 -4 113.11 9.94 0
 2 8 -3 155.87 11.12 0
 2 8 -2 135.62 10.04 0
 2 8 -1 326.93 14.63 0
 2 9 -15 -3.24 8.32 0
 2 9 -13 51.76 10.85 0
 2 9 -12 57.74 11.22 0
 2 9 -11 10.15 8.38 0
 2 9 -10 138.11 13.33 0
 2 9 -9 10.76 8.35 0
 2 9 -8 105.96 13.09 0
 2 9 -7 13.48 7.51 0
 2 9 -5 269.53 16.08 0
 2 9 -4 63.41 10.01 0
 2 9 -3 11.37 7.19 0
 2 10 -13 6.67 8.85 0
 2 10 -12 33.82 11.02 0
 2 10 -11 108.28 14.64 0
 2 10 -10 30.8 9.94 0
 2 10 -9 39.87 9.74 0
 2 10 -8 27.75 9.38 0
 2 10 -6 34.43 9.2 0
 2 10 -5 37 9.07 0
 2 11 -10 75.5 13.17 0
 2 11 -9 0.35 7.64 0
 3 -1 -22 65.94 10.96 0
 3 0 -22 143.96 14.51 0
 3 0 -20 74.04 11.14 0
 3 0 5 241.46 4.24 0
 3 1 -22 88.95 13.04 0
 3 1 -21 185.1 15.05 0
 3 1 -20 26.87 8.67 0
 3 1 -19 22.76 9.47 0
 3 1 -17 58.24 9.91 0
 3 1 4 54.22 2.1 0
 3 2 -19 43.33 10.53 0
 3 2 -18 88.74 11.99 0
 3 2 -17 131.72 12.02 0
 3 2 -16 109.72 10.88 0
 3 2 -15 30.43 8.19 0
 3 2 -14 140.62 11 0
 3 2 1 866.39 12.05 0
 3 2 3 521.09 7.55 0
 3 2 4 178.21 3.72 0
 3 3 -21 205.37 16.99 0
 3 3 -19 38.88 10.2 0
 3 3 -17 150.49 14.06 0
 3 3 -16 43.71 8.57 0
 3 3 -15 57.86 10.14 0
 3 3 -14 50.03 8.45 0
 3 3 -13 54.56 8.26 0
 3 3 -12 17.97 5.94 0
 3 3 -11 30.46 6.47 0
 3 3 -8 582.46 17.27 0
 3 3 -7 248.23 11.46 0
 3 3 -3 627.76 14.13 0
 3 3 -2 178.96 7.59 0
 3 3 -1 24.67 4 0
 3 3 1 25.97 3.12 0
 3 3 2 168.43 5.65 0
 3 3 4 385.13 6.77 0
 3 4 -20 8.81 8.34 0
 3 4 -19 19.93 8.94 0
 3 4 -18 101.92 12.74 0
 3 4 -17 107.2 12.98 0
 3 4 -16 181.46 14.84 0
 3 4 -12 -2.83 4.72 0
 3 4 -11 30.78 7.07 0
 3 4 -10 158.06 10.83 0
 3 4 -9 220.78 11.99 0
 3 4 -8 60.56 7.4 0
 3 4 -7 283.73 12.11 0
 3 4 -6 145.64 9.47 0
 3 4 -2 309.21 10.36 0
 3 4 -1 33.98 4.46 0
 3 4 0 64.16 5.09 0
 3 4 2 304.72 8.65 0
 3 5 -19 1.27 7.3 0
 3 5 -18 55.8 11.49 0
 3 5 -16 43.75 9.54 0
 3 5 -13 202.96 13.56 0
 3 5 -12 45.18 8.6 0
 3 5 -11 304.14 14.98 0
 3 5 -10 6.84 5.61 0
 3 5 -9 345.42 15.03 0
 3 5 -8 78.95 9.05 0
 3 5 -5 146.13 9.33 0
 3 5 -4 440.57 14.64 0
 3 5 0 154.17 8.21 0
 3 5 1 324.82 10.45 0
 3 5 3 218.84 7.77 0
 3 6 -19 32.86 10 0
 3 6 -17 7.22 9.21 0
 3 6 -16 145.59 14.7 0
 3 6 -15 7.05 7.27 0
 3 6 -13 42.43 8.94 0
 3 6 -12 41.23 8.71 0
 3 6 -11 458.11 19.64 0
 3 6 -10 59.97 9.35 0
 3 6 -9 3.34 5.42 0
 3 6 -8 0.5 5.15 0
 3 6 -7 3.08 4.89 0
 3 6 -5 230.7 11.91 0
 3 6 -4 278.55 12.99 0
 3 6 -3 51.91 6.75 0
 3 6 -2 46.5 6.56 0
 3 7 -17 6.65 8.14 0
 3 7 -16 39.01 10.1 0
 3 7 -15 24.74 10.34 0
 3 7 -14 3.05 7.08 0
 3 7 -13 215.46 15.87 0
 3 7 -12 226.84 15.78 0
 3 7 -11 71.63 10.54 0
 3 7 -10 64.2 9.52 0
 3 7 -9 44.64 9.25 0
 3 7 -8 57.45 8.97 0
 3 7 -7 521.07 19.18 0
 3 7 -6 173.45 11.9 0
 3 7 -5 18.86 6.19 0
 3 7 -4 26.33 7.09 0
 3 7 -3 70.49 8.56 0
 3 7 -2 214.52 11.78 0
 3 7 -1 359.67 14.33 0
 3 7 1 377.69 13.38 0
 3 8 -16 39.64 11.99 0
 3 8 -15 123 14.86 0
 3 8 -13 21.56 9.24 0
 3 8 -12 134.51 15.42 0
 3 8 -11 135.9 14.41 0
 3 8 -9 83.92 11.81 0
 3 8 -8 183.29 14.11 0
 3 8 -7 33.7 7.98 0
 3 8 -5 114.57 10.68 0
 3 8 -1 10.29 5.6 0
 3 8 0 588.3 18.5 0
 3 9 -14 7.64 8.39 0
 3 9 -13 8.79 8.65 0
 3 9 -11 83.64 12.37 0
 3 9 -9 3.33 7.45 0
 3 9 -8 149.21 13.58 0
 3 9 -6 82.43 11.41 0
 3 9 -5 259.55 15.36 0
 3 9 -4 143.82 12.7 0
 3 9 -3 -0.22 5.46 0
 3 9 -2 34.25 7.72 0
 3 9 -1 4.03 5.39 0
 3 10 -11 30.07 11.58 0
 3 10 -9 78.05 12.48 0
 3 10 -8 32.53 10.35 0
 3 10 -7 12.52 8.49 0
 3 10 -6 49.22 9.86 0
 3 10 -5 19.27 8.81 0
 3 11 -9 23.12 10.14 0
 3 11 -8 17.1 8.93 0
 3 11 -7 131.84 14.88 0
 4 0 -20 0.88 7.2 0
 4 0 6 13.82 1.5 0
 4 1 -20 -3.75 7.44 0
 4 1 -19 136.52 14.68 0
 4 1 -18 18.4 8.55 0
 4 1 5 113.67 2.89 0
 4 2 -20 102.76 13.26 0
 4 2 -19 27.1 9.35 0
 4 2 -18 25.8 8.79 0
 4 2 -17 17.84 9.16 0
 4 2 -16 105.39 12.78 0
 4 2 -15 335.32 17.89 0
 4 2 3 350.83 7.5 0
 4 2 4 4.38 1.41 0
 4 3 -19 84.29 12.26 0
 4 3 -18 17.81 8.73 0
 4 3 -17 25.91 8.99 0
 4 3 -16 18.07 8.23 0
 4 3 -15 93.18 11.62 0
 4 3 -14 357.09 18.4 0
 4 3 -13 199.91 14.53 0
 4 3 -12 263.49 15.61 0
 4 3 -10 480.28 17.93 0
 4 3 -9 543.13 18.78 0
 4 3 -8 523.84 17.56 0
 4 3 -7 235.35 12.26 0
 4 3 -6 183.69 10.24 0
 4 3 -1 175.6 8.17 0
 4 3 0 1223.32 18.54 0
 4 3 2 19.78 3.32 0
 4 3 4 847.83 10.61 0
 4 4 -19 118.31 14.23 0
 4 4 -18 123.86 15.36 0
 4 4 -17 49.22 10.49 0
 4 4 -16 16.8 7.83 0
 4 4 -15 48.17 10.45 0
 4 4 -14 35.28 8.61 0
 4 4 -13 197.69 14.15 0
 4 4 -11 99.96 11.34 0
 4 4 -10 11.49 5.8 0
 4 4 -9 -3.63 4.4 0
 4 4 -7 17.89 5.65 0
 4 4 -6 46.55 6.69 0
 4 4 -5 21.91 5.47 0
 4 4 0 10.24 3.91 0
 4 4 1 282.45 9.24 0
 4 4 2 157.31 6.87 0
 4 4 4 92.1 4.49 0
 4 5 -17 67.48 12.33 0
 4 5 -16 30.1 9.37 0
 4 5 -15 9.49 8.13 0
 4 5 -14 84.24 13.22 0
 4 5 -13 25.54 7.88 0
 4 5 -12 69.23 10.25 0
 4 5 -11 396.17 18.07 0
 4 5 -10 470.36 18.91 0
 4 5 -9 154.59 11.46 0
 4 5 -8 563.33 19.3 0
 4 5 -6 365.98 15.01 0
 4 5 -5 95.31 8.92 0
 4 5 -4 361.33 14.19 0
 4 5 -3 64.52 7.7 0
 4 5 -2 128.58 8.65 0
 4 5 2 126.32 6.68 0
 4 5 3 61.31 5.04 0
 4 6 -16 58.92 11.79 0
 4 6 -15 124.37 13.31 0
 4 6 -14 35.44 9.87 0
 4 6 -13 148.57 13.71 0
 4 6 -12 73.72 11.78 0
 4 6 -11 58.89 10.05 0
 4 6 -9 41.15 9 0
 4 6 -8 110.84 10.5 0
 4 6 -7 39.56 7.47 0
 4 6 -6 8.86 5.84 0
 4 6 -5 13.15 5.44 0
 4 6 -4 57 8.13 0
 4 6 -3 35.05 7.22 0
 4 6 -2 26.9 5.59 0
 4 6 0 17.1 4.92 0
 4 7 -16 30.98 9.97 0
 4 7 -14 20.95 9.13 0
 4 7 -13 30.4 10.3 0
 4 7 -11 308.5 18.58 0
 4 7 -10 115.3 13.88 0
 4 7 -9 51.43 9.13 0
 4 7 -7 242.78 15.21 0
 4 7 -6 92.15 10.97 0
 4 7 -5 157.73 11.5 0
 4 7 -4 -2.41 5.16 0
 4 7 -2 289.7 13.78 0
 4 7 -1 208.54 11.35 0
 4 7 1 215.34 10.9 0
 4 7 2 292.23 11.64 0
 4 8 -13 90.56 13.53 0
 4 8 -12 211.66 16.96 0
 4 8 -11 97.4 14.06 0
 4 8 -10 59.03 11.16 0
 4 8 -9 121.62 13.12 0
 4 8 -8 11.58 7.4 0
 4 8 -7 52.65 9.48 0
 4 8 -6 7.92 6.44 0
 4 8 -5 18.4 8.01 0
 4 8 -4 116.81 11.61 0
 4 8 -3 68.54 9.52 0
 4 8 -1 31.94 7.12 0
 4 8 1 37.88 6.61 0
 4 9 -11 107.34 14.19 0
 4 9 -10 44.48 11.6 0
 4 9 -9 111.87 13.83 0
 4 9 -8 29.1 9.24 0
 4 9 -7 78.76 11.59 0
 4 9 -6 32.27 8.53 0
 4 9 -4 11.86 7.38 0
 4 9 -3 111.59 12.07 0
 4 9 -1 253.82 14.52 0
 4 10 -10 26.33 10.18 0
 4 10 -8 54.11 11.59 0
 4 10 -7 178.6 16.35 0
 4 10 -6 172.85 14.73 0
 4 10 -5 27.6 9.3 0
 4 10 -4 40.86 9.5 0
 4 10 -3 8.13 6.95 0
 4 11 -6 150.07 16.25 0
 5 1 -18 80.45 13.65 0
 5 2 -16 15.13 8.32 0
 5 2 -15 69.61 11.61 0
 5 2 3 484.45 10.02 0
 5 3 -18 34.43 9.84 0
 5 3 -17 5.51 8.09 0
 5 3 -16 56.88 10.78 0
 5 3 -15 314.28 18.9 0
 5 3 -11 54.86 9.31 0
 5 3 -10 189.3 12.99 0
 5 3 -9 6.18 6.66 0
 5 3 -8 12.54 6 0
 5 3 -7 22.15 6.2 0
 5 3 -6 71.29 8.05 0
 5 3 -4 492.76 15.83 0
 5 3 -3 234.26 11.27 0
 5 3 -2 274.21 11.22 0
 5 3 3 242.13 7.28 0
 5 4 -17 17.57 9.77 0
 5 4 -16 53.37 10.98 0
 5 4 -14 157.27 14.92 0
 5 4 -12 1.31 6.54 0
 5 4 -11 377.99 18.07 0
 5 4 -10 153.78 13.21 0
 5 4 -9 9.42 6.81 0
 5 4 -8 178.25 12.7 0
 5 4 -7 91.05 10.52 0
 5 4 -5 1.43 5.58 0
 5 4 -4 51.62 7.74 0
 5 4 -3 39.19 6.18 0
 5 4 -2 171.14 9.92 0
 5 4 -1 461.13 13.84 0
 5 5 -16 31 10.92 0
 5 5 -15 5.01 8.74 0
 5 5 -14 62.47 11.09 0
 5 5 -11 37.99 9.18 0
 5 5 -10 9.93 6.79 0
 5 5 -9 143.93 12.04 0
 5 5 -8 195.71 13.65 0
 5 5 -5 7.05 5.46 0
 5 5 -4 50.96 7.72 0
 5 5 -2 54.47 7.54 0
 5 5 -1 662.97 17.21 0
 5 5 0 38.23 5.74 0
 5 6 -15 46.71 10.9 0
 5 6 -14 28.1 10.98 0
 5 6 -13 162.14 14.36 0
 5 6 -11 42.24 10.81 0
 5 6 -10 42.83 10.55 0
 5 6 -9 63.13 10.1 0
 5 6 -8 23.76 7.48 0
 5 6 -7 39.05 8.22 0
 5 6 -6 30.72 8.23 0
 5 6 -5 234.43 13.55 0
 5 6 -3 65.9 8.14 0
 5 6 -2 109.08 9.42 0
 5 6 0 517.62 15.74 0
 5 6 1 45.4 5.69 0
 5 7 -13 60.65 11.45 0
 5 7 -12 179.56 16.26 0
 5 7 -11 25.29 10.41 0
 5 7 -10 140.18 14.37 0
 5 7 -9 4.96 6.58 0
 5 7 -8 116.76 13.76 0
 5 7 -7 72.22 11.25 0
 5 7 -6 45.64 9.43 0
 5 7 -5 -2.84 5.27 0
 5 7 -4 96.1 11.3 0
 5 7 -2 192.24 11.84 0
 5 7 -1 91.69 9.05 0
 5 7 0 266.89 12.52 0
 5 7 1 77.04 7.06 0
 5 8 -12 58.72 12.07 0
 5 8 -11 21.84 9.48 0
 5 8 -10 34.15 9.78 0
 5 8 -9 18.63 8.29 0
 5 8 -8 28.13 8.76 0
 5 8 -7 106.57 12.22 0
 5 8 -6 17.38 7.39 0
 5 8 -4 143.31 12.28 0
 5 8 -2 42.12 8.56 0
 5 8 -1 191.77 12.36 0
 5 9 -8 15.6 7.98 0
 5 9 -7 41.43 9.63 0
 5 9 -5 6.88 7.67 0
 5 9 -4 19.48 8.12 0
 5 9 -3 89.11 11.65 0
 5 9 -2 41.38 8.01 0
 5 9 -1 59.13 8.34 0
 5 10 -7 21.12 9.05 0
 5 10 -4 129.4 13.47 0
 5 10 -3 102.67 12.83 0
 6 2 -16 6.89 8.52 0
 6 2 -15 19.7 9.74 0
 6 2 -14 61.45 12.13 0
 6 2 -13 54.95 10.49 0
 6 2 0 34.91 5.23 0
 6 3 -14 99.66 13.75 0
 6 3 -12 44.72 9.46 0
 6 3 -11 6 6.66 0
 6 3 -9 257.71 15.27 0
 6 3 -6 166.25 11.83 0
 6 3 -5 44.06 7.2 0
 6 3 -4 26.49 6.24 0
 6 3 -3 100.81 8.99 0
 6 3 -2 34.89 5.74 0
 6 3 -1 114.51 7.84 0
 6 3 0 34.85 5.36 0
 6 4 -14 87.63 12.57 0
 6 4 -13 146.01 14.79 0
 6 4 -12 59.82 11.64 0
 6 4 -11 6.35 6.98 0
 6 4 -10 74.19 11.18 0
 6 4 -9 66.1 10.71 0
 6 4 -8 0.58 6.79 0
 6 4 -7 107.6 11.41 0
 6 4 -6 223.02 13.26 0
 6 4 -5 109.32 10.41 0
 6 4 -4 177.54 11.68 0
 6 4 -3 18.46 5.54 0
 6 4 -2 156.96 9.9 0
 6 4 0 16.78 3.89 0
 6 5 -12 51.76 11.38 0
 6 5 -11 16.29 7.78 0
 6 5 -10 27.21 8.47 0
 6 5 -9 93.29 11.88 0
 6 5 -8 40.07 8.41 0
 6 5 -7 118.7 12.29 0
 6 5 -6 210.23 13.73 0
 6 5 -5 23.14 6.77 0
 6 5 -3 144.81 10.11 0
 6 5 -2 55.18 7.16 0
 6 5 -1 -1.35 3.55 0
 6 6 -12 171.12 15.6 0
 6 6 -11 27.26 9.09 0
 6 6 -9 25.81 8.44 0
 6 6 -8 13.13 8.27 0
 6 6 -7 96.53 12.04 0
 6 6 -6 58.02 9.3 0
 6 6 -5 64.24 9.38 0
 6 6 -4 -1.23 5.1 0
 6 6 -3 228.35 13.31 0
 6 6 -2 25.26 5.97 0
 6 6 -1 29.6 5.37 0
 6 7 -11 77.08 12.25 0
 6 7 -10 255.66 17.07 0
 6 7 -9 86.37 12.58 0
 6 7 -8 51.67 9.81 0
 6 7 -7 16.57 7.73 0
 6 7 -6 51.05 9.32 0
 6 7 -5 41.55 8.55 0
 6 7 -3 36.68 7.41 0
 6 7 -2 186.4 11.96 0
 6 8 -9 78.81 13.51 0
 6 8 -8 98.87 13.26 0
 6 8 -7 48.22 9.75 0
 6 8 -5 9.96 7.23 0
 6 9 -5 0.99 6.16 0
 6 9 -4 76.88 10.26 0
 7 2 -13 42.11 10.79 0
 7 2 -12 38.62 9.71 0
 7 2 -11 15 7.99 0
 7 2 -10 64.15 11.44 0
 7 2 -3 42.56 7.69 0
 7 2 -2 417.9 15.62 0
 7 3 -12 4.09 7.82 0
 7 3 -11 84.15 12.86 0
 7 3 -10 9.44 7.55 0
 7 3 -9 10.07 7.49 0
 7 3 -8 41.25 9.58 0
 7 3 -7 113.68 12.3 0
 7 3 -6 19.79 7 0
 7 3 -5 21.03 7 0
 7 3 -4 11.11 5.68 0
 7 3 -3 8.66 5.14 0
 7 3 -2 139.06 9.76 0
 7 4 -11 29.47 9.32 0
 7 4 -10 29.55 8.64 0
 7 4 -9 4.66 7 0
 7 4 -8 102.02 12.74 0
 7 4 -7 21.21 7.22 0
 7 4 -6 31.3 8.57 0
 7 4 -5 75.68 10.22 0
 7 4 -4 93.3 10.81 0
 7 4 -3 30.75 6.49 0
 7 5 -10 24.55 8.61 0
 7 5 -9 61.61 10.27 0
 7 5 -8 48.57 9.4 0
 7 5 -6 91.32 11.25 0
 7 5 -5 16.85 7.14 0
 7 5 -3 28.28 6.43 0
 7 6 -9 155.19 13.75 0
 7 6 -8 23.93 8.53 0
 7 6 -7 33.78 8.58 0
 7 6 -6 16.93 7.03 0
 7 6 -5 39.69 8.61 0
 7 6 -4 24.72 6.46 0
 7 7 -6 9.07 7.63 0
 7 7 -5 76.03 10.19 0
 8 2 -9 22.12 8.37 0
 8 2 -8 11.89 8.46 0
 8 2 -7 195.09 14.9 0
 8 2 -6 98.02 11.49 0
 8 2 -4 126.93 10.98 0
 8 3 -8 186.33 15.09 0
 8 3 -7 33.78 9.43 0
 8 3 -6 55.27 9.24 0
 8 3 -5 110.85 11.29 0
 8 4 -7 175.74 14.02 0
 8 4 -6 25.35 7.69 0
 -3 -4 8 49.53 2.14 0
 -3 -4 9 207.87 4.91 0
 -3 -4 10 144.14 4.72 0
 -3 -4 11 34.4 3.21 0
 -3 -4 12 -0.36 1.83 0
 -3 -3 12 16.64 3.4 0
 -3 -3 15 51.15 5.43 0
 -3 -3 16 42.37 5.58 0
 -3 -2 16 92.71 7.87 0
 -3 -2 17 123.83 9.2 0
 -3 -2 18 100.01 8.59 0
 -3 -2 19 34.67 6.74 0
 -3 -1 18 14.68 5.82 0
 -3 -1 19 20.33 6.27 0
 -3 -1 21 171.1 12.37 0
 -3 0 20 69.42 10.16 0
 -3 0 21 65.55 9.81 0
 -3 0 22 129.22 12.29 0
 -3 1 21 190.08 14.38 0
 -3 1 22 93.85 12.6 0
 -2 -5 11 28.92 2.87 0
 -2 -4 7 547.43 6.13 0
 -2 -4 8 358.04 6.27 0
 -2 -4 9 244.05 6.04 0
 -2 -4 10 96.69 4.59 0
 -2 -4 11 1.75 2.28 0
 -2 -4 12 26.27 3.65 0
 -2 -4 13 57.84 5.04 0
 -2 -4 15 237.43 9.67 0
 -2 -3 5 92.08 2.4 0
 -2 -3 6 230.57 4.47 0
 -2 -3 7 588.7 8.26 0
 -2 -3 8 320.6 7.09 0
 -2 -3 9 518.55 9.8 0
 -2 -3 10 274.11 7.97 0
 -2 -3 11 2.04 2.41 0
 -2 -3 12 14.75 3.18 0
 -2 -3 15 30.08 4.92 0
 -2 -3 16 66.97 6.86 0
 -2 -3 17 26.91 5.86 0
 -2 -3 18 28.4 6.01 0
 -2 -3 19 189.62 11.48 0
 -2 -2 2 1057.23 8.42 0
 -2 -2 14 45.74 5.51 0
 -2 -2 15 165.01 9.54 0
 -2 -2 16 132.63 9.24 0
 -2 -2 17 160.34 10.11 0
 -2 -2 18 38.64 6.68 0
 -2 -2 19 114.27 10.12 0
 -2 -2 20 2.65 5.76 0
 -2 -2 21 202.48 12.89 0
 -2 -1 16 6.24 4.25 0
 -2 -1 17 201.11 11.88 0
 -2 -1 18 155.08 10.7 0
 -2 -1 19 30.87 7.22 0
 -2 -1 20 115.66 10.34 0
 -2 -1 22 215.72 14.34 0
 -2 -1 23 0.61 5.87 0
 -2 0 18 75.28 8.79 0
 -2 0 19 69.23 9.59 0
 -2 0 20 9.29 6.1 0
 -2 0 21 8.27 6.14 0
 -2 0 22 8.58 6.61 0
 -2 0 23 137.22 12.71 0
 -2 1 20 134.99 12.57 0
 -2 1 21 54.86 9.15 0
 -2 1 22 205.98 15.33 0
 -2 2 21 195.15 14.4 0
 -2 2 22 90.03 12.04 0
 -2 3 22 32.5 10.47 0
 -1 -5 8 1234.12 13.59 0
 -1 -5 10 88.82 4.8 0
 -1 -5 11 208.32 7.58 0
 -1 -5 12 98.23 5.93 0
 -1 -5 15 104.43 7.24 0
 -1 -5 16 9.54 3.94 0
 -1 -4 6 434.58 6.7 0
 -1 -4 7 169.05 4.98 0
 -1 -4 8 243.78 6.53 0
 -1 -4 9 336.82 8.25 0
 -1 -4 10 11.98 2.9 0
 -1 -4 11 132.85 6.47 0
 -1 -4 12 336.4 10.35 0
 -1 -4 15 52.95 6.21 0
 -1 -4 16 142.93 8.88 0
 -1 -4 18 211.7 11.46 0
 -1 -4 19 13.77 5.1 0
 -1 -3 5 191.46 4.1 0
 -1 -3 6 292.66 5.81 0
 -1 -3 7 209.37 5.7 0
 -1 -3 8 1930.22 18.36 0
 -1 -3 9 660.95 11.96 0
 -1 -3 10 462.79 10.95 0
 -1 -3 11 34.81 4.51 0
 -1 -3 12 94.76 6.12 0
 -1 -3 15 171.8 9.54 0
 -1 -3 18 11.11 4.84 0
 -1 -3 19 193.71 12.3 0
 -1 -3 20 159.5 11.51 0
 -1 -3 21 149.58 11.64 0
 -1 -2 8 992.48 13.74 0
 -1 -2 9 171.13 6.45 0
 -1 -2 10 120.81 6.27 0
 -1 -2 11 457.05 12.04 0
 -1 -2 14 3.85 3.54 0
 -1 -2 15 74.68 7.04 0
 -1 -2 16 41.11 6.94 0
 -1 -2 17 10.27 4.94 0
 -1 -2 18 183.87 11.37 0
 -1 -2 19 19.17 6.26 0
 -1 -2 20 45.51 7.87 0
 -1 -2 21 32 7.62 0
 -1 -2 23 116.27 11.87 0
 -1 -1 -1 2732.92 13.08 0
 -1 -1 0 5938.52 16.21 0
 -1 -1 13 44.85 5.3 0
 -1 -1 14 343.56 12.57 0
 -1 -1 15 10.42 4.53 0
 -1 -1 17 131.22 10.05 0
 -1 -1 18 28.41 7.05 0
 -1 -1 19 59.64 9.04 0
 -1 -1 20 15.7 6.98 0
 -1 -1 21 2.38 7.01 0
 -1 -1 23 14.36 6.98 0
 -1 0 0 1.3 1.59 0
 -1 0 16 79.99 8.01 0
 -1 0 17 238.89 13.12 0
 -1 0 18 34.96 7.92 0
 -1 0 19 259.48 15.12 0
 -1 0 20 13.46 6.45 0
 -1 0 21 39.64 8.47 0
 -1 0 22 35.54 9.04 0
 -1 0 23 -2.22 6.18 0
 -1 1 18 27.59 7.77 0
 -1 1 19 62.4 9.2 0
 -1 1 20 21.31 7.43 0
 -1 1 23 18.21 8.47 0
 -1 2 19 16.89 6.35 0
 -1 2 20 48.44 9.5 0
 -1 2 21 30.96 8.84 0
 -1 2 22 76.76 11.53 0
 -1 3 20 159.03 13.18 0
 -1 3 21 125.22 13.64 0
 -1 3 22 12.88 7.81 0
 -1 4 21 24.38 8.45 0
 -1 5 21 38.55 9.85 0
 0 -6 15 170.03 9.65 0
 0 -6 16 -0.45 3.53 0
 0 -5 8 38.78 4.25 0
 0 -5 9 3.88 2.61 0
 0 -5 10 7.77 2.99 0
 0 -5 11 19.18 4.18 0
 0 -5 13 93.35 7.27 0
 0 -5 14 256.37 11.08 0
 0 -5 15 52.51 6.84 0
 0 -5 17 47.47 7.33 0
 0 -5 19 53.51 8.23 0
 0 -4 7 1254.61 16.01 0
 0 -4 8 881.79 14.35 0
 0 -4 9 48.02 4.29 0
 0 -4 10 27.46 4.4 0
 0 -4 11 245.17 9.41 0
 0 -4 13 198.18 9.81 0
 0 -4 14 20.6 4.89 0
 0 -4 15 662.63 18.12 0
 0 -4 16 74.35 8.17 0
 0 -4 17 507.71 17.47 0
 0 -4 18 4.81 4.66 0
 0 -4 20 50.68 7.97 0
 0 -4 21 13.16 6.5 0
 0 -3 4 3423.28 20.38 0
 0 -3 5 2.45 1.85 0
 0 -3 6 61.92 3.98 0
 0 -3 7 467.03 9.65 0
 0 -3 8 24.38 3.21 0
 0 -3 11 38.72 5.23 0
 0 -3 14 9.55 4.5 0
 0 -3 15 215.58 10.84 0
 0 -3 16 11.96 4.92 0
 0 -3 17 4.49 4.47 0
 0 -3 19 5.2 5.4 0
 0 -3 20 139.96 12.03 0
 0 -3 21 15.76 6.62 0
 0 -3 22 80.95 11.32 0
 0 -3 23 29.1 7.72 0
 0 -2 3 4793.06 20.04 0
 0 -2 4 7355.11 27.48 0
 0 -2 5 567.1 8.96 0
 0 -2 6 3187.81 22.5 0
 0 -2 7 1038.81 14.37 0
 0 -2 8 10.54 2.82 0
 0 -2 10 6.38 3.02 0
 0 -2 13 2.56 3.3 0
 0 -2 14 127.11 8.41 0
 0 -2 15 108.77 8.4 0
 0 -2 16 1061.17 24.23 0
 0 -2 17 54.14 8.24 0
 0 -2 18 463.25 18.2 0
 0 -2 19 344.76 16.24 0
 0 -2 21 29.17 7.76 0
 0 -2 22 8.84 6.78 0
 0 -2 23 39.91 9.11 0
 0 -1 2 609.92 5.58 0
 0 -1 3 2041.16 12.41 0
 0 -1 4 4760.4 21.83 0
 0 -1 5 414.29 7.61 0
 0 -1 6 532.77 9.49 0
 0 -1 7 2270.6 21.01 0
 0 -1 8 61.21 4.31 0
 0 -1 9 43.1 4.09 0
 0 -1 10 111.34 6.61 0
 0 -1 13 581 15.99 0
 0 -1 14 10.73 4.74 0
 0 -1 15 16.49 5.27 0
 0 -1 16 47.69 7 0
 0 -1 17 13.26 5.66 0
 0 -1 18 216.88 13.59 0
 0 -1 20 -2.99 5.82 0
 0 -1 21 30.99 8.58 0
 0 -1 22 114.9 12.97 0
 0 -1 23 49.25 9.24 0
 0 0 13 1.75 3.59 0
 0 0 14 117.94 8.86 0
 0 0 15 -3.87 3.82 0
 0 0 16 313.84 14.14 0
 0 0 17 -0.2 4.5 0
 0 0 18 232.79 14.11 0
 0 0 19 -1.29 6.46 0
 0 0 20 335.23 17.86 0
 0 0 21 8.59 7.15 0
 0 0 22 315.4 18.49 0
 0 0 23 4.28 6.98 0
 0 1 -2 630.42 5.74 0
 0 1 14 8.82 4.3 0
 0 1 15 8.27 4.38 0
 0 1 17 12.19 5.61 0
 0 1 18 193.01 12.88 0
 0 1 19 93.12 11.39 0
 0 1 20 2.27 6 0
 0 1 21 52.73 9.5 0
 0 1 22 139.05 13.52 0
 0 2 16 1043.82 25.8 0
 0 2 17 56.46 8.35 0
 0 2 19 334.44 17.16 0
 0 2 20 37.49 8.61 0
 0 2 21 31.45 8.78 0
 0 2 22 8.53 7.39 0
 0 3 17 1.1 5.14 0
 0 3 20 148.33 14.22 0
 0 3 21 14.88 7.74 0
 0 3 22 73 11.65 0
 0 4 18 11.94 8.07 0
 0 4 20 45.99 9.26 0
 0 5 19 62.54 11.28 0
 0 5 20 338.18 19.44 0
 0 6 19 -4.96 5.82 0
 0 6 20 25.72 8.8 0
 0 7 19 7.71 6.98 0
 1 -6 13 70.02 7.29 0
 1 -6 14 35.87 6.17 0
 1 -6 15 311.58 13.86 0
 1 -6 17 60.97 8.7 0
 1 -6 18 43.07 8.15 0
 1 -5 13 47.23 6.36 0
 1 -5 14 55.85 7.05 0
 1 -5 15 110.8 9.51 0
 1 -5 16 -1.92 4.57 0
 1 -5 17 1.61 4.92 0
 1 -5 19 52.7 8.38 0
 1 -5 20 14.07 6.33 0
 1 -5 21 35.64 8.48 0
 1 -4 7 160.87 7.47 0
 1 -4 8 243.2 9.06 0
 1 -4 14 261.07 12.3 0
 1 -4 15 53.13 7.36 0
 1 -4 16 160.13 10.88 0
 1 -4 17 200.97 12.8 0
 1 -4 18 233.13 14.51 0
 1 -4 19 16.26 6.86 0
 1 -4 20 266.41 15.75 0
 1 -4 21 28.82 7.88 0
 1 -3 4 805.62 13.01 0
 1 -3 5 190.98 6.82 0
 1 -3 6 317.02 9.03 0
 1 -3 7 221.46 8.09 0
 1 -3 8 1921.34 23.89 0
 1 -3 12 92.06 7.2 0
 1 -3 14 239.68 12.27 0
 1 -3 15 182.53 11.34 0
 1 -3 16 160.3 10.86 0
 1 -3 18 4.16 5.66 0
 1 -3 19 210.3 14.21 0
 1 -3 20 165.31 13.53 0
 1 -3 21 151.86 13.87 0
 1 -3 22 -1.43 6.72 0
 1 -2 3 1457.05 15.37 0
 1 -2 4 2651.57 21.77 0
 1 -2 5 756.52 12.67 0
 1 -2 6 411.15 9.89 0
 1 -2 7 1034.57 15.98 0
 1 -2 8 961.99 16.4 0
 1 -2 9 167.1 7.98 0
 1 -2 12 624.65 16.58 0
 1 -2 13 497.32 15.83 0
 1 -2 14 4.41 3.95 0
 1 -2 15 73.73 8.09 0
 1 -2 16 37.78 6.71 0
 1 -2 17 2.69 4.81 0
 1 -2 18 179.5 12.78 0
 1 -2 19 9.19 6.08 0
 1 -2 20 35.61 8.21 0
 1 -2 21 46.32 9.58 0
 1 -2 22 71.65 11.16 0
 1 -2 23 119.01 14.33 0
 1 -1 2 1759.49 14.47 0
 1 -1 3 220.35 5.8 0
 1 -1 4 419.03 8.34 0
 1 -1 5 1852.16 18.31 0
 1 -1 6 2427.95 22.49 0
 1 -1 9 227.07 8.81 0
 1 -1 13 48.57 6.62 0
 1 -1 14 361.28 14.24 0
 1 -1 15 5.19 4.78 0
 1 -1 16 205.81 12.87 0
 1 -1 17 134.37 11.29 0
 1 -1 18 35.13 7.36 0
 1 -1 19 64.67 9.41 0
 1 -1 20 15.75 7.55 0
 1 -1 21 -2.23 5.9 0
 1 -1 22 72.58 11.7 0
 1 -1 23 18.74 7.9 0
 1 0 1 2741.1 14.93 0
 1 0 2 452.03 7.04 0
 1 0 3 17.93 2.35 0
 1 0 4 -0.72 1.78 0
 1 0 5 4230.27 27.25 0
 1 0 6 2304.1 21.96 0
 1 0 9 766.55 15.64 0
 1 0 12 2217.26 31.11 0
 1 0 13 3.54 4.16 0
 1 0 14 187.01 11.24 0
 1 0 16 81.05 8.87 0
 1 0 17 231.15 13.61 0
 1 0 18 34.52 8.35 0
 1 0 19 246.5 15.04 0
 1 0 21 42.6 9.24 0
 1 0 23 -2.59 6.93 0
 1 1 1 2614.73 12.92 0
 1 1 2 1738.93 12.68 0
 1 1 3 217.78 5.33 0
 1 1 4 435.06 8.46 0
 1 1 5 1922.29 18.63 0
 1 1 6 2497.42 22.87 0
 1 1 8 1029.84 17.04 0
 1 1 9 240.4 9.15 0
 1 1 12 24.97 5.07 0
 1 1 13 45.74 6.33 0
 1 1 14 356.74 14.42 0
 1 1 15 8.64 5.15 0
 1 1 17 131.3 11.43 0
 1 1 18 36.04 7.78 0
 1 1 19 67.69 10.63 0
 1 1 20 22.67 7.74 0
 1 1 21 1.56 6.73 0
 1 1 22 79.63 12.4 0
 1 2 12 645.54 17.76 0
 1 2 13 484.23 16.11 0
 1 2 14 1.95 4.72 0
 1 2 15 87.7 8.81 0
 1 2 16 44.87 7.98 0
 1 2 17 8.16 5.71 0
 1 2 18 199.76 14.22 0
 1 2 19 18.16 7.96 0
 1 2 20 29.67 8.25 0
 1 2 22 80.08 12.17 0
 1 3 13 358.57 14.03 0
 1 3 14 259.71 13.19 0
 1 3 15 186.64 12 0
 1 3 18 1.09 6.91 0
 1 3 19 186.74 14.36 0
 1 3 20 160.26 13.72 0
 1 3 21 141.73 14.13 0
 1 3 22 3.91 8.21 0
 1 4 14 286.85 14.22 0
 1 4 15 59.64 8.21 0
 1 4 16 156.03 11.81 0
 1 4 17 187.49 13.31 0
 1 4 18 210.58 14.89 0
 1 4 19 15.2 8.56 0
 1 4 20 275.74 18.05 0
 1 4 21 30.38 8.99 0
 1 5 -3 82.76 1.92 0
 1 5 -2 504.09 5.33 0
 1 5 15 105.58 10.01 0
 1 5 16 -0.35 5.29 0
 1 5 17 1.09 6.89 0
 1 5 18 72.5 11.18 0
 1 5 19 50.41 10.55 0
 1 5 20 10.41 7.52 0
 1 5 21 29.49 9.19 0
 1 6 -3 155.42 3.04 0
 1 6 15 317.32 15.94 0
 1 6 16 277.81 15.61 0
 1 6 17 51.23 8.8 0
 1 6 18 41.33 9.27 0
 1 6 19 73.59 11.85 0
 1 6 20 9.38 9.23 0
 1 7 16 27.34 7.48 0
 1 7 17 195.09 14.2 0
 1 7 18 41.45 9.42 0
 1 7 19 33.95 10.15 0
 1 8 15 62.35 9.16 0
 1 8 16 25.52 8.66 0
 1 8 17 8.27 6.93 0
 1 8 18 13.55 7.21 0
 1 9 14 50.1 8.65 0
 1 9 15 157 12.54 0
 1 9 16 18.39 7.93 0
 1 10 13 60.13 8.96 0
 1 10 14 242.8 14.79 0
 1 10 15 -0.69 5.62 0
 2 -5 10 347.54 13.84 0
 2 -5 11 32.49 6.3 0
 2 -5 12 204 11.73 0
 2 -5 13 186.28 11.81 0
 2 -5 14 114.56 10.02 0
 2 -5 15 20.12 6.07 0
 2 -5 17 8.82 5.94 0
 2 -5 18 120.46 11.68 0
 2 -5 19 34.75 8.1 0
 2 -5 20 76.12 11.57 0
 2 -5 21 78.21 11.43 0
 2 -4 10 99.85 8.21 0
 2 -4 11 0.01 3.53 0
 2 -4 12 21.23 6.04 0
 2 -4 14 52.39 7.65 0
 2 -4 15 249.68 14.37 0
 2 -4 16 201.51 13.63 0
 2 -4 18 65.84 9.96 0
 2 -4 20 5.4 6.49 0
 2 -4 21 31.92 9.6 0
 2 -3 5 94.8 6.51 0
 2 -3 6 220.34 9.19 0
 2 -3 10 292.63 12.07 0
 2 -3 11 -0.11 4.3 0
 2 -3 12 14.38 5.55 0
 2 -3 13 37.61 6.75 0
 2 -3 14 75.06 9.23 0
 2 -3 15 38.36 7.79 0
 2 -3 16 73.45 10.08 0
 2 -3 19 196.36 15 0
 2 -3 20 139.6 14.07 0
 2 -3 21 84.24 12.54 0
 2 -3 22 31.42 9.39 0
 2 -2 5 114.94 6.36 0
 2 -2 6 55.33 4.98 0
 2 -2 7 27.42 4.2 0
 2 -2 12 155.76 9.61 0
 2 -2 14 43.51 7.74 0
 2 -2 15 144.11 11.2 0
 2 -2 17 172.57 13.55 0
 2 -2 18 46.37 8.72 0
 2 -2 21 202.36 16.2 0
 2 -1 3 1849.25 20.14 0
 2 -1 4 789.74 13.93 0
 2 -1 6 1491.06 20.53 0
 2 -1 7 312.55 10.15 0
 2 -1 8 57.8 5.25 0
 2 -1 11 12.93 4.56 0
 2 -1 12 561.64 16.87 0
 2 -1 13 27.3 5.73 0
 2 -1 14 9.03 4.77 0
 2 -1 15 125.24 10.7 0
 2 -1 17 189.87 13.54 0
 2 -1 18 158.96 13.23 0
 2 -1 19 19.62 8.16 0
 2 -1 21 51.79 10.64 0
 2 -1 22 198.41 15.75 0
 2 0 2 -0.04 2.02 0
 2 0 4 980.96 14.76 0
 2 0 5 1018.67 15.8 0
 2 0 6 268.26 8.75 0
 2 0 7 140.8 7.18 0
 2 0 8 7.61 3.26 0
 2 0 12 118.16 8.43 0
 2 0 14 113.33 10.04 0
 2 0 16 210.24 13.19 0
 2 0 17 7.78 6.98 0
 2 0 18 67.82 10.84 0
 2 0 20 -2.36 5.69 0
 2 0 21 18.29 8.06 0
 2 0 22 8.06 7.89 0
 2 1 1 470.58 8.22 0
 2 1 2 479.9 9.1 0
 2 1 3 1776.5 17.6 0
 2 1 4 775.06 12.55 0
 2 1 5 411.57 10.01 0
 2 1 6 1489.85 19.66 0
 2 1 7 311.06 9.91 0
 2 1 8 48.21 5.05 0
 2 1 11 20.08 4.54 0
 2 1 12 574.34 17.67 0
 2 1 14 8.82 5.03 0
 2 1 16 3.56 4.76 0
 2 1 17 199.38 13.26 0
 2 1 18 154.84 12.52 0
 2 1 19 22.78 7.93 0
 2 1 20 112.56 13.99 0
 2 1 21 42.15 9.62 0
 2 1 22 208.37 16.94 0
 2 2 1 248.24 5.69 0
 2 2 2 1065.38 12.23 0
 2 2 4 130.73 5.66 0
 2 2 5 117.29 6.08 0
 2 2 6 49.75 4.59 0
 2 2 7 27.77 4.37 0
 2 2 11 48.74 6.2 0
 2 2 12 155.75 10.23 0
 2 2 13 493.81 16.93 0
 2 2 14 42.67 6.97 0
 2 2 15 169.37 11.62 0
 2 2 16 136.56 11.13 0
 2 2 17 155.07 12.29 0
 2 2 18 29.01 8.29 0
 2 2 19 108.46 12.74 0
 2 2 20 9.35 7.59 0
 2 3 0 1337 9.92 0
 2 3 2 68.72 3.36 0
 2 3 3 1452.89 15.6 0
 2 3 4 1185.28 15.23 0
 2 3 5 97.45 5.27 0
 2 3 6 231.53 8.46 0
 2 3 7 583.7 13.51 0
 2 3 11 3.26 4.01 0
 2 3 13 37.06 6.51 0
 2 3 15 25.29 6.77 0
 2 3 16 81.8 10.51 0
 2 3 17 22.86 7.55 0
 2 3 18 26.05 7.87 0
 2 3 19 193.74 15.6 0
 2 3 20 163.73 14.15 0
 2 3 21 73.29 12.16 0
 2 4 0 65.43 2.16 0
 2 4 3 1640.95 16.64 0
 2 4 4 254.37 7.34 0
 2 4 5 59.76 4.64 0
 2 4 6 695.83 14.17 0
 2 4 10 92.1 8.03 0
 2 4 11 -0.97 3.43 0
 2 4 12 21.25 5.41 0
 2 4 13 48.18 6.89 0
 2 4 14 54.82 8.02 0
 2 4 16 193.17 13.84 0
 2 4 17 64.23 9.7 0
 2 4 18 68.35 10.69 0
 2 4 19 107.35 13.33 0
 2 4 20 11.22 7.89 0
 2 4 21 46.87 10.93 0
 2 5 0 390.63 4.61 0
 2 5 1 80.91 3.12 0
 2 5 3 751.97 11.63 0
 2 5 4 637.76 11.79 0
 2 5 5 333.24 9.43 0
 2 5 9 118.3 7.73 0
 2 5 12 202.73 11.81 0
 2 5 13 166.18 11.44 0
 2 5 14 109.95 9.91 0
 2 5 15 13.08 6.11 0
 2 5 16 156.92 12.95 0
 2 5 17 15.31 7.04 0
 2 5 19 39.7 9.78 0
 2 5 20 81.78 12.31 0
 2 6 1 972.44 10.14 0
 2 6 2 205.5 5.69 0
 2 6 4 156.97 6.33 0
 2 6 5 82.05 5.33 0
 2 6 8 203.48 9.67 0
 2 6 9 412.96 13.64 0
 2 6 11 76.94 8.01 0
 2 6 12 2.77 4.59 0
 2 6 13 176.42 11.53 0
 2 6 14 19.28 6.3 0
 2 6 17 219.58 14.89 0
 2 6 18 58.5 11.23 0
 2 6 19 82.02 11.62 0
 2 7 1 311.33 5.82 0
 2 7 4 138.82 6.11 0
 2 7 5 424.04 10.98 0
 2 7 8 61.85 6.48 0
 2 7 9 65.86 6.64 0
 2 7 10 13.56 4.89 0
 2 7 11 154.48 10.59 0
 2 7 12 87.7 9.29 0
 2 7 13 108.12 10.03 0
 2 7 14 66.06 9.14 0
 2 7 15 72.53 9.88 0
 2 7 16 31.71 8.94 0
 2 7 17 37.33 8.75 0
 2 7 18 48.35 11.03 0
 2 8 7 47.05 5.74 0
 2 8 8 22.84 4.73 0
 2 8 9 15.83 4.54 0
 2 8 10 35.77 6.5 0
 2 8 11 12.41 5.17 0
 2 8 12 158.89 11.41 0
 2 8 13 138.29 11.61 0
 2 8 14 63.82 9.63 0
 2 8 16 7.28 6.11 0
 2 8 17 264.94 17.07 0
 2 9 9 6.26 3.77 0
 2 9 10 140.21 9.42 0
 2 9 11 16.05 5.33 0
 2 9 12 41.84 7.55 0
 2 9 14 242.06 14.62 0
 2 9 15 0.7 5.45 0
 2 9 16 27.95 8.23 0
 3 -5 14 43.69 8.72 0
 3 -5 15 51.51 9.28 0
 3 -5 16 52.1 10.08 0
 3 -5 17 74.85 11.29 0
 3 -5 19 1.93 7.91 0
 3 -5 20 22.65 8.43 0
 3 -4 10 141.34 10.94 0
 3 -4 11 28.16 6.51 0
 3 -4 12 4.9 5.89 0
 3 -4 13 273.41 15.14 0
 3 -4 14 88.37 10.87 0
 3 -4 16 207.24 14.11 0
 3 -4 19 21.99 8.49 0
 3 -4 20 11.63 7.2 0
 3 -3 7 230.48 10.96 0
 3 -3 8 561.51 16.82 0
 3 -3 10 9.07 4.39 0
 3 -3 11 30.97 6.23 0
 3 -3 12 15.73 5.96 0
 3 -3 13 46.64 7.48 0
 3 -3 14 53.72 8.39 0
 3 -3 16 55.29 9.29 0
 3 -3 17 147.78 13.23 0
 3 -3 18 20.91 7.68 0
 3 -3 19 34.42 9.71 0
 3 -3 21 183.32 16.39 0
 3 -2 10 142.8 9.68 0
 3 -2 12 247.09 12.9 0
 3 -2 14 139.09 11.17 0
 3 -2 15 26.63 7.25 0
 3 -2 16 122.56 11.53 0
 3 -2 17 119.21 11.59 0
 3 -2 20 77.65 12.45 0
 3 -2 21 88.04 13.31 0
 3 -1 5 649.93 15.13 0
 3 -1 10 547.21 16.97 0
 3 -1 11 138.25 9.86 0
 3 -1 12 220.98 12.15 0
 3 -1 13 199.23 12.68 0
 3 -1 14 8.98 6.2 0
 3 -1 15 110.17 11.34 0
 3 -1 16 95.71 11.74 0
 3 -1 17 62.52 9.62 0
 3 -1 18 14.88 7.82 0
 3 -1 21 186.07 16.59 0
 3 0 4 1864.85 23.61 0
 3 0 6 25.45 4.41 0
 3 0 9 8.62 4.29 0
 3 0 10 31.25 5.61 0
 3 0 11 56.58 7 0
 3 0 12 203.42 12.02 0
 3 0 13 -3.64 3.76 0
 3 0 14 194.7 12.6 0
 3 0 15 61.39 9.29 0
 3 0 16 119.57 11.7 0
 3 0 17 306.75 16.72 0
 3 0 18 66.39 10.31 0
 3 0 19 2.76 8.47 0
 3 0 20 75.99 12.22 0
 3 0 21 67.51 12.21 0
 3 1 3 49.63 4.38 0
 3 1 4 57.7 4.71 0
 3 1 9 683.76 17.6 0
 3 1 10 575.61 16.99 0
 3 1 11 141.62 9.44 0
 3 1 12 222.08 12.2 0
 3 1 13 218.72 12.62 0
 3 1 14 13.08 5.97 0
 3 1 15 111.75 10.28 0
 3 1 17 65.86 9.76 0
 3 1 20 31.5 10.1 0
 3 1 21 179 16.51 0
 3 2 2 461.25 10.04 0
 3 2 3 526.32 11.25 0
 3 2 4 186.52 7.53 0
 3 2 5 236.8 8.84 0
 3 2 6 108.08 6.94 0
 3 2 12 246.3 12.5 0
 3 2 13 102.63 9.4 0
 3 2 14 107.77 10.56 0
 3 2 15 28.17 6.87 0
 3 2 16 100.55 12.47 0
 3 2 17 113.46 11.97 0
 3 2 18 98.43 11.73 0
 3 2 19 33.96 8.8 0
 3 2 20 88.82 12.18 0
 3 2 21 91.67 13.53 0
 3 3 2 170.62 6.05 0
 3 3 3 647.74 12.21 0
 3 3 4 382.05 10.06 0
 3 3 5 1981.23 23.56 0
 3 3 6 139.6 7.36 0
 3 3 9 834.14 19.29 0
 3 3 10 7.73 4.22 0
 3 3 12 24.41 6.34 0
 3 3 14 39.86 7.38 0
 3 3 16 57.49 9.09 0
 3 3 17 143.77 12.49 0
 3 3 18 24.7 7.97 0
 3 3 20 145.01 14.34 0
 3 4 1 25.94 2.42 0
 3 4 3 62.95 4.37 0
 3 4 5 714.34 14.19 0
 3 4 6 148.73 7.63 0
 3 4 9 198.74 10.28 0
 3 4 10 142.43 9.45 0
 3 4 11 28.44 5.89 0
 3 4 12 0.38 4.29 0
 3 4 14 90.73 9.48 0
 3 4 15 172.31 13.02 0
 3 4 16 206.28 14.62 0
 3 4 17 108.19 12.48 0
 3 4 18 83.68 12.55 0
 3 4 19 27.04 9.62 0
 3 4 20 11.99 8.29 0
 3 5 1 322.78 6.26 0
 3 5 2 786.71 11.27 0
 3 5 4 465.73 10.67 0
 3 5 5 151.58 6.89 0
 3 5 9 328.73 12.52 0
 3 5 10 0.23 3.85 0
 3 5 11 311.74 13.87 0
 3 5 14 45.89 7.86 0
 3 5 15 54.27 9.69 0
 3 5 16 57.18 9.99 0
 3 5 17 75.99 11.37 0
 3 5 18 49.29 9.99 0
 3 5 19 11.84 8.67 0
 3 6 1 330.38 5.17 0
 3 6 3 55.96 3.69 0
 3 6 5 227.93 8.21 0
 3 6 8 5.89 3.34 0
 3 6 9 7.24 4.13 0
 3 6 10 57.53 6.97 0
 3 6 11 484.07 16.71 0
 3 6 12 32.51 6.57 0
 3 6 13 31 7.33 0
 3 6 14 218.83 13.92 0
 3 6 16 138.43 12.49 0
 3 6 17 -1.43 5.77 0
 3 6 18 102.29 12.72 0
 3 7 7 501.49 13.77 0
 3 7 8 54.26 6.25 0
 3 7 9 45.52 6.07 0
 3 7 10 70.12 7.15 0
 3 7 11 50.78 7.14 0
 3 7 12 235.49 13.12 0
 3 7 13 237.27 14.02 0
 3 7 15 17.06 7.08 0
 3 7 16 38.66 8.52 0
 3 7 17 2.91 6.41 0
 3 7 18 35.76 8.86 0
 3 8 9 71.61 6.56 0
 3 8 10 60.44 7.53 0
 3 8 11 109.07 9.4 0
 3 8 12 120.29 9.83 0
 3 8 13 21.47 6.67 0
 3 8 14 77.63 9.54 0
 3 8 15 99.56 11.15 0
 3 8 16 32.79 8.56 0
 3 8 17 31.13 8.88 0
 3 9 13 6.35 5.03 0
 3 9 14 -2.8 4.71 0
 4 -4 14 45.81 9.77 0
 4 -4 15 58.53 10.45 0
 4 -4 16 26.43 9.53 0
 4 -4 18 134.47 15.92 0
 4 -4 19 112.36 14.83 0
 4 -3 10 477.79 18.47 0
 4 -3 12 232.55 14.66 0
 4 -3 14 333.81 17.46 0
 4 -3 15 91.9 12.16 0
 4 -3 16 26.42 8.14 0
 4 -3 18 27.14 8.62 0
 4 -2 9 155.34 10.54 0
 4 -2 10 16.6 6.01 0
 4 -2 11 100.57 9.27 0
 4 -2 13 18.18 6.45 0
 4 -2 14 158.66 13.31 0
 4 -2 15 331.96 17.6 0
 4 -2 16 110.76 12.63 0
 4 -2 17 16.62 7.92 0
 4 -2 18 29.68 9.07 0
 4 -2 19 35.52 10.41 0
 4 -2 20 102.11 13.97 0
 4 -1 6 275.97 12.59 0
 4 -1 7 1619.46 28.91 0
 4 -1 8 217.42 11.71 0
 4 -1 9 658.81 19.62 0
 4 -1 10 6.99 4.78 0
 4 -1 12 38.34 7.67 0
 4 -1 13 310.36 15.9 0
 4 -1 14 50.72 9.19 0
 4 -1 15 148.21 12.75 0
 4 -1 17 18.74 7.83 0
 4 -1 18 23.73 9.61 0
 4 -1 19 141.07 14.68 0
 4 -1 20 1.71 8.19 0
 4 0 6 14.74 4.43 0
 4 0 7 48.68 6.95 0
 4 0 8 25.04 5.47 0
 4 0 9 444.32 16.26 0
 4 0 10 621.55 19.39 0
 4 0 14 75.67 9.82 0
 4 0 15 41.56 9.03 0
 4 0 16 344.64 18.99 0
 4 0 17 2.52 6.24 0
 4 0 18 117.2 14.05 0
 4 0 19 29.6 10.04 0
 4 0 20 7.55 8.26 0
 4 1 7 1596.67 27.31 0
 4 1 8 222.44 11.52 0
 4 1 12 42.89 7.74 0
 4 1 13 326.29 15.97 0
 4 1 14 48.15 8.98 0
 4 1 16 159.37 14.18 0
 4 1 17 19.73 8 0
 4 1 18 27.09 9.74 0
 4 1 20 -5.37 7.29 0
 4 2 3 352.89 11.2 0
 4 2 8 12.13 4.44 0
 4 2 9 154.41 10.19 0
 4 2 10 15.93 5.37 0
 4 2 11 110.12 9.44 0
 4 2 12 106.9 10.7 0
 4 2 13 7.1 5.53 0
 4 2 14 187.25 13.15 0
 4 2 16 100.76 12.08 0
 4 2 17 7.72 8.49 0
 4 2 18 20.75 8.44 0
 4 2 19 41.87 10.47 0
 4 2 20 98.81 15.31 0
 4 3 4 850.03 16.72 0
 4 3 7 237.57 10.95 0
 4 3 8 559.08 16.62 0
 4 3 9 573.99 17.41 0
 4 3 10 482.1 16.99 0
 4 3 11 17.42 5.7 0
 4 3 12 259.93 13.7 0
 4 3 13 190.14 12.61 0
 4 3 14 331.07 16.69 0
 4 3 15 93.16 11.13 0
 4 3 17 15.11 8.47 0
 4 3 19 79.56 12.28 0
 4 4 3 53.65 4.76 0
 4 4 4 89.87 5.74 0
 4 4 7 16.68 4.57 0
 4 4 8 60 7.21 0
 4 4 9 -1.01 3.71 0
 4 4 10 19.07 5.61 0
 4 4 11 78.51 8.28 0
 4 4 12 106.55 10.24 0
 4 4 14 45.65 8.11 0
 4 4 15 45.78 9.1 0
 4 4 16 14.38 6.97 0
 4 4 17 44.85 9.32 0
 4 4 18 159.85 14.28 0
 4 5 4 366.26 10.35 0
 4 5 7 101.32 7.39 0
 4 5 8 574.12 16.25 0
 4 5 11 401.04 15.95 0
 4 5 12 62.24 8.53 0
 4 5 13 32.82 7.09 0
 4 5 14 95.94 11.11 0
 4 5 15 -0.46 5.86 0
 4 5 16 25 7.76 0
 4 5 17 82.46 11.77 0
 4 5 18 108.62 12.72 0
 4 6 7 47.94 5.81 0
 4 6 8 113.91 8.09 0
 4 6 9 33.32 5.63 0
 4 6 10 3.57 4.1 0
 4 6 11 59.73 8.04 0
 4 6 12 81.07 9.54 0
 4 6 15 131.63 11.72 0
 4 6 16 62.17 10.52 0
 4 6 17 84.78 11.74 0
 4 7 9 72.43 7.16 0
 4 7 10 112.36 8.99 0
 4 7 11 297.22 13.97 0
 4 7 12 130.65 10.54 0
 4 7 13 25.6 6.71 0
 4 7 14 24.56 6.81 0
 4 7 15 101.64 11.86 0
 4 7 16 29.12 8.46 0
 4 7 17 145.12 13.62 0
 4 8 13 97.56 9.43 0
 4 8 14 -3.49 4.36 0
 5 -2 12 24.8 7.36 0
 5 -2 13 19.35 7.23 0
 5 -2 14 163.98 14.98 0
 5 -2 15 79.55 11.8 0
 5 -2 16 12.45 8.56 0
 5 -2 17 523.06 25.14 0
 5 -2 18 37.16 11.79 0
 5 -1 9 44.15 7.99 0
 5 -1 10 87.27 9.97 0
 5 -1 11 5.79 6.11 0
 5 -1 12 77.67 11.04 0
 5 -1 13 49.89 9.3 0
 5 -1 14 250.4 16.13 0
 5 -1 15 218.1 16.54 0
 5 -1 16 136.79 14.46 0
 5 -1 17 -1.34 6.8 0
 5 -1 18 69.81 12.49 0
 5 0 8 203.75 13.02 0
 5 0 9 -3.69 4.34 0
 5 0 12 -2.39 5.57 0
 5 0 13 289.7 17.13 0
 5 0 14 0.9 6.2 0
 5 0 15 1 7.44 0
 5 0 16 93.33 13.27 0
 5 0 18 -3.89 8.68 0
 5 1 7 50.94 7.46 0
 5 1 8 276.72 13.96 0
 5 1 9 40.95 7.99 0
 5 1 10 81.43 9.14 0
 5 1 11 -0.95 5.87 0
 5 1 12 64.7 10.09 0
 5 1 13 60.19 9.46 0
 5 1 14 243.33 16.26 0
 5 1 15 196.79 14.86 0
 5 1 17 0.96 6.89 0
 5 1 18 82.26 12.65 0
 5 2 6 258.63 12.13 0
 5 2 7 99.32 9.06 0
 5 2 8 48.91 7 0
 5 2 9 55.53 7.67 0
 5 2 10 108.86 10.54 0
 5 2 11 2.96 5.46 0
 5 2 12 27.67 7.32 0
 5 2 13 26.12 8.33 0
 5 2 14 162.2 13.19 0
 5 2 15 62.37 10.8 0
 5 2 16 19.42 8.19 0
 5 2 17 483.86 22.91 0
 5 2 18 47.47 10.85 0
 5 3 5 229.41 10.71 0
 5 3 6 73.85 7.64 0
 5 3 7 16.21 5.75 0
 5 3 8 20.44 5.61 0
 5 3 9 9.41 5.18 0
 5 3 10 185.14 12.65 0
 5 3 11 66 9.52 0
 5 3 14 15.64 7.54 0
 5 3 15 337.6 18.39 0
 5 3 16 60.73 10.4 0
 5 3 17 -1.46 7.13 0
 5 4 5 -1.43 2.67 0
 5 4 6 114.8 8.33 0
 5 4 7 96.52 8.23 0
 5 4 8 197.75 10.96 0
 5 4 9 11.93 5.24 0
 5 4 10 176.01 11.97 0
 5 4 12 4.95 5.53 0
 5 4 13 15.69 7.65 0
 5 4 14 131.41 12.31 0
 5 4 15 35 8.45 0
 5 4 16 51.85 10.11 0
 5 4 17 11.74 7.94 0
 5 5 5 4.19 3.1 0
 5 5 7 2.81 3.34 0
 5 5 8 200.89 11.02 0
 5 5 9 133.4 9.92 0
 5 5 10 17.56 6.15 0
 5 5 11 25.48 6.86 0
 5 5 12 173.81 13.15 0
 5 5 13 70.98 9.78 0
 5 5 14 45.68 9.4 0
 5 5 15 1.06 6.14 0
 5 5 17 72.04 12.15 0
 5 6 9 63.94 7.3 0
 5 6 10 44.82 7.01 0
 5 6 12 199.76 13.21 0
 5 6 13 145.75 12.25 0
 5 6 14 25.98 7.44 0
 5 6 15 58.9 9.72 0
 5 6 16 61.57 10.58 0
 6 0 14 160.28 14.58 0
 6 0 15 111.27 14.58 0
 6 0 16 16.1 8.89 0
 6 1 11 66.96 10.91 0
 6 1 12 -5.65 6.56 0
 6 1 14 66.1 10.92 0
 6 1 15 21.45 9.01 0
 6 2 10 146.66 12.65 0
 6 2 11 83.91 10.71 0
 6 2 13 61.27 10.85 0
 6 2 14 52.85 9.83 0
 6 2 15 13.49 8.78 0
 6 2 16 15.6 8.91 0
 6 3 10 89.24 10.39 0
 6 3 11 8.87 7.49 0
 6 3 13 54.73 10.43 0
 6 3 14 91.64 11.88 0
 6 3 15 1.07 6.4 0
 6 3 16 59.18 10.65 0
 6 4 9 72.49 9.08 0
 6 4 10 67.38 9.44 0
 6 4 11 12.5 6.42 0
 6 4 13 149.5 13.64 0
 6 4 14 73.69 10.55 0
 6 4 15 4.78 7.66 0
 6 5 9 108.2 9.65 0
 6 5 10 34.97 6.8 0
 6 5 11 13.07 6.56 0
 6 5 12 50.88 9.21 0
 6 5 13 223.04 15.24 0
 6 5 14 56.51 10.01 0
 6 5 15 47.29 10.14 0
 -7 3 5 31.31 6.22 0
 -7 3 6 12.61 5.5 0
 -7 3 7 125.41 10.33 0
 -7 3 8 31.33 7.13 0
 -7 4 2 375.23 14.76 0
 -7 4 3 29.62 6.45 0
 -7 4 4 87.13 8.45 0
 -7 4 5 82.59 9.83 0
 -7 4 6 24.27 6.81 0
 -7 4 7 17.9 7.26 0
 -7 4 8 90.07 11.11 0
 -7 4 9 4.54 6.2 0
 -7 5 -1 89.55 8.88 0
 -7 5 0 0.83 4.46 0
 -7 5 1 91.81 9.23 0
 -7 5 2 111.95 10.09 0
 -7 5 3 17.76 6.17 0
 -7 5 4 9.75 5.96 0
 -7 5 5 23.57 7.14 0
 -7 5 8 43.43 8.52 0
 -7 5 9 47.37 9.15 0
 -7 5 11 29.36 8.93 0
 -7 6 -3 -2.1 4.18 0
 -7 6 -1 65.04 8.87 0
 -7 6 0 274.18 14.29 0
 -7 6 1 53.8 8.57 0
 -7 6 2 122.57 10.57 0
 -7 6 3 8.98 6.01 0
 -7 6 4 19.22 6.85 0
 -7 6 5 40.76 8.1 0
 -7 6 6 8.7 7.08 0
 -7 6 7 22.4 7.35 0
 -7 6 9 150.91 13.15 0
 -7 6 10 93.47 12.99 0
 -7 7 -4 48.18 8.45 0
 -7 7 -3 38.76 7.71 0
 -7 7 -2 22.18 7.13 0
 -7 7 -1 11.48 6.46 0
 -7 7 0 14.02 6.05 0
 -7 7 1 22.16 7.07 0
 -7 7 2 13.85 6.31 0
 -7 7 3 39.55 8.23 0
 -7 7 4 48.37 9.13 0
 -7 7 5 71.88 11.04 0
 -7 7 6 5.87 6.61 0
 -7 7 7 25.73 8 0
 -7 8 -4 140.53 12.29 0
 -7 8 -3 19.58 6.94 0
 -7 8 -2 19.11 7.85 0
 -7 8 -1 103.17 12.29 0
 -7 8 0 62.2 10.41 0
 -7 8 1 74.46 10.73 0
 -7 8 2 26.71 7.71 0
 -7 8 3 33.03 9.26 0
 -6 0 3 2.67 2.42 0
 -6 1 0 0.72 2.27 0
 -6 1 1 13.25 3.05 0
 -6 1 2 105.5 6.17 0
 -6 1 3 2.95 2.79 0
 -6 2 -4 86.68 5.68 0
 -6 2 -3 96.17 5.9 0
 -6 2 -2 23.75 4.02 0
 -6 2 -1 37.59 4.55 0
 -6 2 4 101.74 7.87 0
 -6 3 -8 98.78 7.49 0
 -6 3 -7 67.56 6.33 0
 -6 3 -6 157.77 8.42 0
 -6 3 -5 49.97 5.89 0
 -6 3 -4 17.57 4.24 0
 -6 3 -3 94.9 7.07 0
 -6 3 -2 42.64 5.32 0
 -6 3 -1 110.66 7.5 0
 -6 3 0 32.7 5.4 0
 -6 3 1 109.46 8.18 0
 -6 3 2 36.24 5.98 0
 -6 3 3 103.75 8.51 0
 -6 3 5 51 7.76 0
 -6 4 -9 65.64 7.89 0
 -6 4 -8 4.71 4.44 0
 -6 4 -7 116.05 8.45 0
 -6 4 -6 234.81 10.89 0
 -6 4 -5 103.7 8.17 0
 -6 4 -4 177.87 9.85 0
 -6 4 -3 18.9 5.01 0
 -6 4 -2 142.68 9.12 0
 -6 4 -1 181.66 10.32 0
 -6 4 0 16.87 5.14 0
 -6 4 1 183.11 10.66 0
 -6 4 3 11.9 5.12 0
 -6 4 5 104.37 10.44 0
 -6 5 -10 37.24 7.54 0
 -6 5 -8 33.46 6.19 0
 -6 5 -7 115.4 9.26 0
 -6 5 -6 235.16 12.38 0
 -6 5 -5 17.94 5.43 0
 -6 5 -4 142.02 10.08 0
 -6 5 -2 71.79 8.11 0
 -6 5 -1 -0.06 4.8 0
 -6 5 0 241.53 13 0
 -6 5 2 59.92 8.45 0
 -6 5 3 146.39 10.87 0
 -6 5 4 157.89 12.08 0
 -6 5 5 22.92 7.8 0
 -6 5 6 216.8 14.54 0
 -6 5 7 129.4 11.72 0
 -6 6 -11 30.53 7.02 0
 -6 6 -10 159.48 11.29 0
 -6 6 -9 18.04 6.13 0
 -6 6 -8 12.69 5.87 0
 -6 6 -7 93.21 9.81 0
 -6 6 -4 4.62 5.18 0
 -6 6 -3 250.65 13.71 0
 -6 6 -2 17.12 6.51 0
 -6 6 -1 25.15 7.35 0
 -6 6 0 494.71 18.52 0
 -6 6 1 19.61 6.6 0
 -6 6 2 25.99 6.79 0
 -6 6 3 229.38 14.48 0
 -6 6 4 -2.32 5.91 0
 -6 6 5 63.42 9.96 0
 -6 6 7 94.43 12.52 0
 -6 6 8 15.34 8.32 0
 -6 6 9 20.6 9.17 0
 -6 7 -11 64.75 9.61 0
 -6 7 -10 246.52 15.13 0
 -6 7 -9 92.85 10.34 0
 -6 7 -8 50.23 8.71 0
 -6 7 -6 58.31 8.75 0
 -6 7 -5 47.39 8.54 0
 -6 7 -3 54.6 8.54 0
 -6 7 -2 186.41 13.35 0
 -6 7 0 0.04 6.59 0
 -6 7 1 111.26 11.53 0
 -6 7 2 178.85 13.42 0
 -6 7 3 49.59 9.24 0
 -6 7 4 23.82 8.04 0
 -6 7 5 31.93 8.2 0
 -6 7 6 39.5 9.53 0
 -6 7 7 13.58 7.42 0
 -6 7 10 248.14 17.99 0
 -6 7 11 88.2 13.09 0
 -6 8 -10 -1.46 5.67 0
 -6 8 -8 96.82 11.36 0
 -6 8 -6 56.04 8.97 0
 -6 8 -5 24 7.76 0
 -6 8 -4 25.16 7.74 0
 -6 8 -1 25.5 8.55 0
 -6 8 0 9 7.59 0
 -6 8 1 36.16 9.46 0
 -6 8 2 110.28 12.41 0
 -6 8 3 29.29 8.18 0
 -6 8 5 14.45 7.7 0
 -6 8 6 48.59 9.99 0
 -6 8 7 45.75 10.25 0
 -6 8 9 55.22 11.02 0
 -6 9 -6 127.31 12.26 0
 -6 9 -5 0.12 6.09 0
 -6 9 -4 78.14 11.56 0
 -6 9 -2 35.28 9.65 0
 -6 9 -1 6.39 7.51 0
 -6 9 0 1.39 6.49 0
 -6 9 1 6.29 6.76 0
 -6 9 2 22.49 9.01 0
 -6 9 3 13.21 7.73 0
 -6 9 4 79.37 12.38 0
 -5 -2 2 179 3.56 0
 -5 -1 1 95.3 3.29 0
 -5 -1 2 376.29 7.8 0
 -5 0 -3 105.86 3.46 0
 -5 0 -2 513.58 7.46 0
 -5 0 -1 886.89 10.44 0
 -5 0 0 -0.63 1.57 0
 -5 0 1 860.29 12.51 0
 -5 0 2 490.06 10.74 0
 -5 1 -6 4.81 2.13 0
 -5 1 -5 520.67 10.36 0
 -5 1 -4 355.62 8.49 0
 -5 1 -3 48.37 3.74 0
 -5 1 -2 380.43 8.84 0
 -5 1 -1 102.07 5.2 0
 -5 1 0 65.37 4.76 0
 -5 1 1 92.6 5.69 0
 -5 1 2 386.04 11.13 0
 -5 2 -7 91.01 6.09 0
 -5 2 -6 252.01 8.85 0
 -5 2 -5 388.65 10.68 0
 -5 2 -4 17.33 3.41 0
 -5 2 -3 464.66 11.42 0
 -5 2 -2 187.81 7.63 0
 -5 2 0 36.99 4.99 0
 -5 2 1 148.7 7.82 0
 -5 2 2 170.1 8.95 0
 -5 3 -9 11.91 4.49 0
 -5 3 -8 17.53 5 0
 -5 3 -7 22.86 4.82 0
 -5 3 3 210.26 10.8 0
 -5 4 -9 3.33 4.75 0
 -5 4 -8 195.12 10.35 0
 -5 4 -7 86.19 7.89 0
 -5 4 -6 117.12 8.75 0
 -5 4 -5 3.36 4.45 0
 -5 4 -4 53.32 6.61 0
 -5 4 -3 31.43 5.21 0
 -5 4 -2 166.06 9.38 0
 -5 4 -1 465.31 15.01 0
 -5 4 1 465.04 15.11 0
 -5 4 2 172.52 10.51 0
 -5 4 3 39.54 6.52 0
 -5 4 4 47.44 7.12 0
 -5 5 -11 24.69 6.46 0
 -5 5 -10 20.71 6.11 0
 -5 5 -9 126.78 10.42 0
 -5 5 -8 205.6 11.96 0
 -5 5 -7 4.62 4.68 0
 -5 5 -6 48.3 7.38 0
 -5 5 -5 2.45 4.32 0
 -5 5 -1 632.26 18.82 0
 -5 5 0 38.18 6.57 0
 -5 5 1 623.71 18.84 0
 -5 5 2 41.94 7.02 0
 -5 5 3 184.01 11.49 0
 -5 6 -12 197.99 13.29 0
 -5 6 -11 61.95 9.44 0
 -5 6 -10 42.86 8.42 0
 -5 6 -9 66.55 8.9 0
 -5 6 -8 19.6 6.26 0
 -5 6 -5 261.57 13.86 0
 -5 6 -4 105.71 9.95 0
 -5 6 -3 74.26 9.13 0
 -5 6 -2 103.35 9.11 0
 -5 6 1 38.71 7.36 0
 -5 6 2 108.94 10.15 0
 -5 6 3 64.53 9.34 0
 -5 6 4 115.69 11.03 0
 -5 6 5 236.39 14.81 0
 -5 6 7 47.48 8.58 0
 -5 7 -12 159.68 13.46 0
 -5 7 -11 40.46 8.32 0
 -5 7 -8 121.24 10.85 0
 -5 7 -7 67.1 9.39 0
 -5 7 -6 51.27 9.27 0
 -5 7 -5 2.86 5.87 0
 -5 7 -4 106.88 10.09 0
 -5 7 -3 122.42 10.54 0
 -5 7 -1 84.24 10.02 0
 -5 7 0 279.09 15.52 0
 -5 7 1 77.87 9.53 0
 -5 7 2 206.85 13.97 0
 -5 7 3 119.54 12.14 0
 -5 7 4 108.93 11.65 0
 -5 7 5 -1.53 5.56 0
 -5 7 7 61.16 10.57 0
 -5 7 8 114.91 13.5 0
 -5 7 9 -0.49 6.84 0
 -5 8 -13 -0.38 6.15 0
 -5 8 -12 54.85 9.51 0
 -5 8 -11 22.6 8.17 0
 -5 8 -10 27.03 7.84 0
 -5 8 -9 18.6 8.22 0
 -5 8 -7 106 12.11 0
 -5 8 -6 9.07 6.06 0
 -5 8 -5 40.71 9.27 0
 -5 8 -3 133.73 12.45 0
 -5 8 -2 31.22 7.84 0
 -5 8 0 66.21 9.79 0
 -5 8 1 187.4 14.26 0
 -5 8 2 24.38 7.75 0
 -5 8 3 135.85 12.3 0
 -5 8 4 118.82 12.97 0
 -5 8 5 44.29 9.03 0
 -5 8 6 10.7 8.4 0
 -5 8 8 23.93 9.61 0
 -5 8 9 21.32 9.45 0
 -5 8 10 25.86 9.06 0
 -5 8 11 30.21 10.2 0
 -5 9 -10 45.05 9.24 0
 -5 9 -9 146.79 13.54 0
 -5 9 -8 11.43 8.22 0
 -5 9 -6 177.23 13.8 0
 -5 9 -5 10.57 7.39 0
 -5 9 -3 83.54 11.72 0
 -5 9 -1 63.38 10.41 0
 -5 9 0 27.6 8.9 0
 -5 9 1 67.93 11.64 0
 -5 9 2 38.08 9.2 0
 -5 9 4 15.03 7.7 0
 -5 9 5 13.63 9.17 0
 -5 9 6 190.4 16.42 0
 -5 9 7 33.09 10.1 0
 -5 9 8 11.19 9.46 0
 -5 9 9 146.21 14.4 0
 -5 10 -6 54.78 11 0
 -5 10 -5 17.4 8.44 0
 -5 10 -4 149.89 14.75 0
 -5 10 -2 42.87 10.33 0
 -5 10 -1 94.8 12.08 0
 -5 10 0 44.4 8.94 0
 -5 10 1 86.49 12.89 0
 -5 10 2 42.16 9.66 0
 -5 10 4 147.22 16.11 0
 -5 10 5 6.34 8.33 0
 -4 -2 1 1.92 0.7 0
 -4 -1 0 40.55 1.96 0
 -4 0 -4 856.98 10.11 0
 -4 0 -3 8.54 1.67 0
 -4 0 -2 8.45 1.63 0
 -4 0 -1 110.31 3.94 0
 -4 0 0 19.92 2.55 0
 -4 1 -7 1560.09 19.47 0
 -4 1 -6 277.24 8.15 0
 -4 1 -5 122.51 5.51 0
 -4 1 -4 606.53 10.86 0
 -4 1 -3 2218.26 20.09 0
 -4 1 -1 46.78 3.76 0
 -4 1 0 47.35 3.89 0
 -4 2 -8 16.12 3.8 0
 -4 2 -7 195.02 8.26 0
 -4 2 -6 372.17 10.55 0
 -4 2 -5 310.67 9.41 0
 -4 2 -4 4.41 2.71 0
 -4 2 -3 353.67 9.79 0
 -4 2 -1 1.47 3.07 0
 -4 2 1 2.99 3.07 0
 -4 3 -10 464.32 14.86 0
 -4 3 -9 550.87 15.45 0
 -4 3 -4 855.48 16.75 0
 -4 3 -3 357.07 11.25 0
 -4 3 -2 18.59 3.92 0
 -4 3 0 1162.31 19.98 0
 -4 3 1 160.1 8.25 0
 -4 3 2 23.27 4.99 0
 -4 4 -10 19.12 5.39 0
 -4 4 -9 2.91 4.34 0
 -4 4 -8 60.36 6.97 0
 -4 4 -7 14.81 4.5 0
 -4 4 -6 52.55 6.03 0
 -4 5 -12 64.08 8.78 0
 -4 5 -11 391.11 16.21 0
 -4 5 -10 453.14 16.76 0
 -4 5 -9 158.07 10.85 0
 -4 5 -8 567.54 17.69 0
 -4 5 -7 106.27 8.73 0
 -4 5 -5 95.36 8.43 0
 -4 5 -4 346.9 13.54 0
 -4 5 -3 68.62 8.23 0
 -4 5 -2 125.67 8.68 0
 -4 5 -1 61.57 7.19 0
 -4 5 0 113.49 9.01 0
 -4 5 1 64.52 7.47 0
 -4 5 3 57.17 8.39 0
 -4 6 -12 77.21 10.33 0
 -4 6 -11 46.8 8.21 0
 -4 6 -10 -3.1 4.72 0
 -4 6 -9 44.23 7.45 0
 -4 6 -7 48.53 7.71 0
 -4 6 -6 4.43 5.1 0
 -4 6 -5 13.71 5.31 0
 -4 6 -4 72.95 8.93 0
 -4 6 -3 25.88 6.47 0
 -4 6 -2 23.92 5.67 0
 -4 6 -1 144.89 10.02 0
 -4 6 0 16.27 5.43 0
 -4 6 1 131.97 10.47 0
 -4 6 3 31.78 7.29 0
 -4 6 5 15.41 6.14 0
 -4 7 -13 28.12 9.01 0
 -4 7 -12 128.58 11.74 0
 -4 7 -10 118.88 11.53 0
 -4 7 -8 100.1 10.17 0
 -4 7 -7 235.81 14.15 0
 -4 7 -6 104.48 10.61 0
 -4 7 -4 2.81 5.45 0
 -4 7 -3 83.57 9.99 0
 -4 7 -2 268.77 13.75 0
 -4 7 0 16.19 6.04 0
 -4 7 5 156.34 12.83 0
 -4 8 -13 106.05 12.84 0
 -4 8 -12 220.12 15.93 0
 -4 8 -11 75.45 10.5 0
 -4 8 -10 53.85 9.48 0
 -4 8 -9 101.59 10.85 0
 -4 8 -8 7.8 6.78 0
 -4 8 -7 41.39 8.09 0
 -4 8 -6 9.57 6.34 0
 -4 8 -5 10.71 7.5 0
 -4 8 -4 133.7 11.27 0
 -4 8 -3 56.06 9.27 0
 -4 8 -2 118.43 10.92 0
 -4 8 -1 27.41 8.12 0
 -4 8 0 100.11 10.36 0
 -4 8 2 112.49 11.16 0
 -4 8 3 69.87 9.71 0
 -4 8 4 126.1 11.56 0
 -4 8 5 9.2 7.33 0
 -4 8 6 11.89 6.96 0
 -4 8 7 40.26 9.13 0
 -4 8 8 5.14 7.21 0
 -4 9 -13 55.99 11.11 0
 -4 9 -12 1.71 6.62 0
 -4 9 -11 125.62 12.73 0
 -4 9 -10 41.45 10.09 0
 -4 9 -9 129.39 13.41 0
 -4 9 -6 39 9.25 0
 -4 9 -4 20.34 7.8 0
 -4 9 -3 100.52 12.47 0
 -4 9 -2 9.73 6.4 0
 -4 9 -1 264.39 15.53 0
 -4 9 2 6.09 6.73 0
 -4 9 4 19.26 7.8 0
 -4 9 5 317.07 18.7 0
 -4 9 6 31.58 9.36 0
 -4 9 7 81.79 12.57 0
 -4 9 8 18.08 9 0
 -4 9 9 126.87 15.58 0
 -4 9 10 49.45 10.92 0
 -4 9 11 117.21 14.15 0
 -4 9 12 0.26 9.72 0
 -4 10 -10 23.5 9.31 0
 -4 10 -8 49.49 9.88 0
 -4 10 -7 164.16 13.97 0
 -4 10 -6 156.93 13.99 0
 -4 10 -4 37.97 9.49 0
 -4 10 -3 14.84 7.75 0
 -4 10 -2 35.61 8.97 0
 -4 10 -1 9.78 7.25 0
 -4 10 0 103.24 11.51 0
 -4 10 1 11.56 7.85 0
 -4 10 3 15.15 8.31 0
 -4 10 4 35.67 9.21 0
 -4 10 5 38.16 9.83 0
 -4 10 6 168.11 15.73 0
 -4 10 8 66.54 11.26 0
 -4 10 10 23.92 9.65 0
 -4 11 -6 125.67 15.07 0
 -4 11 -4 118.3 12.87 0
 -4 11 -3 28.68 9.2 0
 -4 11 -2 54.23 11.72 0
 -4 11 -1 33.18 9.09 0
 -4 11 0 10.47 7.81 0
 -4 11 2 42.04 10.6 0
 -4 11 3 28.04 8.87 0
 -4 11 5 277.5 18.75 0
 -4 11 6 130.02 14.17 0
 -3 -1 0 696.47 6.41 0
 -3 0 -4 1845.38 14.48 0
 -3 0 -3 0.95 1.09 0
 -3 0 -1 1420.7 11.78 0
 -3 0 0 0.32 1.46 0
 -3 1 -7 108.91 5.93 0
 -3 1 -6 900.5 13.99 0
 -3 1 -5 658.89 11.15 0
 -3 1 -4 54.54 3.82 0
 -3 1 -3 46.74 3.6 0
 -3 1 -2 1261.57 14.05 0
 -3 1 -1 821.66 11.61 0
 -3 1 0 715.29 11.5 0
 -3 2 -9 308.33 10.94 0
 -3 2 -8 229.54 9.2 0
 -3 2 -7 144.31 6.86 0
 -3 2 -4 176.62 6.99 0
 -3 2 -2 454.4 10.4 0
 -3 2 -1 869.75 14.3 0
 -3 3 -10 11.94 4.3 0
 -3 3 -7 238.01 9.57 0
 -3 3 -6 138.71 7.76 0
 -3 3 -5 1951.33 24.38 0
 -3 3 -4 378.57 10.96 0
 -3 3 -2 182.37 7.95 0
 -3 3 -1 28.73 4.13 0
 -3 3 0 27.27 4.05 0
 -3 4 -11 30.5 6.2 0
 -3 4 -10 153.47 10.09 0
 -3 4 -8 64.12 7.25 0
 -3 4 -2 291.17 10.64 0
 -3 4 -1 32.57 5.01 0
 -3 4 1 29.48 5.2 0
 -3 5 -12 50.5 8.25 0
 -3 5 -11 309.33 14.68 0
 -3 5 -9 345.17 14.06 0
 -3 5 -8 80.62 7.58 0
 -3 5 -7 118.94 8.93 0
 -3 5 -6 218.35 11.13 0
 -3 5 -5 149.32 9.36 0
 -3 6 -13 35.8 7.83 0
 -3 6 -11 490.99 18.87 0
 -3 6 -10 57.58 8.91 0
 -3 6 -7 2 4.38 0
 -3 6 -6 97.89 8.55 0
 -3 6 -5 247.01 12.3 0
 -3 6 -4 298.94 12.83 0
 -3 6 -3 59.64 7.34 0
 -3 6 -2 41.9 6.58 0
 -3 6 -1 342.47 13.69 0
 -3 6 1 351.02 14.31 0
 -3 6 2 41.11 6.98 0
 -3 6 3 46.25 7.65 0
 -3 6 4 300.92 13.99 0
 -3 7 -13 235.05 15.61 0
 -3 7 -10 63.01 9.63 0
 -3 7 -8 51.43 7.97 0
 -3 7 -7 538.69 18.9 0
 -3 7 -6 182 11.53 0
 -3 7 -4 24.61 6.06 0
 -3 7 -3 81.2 8.54 0
 -3 7 -2 214.06 12.49 0
 -3 7 -1 373.01 15.51 0
 -3 7 0 5.74 4.79 0
 -3 7 1 379.65 15.71 0
 -3 7 2 206.54 12.27 0
 -3 7 3 78.88 8.68 0
 -3 8 -11 124.85 12.81 0
 -3 8 -10 69.31 9.72 0
 -3 8 -9 73.31 10.49 0
 -3 8 -8 177.67 12.52 0
 -3 8 -7 35.73 7.86 0
 -3 8 -6 6.23 5.92 0
 -3 8 -4 24.65 6.69 0
 -3 8 -3 89.12 10.45 0
 -3 8 -1 7.97 5.61 0
 -3 8 1 5.51 5.45 0
 -3 8 2 106.53 10.14 0
 -3 8 3 75.62 9.03 0
 -3 8 4 24.72 7.1 0
 -3 8 5 115.82 11.41 0
 -3 8 6 4.32 5.59 0
 -3 8 8 181.06 14.22 0
 -3 9 -13 2.15 7.04 0
 -3 9 -11 79.02 11.36 0
 -3 9 -9 -0.6 6.15 0
 -3 9 -8 157.11 13.6 0
 -3 9 -7 193.11 14.31 0
 -3 9 -6 75.42 10.26 0
 -3 9 -5 270.94 15.98 0
 -3 9 -4 166.18 12.34 0
 -3 9 -3 -4.06 5.3 0
 -3 9 -2 23.75 7.06 0
 -3 9 -1 -6.39 4.93 0
 -3 9 0 79.4 9.87 0
 -3 9 1 1.71 5.1 0
 -3 9 2 26.46 7.39 0
 -3 9 3 3.03 6.23 0
 -3 9 5 287.66 16.62 0
 -3 9 8 140.6 14.19 0
 -3 9 9 4.18 8.14 0
 -3 9 10 9.69 8.37 0
 -3 9 11 88.48 13.15 0
 -3 10 -12 46.26 10.57 0
 -3 10 -11 25.23 8.55 0
 -3 10 -10 112.99 12.93 0
 -3 10 -9 71.44 11.02 0
 -3 10 -8 23.71 7.8 0
 -3 10 -7 15.31 7.9 0
 -3 10 -6 47.46 10.34 0
 -3 10 -5 32.34 8.65 0
 -3 10 -4 64.92 9.86 0
 -3 10 -3 163.89 13.24 0
 -3 10 -2 151.54 12.87 0
 -3 10 -1 54.11 9.29 0
 -3 10 0 97.61 11.01 0
 -3 10 1 61.83 10.32 0
 -3 10 2 140.37 13.83 0
 -3 10 3 174.72 13.96 0
 -3 10 4 71.36 12.02 0
 -3 10 5 21.02 8.06 0
 -3 10 6 42.66 9.42 0
 -3 10 7 16.84 7.92 0
 -3 10 8 31.25 9.31 0
 -3 10 9 67.18 12.13 0
 -3 10 10 106.23 13.76 0
 -3 10 11 41.96 11.75 0
 -3 10 12 43.44 11.25 0
 -3 11 -9 19.77 9.01 0
 -3 11 -8 11.33 7.99 0
 -3 11 -7 99.04 13.23 0
 -3 11 -6 29.77 9.42 0
 -3 11 -5 2.06 7.79 0
 -3 11 -4 35.1 10.74 0
 -3 11 -2 49.63 9.92 0
 -3 11 -1 127.83 12.52 0
 -3 11 0 149.93 14.42 0
 -3 11 2 31.72 9.35 0
 -3 11 3 10.28 7.39 0
 -3 11 4 27.29 9.25 0
 -3 11 5 13.2 9.37 0
 -3 11 6 36.31 10.93 0
 -3 11 7 113.44 14.23 0
 -3 11 8 13.48 8.42 0
 -3 11 9 14.29 8.66 0
 -3 12 -3 89.59 13.73 0
 -3 12 -2 4.52 7.29 0
 -3 12 1 99.67 13.98 0
 -3 12 3 116.84 14.25 0
 -3 12 4 23.55 8.94 0
 -2 -2 1 241.52 4.33 0
 -2 0 -4 984.94 10.49 0
 -2 0 -3 31.22 2.32 0
 -2 0 -2 1.49 1.02 0
 -2 0 -1 785.1 7.32 0
 -2 1 -6 1458.16 17.04 0
 -2 1 -5 403.75 8.54 0
 -2 1 -3 1765.31 15.47 0
 -2 1 -2 470.29 7.98 0
 -2 1 -1 459.76 7.75 0
 -2 2 -8 295.88 10.12 0
 -2 2 -6 47.44 4.33 0
 -2 2 -5 120.85 6.11 0
 -2 2 -4 125.91 5.69 0
 -2 2 -2 1027.89 14.14 0
 -2 2 -1 235.85 7.01 0
 -2 2 0 5059.72 31.93 0
 -2 3 -8 310.55 10.81 0
 -2 3 -7 583.02 13.77 0
 -2 3 -6 220.79 8.5 0
 -2 3 -4 1232.33 17.92 0
 -2 3 -3 1426.15 18.93 0
 -2 3 -1 1149.25 16.96 0
 -2 3 0 1367.33 18.85 0
 -2 4 -10 91.2 7.89 0
 -2 4 -9 254.7 11.46 0
 -2 4 -6 697.71 16.18 0
 -2 4 -4 265.74 9.62 0
 -2 4 -1 444.19 12.11 0
 -2 4 0 61.16 5.76 0
 -2 4 1 431.79 12.36 0
 -2 5 -12 191.36 12.17 0
 -2 5 -11 38.01 7.01 0
 -2 5 -10 337.3 13.92 0
 -2 5 -8 203.6 10.48 0
 -2 5 -7 55.94 6.98 0
 -2 6 -11 66.99 8.95 0
 -2 6 -10 314.33 14.14 0
 -2 6 -9 417.54 15.92 0
 -2 6 -7 113.98 9.02 0
 -2 6 -6 199.72 10.75 0
 -2 6 -5 92.94 7.7 0
 -2 6 -4 155.57 9.66 0
 -2 6 -3 109.65 8.16 0
 -2 7 -13 111.23 11.51 0
 -2 7 -12 98.34 10.2 0
 -2 7 -10 17.27 6.81 0
 -2 7 -9 70.49 8.8 0
 -2 7 -8 64.26 7.96 0
 -2 7 -7 143.45 10.09 0
 -2 7 -5 424.4 15.94 0
 -2 7 -4 149.15 10.48 0
 -2 7 -2 123.02 9.06 0
 -2 7 -1 326.41 13.84 0
 -2 7 0 92.11 8.89 0
 -2 7 3 256.69 12.77 0
 -2 7 4 156.97 10.94 0
 -2 8 -13 150.63 14.11 0
 -2 8 -12 160.94 13.14 0
 -2 8 -11 6.9 6.1 0
 -2 8 -10 36.26 7.7 0
 -2 8 -9 27.42 7.89 0
 -2 8 -6 144.74 11.15 0
 -2 8 -4 104.67 9.07 0
 -2 8 -3 151.5 10.6 0
 -2 8 -2 146.96 10.29 0
 -2 8 -1 366.19 15.97 0
 -2 8 0 51.9 7.81 0
 -2 8 1 353.24 15.37 0
 -2 8 2 148.59 11.49 0
 -2 8 3 130.67 10.59 0
 -2 8 4 112.04 10.14 0
 -2 8 5 50.17 7.97 0
 -2 8 6 149.44 12.58 0
 -2 8 7 41.5 8.03 0
 -2 9 -13 56.75 10.33 0
 -2 9 -11 16.86 7.23 0
 -2 9 -10 131.98 12.67 0
 -2 9 -8 98.81 11.44 0
 -2 9 -7 22.55 7.4 0
 -2 9 -6 36.41 7.85 0
 -2 9 -4 74.66 10.11 0
 -2 9 -3 12.72 5.98 0
 -2 9 -2 35.47 7.37 0
 -2 9 -1 71.23 9.58 0
 -2 9 0 33.53 7.32 0
 -2 9 1 65.97 9.11 0
 -2 9 2 36.82 8.18 0
 -2 9 3 7.49 6.12 0
 -2 9 5 290.19 15.69 0
 -2 9 6 37.34 8.98 0
 -2 9 7 14.02 7.21 0
 -2 9 8 103.24 12.86 0
 -2 9 9 17.5 8.02 0
 -2 9 10 130.9 14.92 0
 -2 10 -13 5.57 8.56 0
 -2 10 -12 23.48 9.33 0
 -2 10 -11 110.21 13.68 0
 -2 10 -10 20.88 7.98 0
 -2 10 -9 51.4 9.47 0
 -2 10 -8 29.74 8.52 0
 -2 10 -7 111.9 13.12 0
 -2 10 -6 25.59 7.8 0
 -2 10 -5 36.5 8.37 0
 -2 10 -4 22.62 7.23 0
 -2 10 -3 66.09 9.98 0
 -2 10 -2 195.69 14.33 0
 -2 10 -1 81.53 11.03 0
 -2 10 0 -3.69 5.52 0
 -2 10 1 82.64 10.96 0
 -2 10 3 78.4 10.38 0
 -2 10 4 13.4 7.2 0
 -2 10 5 27.17 7.85 0
 -2 10 6 17.41 8.63 0
 -2 10 7 86.9 12.2 0
 -2 10 8 22.74 8.55 0
 -2 10 9 44.46 10.42 0
 -2 10 10 19.37 8.38 0
 -2 10 12 34.54 10.45 0
 -2 10 13 15.62 9.31 0
 -2 10 14 60.77 12.59 0
 -2 11 -11 53.34 10.66 0
 -2 11 -10 93.09 12.89 0
 -2 11 -9 12.83 8.02 0
 -2 11 -8 126.79 13.3 0
 -2 11 -7 33.74 9.32 0
 -2 11 -6 10.12 7.1 0
 -2 11 -5 40.33 9.43 0
 -2 11 -4 57.54 10.59 0
 -2 11 -3 42.96 9.61 0
 -2 11 -1 30.19 9.51 0
 -2 11 1 36.66 8.86 0
 -2 11 2 25.33 9.18 0
 -2 11 6 2.77 6.9 0
 -2 11 7 29.55 9.22 0
 -2 11 10 87.16 13.13 0
 -2 11 11 48.03 10.26 0
 -2 12 -7 36.24 10.69 0
 -2 12 -6 12.45 8.48 0
 -2 12 -5 19.35 8.61 0
 -2 12 -3 10.92 7.61 0
 -2 12 -1 13.41 7.68 0
 -2 12 0 72.91 11.84 0
 -2 12 1 10.26 7.48 0
 -2 12 2 77.1 12.03 0
 -2 12 3 -0.57 6.91 0
 -2 12 4 68.37 11.11 0
 -2 12 5 27.71 9.06 0
 -2 12 6 17.54 8.24 0
 -2 12 7 20.92 8.96 0
 -1 -2 0 152.83 3.53 0
 -1 1 -5 1866.11 17.72 0
 -1 1 -4 443.11 8.25 0
 -1 1 -3 217.87 5.46 0
 -1 1 -2 1692.98 12.7 0
 -1 1 -1 2656.01 15.44 0
 -1 2 -7 1067.42 16.82 0
 -1 2 -5 720.91 12.27 0
 -1 2 -4 2717.99 22.11 0
 -1 2 -3 1441.83 15.25 0
 -1 2 -2 3959.38 24.14 0
 -1 2 -1 6929.01 31.81 0
 -1 2 0 142.68 5.49 0
 -1 3 -7 195.72 8.18 0
 -1 3 -6 297.25 9.47 0
 -1 3 -3 193.8 7.21 0
 -1 3 -2 217.42 7.43 0
 -1 3 -1 58.89 4.96 0
 -1 3 0 3.43 2.68 0
 -1 4 -10 10.53 4.13 0
 -1 4 -3 1694.16 21.71 0
 -1 4 -2 1363.79 19.25 0
 -1 4 -1 325.03 9.73 0
 -1 5 -11 198.2 11.22 0
 -1 5 -10 82.42 7.7 0
 -1 5 -9 527.83 16.17 0
 -1 5 -8 1269.01 23.87 0
 -1 6 -12 26.48 6.43 0
 -1 6 -10 2.45 5.08 0
 -1 6 -9 127.82 9.49 0
 -1 6 -8 123.84 9.49 0
 -1 6 -7 147.18 8.99 0
 -1 6 -6 265.74 11.89 0
 -1 7 -12 40.54 7.88 0
 -1 7 -11 408.46 17.17 0
 -1 7 -10 187.12 11.83 0
 -1 7 -9 162.48 11.74 0
 -1 7 -7 335.54 14.62 0
 -1 7 -6 61.85 8.2 0
 -1 7 -5 10.45 5 0
 -1 7 -3 220.12 11.06 0
 -1 7 -2 102.53 7.95 0
 -1 7 -1 17.7 5.15 0
 -1 7 0 132.5 8.87 0
 -1 7 1 26.01 5.9 0
 -1 7 2 93.94 8.35 0
 -1 7 3 201.62 11.34 0
 -1 7 4 14.64 5.83 0
 -1 7 5 15.42 5.21 0
 -1 8 -11 213.87 13.74 0
 -1 8 -10 313.42 16.17 0
 -1 8 -9 159.66 11.64 0
 -1 8 -8 39.63 8.04 0
 -1 8 -7 15.35 5.83 0
 -1 8 -6 72.44 8.36 0
 -1 8 -5 384.5 15.46 0
 -1 8 -4 2.29 4.3 0
 -1 8 -3 171.86 10.7 0
 -1 8 -2 224.69 11.95 0
 -1 8 -1 270.06 12.81 0
 -1 8 0 302.7 13.91 0
 -1 8 1 273.25 13.56 0
 -1 8 2 211.77 12.18 0
 -1 8 4 2.19 4.44 0
 -1 8 5 388.74 16.42 0
 -1 8 7 8.38 5.82 0
 -1 9 -12 100.44 12.08 0
 -1 9 -11 3.02 6.27 0
 -1 9 -9 45.01 8.75 0
 -1 9 -8 53.85 8.72 0
 -1 9 -7 262.06 15.21 0
 -1 9 -6 40.81 7.7 0
 -1 9 -5 240.1 14.18 0
 -1 9 -4 228.45 13.18 0
 -1 9 -3 75.79 9.39 0
 -1 9 -2 101.03 9.85 0
 -1 9 0 218.64 13.11 0
 -1 9 1 84.77 8.99 0
 -1 9 4 216.56 13.7 0
 -1 9 5 229.53 13.71 0
 -1 9 7 286.53 16.1 0
 -1 9 8 46.4 9.26 0
 -1 9 9 41.47 9.03 0
 -1 10 -11 -3.12 6.63 0
 -1 10 -9 23.6 7.68 0
 -1 10 -8 254.88 15.49 0
 -1 10 -7 101.42 11.58 0
 -1 10 -6 10.1 7.36 0
 -1 10 -5 20.58 7.08 0
 -1 10 -4 25.72 7.07 0
 -1 10 -3 63.49 9.35 0
 -1 10 -2 133.14 11.94 0
 -1 10 -1 8.1 5.87 0
 -1 10 0 7.88 5.7 0
 -1 10 1 7.49 5.7 0
 -1 10 2 158.15 12.11 0
 -1 10 3 81.8 10.07 0
 -1 10 4 20.17 7.27 0
 -1 10 5 17.67 6.7 0
 -1 10 6 13.87 7.07 0
 -1 10 7 99.39 10.78 0
 -1 10 8 236.46 14.95 0
 -1 10 9 18.36 7.53 0
 -1 10 10 163.46 14.86 0
 -1 10 11 7.24 7.4 0
 -1 10 13 56.88 11.18 0
 -1 10 14 254.68 18.4 0
 -1 10 15 -0.7 7.75 0
 -1 11 -12 52.29 11.36 0
 -1 11 -11 17.7 8.4 0
 -1 11 -10 12.46 8.35 0
 -1 11 -9 218.78 16.21 0
 -1 11 -8 71.43 11.15 0
 -1 11 -7 40.6 9.36 0
 -1 11 -6 194.26 14.97 0
 -1 11 -5 22.14 8.41 0
 -1 11 -4 173.46 14.22 0
 -1 11 -3 -5.6 5.75 0
 -1 11 -2 38.23 9.08 0
 -1 11 -1 48.1 9.37 0
 -1 11 0 9.15 7.68 0
 -1 11 1 53.02 9.45 0
 -1 11 3 5.59 7.21 0
 -1 11 4 174.86 13.5 0
 -1 11 5 21.51 8.76 0
 -1 11 6 178.8 14.52 0
 -1 11 7 45.99 9.44 0
 -1 11 8 76.23 11.23 0
 -1 11 10 6.61 7.01 0
 -1 11 11 3.85 8.56 0
 -1 12 -8 68.4 11.2 0
 -1 12 -7 3.59 7.56 0
 -1 12 -6 14.37 8.93 0
 -1 12 -4 45.21 9.85 0
 -1 12 -3 199.06 15.38 0
 -1 12 -2 62.27 11.03 0
 -1 12 -1 9.6 7.19 0
 -1 12 0 21.4 8.09 0
 -1 12 1 16.41 8.42 0
 -1 12 2 83.11 11.27 0
 -1 12 3 214.73 15.43 0
 -1 12 5 80.29 11.6 0
 -1 12 6 11.43 7.5 0
 -1 12 7 5.9 7.26 0
 -1 12 8 71.21 12.11 0
 -1 12 9 13.7 7.6 0
 -1 13 -2 48.97 9.99 0
 -1 13 -1 30.98 9.74 0
 -1 13 0 46.86 9.32 0
 -1 13 1 27.57 9.68 0
 -1 13 2 44.31 10.24 0
 -1 13 3 8.39 7.2 0
 0 -1 0 -1.53 0.98 0
 0 1 -3 2005.03 14.48 0
 0 1 -2 624.34 7.14 0
 0 1 -1 2304.78 11.49 0
 0 1 0 0.02 1 0
 0 2 -6 3167.39 26.52 0
 0 2 -5 586.94 11.03 0
 0 2 -4 7224.18 34 0
 0 2 -3 5066.64 26.71 0
 0 2 -2 225.64 5.7 0
 0 2 -1 5693.33 24.69 0
 0 2 0 9748.53 32.05 0
 0 3 -6 55.15 4.59 0
 0 3 -5 4.18 2.51 0
 0 3 -3 3573.99 25.76 0
 0 3 -2 685.12 11.06 0
 0 3 -1 115.56 4.94 0
 0 3 0 -0.98 2.19 0
 0 3 1 121.11 5.64 0
 0 4 -7 1283.22 20.87 0
 0 4 -4 388.81 10.36 0
 0 4 -3 3948.66 30.78 0
 0 4 -2 1627.58 19.32 0
 0 4 -1 2117.58 21.84 0
 0 4 0 265.98 8.41 0
 0 4 1 2096.24 22.14 0
 0 5 -10 9.72 4.92 0
 0 5 -9 3.6 3.82 0
 0 5 -5 365.33 11.8 0
 0 5 -4 119.97 6.58 0
 0 6 -10 72.88 7.37 0
 0 6 -9 19.28 5.38 0
 0 6 -8 315.4 12.84 0
 0 6 -7 4.37 3.65 0
 0 6 -2 1.04 3.13 0
 0 6 -1 1367.97 21.91 0
 0 6 0 700.02 16.06 0
 0 6 1 1363.68 22.02 0
 0 6 2 2.47 3.22 0
 0 6 3 515.62 14.51 0
 0 7 -11 281.76 14.39 0
 0 7 -10 38.43 7.05 0
 0 7 -9 36.2 6.6 0
 0 7 -8 6.29 4.55 0
 0 7 -7 155.31 9.81 0
 0 7 -6 22.6 5.43 0
 0 7 -5 672.79 18.2 0
 0 7 -4 2.89 3.76 0
 0 8 -11 14.7 6.5 0
 0 8 -10 1.41 6.14 0
 0 8 -8 168.69 11.73 0
 0 8 -7 170.52 10.78 0
 0 8 -6 328.06 14.25 0
 0 8 -5 119.25 9.62 0
 0 8 -4 441.93 15.89 0
 0 8 -3 19.67 5.17 0
 0 8 -1 338.72 13.39 0
 0 8 0 10.89 4.65 0
 0 8 1 365.04 14.2 0
 0 8 2 378.74 14.7 0
 0 8 3 22.29 5.35 0
 0 8 4 415.73 15.46 0
 0 8 5 108.54 8.75 0
 0 8 7 160.88 11.5 0
 0 8 8 167.03 11.13 0
 0 9 -11 138.21 13.04 0
 0 9 -10 230.82 15.13 0
 0 9 -8 49.58 8.18 0
 0 9 -7 47.27 8.4 0
 0 9 -6 40.56 7.26 0
 0 9 -5 79.73 9.44 0
 0 9 -4 -1.88 4.28 0
 0 9 -3 41.18 6.98 0
 0 9 -1 133.29 10.22 0
 0 9 0 -2.79 4.02 0
 0 9 1 117.77 10.09 0
 0 9 2 67.39 7.93 0
 0 9 4 3.08 5.08 0
 0 9 5 84.97 9.2 0
 0 9 6 26.89 6.8 0
 0 9 7 41.96 7.8 0
 0 9 8 45.72 8 0
 0 9 9 377.5 17.15 0
 0 9 10 231.61 14.17 0
 0 9 11 138.45 12.49 0
 0 10 -11 -8.58 5.32 0
 0 10 -9 41.72 8.68 0
 0 10 -8 25.38 8.32 0
 0 10 -7 187.37 13.89 0
 0 10 -5 11.16 5.89 0
 0 10 -4 92.33 11.09 0
 0 10 -2 998.98 25.64 0
 0 10 -1 38.7 7.55 0
 0 10 0 97.66 10.15 0
 0 10 1 33.2 6.98 0
 0 10 2 988.87 25.31 0
 0 10 5 14.93 6.35 0
 0 10 6 32.45 7.38 0
 0 10 7 196.48 13.5 0
 0 10 8 30.28 7.06 0
 0 10 9 39.24 8.06 0
 0 10 10 200.58 13.97 0
 0 10 11 -4.91 6.35 0
 0 10 13 27.24 7.87 0
 0 10 14 81.39 11.13 0
 0 10 15 1.14 6.19 0
 0 11 -11 2.24 7.17 0
 0 11 -10 14.34 7.47 0
 0 11 -9 39.14 8.99 0
 0 11 -8 100.97 12.32 0
 0 11 -7 37.46 8.57 0
 0 11 -6 158.93 12.7 0
 0 11 -4 60.27 9.14 0
 0 11 -3 349.05 17.22 0
 0 11 -2 0.46 5.68 0
 0 11 -1 11.65 6.18 0
 0 11 0 -1.59 5.29 0
 0 11 1 5.67 5.81 0
 0 11 2 5.77 5.68 0
 0 11 3 364.96 17.5 0
 0 11 5 6.15 6.21 0
 0 11 6 175.14 12.66 0
 0 11 7 38.18 8.6 0
 0 11 8 108.75 11.86 0
 0 11 9 36 8.08 0
 0 11 10 24.11 7.67 0
 0 11 11 -0.95 6.99 0
 0 11 12 -6.63 5.14 0
 0 12 -9 321.18 18.89 0
 0 12 -8 16.68 8.22 0
 0 12 -7 2.95 6.36 0
 0 12 -6 2.1 5.95 0
 0 12 -5 6.65 6.92 0
 0 12 -4 14.96 7.93 0
 0 12 -3 14.93 7.68 0
 0 12 -2 96.5 11.77 0
 0 12 -1 161.8 13.19 0
 0 12 0 101.99 11.94 0
 0 12 2 87.75 11.47 0
 0 12 3 15.81 6.69 0
 0 12 4 17.61 7.79 0
 0 12 5 20.23 7.51 0
 0 12 6 -1.03 5.63 0
 0 12 7 9.07 6.39 0
 0 12 8 18.81 7.16 0
 0 12 9 315.14 17.24 0
 0 13 -3 4.05 6.12 0
 0 13 -1 38.02 8.79 0
 0 13 0 -2.32 5.77 0
 0 13 1 34.02 8.22 0
 0 13 2 224.54 15.56 0
 0 13 3 3.63 6.1 0
 0 13 4 1.89 5.94 0
 1 2 -3 1465.44 13.94 0
 1 2 -2 4061.98 20.36 0
 1 2 -1 6701.45 23.28 0
 1 2 0 146.28 3.4 0
 1 2 1 6645.39 21.11 0
 1 3 -5 188.54 6.89 0
 1 3 -4 782.45 12.6 0
 1 3 -2 231.45 6.14 0
 1 3 -1 48.76 3.19 0
 1 3 0 5.52 1.89 0
 1 3 1 51.56 3.07 0
 1 4 -6 458.77 11.86 0
 1 4 -3 1673.73 19.14 0
 1 4 -2 1426.1 17.01 0
 1 4 0 237.76 6.77 0
 1 4 1 318.79 7.89 0
 1 4 2 1390.6 16.36 0
 1 5 -6 183.79 8.56 0
 1 5 -4 616.87 13.52 0
 1 6 -9 130.58 9.42 0
 1 6 -8 122.38 8.59 0
 1 6 -4 586.21 14.47 0
 1 6 -2 88.17 6.35 0
 1 6 -1 198.33 8.13 0
 1 6 1 201.47 8.12 0
 1 6 2 85.47 5.71 0
 1 6 3 151.22 7.54 0
 1 6 4 577.02 14.15 0
 1 6 5 1069.86 19.79 0
 1 7 -9 154.38 10.58 0
 1 7 -8 114.95 9.28 0
 1 7 -7 351.81 13.96 0
 1 7 -6 58.6 6.99 0
 1 7 -5 13.94 4.51 0
 1 7 0 124.17 7.77 0
 1 7 1 19.63 4.59 0
 1 7 2 89.01 7.22 0
 1 8 -10 290.52 14.55 0
 1 8 -9 147.78 11.24 0
 1 8 -8 52.57 7.94 0
 1 8 -7 9.44 4.79 0
 1 8 -6 78.12 8.59 0
 1 8 -5 393.35 14.87 0
 1 8 -4 3.41 4.06 0
 1 8 -3 167.02 10.07 0
 1 8 -1 259.95 11.48 0
 1 8 0 297.89 11.69 0
 1 8 1 271.89 11.51 0
 1 8 2 210.01 10.46 0
 1 8 3 185.53 9.91 0
 1 8 4 -0.24 3.46 0
 1 8 5 390.56 14.02 0
 1 8 6 70.79 6.91 0
 1 8 7 10.09 5.21 0
 1 8 8 45.16 7.29 0
 1 8 9 145.69 10.18 0
 1 9 -10 17.85 7.51 0
 1 9 -9 41.47 8.44 0
 1 9 -8 53.18 8.55 0
 1 9 -7 282.97 13.91 0
 1 9 -6 31.82 6.67 0
 1 9 -5 239.17 12.57 0
 1 9 -4 244 12.72 0
 1 9 -3 72.91 7.62 0
 1 9 -2 76.54 8.25 0
 1 9 -1 74.76 8.1 0
 1 9 0 192.05 10.8 0
 1 9 1 71.66 7.31 0
 1 9 2 88.03 8.31 0
 1 9 3 91.85 8.26 0
 1 9 4 231.02 11.78 0
 1 9 5 245.03 11.95 0
 1 9 6 39.17 6.47 0
 1 9 7 284.28 13.26 0
 1 9 9 30.35 6.88 0
 1 9 10 12.84 5.56 0
 1 10 -10 168.87 13.2 0
 1 10 -9 31.61 7.76 0
 1 10 -8 235.2 14.42 0
 1 10 -7 108.46 10.9 0
 1 10 -6 18.4 6.85 0
 1 10 -5 20.43 6.76 0
 1 10 -4 33.54 6.74 0
 1 10 -3 72.93 8.8 0
 1 10 -2 128.28 10.56 0
 1 10 -1 5.46 4.91 0
 1 10 0 0.65 4.29 0
 1 10 1 10.65 5.73 0
 1 10 2 121.27 9.81 0
 1 10 3 73.55 8.07 0
 1 10 4 28.02 5.94 0
 1 10 5 18.73 5.37 0
 1 10 6 11.78 5.03 0
 1 10 7 106.7 9.34 0
 1 11 -9 219.35 15.06 0
 1 11 -8 79.54 10.37 0
 1 11 -7 46.23 8.79 0
 1 11 -6 169.28 12.62 0
 1 11 -5 26.08 7.38 0
 1 11 -4 171.22 12.5 0
 1 11 -3 6.37 5.52 0
 1 11 -2 32.31 7.02 0
 1 11 -1 55.77 8.16 0
 1 11 0 10.63 5.29 0
 1 11 1 49.64 7.81 0
 1 11 2 24.93 6.58 0
 1 11 3 2.95 4.53 0
 1 12 -9 14.66 7.23 0
 1 12 -8 72.82 11.03 0
 1 12 -7 -2.11 5.59 0
 1 12 -6 14.77 6.67 0
 1 12 -5 85.9 10.92 0
 1 12 -4 48.11 9.25 0
 1 12 -3 219.7 13.83 0
 1 12 -2 84.55 9.6 0
 1 12 0 26.47 6.63 0
 2 3 -1 1146.11 10.8 0
 2 3 0 1349.42 10.47 0
 2 3 1 1144.98 8.79 0
 2 3 2 65.31 2.41 0
 2 3 3 1428.36 11.26 0
 2 4 -1 445.72 8.27 0
 2 4 0 62.54 3.29 0
 2 4 1 436.79 7.42 0
 2 4 2 386.31 7.06 0
 2 4 3 1635.61 14.92 0
 2 4 4 251.81 6.54 0
 2 5 -5 346.13 10.37 0
 2 5 -4 657.21 13.55 0
 2 5 -3 760.57 13.55 0
 2 6 -5 73.94 6.38 0
 2 6 -4 151.84 7.5 0
 2 6 -3 104.91 6.49 0
 2 6 -2 214.1 7.98 0
 2 6 -1 994.15 16.15 0
 2 6 0 199.03 7.39 0
 2 6 2 201.28 7.2 0
 2 6 3 98.06 5.59 0
 2 6 4 136.05 6.37 0
 2 6 5 86.49 5.58 0
 2 6 6 205.06 8.22 0
 2 7 -7 148.04 9.26 0
 2 7 -6 427.92 13.82 0
 2 7 -2 122.72 7.18 0
 2 7 -1 309.15 10.26 0
 2 7 0 109.31 6.38 0
 2 7 1 322.18 9.92 0
 2 7 2 121.38 6.61 0
 2 7 3 251.43 9.11 0
 2 7 4 140.59 7.15 0
 2 7 6 428.9 12.36 0
 2 7 7 141.72 7.73 0
 2 8 -7 41.76 6.49 0
 2 8 -6 136.23 9.25 0
 2 8 -5 59.98 7.32 0
 2 8 -4 115.96 8.14 0
 2 8 -3 148.72 8.31 0
 2 9 -6 34.41 6.71 0
 2 9 -5 288.08 13.1 0
 2 9 -4 77.85 7.14 0
 2 9 -3 7.7 4.37 0
 2 9 -2 27.86 5 0
 2 9 -1 70.97 6.84 0
 2 9 1 56.93 5.68 0
 2 10 -7 113.01 9.8 0
 2 10 -6 26.07 6.1 0
 2 10 -5 41.68 6.82 0
 2 10 -4 12.95 4.49 0
 3 1 4 59.28 2.27 0
 3 4 5 697.74 7.2 0
 3 4 6 146.23 4.28 0
 3 5 1 314.89 5.97 0
 3 5 3 218.83 4.65 0
 3 5 4 467.1 6.8 0
 3 6 -2 50.03 3.91 0
 3 6 -1 347.37 8.52 0
 3 6 0 141.16 5.28 0
 3 6 1 348.67 7.62 0
 3 6 2 53.07 3.12 0
 3 7 -3 77.74 5.29 0
 -5 -5 -4 59.34 5.7 0
 -5 -5 -3 177.75 8.7 0
 -5 -5 -2 52.08 5.04 0
 -5 -4 -4 46.72 5.73 0
 -5 -4 -3 37.76 5.46 0
 -5 -4 -1 452.76 13.21 0
 -5 -3 -4 466.48 14.27 0
 -5 -3 -3 225.99 10.32 0
 -5 -3 -2 298.04 11.34 0
 -5 -3 -1 192.16 9.2 0
 -5 -3 0 98.2 7.48 0
 -5 -2 -3 490.89 14.51 0
 -5 -2 -2 174.4 8.94 0
 -5 -2 -1 148.08 8.4 0
 -5 -2 0 37.39 5.9 0
 -5 -2 1 142.5 8.26 0
 -5 -1 -3 49.01 6 0
 -5 -1 -1 99.79 7.1 0
 -5 -1 0 62.76 7.32 0
 -5 -1 1 98.57 7.27 0
 -5 0 -2 484.33 14.6 0
 -5 0 -1 862.5 19.07 0
 -5 0 0 0.17 3.27 0
 -5 0 1 863.79 19.5 0
 -4 -6 -6 5.16 2.48 0
 -4 -6 -5 12.15 2.71 0
 -4 -6 -4 64.6 4.62 0
 -4 -6 -3 31.98 3.73 0
 -4 -5 -9 156.91 8.56 0
 -4 -5 -8 551.43 14.16 0
 -4 -5 -7 94.49 6.44 0
 -4 -5 -6 381.12 11.2 0
 -4 -5 -5 84.25 5.79 0
 -4 -5 -4 366.09 10.43 0
 -4 -5 -2 125.73 6.48 0
 -4 -4 -7 21.01 4.33 0
 -4 -4 -6 56.47 5.68 0
 -4 -4 -5 19.17 3.6 0
 -4 -4 -3 56.75 5.16 0
 -4 -4 -2 168.56 7.23 0
 -4 -4 -1 288.13 9.28 0
 -4 -4 0 13.76 3.42 0
 -4 -3 -6 206.56 9.53 0
 -4 -3 -5 58.55 5.79 0
 -4 -3 -3 360.01 10.74 0
 -4 -3 -1 170.94 7.56 0
 -4 -3 0 1232.05 19.37 0
 -4 -2 -6 371.36 12.26 0
 -4 -2 -4 3.61 2.97 0
 -4 -2 -3 345.99 10.79 0
 -4 -2 -2 268.43 9.53 0
 -4 -2 -1 1.05 2.68 0
 -4 -2 0 661.42 14.35 0
 -4 -2 1 3.15 3.72 0
 -4 -1 -5 114.96 7.4 0
 -4 -1 -4 591.67 14.42 0
 -4 -1 -3 2291.05 27.59 0
 -4 -1 -2 417.91 12.14 0
 -4 -1 -1 44.71 4.79 0
 -4 -1 0 42.33 4.95 0
 -4 -1 1 49.27 4.95 0
 -4 -1 2 412.81 12.21 0
 -4 0 -5 265.45 10.51 0
 -4 0 -4 860.27 17.68 0
 -4 0 -2 6.91 3.8 0
 -4 0 -1 116.54 7.39 0
 -4 0 0 18.97 3.93 0
 -4 0 2 10.21 3.32 0
 -4 1 -5 126.04 8.13 0
 -4 1 -4 603.68 15.13 0
 -4 1 2 428.06 12.38 0
 -4 2 -5 318.59 11.76 0
 -4 2 -4 5.88 3.3 0
 -4 2 -3 341.05 11.52 0
 -4 2 -2 257.99 9.89 0
 -4 2 -1 1.41 2.86 0
 -4 2 0 659.75 15.13 0
 -4 2 1 2.66 3.15 0
 -4 3 -6 199.83 10.68 0
 -4 3 -5 44.45 5.66 0
 -4 3 -4 860.16 18.51 0
 -4 3 -3 365.17 11.87 0
 -4 3 -2 16.44 4.16 0
 -4 3 0 1174.95 20.24 0
 -4 3 1 156.55 8.45 0
 -4 3 2 23.52 5.07 0
 -4 4 -5 22.89 4.81 0
 -4 4 -4 94.78 6.78 0
 -4 4 -3 60.15 5.53 0
 -4 4 0 11.27 3.75 0
 -4 5 -4 360.11 12.48 0
 -4 5 -3 70.93 6.75 0
 -4 5 -2 135.46 7.73 0
 -4 5 1 60.09 6.01 0
 -4 6 -3 28.77 4.94 0
 -4 6 -2 20.68 4.1 0
 -4 6 -1 137.83 8.32 0
 -4 6 0 17.59 4.04 0
 -4 7 -1 216.96 9.55 0
 -3 -6 -7 2.07 2.02 0
 -3 -6 -6 88.15 4.79 0
 -3 -6 -5 236.57 6.95 0
 -3 -6 -4 292.64 7.21 0
 -3 -6 -3 52.78 3.37 0
 -3 -5 -6 220.69 7.69 0
 -3 -5 -5 151.84 6.22 0
 -3 -5 -4 459.63 9.86 0
 -3 -5 -3 212.35 6.55 0
 -3 -5 -2 771.25 11.93 0
 -3 -4 -5 716.53 13.64 0
 -3 -4 -3 60.53 4.1 0
 -3 -4 -2 289.34 7.93 0
 -3 -4 -1 28.45 3.52 0
 -3 -4 0 69.04 4.47 0
 -3 -3 -4 404.55 10.26 0
 -3 -3 -3 626.21 12.1 0
 -3 -3 -2 167.05 6.46 0
 -3 -3 -1 29.8 3.11 0
 -3 -3 0 29.29 3.57 0
 -3 -2 -3 507.55 11.31 0
 -3 -2 -2 484.13 10.65 0
 -3 -2 -1 881.16 14.13 0
 -3 -2 0 342.93 8.83 0
 -3 -2 1 867.4 14.21 0
 -3 -1 -2 1311.99 17.9 0
 -3 -1 -1 835.25 13.94 0
 -3 -1 0 739.03 13.28 0
 -3 -1 1 834.47 13.99 0
 -3 -1 2 1297.08 17.87 0
 -3 0 -3 2.27 2.32 0
 -3 0 -2 1068.94 16.38 0
 -3 0 -1 1467.23 18.87 0
 -3 0 0 0.06 2.55 0
 -3 0 1 1485.28 18.81 0
 -3 0 2 1066.14 16.31 0
 -3 1 -3 46.84 4.43 0
 -3 1 -1 846.5 14.82 0
 -3 1 0 692.67 13.11 0
 -3 1 2 1292.48 18.25 0
 -3 2 -2 455.56 11.15 0
 -3 2 0 335.94 9.39 0
 -3 2 1 902.18 15.19 0
 -3 2 2 482.37 11.47 0
 -3 3 -2 178.22 7.36 0
 -3 3 -1 23.71 3.59 0
 -3 3 0 28.21 3.81 0
 -3 3 1 23.63 3.78 0
 -3 3 2 177.51 7.23 0
 -3 4 -4 199.4 8.56 0
 -3 4 -3 57.52 5.4 0
 -3 4 -2 293.94 9.43 0
 -3 4 -1 25.24 3.84 0
 -3 4 0 71.16 5.51 0
 -3 5 -5 158.25 7.96 0
 -3 5 -3 211.73 8.67 0
 -3 5 -2 782.3 15.06 0
 -3 5 -1 314.86 9.59 0
 -3 5 0 151.81 7.25 0
 -3 5 1 325.47 9.76 0
 -3 6 -6 89.21 6.98 0
 -3 6 -5 247.24 9.61 0
 -3 6 -3 61.07 5.43 0
 -3 6 -2 41.19 4.79 0
 -3 6 -1 354.99 10.16 0
 -3 6 0 140.33 6.96 0
 -3 7 -7 507.18 14.23 0
 -3 7 -6 161.03 8.16 0
 -3 7 -5 27.16 4.34 0
 -3 7 -4 26.21 4.01 0
 -3 7 -3 78.73 5.53 0
 -3 7 -2 203.66 8.05 0
 -3 7 -1 365.41 10.36 0
 -2 -7 -6 402.73 6.16 0
 -2 -6 -5 75.57 3.34 0
 -2 -6 -4 138.75 3.75 0
 -2 -5 -3 759.02 9.39 0
 -2 -5 -2 242.16 5.02 0
 -2 -4 -3 1638.64 15.14 0
 -2 -4 -1 441.39 7.27 0
 -2 -3 -2 63.29 3.52 0
 -2 -3 -1 1193.93 12.48 0
 -2 -3 0 1382.48 13.45 0
 -2 -2 -2 1080.63 13.35 0
 -2 -2 -1 236.14 6.02 0
 -2 -2 0 4856.03 25.75 0
 -2 -2 1 245.58 6.47 0
 -2 -1 -1 454.82 8.51 0
 -2 -1 0 4.98 1.89 0
 -2 0 -1 808.59 11.46 0
 -2 0 0 5123.71 28.09 0
 -2 0 1 836.49 11.71 0
 -2 0 2 0.34 2.25 0
 -2 1 -1 465.03 9.05 0
 -2 1 0 4.85 2.1 0
 -2 1 1 482.64 9.51 0
 -2 1 2 465.32 9.52 0
 -2 2 0 4861.86 28.6 0
 -2 2 2 1047.5 13.93 0
 -2 3 -2 67.48 4.14 0
 -2 3 -1 1173.6 14.75 0
 -2 3 0 1370.36 15.66 0
 -2 3 1 1166.67 14.57 0
 -2 4 -2 389.98 9.18 0
 -2 4 -1 437.12 9.19 0
 -2 4 0 69.72 3.99 0
 -2 4 1 447.4 9.41 0
 -2 5 -3 766.21 13.22 0
 -2 5 -1 70.88 4.24 0
 -2 5 0 390.89 8.72 0
 -2 6 -4 143.92 6.38 0
 -2 6 -3 102.29 5.21 0
 -2 6 -2 199.16 6.69 0
 -2 6 -1 985.82 13.74 0
 -2 7 -6 416 11.2 0
 -2 7 -5 400.43 10.24 0
 -2 7 -4 149.42 6.17 0
 -1 -5 -3 74.48 1.88 0
 -1 -4 -2 1366.29 8.17 0
 -1 -2 -1 6801.84 21.57 0
 -1 -2 0 141.34 2.99 0
 -1 -1 0 5812.76 20.04 0
 -1 0 0 1.65 1.23 0
 -1 0 1 2785.08 15.09 0
 -1 1 0 5715.42 21.74 0
 -1 1 1 2582.37 15.03 0
 -1 2 1 6717.23 25.01 0
 -1 3 0 3.55 1.24 0
 -1 3 1 51.09 2.59 0
 -1 5 0 11.93 1.51 0
 -1 6 -3 149.38 4.8 0
 -1 6 -2 87.24 3.42 0
 -1 6 -1 190.83 4.46 0
 -1 7 -4 18.67 2.2 0
 -1 7 -2 98.42 3.15 0
 0 -7 -8 2.21 1.62 0
 0 -7 -7 130.48 4.25 0
 0 -7 -6 24.48 1.85 0
 0 -6 -5 534.17 7.06 0
 0 -6 -4 628 5.42 0
 0 -5 -3 127.16 2.62 0
 0 7 -4 0.02 0.71 0
 1 -7 -9 154.91 6.45 0
 1 -7 -8 124.81 5.51 0
 1 -7 -7 351.38 8.11 0
 1 -7 -6 62.28 3.53 0
 1 -6 -9 122.19 6.41 0
 1 -6 -8 118.65 5.72 0
 1 -6 -7 134.2 5.66 0
 1 -6 -6 258.79 6.93 0
 1 -6 -4 602.2 8.88 0
 1 -5 -6 190.72 6.36 0
 1 -5 -5 153.69 5.21 0
 1 -5 -4 623.51 9.43 0
 1 -5 -3 81.82 3.53 0
 1 -4 -4 1156.83 12.92 0
 1 -4 -3 1690.1 14.42 0
 1 -4 -2 1408.59 12.42 0
 1 -3 -3 203.34 5.4 0
 1 -3 -1 55.99 2.76 0
 1 -2 -2 4045.63 20.3 0
 1 -2 -1 6791.01 24.92 0
 1 -1 -1 2728.46 15.26 0
 1 -1 0 5660.06 22.22 0
 1 0 -1 2625.94 14.34 0
 1 0 0 -0.01 0.97 0
 1 1 0 5732.85 20.09 0
 1 2 -1 6759.88 21.33 0
 1 2 0 154.72 3.33 0
 1 3 -1 52.48 2.11 0
 1 4 -2 1420.89 10.21 0
 1 4 -1 336.78 4.08 0
 1 5 -2 498.9 5.04 0
 1 6 -4 598.5 7.82 0
 1 6 -3 158.88 3.04 0
 2 -7 -8 63.15 4.91 0
 2 -7 -7 140.17 6.29 0
 2 -7 -6 426.12 10.13 0
 2 -6 -9 395.4 11.33 0
 2 -6 -8 201.52 8.05 0
 2 -6 -7 118.63 6.14 0
 2 -6 -6 192.37 7.32 0
 2 -6 -5 85.39 5.14 0
 2 -6 -4 154.65 6.08 0
 2 -5 -11 25.42 4.85 0
 2 -5 -10 347.96 11.25 0
 2 -5 -9 116.99 6.93 0
 2 -5 -8 215.43 8.48 0
 2 -5 -7 57.62 4.57 0
 2 -5 -6 312.16 9.09 0
 2 -5 -4 641.29 11.87 0
 2 -5 -3 776.45 12.86 0
 2 -4 -8 373.51 10.97 0
 2 -4 -7 563.67 12.45 0
 2 -4 -6 722.49 13.37 0
 2 -4 -5 63.82 4.3 0
 2 -4 -4 261.96 7.58 0
 2 -4 -3 1660.28 17.99 0
 2 -4 -2 394.56 8.86 0
 2 -3 -6 231.91 7.82 0
 2 -3 -5 96.58 5.15 0
 2 -3 -4 1199.65 15.73 0
 2 -3 -3 1485.01 17.11 0
 2 -3 -2 67.04 4.42 0
 2 -3 -1 1199.89 15.17 0
 2 -2 -5 116.04 5.32 0
 2 -2 -4 131.72 5.75 0
 2 -2 -3 320.59 8.13 0
 2 -2 -2 1066.52 13.95 0
 2 -2 -1 245.08 7 0
 2 -1 -4 787.18 12.69 0
 2 -1 -3 1800.05 18.09 0
 2 -1 -2 488.56 9.48 0
 2 -1 -1 462.23 8.84 0
 2 0 -4 1036.67 14.52 0
 2 0 -3 29.95 3.15 0
 2 0 -2 -0.66 1.67 0
 2 0 0 5296.51 29.53 0
 2 1 -4 794.31 12.63 0
 2 1 -3 1841.65 17.74 0
 2 1 -2 479.17 9.05 0
 2 1 -1 487.21 9.06 0
 2 1 0 4.71 2.23 0
 2 2 -4 124.8 5.2 0
 2 2 -2 1080.7 13.11 0
 2 2 -1 237.52 6.02 0
 2 3 -4 1229.68 14.96 0
 2 3 -3 1472.8 15.32 0
 2 3 -2 65.49 3.5 0
 2 3 -1 1182.01 12.7 0
 2 4 -3 1677.05 15.89 0
 2 4 -2 404.58 7.54 0
 2 5 -6 311.44 8.4 0
 2 5 -5 347.02 8.3 0
 2 5 -2 243.88 5.61 0
 2 6 -7 106.96 5.32 0
 2 6 -6 197.62 6.52 0
 2 6 -5 83.67 4.06 0
 3 -7 -8 45.58 5.08 0
 3 -7 -6 180.41 8.14 0
 3 -6 -9 3.89 3.04 0
 3 -6 -8 6.64 3.19 0
 3 -6 -7 4.01 2.78 0
 3 -6 -6 90.78 6.26 0
 3 -6 -5 233.55 8.92 0
 3 -5 -9 324.39 11.51 0
 3 -5 -7 127.6 7.36 0
 3 -5 -6 225.74 9.2 0
 3 -5 -5 145.64 7.08 0
 3 -5 -4 471.41 12.14 0
 3 -4 -9 210.16 9.27 0
 3 -4 -8 59.65 5.89 0
 3 -4 -7 270.4 9.93 0
 3 -4 -5 710.77 15.04 0
 3 -4 -4 205.65 8.2 0
 3 -4 -3 67.49 5.44 0
 3 -3 -10 15.69 4.2 0
 3 -3 -8 565.14 14.4 0
 3 -3 -7 238.25 9.59 0
 3 -3 -6 150.39 7.29 0
 3 -3 -5 1971.18 23.88 0
 3 -3 -3 631.29 13.23 0
 3 -3 -2 172.49 7.28 0
 3 -2 -10 147.22 8.33 0
 3 -2 -9 331.76 11.44 0
 3 -2 -8 227.85 9.72 0
 3 -2 -7 147.76 7.49 0
 3 -2 -6 104.03 6.5 0
 3 -2 -4 187.53 7.77 0
 3 -2 -3 523.71 12 0
 3 -2 -2 462.12 11.37 0
 3 -2 -1 888.16 15.59 0
 3 -1 -9 674.49 15.91 0
 3 -1 -8 733.44 15.94 0
 3 -1 -2 1304.93 18.04 0
 3 0 -8 245.95 9.82 0
 3 0 -7 2.64 2.72 0
 3 0 -3 3.11 2.37 0
 3 0 -2 1085.96 16.23 0
 3 0 -1 1478.08 19.01 0
 3 1 -8 740.51 15.97 0
 3 1 -7 116.37 6.94 0
 3 1 -6 887.8 16.24 0
 3 1 -1 838.43 14.34 0
 3 2 -8 212.38 8.87 0
 3 2 -7 136.65 6.98 0
 3 2 -6 111.62 6.47 0
 3 2 -5 224.18 8.35 0
 3 3 -9 882.14 18.15 0
 3 3 -8 564.35 13.85 0
 3 3 -7 236.31 8.94 0
 3 3 -6 140.08 6.88 0
 3 3 -5 2030.74 22.9 0
 3 3 -4 389.42 9.99 0
 3 3 -3 651.25 12.49 0
 3 4 -10 143.33 8.21 0
 3 4 -9 219.06 9.13 0
 3 4 -8 56.07 5.45 0
 3 4 -7 283.31 9.72 0
 3 4 -6 145.09 6.9 0
 3 4 -5 693.22 13.38 0
 3 4 -4 210.57 7.57 0
 3 4 -3 65.59 4.27 0
 3 4 -2 301.65 8.33 0
 3 5 -10 0.43 2.72 0
 3 5 -9 336.83 10.92 0
 3 5 -8 83.71 5.98 0
 3 5 -7 126.31 6.38 0
 3 5 -6 208.41 7.81 0
 3 5 -5 143.32 6.43 0
 3 5 -4 453.64 10.32 0
 3 5 -3 218.89 7.14 0
 3 6 -10 62.63 5.69 0
 3 6 -9 3.91 2.35 0
 3 6 -8 9.61 2.69 0
 3 6 -7 3.14 1.96 0
 3 6 -6 83.95 4.85 0
 3 6 -5 240 7.58 0
 3 6 -4 304.78 8.21 0
 4 -4 -6 51.16 6.37 0
 4 -4 -5 25.67 4.6 0
 4 -4 -4 95 6.78 0
 4 -3 -7 241.62 10.29 0
 4 -3 -6 201.09 9.38 0
 4 -3 -5 51.85 5.41 0
 4 -3 -4 854.61 18.09 0
 4 -3 -3 354.1 11.83 0
 4 -2 -7 207.26 10.06 0
 4 -2 -6 381.43 12.6 0
 4 -2 -5 293.11 10.72 0
 4 -2 -4 1.8 2.91 0
 4 -2 -3 359.73 11.61 0
 4 -2 -2 262.56 10.26 0
 4 -1 -7 1595.76 25.11 0
 4 -1 -6 283.16 10.72 0
 4 -1 -5 117.79 7.14 0
 4 -1 -4 596.13 14.54 0
 4 -1 -3 2251.2 27.75 0
 4 -1 -2 417.9 12.32 0
 4 0 -8 22.44 4.48 0
 4 0 -7 57.16 6.74 0
 4 0 -6 11.76 4.25 0
 4 0 -4 874.57 17.51 0
 4 0 -3 5.67 3.45 0
 4 1 -8 222.4 10.32 0
 4 1 -7 1604.96 24.59 0
 4 1 -6 256.11 9.96 0
 4 1 -5 114.84 7 0
 4 1 -4 608.62 14.44 0
 4 1 -3 2224.78 27.14 0
 4 1 -2 413.39 11.9 0
 4 2 -8 17.27 4.25 0
 4 2 -7 223.54 10.03 0
 4 2 -6 370.52 11.83 0
 4 2 -5 304.75 10.93 0
 4 2 -4 0.28 3.04 0
 4 2 -2 257.71 9.73 0
 4 3 -8 529.05 14.52 0
 4 3 -7 243.56 9.82 0
 4 3 -6 187.34 8.59 0
 4 3 -5 53.45 5.14 0
 4 3 -4 869.96 17.04 0
 4 3 -3 358.05 10.86 0
 4 4 -7 22.81 4.2 0
 4 4 -6 59.59 5.82 0
 4 4 -5 22.29 4.12 0
 4 4 -4 94.25 5.99 0
 4 4 -3 60.47 5.19 0
 4 5 -8 543.86 14.38 0
 4 5 -7 98.57 6.75 0
 4 5 -6 377.75 11.43 0
 4 5 -5 86.17 6.1 0
 4 5 -4 362.17 10.99 0
 5 1 -3 45.74 6.19 0
 -1 -2 0 139.23 3.23 0
 0 -5 0 0.1 0.63 0
 0 2 3 5051.97 15.9 0
 0 3 4 3617.45 14.64 0
 0 4 5 612.8 6.16 0
 0 5 6 -0.67 0.53 0
 1 -7 -1 20.33 1.38 0
 1 -7 0 138.62 3.75 0
 1 -6 -3 146.48 2.72 0
 1 -6 -2 87.27 2.5 0
 1 -6 -1 192 4.1 0
 1 -5 -4 621.73 7.19 0
 1 -5 -3 74.98 2.65 0
 1 -5 -2 485.46 6.29 0
 1 -5 -1 8.4 1.49 0
 1 -4 -4 1107.77 10.48 0
 1 -4 -3 1642.73 12.07 0
 1 -4 -2 1394.1 10.82 0
 1 -3 -5 184.92 5.25 0
 1 -3 -4 791.78 9.47 0
 1 -3 -3 192.54 4.53 0
 1 -3 -2 213.02 4.51 0
 1 -2 -5 723.3 10.18 0
 1 -2 -4 2565.08 17.33 0
 1 -2 -3 1407.6 11.9 0
 1 -2 -2 3991.4 18.26 0
 1 -2 -1 6765.66 22.89 0
 1 -1 -5 1887.27 17.07 0
 1 -1 -4 426.71 7.65 0
 1 -1 -2 1749.44 12.44 0
 1 -1 -1 2637.76 14.11 0
 1 0 -4 -1.06 1.54 0
 1 0 -3 18.06 2.33 0
 1 0 -2 433.27 6.51 0
 1 0 -1 2739.72 14.45 0
 1 1 -3 212.77 5.33 0
 1 1 -2 1769.1 13.28 0
 1 1 -1 2714.89 14.68 0
 1 1 0 5808.28 19.48 0
 1 2 -2 4006.33 20.35 0
 1 2 -1 6831.41 23.94 0
 1 3 1 52.1 1.97 0
 1 3 2 217.69 3.44 0
 1 5 6 185.78 3.26 0
 2 -8 -1 345.88 7.24 0
 2 -8 0 48.93 3.47 0
 2 -8 1 335.09 8.22 0
 2 -7 -5 400.97 7.49 0
 2 -7 -4 146.5 4.78 0
 2 -7 -3 243.57 6.11 0
 2 -7 -2 116.63 4.63 0
 2 -7 0 101.71 4.73 0
 2 -6 -6 199.73 6.28 0
 2 -6 -5 78.5 4.24 0
 2 -6 -4 139.58 5.16 0
 2 -6 -3 105.23 4.58 0
 2 -6 -2 215.33 6.29 0
 2 -6 -1 973.6 13.03 0
 2 -5 -7 63.77 4.46 0
 2 -5 -6 312.52 8.13 0
 2 -5 -5 348.09 8.22 0
 2 -5 -4 623.41 10.64 0
 2 -5 -3 745.76 11.49 0
 2 -5 -2 252.45 6.85 0
 2 -5 -1 77.45 4.14 0
 2 -4 -7 571.85 11.83 0
 2 -4 -6 713.66 12.45 0
 2 -4 -5 54.79 3.94 0
 2 -4 -4 262.47 7.34 0
 2 -4 -3 1640.41 16.77 0
 2 -4 -2 398.89 8.31 0
 2 -3 -7 582.86 12.02 0
 2 -3 -6 219.09 7.45 0
 2 -3 -5 94.27 4.78 0
 2 -3 -4 1204.96 15.23 0
 2 -3 -3 1497.32 16.34 0
 2 -3 -1 1203.67 14.26 0
 2 -2 -6 52.42 4.47 0
 2 -2 -5 120.81 5.72 0
 2 -2 -4 127.2 5.79 0
 2 -2 -3 325.17 8.08 0
 2 -2 -2 1051.77 13.34 0
 2 -2 -1 253.42 6.87 0
 2 -1 -6 1516.19 18.98 0
 2 -1 -5 400.75 9.5 0
 2 -1 -4 790.16 12.77 0
 2 -1 -3 1794.01 17.79 0
 2 -1 -2 477.1 9.23 0
 2 -1 -1 476.72 8.86 0
 2 0 -6 275.59 8.59 0
 2 0 -4 983.52 14.04 0
 2 0 -3 30.09 3.4 0
 2 0 -2 2.09 2.38 0
 2 0 -1 819.02 11.27 0
 2 1 -6 1495.65 19.36 0
 2 1 -5 396.01 9.8 0
 2 1 -3 1821.15 18.48 0
 2 1 -2 493.03 9.36 0
 2 1 -1 469.99 8.91 0
 2 2 -6 54.97 4.92 0
 2 2 -5 122.21 5.87 0
 2 2 -4 135.81 6.29 0
 2 2 -3 313.64 8.02 0
 2 2 -2 1062.43 13.6 0
 2 2 -1 254.78 6.66 0
 2 2 0 4915.43 26.27 0
 2 2 1 237.79 5.96 0
 2 3 -4 1222.26 16.53 0
 2 3 -3 1459.52 16.98 0
 2 3 -1 1161.09 13.51 0
 2 3 0 1342.26 13.9 0
 2 3 1 1188.19 12.54 0
 2 3 2 67.13 3.29 0
 2 4 -3 1684.64 18.67 0
 2 4 -2 386.66 8.56 0
 2 4 -1 445.87 8.62 0
 2 5 1 75.27 3.3 0
 2 5 2 248.75 5.26 0
 2 5 3 754.47 8.55 0
 2 5 4 638.02 7.96 0
 2 5 5 339.91 6.09 0
 3 -8 -3 72.11 4.76 0
 3 -8 -2 107.44 5.72 0
 3 -8 -1 9.51 2.77 0
 3 -7 -7 501.9 11.61 0
 3 -7 -6 176.01 7.15 0
 3 -7 -5 21.89 3.6 0
 3 -7 -4 21.21 3.72 0
 3 -7 -3 80.48 5.29 0
 3 -7 -2 206.09 7.81 0
 3 -7 -1 367.11 10.23 0
 3 -7 0 2.58 3 0
 3 -6 -6 88.05 5.95 0
 3 -6 -5 252.09 8.72 0
 3 -6 -3 51.12 5.09 0
 3 -6 -2 47.07 4.55 0
 3 -6 -1 359.1 10.16 0
 3 -5 -6 210.35 8.39 0
 3 -5 -5 149.71 7.31 0
 3 -5 -4 468.85 11.75 0
 3 -5 -3 224.25 8.38 0
 3 -5 -2 779.16 14.59 0
 3 -5 -1 311.18 9.57 0
 3 -4 -6 150.14 7.32 0
 3 -4 -5 692.87 14.39 0
 3 -4 -4 214 8.1 0
 3 -4 -3 59.21 4.73 0
 3 -4 -2 296.67 9.03 0
 3 -4 -1 30.58 4.04 0
 3 -3 -6 135.73 7.45 0
 3 -3 -5 1967.15 23.75 0
 3 -3 -3 644.38 13.37 0
 3 -3 -1 28.61 4.15 0
 3 -2 -6 100.9 6.53 0
 3 -2 -5 238.18 8.9 0
 3 -2 -4 184.65 7.54 0
 3 -2 -2 475 11.21 0
 3 -2 -1 872.74 14.89 0
 3 -1 -9 648.99 16.17 0
 3 -1 -5 646.97 13.92 0
 3 -1 -3 42.25 4.37 0
 3 -1 -2 1288.53 17.92 0
 3 0 -9 10.08 3.86 0
 3 0 -4 1806.2 22.44 0
 3 0 -3 -1.1 2.21 0
 3 0 -1 1464.28 18.73 0
 3 0 0 0.78 2.22 0
 3 1 -5 615.48 13.82 0
 3 1 -4 57.65 5.21 0
 3 1 -3 51.14 4.96 0
 3 1 -2 1273.36 17.9 0
 3 1 -1 835.37 14.15 0
 3 1 0 739.11 13.17 0
 3 2 -8 216.08 9.74 0
 3 2 -5 223.58 8.96 0
 3 2 -3 508.37 11.99 0
 3 2 -2 487.96 11.44 0
 3 2 -1 908.49 14.84 0
 3 2 0 347.52 9.09 0
 3 2 1 856.56 13.94 0
 3 3 -4 374.94 10.97 0
 3 3 -3 641.23 13.61 0
 3 3 -2 174.97 7.13 0
 3 3 -1 24.7 3.47 0
 3 3 1 29.24 3.41 0
 3 3 2 172.18 6.47 0
 3 3 3 646.2 11.99 0
 3 4 -4 190.63 8.12 0
 3 4 -2 289.22 9.11 0
 3 4 -1 24.76 3.67 0
 3 4 0 64.57 4.65 0
 3 4 1 32.73 3.98 0
 3 4 2 299.97 8.17 0
 3 4 3 65.77 4.24 0
 3 4 4 213.2 6.96 0
 3 5 -3 219.97 8.42 0
 3 5 -2 796.44 14.51 0
 3 5 0 152.38 6.25 0
 3 5 1 328.87 8.46 0
 3 5 2 787.78 12.56 0
 3 5 3 225.1 6.79 0
 3 6 -1 337.85 8.94 0
 3 6 2 47.19 3.4 0
 3 6 3 49.84 3.37 0
 3 6 4 295.14 6.96 0
 3 6 5 239.82 6.28 0
 4 -9 3 98.29 7.62 0
 4 -8 -3 56.23 5.54 0
 4 -8 -2 125.05 7.48 0
 4 -8 -1 35.15 5.28 0
 4 -8 0 90.54 6.67 0
 4 -8 1 23.4 4.35 0
 4 -8 2 129.85 8.22 0
 4 -7 -8 104.83 7.13 0
 4 -7 -7 229.49 9.9 0
 4 -7 -6 103.27 7.2 0
 4 -7 -5 136.35 8.04 0
 4 -7 -4 3.24 2.97 0
 4 -7 -3 77.78 6.67 0
 4 -7 -2 265.1 10.58 0
 4 -7 -1 210.32 9.45 0
 4 -7 0 20.34 4.43 0
 4 -7 1 225.91 9.95 0
 4 -6 -9 35.7 5.3 0
 4 -6 -8 103.1 7.34 0
 4 -6 -7 47.77 5.83 0
 4 -6 -6 7.19 4.23 0
 4 -6 -5 10.06 3.82 0
 4 -6 -4 59.39 6.51 0
 4 -6 -3 33.83 5.05 0
 4 -6 -2 22.14 4.71 0
 4 -6 -1 132.42 7.72 0
 4 -6 0 24.17 4.57 0
 4 -6 1 143.21 8.14 0
 4 -5 -10 430.94 14.64 0
 4 -5 -8 577.55 16.17 0
 4 -5 -7 105.33 7.72 0
 4 -5 -5 86.62 7.36 0
 4 -5 -4 369.86 12.36 0
 4 -5 -3 71.92 6.55 0
 4 -5 -2 121.47 7.44 0
 4 -5 -1 59.74 5.84 0
 4 -4 -10 6.41 4.27 0
 4 -4 -9 3.23 4.27 0
 4 -4 -8 55.8 7.01 0
 4 -4 -7 14.06 4.49 0
 4 -4 -6 46.93 6.3 0
 4 -4 -5 19.81 4.37 0
 4 -4 -3 66.66 6.47 0
 4 -4 0 10.37 4.31 0
 4 -3 -10 483.06 15.81 0
 4 -3 -9 550.93 16.59 0
 4 -3 -8 545.71 15.95 0
 4 -3 -7 244.1 10.82 0
 4 -3 -6 167.07 8.84 0
 4 -3 -5 51.95 5.9 0
 4 -2 -11 117.9 9.1 0
 4 -2 -10 8.01 4.46 0
 4 -2 -9 160.95 10.2 0
 4 -2 -8 11.33 4.25 0
 4 -2 -7 204.4 10.07 0
 4 -2 -6 378.59 13 0
 4 -2 -5 321.94 11.85 0
 4 -1 -10 0.44 4.16 0
 4 -1 -9 697.01 18.64 0
 4 -1 -8 231.93 10.95 0
 4 -1 -7 1598.46 26.48 0
 4 -1 -6 256.48 11.07 0
 4 -1 -5 121.41 8.33 0
 4 0 -10 609.91 18.38 0
 4 0 -9 450.79 15.56 0
 4 0 -8 20.42 5.28 0
 4 0 -7 55.59 6.22 0
 4 0 -6 8.85 4.65 0
 4 1 -10 -1.33 4.33 0
 4 1 -9 685.44 18.85 0
 4 1 -6 267.13 11.18 0
 4 2 -8 18.6 5.15 0
 4 2 -6 369.27 13.4 0
 4 2 -5 291.55 11.36 0
 4 2 -4 5.65 3.8 0
 4 3 -8 539.55 16.72 0
 4 3 -6 190.46 10.24 0
 4 4 -7 11.44 4.43 0
 4 4 -6 49.15 6.6 0
 4 4 -4 91.29 7.33 0
 4 4 -3 60.69 6.46 0
 4 5 -3 61.66 6.37 0
 4 6 -3 25.97 4.28 0
 4 6 3 24.91 3.41 0
 4 6 4 66 4.95 0
 5 -9 4 18.67 5.25 0
 5 -9 5 7.2 4.76 0
 5 -8 -4 111.21 8.53 0
 5 -8 -3 120.36 8.6 0
 5 -8 -1 192.51 10.81 0
 5 -8 0 70.61 7.68 0
 5 -8 1 190.48 10.65 0
 5 -8 2 31.36 5.86 0
 5 -8 3 125.37 9.82 0
 5 -8 4 136.93 9.79 0
 5 -7 -9 -1.11 3.68 0
 5 -7 -8 109.09 8.93 0
 5 -7 -7 64.68 7.48 0
 5 -7 -5 2.67 4.48 0
 5 -7 -3 127.68 8.79 0
 5 -7 -1 78.75 7.53 0
 5 -7 0 261.22 12.19 0
 5 -7 2 209.81 11.42 0
 5 -6 -10 51.7 7.29 0
 5 -6 -9 58.13 7.87 0
 5 -6 -8 17.88 5.14 0
 5 -6 -6 32.92 5.95 0
 5 -6 -5 236.94 12.05 0
 5 -6 -4 102.91 8.36 0
 5 -6 -3 72.29 7.95 0
 5 -6 -2 101.26 8.48 0
 5 -6 -1 32.65 6.17 0
 5 -6 0 533.04 16.64 0
 5 -6 1 47.58 6.75 0
 5 -6 2 108.58 9.28 0
 5 -5 -11 44.83 7.95 0
 5 -5 -10 21.43 6.57 0
 5 -5 -9 133.85 10.14 0
 5 -5 -8 209.13 11.45 0
 5 -5 -7 1.59 4.85 0
 5 -5 -6 49.53 6.93 0
 5 -5 -5 8.2 5.09 0
 5 -5 -4 61.31 7.42 0
 5 -5 -3 166.42 10.45 0
 5 -5 -2 47.72 6.65 0
 5 -5 -1 639.07 18.05 0
 5 -5 1 648.47 18.42 0
 5 -5 2 45.67 6.85 0
 5 -4 -11 351.04 15.31 0
 5 -4 -10 177.21 11.07 0
 5 -4 -9 7.24 4.78 0
 5 -4 -8 178.25 11.53 0
 5 -4 -7 102.95 9.02 0
 5 -4 -6 105.2 8.75 0
 5 -4 -5 2.65 4.48 0
 5 -4 -4 49.93 6.72 0
 5 -4 -3 27.72 5.8 0
 5 -4 -2 152.06 9.49 0
 5 -4 -1 466.63 15.63 0
 5 -4 0 270.47 12.46 0
 5 -4 1 453.5 15.47 0
 5 -3 -11 49.59 7.69 0
 5 -3 -10 177.78 11.33 0
 5 -3 -9 9.75 5.22 0
 5 -3 -8 20.9 5.94 0
 5 -3 -7 11.25 4.99 0
 5 -3 -6 72.47 8.34 0
 5 -3 -5 214.96 11.31 0
 5 -3 -4 516.52 16.78 0
 5 -3 -3 244.43 11.67 0
 5 -2 -11 4 5.3 0
 5 -2 -10 119.95 10.03 0
 5 -2 -9 49.53 7.38 0
 5 -2 -8 56.64 7.6 0
 5 -2 -7 106.83 9 0
 5 -2 -6 255.73 12.81 0
 5 -2 -5 397.37 14.94 0
 5 -2 -3 478.53 15.91 0
 5 -2 -2 191.33 10.24 0
 5 -2 0 38.81 5.78 0
 5 -2 1 156.6 9.36 0
 5 -1 -11 0.76 5.58 0
 5 -1 -10 79.51 9.43 0
 5 -1 -9 41.06 7.27 0
 5 -1 -7 42.32 6.73 0
 5 -1 -6 6.82 4.7 0
 5 -1 -5 530.74 16.95 0
 5 -1 -3 48.79 6.56 0
 5 -1 -2 384.11 14.32 0
 5 -1 0 62 6.7 0
 5 -1 1 93.31 7.34 0
 5 -1 2 383.77 13.66 0
 5 0 -11 137.54 11.59 0
 5 0 -10 11.31 5.66 0
 5 0 -9 -2.79 4.49 0
 5 0 -8 192.04 11.86 0
 5 0 -7 10.27 5.15 0
 5 0 -6 133.85 9.56 0
 5 0 -5 23.09 5.62 0
 5 0 -4 2.05 3.46 0
 5 0 -1 852.4 19.78 0
 5 0 0 -2.43 3.18 0
 5 0 2 479.43 14.89 0
 5 1 -11 5.9 5.82 0
 5 1 -10 80.75 9.8 0
 5 1 -9 48.11 7.57 0
 5 1 -8 279.15 14.08 0
 5 1 -7 53.08 7.91 0
 5 1 -5 500.33 16.56 0
 5 1 -4 358.13 14.33 0
 5 1 -2 420.48 14.36 0
 5 1 -1 103.68 7.88 0
 5 1 0 69.35 6.65 0
 5 1 1 96.02 7.44 0
 5 2 -10 114.66 10.08 0
 5 2 -9 48.27 8.07 0
 5 2 -8 48.69 7.22 0
 5 2 -7 99.34 9.34 0
 5 2 -6 249.99 12.88 0
 5 2 -5 413.09 15.22 0
 5 2 -2 188.61 10.25 0
 5 2 -1 143.49 9.44 0
 5 2 0 43.57 6.35 0
 5 2 1 141.96 8.98 0
 5 2 4 17.7 4.79 0
 5 3 -9 10.6 6.03 0
 5 3 -8 15.83 5.63 0
 5 3 -7 14.98 5.43 0
 5 3 -5 211.11 11.77 0
 5 3 -4 489.6 16.12 0
 5 3 -3 225.05 11.04 0
 5 3 -2 289.51 12.01 0
 5 3 -1 188.92 9.92 0
 5 3 1 211.43 10.18 0
 5 3 2 279.63 11.54 0
 5 3 4 489.41 14.68 0
 5 3 5 211.4 10.57 0
 5 3 6 84.73 7.57 0
 5 4 -8 181.65 11.44 0
 5 4 -7 98.73 8.75 0
 5 4 -5 1.31 4.07 0
 5 4 -4 49.37 7.36 0
 5 4 -3 24.91 5.26 0
 5 4 -1 440.56 14.57 0
 5 4 0 272.13 11.82 0
 5 4 2 154.47 8.79 0
 5 4 3 37.64 5.44 0
 5 4 4 49.05 6.31 0
 5 4 5 -1.88 3.27 0
 5 4 6 107.96 7.61 0
 5 4 7 103.62 7.77 0
 5 4 8 184.71 9.53 0
 5 5 -6 40.8 7.22 0
 5 5 -5 2.19 4.46 0
 5 5 -3 166.53 10.2 0
 5 5 -2 54.66 6.58 0
 5 5 0 48 6.01 0
 5 5 1 635.98 16.58 0
 5 5 2 54.03 6.4 0
 5 5 3 176.92 8.95 0
 5 5 4 58.92 6.34 0
 5 5 5 5 3.2 0
 5 5 6 35.3 5.14 0
 5 5 7 1.15 3.47 0
 5 5 8 198 9.49 0
 5 5 9 117.72 7.75 0
 5 5 10 15.82 4.16 0
 5 6 -4 113.98 8.77 0
 5 6 -3 54.05 6.58 0
 5 6 -2 99.71 7.45 0
 5 6 0 525.8 14.97 0
 5 6 2 106.37 7.27 0
 5 6 3 70.34 6.23 0
 5 6 4 112.54 6.91 0
 5 7 -2 198.13 9.6 0
 6 -9 6 117.66 11.1 0
 6 -9 7 -1.37 5.28 0
 6 -9 8 101.32 10.71 0
 6 -8 -3 24.89 6.91 0
 6 -8 -2 101.8 9.76 0
 6 -8 -1 37.52 7.45 0
 6 -8 0 13.17 5.59 0
 6 -8 1 30.74 7.03 0
 6 -8 2 96.44 9.71 0
 6 -8 3 18.52 5.98 0
 6 -8 4 29.02 6.8 0
 6 -8 5 13.34 6.32 0
 6 -8 6 58.5 8.62 0
 6 -7 -8 43.99 7.5 0
 6 -7 -7 10.95 5.78 0
 6 -7 -6 62.27 8.51 0
 6 -7 -5 46.3 7.63 0
 6 -7 -4 24.01 6.26 0
 6 -7 -1 121.33 10.65 0
 6 -7 0 4.26 5.08 0
 6 -7 1 114.68 10.83 0
 6 -7 2 196.25 12.62 0
 6 -7 3 52.93 8.12 0
 6 -7 4 23.46 6.94 0
 6 -7 5 40.04 8.64 0
 6 -6 -10 156.56 12 0
 6 -6 -9 19.34 7.04 0
 6 -6 -8 15.77 6.55 0
 6 -6 -7 90.29 10.15 0
 6 -6 -6 60.83 8.94 0
 6 -6 -5 84.06 10.39 0
 6 -6 -4 -2.96 5.49 0
 6 -6 -3 232.65 13.45 0
 6 -6 -2 29.14 6.6 0
 6 -6 -1 15.83 6.16 0
 6 -6 0 482.21 18.03 0
 6 -6 1 18.91 6.31 0
 6 -6 2 23.23 6.37 0
 6 -6 3 222.69 13.03 0
 6 -6 4 2.06 5.27 0
 6 -5 -11 12.41 6.26 0
 6 -5 -10 38.27 8.15 0
 6 -5 -9 114.25 11.35 0
 6 -5 -6 229.8 13.85 0
 6 -5 -5 25.59 6.56 0
 6 -5 -4 138.96 10.54 0
 6 -5 -3 164.65 11.2 0
 6 -5 -2 61.31 8.82 0
 6 -5 -1 -1.5 4.83 0
 6 -5 1 2.26 4.92 0
 6 -5 2 62.61 8.91 0
 6 -5 3 156.8 11.83 0
 6 -4 -11 3.88 6.72 0
 6 -4 -10 61.3 8.95 0
 6 -4 -9 83.14 10.38 0
 6 -4 -8 2.55 5.76 0
 6 -4 -7 108.35 10.92 0
 6 -4 -5 96.74 9.77 0
 6 -4 -3 12.73 5.78 0
 6 -4 -2 149.14 11.44 0
 6 -4 -1 167.2 11.18 0
 6 -4 0 7.47 5.37 0
 6 -4 1 202.61 11.95 0
 6 -4 2 160.85 11.65 0
 6 -3 -12 64.81 10.68 0
 6 -3 -11 6.99 6.22 0
 6 -3 -10 110.65 11.3 0
 6 -3 -9 252.85 15.39 0
 6 -3 -8 106.57 10.41 0
 6 -3 -7 68.93 8.61 0
 6 -3 -6 165.63 12.04 0
 6 -3 -5 56.48 8.84 0
 6 -3 -4 18.23 6.32 0
 6 -3 -3 106.11 9.65 0
 6 -3 -2 29.21 6.56 0
 6 -3 -1 112.76 10.32 0
 6 -3 1 121.85 10.39 0
 6 -3 2 39.15 7.75 0
 6 -3 3 98.44 9.9 0
 6 -2 -11 85.38 10.63 0
 6 -2 -10 137.01 12.1 0
 6 -2 -9 136.05 12.33 0
 6 -2 -8 -0.45 5.18 0
 6 -2 -7 44.11 7.97 0
 6 -2 -6 92.98 10.73 0
 6 -2 -5 130.88 10.64 0
 6 -2 -4 98.84 9.4 0
 6 -2 -1 39.88 6.89 0
 6 -2 0 43.97 7.62 0
 6 -2 1 41.3 6.93 0
 6 -2 2 23.25 5.97 0
 6 -2 3 119.16 9.7 0
 6 -1 -12 -4.16 6.27 0
 6 -1 -11 73.85 10.24 0
 6 -1 -9 71.37 9.41 0
 6 -1 -7 59.99 8.55 0
 6 -1 -6 4.23 5.2 0
 6 -1 -5 26.55 6.63 0
 6 -1 -2 113.75 9.93 0
 6 -1 -1 22.09 5.86 0
 6 -1 0 -2.84 4.4 0
 6 -1 1 24.55 5.96 0
 6 -1 2 110.34 9.22 0
 6 -1 4 2.61 4.65 0
 6 0 -11 31.5 8.06 0
 6 0 -8 19.35 6.84 0
 6 0 -6 264.17 14.1 0
 6 0 -5 139.97 10.34 0
 6 0 -4 29.5 6.92 0
 6 0 -3 6.34 5.24 0
 6 0 -2 8.21 5 0
 6 0 -1 95.22 8.51 0
 6 0 0 39.4 7.15 0
 6 0 1 101.45 8.41 0
 6 0 3 3.52 4.85 0
 6 0 4 43.48 7.34 0
 6 0 5 144.57 10.29 0
 6 1 -11 61.91 9.56 0
 6 1 -8 66.62 9.06 0
 6 1 -7 63.61 9.13 0
 6 1 -6 7.22 5.86 0
 6 1 -5 22.89 6.36 0
 6 1 -4 2.61 5.07 0
 6 1 -3 0.57 4.35 0
 6 1 -2 101.2 9.46 0
 6 1 -1 13.28 5.31 0
 6 1 1 15.99 6.07 0
 6 1 2 108.99 9.22 0
 6 1 3 5.36 4.72 0
 6 1 4 7.33 4.8 0
 6 1 5 25.39 6.52 0
 6 1 6 6.41 4.78 0
 6 2 -10 135.82 12.54 0
 6 2 -8 -2.21 5 0
 6 2 -7 47.16 8.04 0
 6 2 -6 95.47 10.16 0
 6 2 -5 135.26 10.59 0
 6 2 -4 98.54 9.59 0
 6 2 -3 110.45 9.51 0
 6 2 -2 26.84 6.33 0
 6 2 -1 39.25 7.17 0
 6 2 1 41.86 7.31 0
 6 2 2 16.66 5.83 0
 6 2 3 99.61 9.23 0
 6 2 4 98.1 9.37 0
 6 2 5 143.63 10.94 0
 6 2 6 99.57 8.8 0
 6 2 7 50.04 8.01 0
 6 3 -9 240.57 14.97 0
 6 3 -8 103.02 10.19 0
 6 3 -7 50.81 8.07 0
 6 3 -5 60.37 9.09 0
 6 3 -4 19.16 6.14 0
 6 3 -2 31.79 7.3 0
 6 3 -1 119.94 9.52 0
 6 3 0 24.13 5.93 0
 6 3 1 110.23 10.08 0
 6 3 2 44.29 7.42 0
 6 3 3 109.82 9.4 0
 6 3 4 22.99 5.92 0
 6 3 5 55.55 7.86 0
 6 3 6 160.98 10.31 0
 6 3 7 66.41 8.29 0
 6 3 9 242.66 12.75 0
 6 4 -8 3.99 6.03 0
 6 4 -7 111.34 10.88 0
 6 4 -5 114.47 10.94 0
 6 4 -4 179.69 12.17 0
 6 4 -3 8.15 5.22 0
 6 4 -2 150.76 10.53 0
 6 4 -1 176.15 11.51 0
 6 4 0 11.25 5.75 0
 6 4 1 182.7 11.41 0
 6 4 2 140.4 9.88 0
 6 4 3 20.51 5.51 0
 6 4 4 165.04 10.8 0
 6 4 5 99.29 9.06 0
 6 4 6 217.03 11.72 0
 6 4 8 5.12 4.54 0
 6 4 9 69.48 8.18 0
 6 4 10 73.41 8.51 0
 6 4 11 6.12 4.8 0
 6 5 -7 131.34 10.95 0
 6 5 -6 213.06 12.78 0
 6 5 -5 18.96 6.11 0
 6 5 -4 151.32 10.97 0
 6 5 -3 148.9 10.52 0
 6 5 -2 71.89 7.88 0
 6 5 -1 -1.5 4.27 0
 6 5 0 231.91 11.94 0
 6 5 1 -1.55 4.09 0
 6 5 2 67.84 8.07 0
 6 5 3 153.5 9.73 0
 6 5 4 135.8 9.39 0
 6 5 5 25.71 5.72 0
 6 5 7 123.84 9.03 0
 6 5 9 121.36 8.95 0
 6 5 10 31.94 5.8 0
 6 6 -5 72 9.47 0
 6 6 -4 0.56 4.85 0
 6 6 -3 246.07 12.56 0
 6 6 -2 25.81 5.79 0
 6 6 -1 21.26 5.74 0
 6 6 0 473.14 16.17 0
 6 6 1 20.68 5.81 0
 6 6 2 27.62 5.51 0
 6 6 3 237.55 11.05 0
 6 6 4 -3.76 2.31 0
 6 7 -3 44.55 6.62 0
 7 -8 -1 95.25 11.39 0
 7 -8 0 61.9 9.84 0
 7 -8 1 127.25 11.87 0
 7 -8 2 14.78 6.73 0
 7 -8 3 13.74 7.29 0
 7 -8 4 182.77 13.21 0
 7 -7 -7 20.98 6.9 0
 7 -7 -5 58.59 8.95 0
 7 -7 -4 43.29 8.95 0
 7 -7 -3 39.76 8.13 0
 7 -7 -1 23.41 8.14 0
 7 -7 0 14.85 7.12 0
 7 -7 1 26.42 8.01 0
 7 -7 2 14.68 7.81 0
 7 -7 3 48.8 8.53 0
 7 -7 5 80.44 10.66 0
 7 -7 6 15.13 7.25 0
 7 -7 7 30.35 8.2 0
 7 -6 -10 120.56 12.15 0
 7 -6 -9 167.96 12.64 0
 7 -6 -8 25.71 7.42 0
 7 -6 -7 15.84 6.64 0
 7 -6 -6 11.82 6.71 0
 7 -6 -5 46.03 8.57 0
 7 -6 -4 33.13 8.28 0
 7 -6 -3 9.43 6.43 0
 7 -6 -2 111.62 11.88 0
 7 -6 -1 58.13 10.14 0
 7 -6 2 126.54 12.31 0
 7 -6 3 9.49 6.51 0
 7 -6 4 28.52 8.25 0
 7 -6 5 36.63 8.38 0
 7 -6 6 5.17 6.58 0
 7 -6 7 32.6 8.26 0
 7 -6 8 21.84 7.75 0
 7 -5 -11 39.13 8.74 0
 7 -5 -10 6.72 7.39 0
 7 -5 -9 48.65 9.31 0
 7 -5 -8 56.05 10.23 0
 7 -5 -7 86.81 10.84 0
 7 -5 -5 16.7 7.17 0
 7 -5 -4 9.87 6.47 0
 7 -5 -3 14.37 7.51 0
 7 -5 -2 111.61 11.51 0
 7 -5 -1 79.55 10.07 0
 7 -5 0 -1.17 5.62 0
 7 -5 1 87.7 10.56 0
 7 -5 2 108.44 11.49 0
 7 -5 3 30.54 9.06 0
 7 -5 4 12.15 6.9 0
 7 -5 5 11.14 6.99 0
 7 -5 7 96.69 12.57 0
 7 -4 -11 12.88 7.09 0
 7 -4 -9 10.68 6.85 0
 7 -4 -8 98.34 12.86 0
 7 -4 -6 40.33 9.74 0
 7 -4 -5 76.01 10.29 0
 7 -4 -4 66.98 9.63 0
 7 -4 -3 40.99 9.37 0
 7 -4 -1 40.03 8 0
 7 -4 1 32.79 8.28 0
 7 -4 2 367.51 18.03 0
 7 -4 3 30.16 7.52 0
 7 -4 4 63.72 10.28 0
 7 -4 5 91.95 10.98 0
 7 -4 6 30.83 8.06 0
 7 -3 -12 14.26 8.08 0
 7 -3 -11 77.08 10.69 0
 7 -3 -10 15.58 7.51 0
 7 -3 -9 18.01 7.99 0
 7 -3 -8 30.74 7.93 0
 7 -3 -7 118.86 13.29 0
 7 -3 -6 15.64 6.89 0
 7 -3 -5 32.13 7.94 0
 7 -3 -4 12.73 7.98 0
 7 -3 -3 9.06 6.81 0
 7 -3 -2 137.29 11.9 0
 7 -3 -1 36.53 8.02 0
 7 -3 0 8.31 6.19 0
 7 -3 2 134.83 12.23 0
 7 -3 3 4.5 6.59 0
 7 -3 5 27.93 7.66 0
 7 -3 6 23.52 8.14 0
 7 -2 -12 47.34 10.17 0
 7 -2 -9 16.85 8.12 0
 7 -2 -7 25.37 7.87 0
 7 -2 -6 221.61 15.27 0
 7 -2 -5 15.35 6.71 0
 7 -2 -4 16.63 6.83 0
 7 -2 -3 42.32 8.91 0
 7 -2 -2 410.2 18.94 0
 7 -2 0 78.19 10.64 0
 7 -2 1 232.45 14.96 0
 7 -2 2 420.86 18.64 0
 7 -2 3 41.38 7.89 0
 7 -2 4 20.02 8.22 0
 7 -2 5 20.21 7.32 0
 7 -2 6 215.34 14.07 0
 7 -2 7 30.62 7.86 0
 7 -1 -11 112.31 14 0
 7 -1 -10 23.47 8.02 0
 7 -1 -9 4.86 6.73 0
 7 -1 -7 58.24 10.77 0
 7 -1 -6 41.4 8.61 0
 7 -1 -2 123.59 12.3 0
 7 -1 0 3.06 6.32 0
 7 -1 1 53.44 9.28 0
 7 -1 2 129.31 11.94 0
 7 -1 3 70.73 9.5 0
 7 -1 5 145.04 11.82 0
 7 -1 6 33.89 7.87 0
 7 -1 7 50.04 8.84 0
 7 0 -11 44.05 9.78 0
 7 0 -10 13.64 7.65 0
 7 0 -9 -2.5 5.91 0
 7 0 -8 92.83 11.49 0
 7 0 -7 7.78 6.68 0
 7 0 -6 105.04 12.27 0
 7 0 -5 478.6 20.23 0
 7 0 -3 75.85 9.82 0
 7 0 -2 1.69 5.74 0
 7 0 -1 119.29 10.69 0
 7 0 0 -2.97 4.82 0
 7 0 1 117.44 10.8 0
 7 0 2 8 6.04 0
 7 0 3 73.26 10.23 0
 7 0 4 81.51 10.17 0
 7 0 5 478.95 19.66 0
 7 0 6 93.03 11.44 0
 7 0 7 8.3 7.04 0
 7 1 -11 99.26 12.45 0
 7 1 -10 21.66 7.97 0
 7 1 -9 7.08 7.68 0
 7 1 -8 66.38 11.38 0
 7 1 -7 60.18 10.76 0
 7 1 -6 35.63 8.23 0
 7 1 -4 37.26 8.13 0
 7 1 -3 78.59 9.6 0
 7 1 -2 116.51 11.04 0
 7 1 -1 69.09 9.39 0
 7 1 0 6.5 5.79 0
 7 1 1 64.24 9.31 0
 7 1 2 121.73 11.45 0
 7 1 3 71.26 9.8 0
 7 1 4 24.13 6.87 0
 7 1 6 33.06 8.5 0
 7 1 8 71.31 10.33 0
 7 1 9 3.57 5.93 0
 7 2 -10 66.45 10.72 0
 7 2 -9 11.56 7.24 0
 7 2 -8 11.64 7.15 0
 7 2 -7 30.34 8.37 0
 7 2 -6 213.1 14.72 0
 7 2 -5 17.75 7.86 0
 7 2 -4 27.16 8.46 0
 7 2 -2 429.16 18.88 0
 7 2 -1 251.21 15.09 0
 7 2 0 67.84 9.34 0
 7 2 1 255.57 14.34 0
 7 2 2 411 17.87 0
 7 2 4 27.01 7.09 0
 7 2 5 16.95 6.66 0
 7 2 6 211.15 13.69 0
 7 2 7 27.04 7.78 0
 7 2 8 6.26 6.39 0
 7 2 9 18.68 6.91 0
 7 2 11 3.66 6.24 0
 7 3 -9 6.52 7.15 0
 7 3 -7 114.55 13.3 0
 7 3 -6 16.66 8.11 0
 7 3 -5 21.79 7.76 0
 7 3 -4 14.22 6.67 0
 7 3 -3 7.72 6.19 0
 7 3 -2 134.29 11.29 0
 7 3 -1 35.86 7.69 0
 7 3 0 13.03 6.32 0
 7 3 1 37.6 8.76 0
 7 3 2 141.45 12.05 0
 7 3 3 -0.66 5.12 0
 7 3 4 11.13 6.87 0
 7 3 5 25.05 7.03 0
 7 3 6 18.48 6.5 0
 7 3 7 126.07 10.59 0
 7 3 8 39.54 7.58 0
 7 3 9 20.59 6.87 0
 7 3 10 12.18 7.21 0
 7 3 11 67.62 9.31 0
 7 3 12 12.87 6.17 0
 7 3 13 109.78 11.01 0
 7 4 -8 107.69 12.68 0
 7 4 -7 10.96 6.44 0
 7 4 -6 21.1 7.13 0
 7 4 -5 81.57 11.04 0
 7 4 -4 74.91 10.69 0
 7 4 -3 34.86 8.46 0
 7 4 -2 368.42 17.09 0
 7 4 -1 36.81 7.9 0
 7 4 0 94.09 10.92 0
 7 4 1 37.68 8.35 0
 7 4 2 364.37 16.26 0
 7 4 3 28.98 7.61 0
 7 4 4 72.09 8.92 0
 7 4 5 71.86 9.49 0
 7 4 6 40.03 8.06 0
 7 4 7 25.04 6.73 0
 7 4 9 11.15 6.45 0
 7 4 10 30.68 6.77 0
 7 4 11 15 6.43 0
 7 5 -7 94.12 11.26 0
 7 5 -6 104.29 11.75 0
 7 5 -5 20.56 7.92 0
 7 5 -4 2.42 5.48 0
 7 5 -3 16.17 6.5 0
 7 5 -2 113.32 11.39 0
 7 5 -1 86.32 10.7 0
 7 5 1 88.43 10.5 0
 7 5 2 111.26 9.94 0
 7 5 3 20.19 7.06 0
 7 5 4 6.56 5.19 0
 7 5 6 88.36 9.85 0
 7 5 7 94.2 9.56 0
 7 5 8 48.94 7.57 0
 7 6 -5 44.2 8.67 0
 7 6 -4 20.45 6.61 0
 7 6 -3 -0.26 5.49 0
 7 6 -2 113.47 10.15 0
 7 6 -1 55.11 8.55 0
 7 6 0 263.61 13.6 0
 7 6 1 44.05 7.74 0
 7 6 2 109.28 9.44 0
 7 6 3 6.28 4.9 0
 8 -5 -4 9.48 7.51 0
 8 -5 -2 6.74 7.42 0
 8 -5 -1 -2.53 7.1 0
 8 -5 0 8.05 7.18 0
 8 -5 1 -0.16 7.03 0
 8 -5 2 7.11 7.3 0
 8 -5 3 12.23 8.68 0
 8 -4 -6 38.46 10.32 0
 8 -4 -4 23.14 9 0
 8 -4 -3 171.6 15.27 0
 8 -4 -2 2.51 7.75 0
 8 -4 -1 128.96 12.65 0
 8 -4 0 22.83 8.45 0
 8 -4 1 130.83 13.72 0
 8 -4 2 5.09 6.84 0
 8 -4 3 160.9 13.93 0
 8 -4 4 29.72 9.56 0
 8 -3 -7 25.86 8.89 0
 8 -3 -6 40.69 9.69 0
 8 -3 -5 130.85 12.86 0
 8 -3 -4 73.43 10.96 0
 8 -3 -3 23.94 8.68 0
 8 -3 -1 32.17 9.49 0
 8 -3 1 31 9.49 0
 8 -3 2 49.55 9.82 0
 8 -3 3 17.29 8.1 0
 8 -3 4 68.16 10.77 0
 8 -3 5 104.01 12.7 0
 8 -3 6 58.33 10.88 0
 8 -2 -8 4.79 7.34 0
 8 -2 -7 188.66 15.46 0
 8 -2 -6 108.01 13.25 0
 8 -2 -5 88.09 12.01 0
 8 -2 -4 126.11 13.32 0
 8 -2 -3 121.86 14.77 0
 8 -2 -2 69.41 11.63 0
 8 -2 -1 22.93 8.15 0
 8 -2 0 331.45 18.96 0
 8 -2 1 23.2 8.34 0
 8 -2 6 107.93 13.11 0
 8 -2 7 213.35 15.29 0
 8 -2 8 19.64 9.62 0
 8 -1 -7 76.42 11.85 0
 8 -1 -6 97.36 12.75 0
 8 -1 -4 72.75 11.39 0
 8 -1 -3 20.44 8.19 0
 8 -1 0 157.15 13.77 0
 8 -1 1 43.9 9.98 0
 8 -1 2 14.83 7.49 0
 8 -1 3 22.28 8.07 0
 8 -1 4 66.49 10.63 0
 8 -1 5 31.89 9.35 0
 8 -1 7 84.28 11.71 0
 8 -1 8 22.17 8.49 0
 8 0 -7 27.87 8.65 0
 8 0 -5 151.84 14.02 0
 8 0 -4 249 17.05 0
 8 0 -3 85.05 12.66 0
 8 0 -2 16.45 7.92 0
 8 0 -1 307.48 17.7 0
 8 0 0 147.11 14.3 0
 8 0 2 9.01 7.84 0
 8 0 4 260.06 16.45 0
 8 0 5 130.03 12.52 0
 8 0 6 487.13 21.45 0
 8 0 7 22.11 8.2 0
 8 0 8 26.34 8.7 0
 8 0 9 55.64 10.08 0
 8 1 -8 21.86 8.55 0
 8 1 -7 79.52 12.73 0
 8 1 -6 98.97 13.31 0
 8 1 -5 34.66 8.98 0
 8 1 -4 61.56 10.47 0
 8 1 -3 13.7 7.98 0
 8 1 -2 17.64 8.23 0
 8 1 -1 37.16 8.76 0
 8 1 0 153.42 14.26 0
 8 1 1 43.81 9.53 0
 8 1 2 22.12 8.58 0
 8 1 3 9.43 7.76 0
 8 1 4 72.48 10.6 0
 8 1 5 16.63 7.51 0
 8 1 6 112.94 12.19 0
 8 1 7 65.81 10.74 0
 8 1 8 33.53 9.29 0
 8 1 9 106.65 12.78 0
 8 2 -8 12.07 8.49 0
 8 2 -7 175.69 15.84 0
 8 2 -5 95.13 12.5 0
 8 2 -4 120.15 14.28 0
 8 2 -2 65.47 10.62 0
 8 2 -1 21.7 9.38 0
 8 2 0 340.8 17.97 0
 8 2 1 11.57 8.17 0
 8 2 2 66.82 10.47 0
 8 2 3 105.49 11.78 0
 8 2 4 118.37 12.45 0
 8 2 5 89.58 11.88 0
 8 2 6 108.41 12.78 0
 8 2 7 198.74 13.99 0
 8 2 8 12.07 7.28 0
 8 2 9 18.93 7.43 0
 8 3 -7 31.93 9.26 0
 8 3 -6 31.45 10.07 0
 8 3 -5 101.77 12.51 0
 8 3 -4 79.12 11.62 0
 8 3 -3 21.68 8.63 0
 8 3 -2 64.3 10.73 0
 8 3 -1 28.5 9.19 0
 8 3 0 3.32 6.05 0
 8 3 2 61.61 10.66 0
 8 3 3 25.9 7.98 0
 8 3 4 61.55 9.61 0
 8 3 5 110.61 11.26 0
 8 3 6 51.21 9.3 0
 8 3 7 36.04 8.38 0
 8 3 8 204.07 14.75 0
 8 4 -6 29.85 8.61 0
 8 4 -5 33.21 8.94 0
 8 4 -4 18.29 8.16 0
 8 4 -3 163.52 13.89 0
 8 4 -2 -2.77 6.52 0
 8 4 -1 113.09 12.32 0
 8 4 0 17.7 7.22 0
 8 4 1 123.76 12.44 0
 8 4 2 3.1 6.42 0
 8 4 3 174.33 13.12 0
 8 4 4 19.12 6.99 0
 8 4 5 47.2 8.6 0
 8 4 6 30.98 7.49 0
 8 4 7 171.25 13.57 0
 8 5 -4 8.71 6.84 0
 8 5 -3 21.09 7.82 0
 8 5 -2 10 6.67 0
 8 5 -1 8.27 7.67 0
 8 5 0 4.24 6.34 0
 8 5 1 0.53 5.6 0
 8 5 2 5.84 5.86 0
 8 5 3 34.67 7.95 0
 8 5 4 7.64 6.08 0
 8 5 5 1.32 5.34 0
 8 6 -1 65.18 9.72 0
 -4 -6 -2 24.9 3.95 0
 -4 -5 -3 70.4 5.46 0
 -4 -5 -2 132.78 7.27 0
 -4 -4 -4 86.03 5.97 0
 -4 -4 -3 63.35 5.08 0
 -4 -3 -6 201.41 8.97 0
 -4 -3 -5 60.71 5.23 0
 -4 -3 -3 360.79 10.58 0
 -4 -2 -7 228.04 9.78 0
 -4 -2 -5 310.8 10.31 0
 -4 -2 -4 3.3 2.8 0
 -4 -1 -8 224.23 9.21 0
 -4 -1 -7 1618.73 22.89 0
 -4 -1 -6 255.49 9.17 0
 -4 -1 -5 111.28 6.28 0
 -4 0 -8 31.83 4.45 0
 -4 0 -7 48.87 4.69 0
 -4 0 -6 17.43 4.32 0
 -4 1 -9 688.44 15.05 0
 -3 -8 -2 116.54 6.37 0
 -3 -8 -1 8.35 2.49 0
 -3 -7 -4 26.14 3.7 0
 -3 -7 -3 81.68 5.21 0
 -3 -7 -2 223.73 8.06 0
 -3 -7 -1 365.95 9.93 0
 -3 -7 0 5.68 2.54 0
 -3 -6 -5 228.79 8.92 0
 -3 -6 -4 284.25 9.23 0
 -3 -6 -3 51.1 4.25 0
 -3 -6 -1 355.45 9.61 0
 -3 -6 0 132.59 5.85 0
 -3 -5 -6 206.28 8.34 0
 -3 -5 -5 157.68 7.18 0
 -3 -5 -4 441.17 11.06 0
 -3 -5 -2 794.4 14.05 0
 -3 -5 -1 324.17 9.01 0
 -3 -4 -8 56.07 5.03 0
 -3 -4 -7 289.43 9.97 0
 -3 -4 -6 157.15 7.55 0
 -3 -4 -5 709.98 13.99 0
 -3 -4 -4 202.34 7.71 0
 -3 -4 -3 67.55 4.63 0
 -3 -4 -2 304.23 8.64 0
 -3 -4 -1 27.12 3.32 0
 -3 -4 0 70.88 4.7 0
 -3 -3 -9 833.59 16.5 0
 -3 -3 -5 2002.17 22.68 0
 -3 -3 -4 389.59 10.03 0
 -3 -3 -3 640.47 12.27 0
 -3 -3 -2 171.86 6.81 0
 -3 -2 -10 146.23 7.33 0
 -3 -2 -9 304.25 9.91 0
 -3 -2 -6 104.14 5.89 0
 -3 -2 -5 218.15 7.46 0
 -3 -2 -4 182.66 6.99 0
 -3 -2 -3 523.59 11.18 0
 -3 -2 -2 486.78 10.24 0
 -3 -1 -11 137.4 7.28 0
 -3 -1 -10 549.12 13.12 0
 -3 -1 -9 693.71 14.25 0
 -3 -1 -8 730.13 14.13 0
 -3 -1 -7 113.7 5.77 0
 -3 -1 -6 908.88 14.94 0
 -3 -1 -5 647.85 12.47 0
 -3 -1 -4 58.66 4.29 0
 -3 -1 -3 48.26 3.76 0
 -3 -1 -2 1298.57 16.37 0
 -3 0 -11 52.88 4.87 0
 -3 0 -10 32.26 4.12 0
 -3 0 -9 7.28 3.14 0
 -3 0 -8 253.42 8.4 0
 -3 0 -7 6.19 3.03 0
 -3 0 -5 247.34 7.69 0
 -3 0 -4 1870.44 19.86 0
 -3 1 -12 224.25 8.54 0
 -3 1 -11 145.98 6.9 0
 -3 1 -10 524.46 12.23 0
 -3 1 -9 677.75 13.4 0
 -3 1 -8 773.14 14 0
 -3 1 -7 117.35 5.72 0
 -3 1 -6 894.95 14.14 0
 -3 1 -5 654.95 12.26 0
 -3 2 -13 106.66 6.6 0
 -3 2 -12 237.79 8.78 0
 -3 2 -11 242.41 8.69 0
 -3 2 -10 155.86 6.89 0
 -3 2 -9 324.17 9.22 0
 -3 2 -8 216.46 7.57 0
 -3 3 -14 43.14 4.8 0
 -3 3 -13 46.71 4.5 0
 -3 3 -12 26.12 3.8 0
 -3 3 -11 33.29 3.7 0
 -2 -8 -4 107.25 5.81 0
 -2 -8 -3 137.75 6.36 0
 -2 -8 -2 141.77 6.02 0
 -2 -8 -1 335.92 8.6 0
 -2 -8 0 51.53 3.72 0
 -2 -8 1 327.96 7.47 0
 -2 -7 -6 413.65 11.68 0
 -2 -7 -5 410.55 11.04 0
 -2 -7 -4 145.19 6.58 0
 -2 -7 -3 239.48 7.85 0
 -2 -7 -2 120.8 5.68 0
 -2 -7 -1 317.38 8.18 0
 -2 -7 0 104.33 4.82 0
 -2 -7 1 310.16 7.23 0
 -2 -6 -7 104.99 6.63 0
 -2 -6 -6 206.67 7.99 0
 -2 -6 -5 84.87 5.46 0
 -2 -6 -3 97.02 5.01 0
 -2 -6 -2 212.9 6.79 0
 -2 -6 -1 994.97 13.7 0
 -2 -6 0 206.64 6.11 0
 -2 -6 1 1009.12 12.6 0
 -2 -5 -6 311.29 9.25 0
 -2 -5 -5 348.28 9.47 0
 -2 -5 -4 650.3 12.37 0
 -2 -5 -3 768.06 12.68 0
 -2 -5 -1 70.47 3.99 0
 -2 -5 0 392.08 8 0
 -2 -5 1 78.27 3.69 0
 -2 -4 -6 718.04 13.38 0
 -2 -4 -5 67.54 4.41 0
 -2 -4 -4 252.01 7.47 0
 -2 -4 -3 1647.77 17.48 0
 -2 -4 -2 402.39 8.61 0
 -2 -4 -1 427.1 8.34 0
 -2 -4 0 68.24 3.67 0
 -2 -3 -7 609.93 12.41 0
 -2 -3 -6 229.38 7.37 0
 -2 -3 -5 93.75 4.84 0
 -2 -3 -4 1203.79 15.11 0
 -2 -3 -3 1411.72 15.58 0
 -2 -3 -1 1187.56 13.31 0
 -2 -3 0 1364.37 13.91 0
 -2 -3 1 1183.18 12.46 0
 -2 -2 -9 270.58 8.7 0
 -2 -2 -8 317.31 8.96 0
 -2 -2 -7 24.45 3.29 0
 -2 -2 -6 57.03 3.91 0
 -2 -2 -5 120.32 5.08 0
 -2 -2 -4 127.06 5.03 0
 -2 -2 -3 316.24 7.43 0
 -2 -2 -2 1027.44 12.34 0
 -2 -2 -1 250.6 6.36 0
 -2 -2 0 4911.44 25.28 0
 -2 -1 -12 564.22 13.35 0
 -2 -1 -11 12.92 3.21 0
 -2 -1 -10 167.8 6.94 0
 -2 -1 -8 55.85 4.11 0
 -2 -1 -7 300.62 8.05 0
 -2 -1 -6 1489.9 16.63 0
 -2 -1 -4 787.53 11.34 0
 -2 -1 -3 1709.52 15.84 0
 -2 -1 -2 479.02 8.39 0
 -2 -1 -1 470.88 8.22 0
 -2 0 -13 319.34 10.07 0
 -2 0 -12 125.31 6.41 0
 -2 0 -10 486.58 10.9 0
 -2 0 -8 11.49 2.42 0
 -2 0 -7 141.84 5.37 0
 -2 0 -6 270.1 7.08 0
 -2 0 -5 1023.3 12.88 0
 -2 0 -3 28.9 2.74 0
 -2 0 -2 3.35 1.9 0
 -2 1 -14 9.97 2.88 0
 -2 1 -13 17.54 3.28 0
 -2 1 -12 589 12.44 0
 -2 1 -11 22.66 3.41 0
 -2 1 -10 165.23 6.32 0
 -2 1 -8 50.26 3.76 0
 -2 1 -7 326.5 7.62 0
 -2 1 -6 1502.82 15.52 0
 -2 1 -5 414.77 8.09 0
 -2 1 -4 774.42 10.6 0
 -2 1 -3 1746.67 15.39 0
 -2 2 -15 163.19 7.36 0
 -2 2 -13 509.62 11.48 0
 -2 2 -12 146.65 6.16 0
 -2 2 -11 64.3 4.11 0
 -2 2 -10 209.46 6.81 0
 -2 2 -8 298.14 7.43 0
 -2 2 -7 32.46 2.82 0
 -2 2 -6 51.02 3.38 0
 -2 2 -5 119.94 4.51 0
 -2 3 -15 34.16 3.8 0
 -2 3 -14 70.13 4.68 0
 -2 3 -13 31.88 3.74 0
 -2 3 -12 17.95 2.93 0
 -2 3 -11 1.03 1.65 0
 -2 3 -10 297.88 7.52 0
 -2 3 -9 529.62 9.47 0
 -1 -9 -4 222.03 7.98 0
 -1 -9 -3 74.09 4.88 0
 -1 -9 -2 80.66 4.85 0
 -1 -8 -2 209.2 6.85 0
 -1 -8 -1 257.6 7.06 0
 -1 -8 0 301.11 6.97 0
 -1 -8 1 258.47 5.81 0
 -1 -8 2 205.54 4.31 0
 -1 -7 -1 18.68 2.74 0
 -1 -7 0 127.93 4.58 0
 -1 -7 1 17.59 2.19 0
 -1 -7 2 100.45 3.24 0
 -1 -6 0 78.48 3.55 0
 -1 -6 1 190.74 4.67 0
 -1 -6 2 81.12 2.87 0
 -1 -5 0 9.36 1.57 0
 -1 -5 1 5.34 1.33 0
 -1 -5 2 502.04 6.31 0
 -1 -4 0 240.25 5.16 0
 -1 -4 1 318.45 5.29 0
 -1 -4 2 1413.61 9.89 0
 -1 -3 -1 49.64 2.54 0
 -1 -3 0 5.28 1.2 0
 -1 -3 1 51.03 2.2 0
 -1 -2 -1 6736.07 23.84 0
 -1 -2 0 146.11 3.27 0
 -1 -2 1 6715.05 20.6 0
 -1 -1 -1 2713.01 14.02 0
 -1 -1 0 5573.49 18.86 0
 -1 0 -4 -1.37 1.2 0
 -1 0 -3 16.81 1.46 0
 -1 0 -2 444.01 5.76 0
 -1 0 -1 2703.15 13.37 0
 -1 1 -6 2418.44 16.5 0
 -1 1 -5 1866.53 13.5 0
 -1 1 -4 434.64 6.16 0
 -1 1 -2 1726.31 10.68 0
 -1 2 -16 42.57 4.39 0
 -1 2 -15 75.75 5.07 0
 -1 2 -14 4.43 2.49 0
 -1 2 -13 514.55 10.68 0
 -1 2 -12 658.26 11.5 0
 -1 2 -10 122.36 4.62 0
 -1 2 -9 172.38 5.15 0
 -1 2 -8 989.98 11.18 0
 -1 2 -7 1030.95 10.56 0
 -1 2 -6 431.9 6.43 0
 -1 2 -5 723.81 7.72 0
 -1 3 -15 173.09 6.35 0
 -1 3 -14 242.03 7.13 0
 -1 3 -13 373.12 8.37 0
 -1 3 -12 101.65 4.34 0
 -1 4 -12 332.9 6.62 0
 -1 4 -11 138.82 4.14 0
 -1 4 -10 14.25 1.78 0
 0 -8 1 350.11 6.35 0
 0 -8 2 351.99 4.95 0
 0 -7 2 79.07 2.55 0
 0 3 -7 466.18 5.05 0
 0 3 -6 57.53 1.5 0
 0 4 -11 229.67 4.4 0
 0 4 -10 32.22 1.64 0
 1 -8 3 165.05 3.07 0
 1 -7 3 200.99 3.89 0
 1 -6 4 608.96 4.68 0
 1 -5 4 643.09 5.57 0
 1 -4 3 1735.94 10.63 0
 1 -4 4 1126.93 7.8 0
 1 -3 3 201.08 3.78 0
 1 -3 4 812.05 7.07 0
 1 -2 2 4121.02 16.24 0
 1 -2 3 1477.73 9.76 0
 1 -1 2 1742.04 10.49 0
 1 -1 3 222.35 4.06 0
 1 0 1 2698.4 12.94 0
 1 0 2 446.37 5.77 0
 1 1 -1 2673.26 12.53 0
 1 1 0 5764.33 18.92 0
 1 1 1 2775.15 14.08 0
 1 2 -2 4148.88 15.2 0
 1 2 -1 6773.59 20.06 0
 1 3 -4 793.58 6.2 0
 1 3 -3 197.62 3.25 0
 1 4 -8 249.85 3.57 0
 2 -7 3 264.22 6.09 0
 2 -7 4 140.68 4.12 0
 2 -6 4 155.34 4.5 0
 2 -6 5 86.15 3.23 0
 2 -5 3 758.76 10.09 0
 2 -5 4 643.15 8.87 0
 2 -5 5 354.95 6.49 0
 2 -4 3 1697.45 14.72 0
 2 -4 5 64.23 3.04 0
 2 -3 4 1219.31 12.32 0
 2 -3 5 93.72 3.67 0
 2 -2 2 1058.22 11.72 0
 2 -2 3 323.22 6.71 0
 2 -2 4 132.04 4.52 0
 2 -2 5 122.21 4.24 0
 2 -1 1 481.95 7.96 0
 2 -1 2 492.99 8.09 0
 2 -1 3 1776.42 15.21 0
 2 -1 4 760.63 10.22 0
 2 0 0 5027.18 24.92 0
 2 0 1 796.02 10.15 0
 2 0 2 -0.61 1.74 0
 2 0 3 26.35 2.61 0
 2 0 4 1010.93 12.14 0
 2 1 0 5.46 2.2 0
 2 1 1 468.04 7.84 0
 2 1 2 471.29 8.08 0
 2 1 3 1722.8 15.7 0
 2 2 -1 236.34 5.48 0
 2 2 0 4886.42 24.53 0
 2 2 1 250.92 6.04 0
 2 3 -5 92.28 3.55 0
 2 3 -3 1474.09 12.87 0
 2 3 -2 63.04 2.9 0
 2 3 -1 1210.56 12.27 0
 2 3 0 1370.99 13.42 0
 2 4 -6 698.52 8.45 0
 2 4 -5 63.38 2.78 0
 2 4 -4 264.7 5.31 0
 2 4 -3 1696.15 13.72 0
 2 5 -7 59.09 2.29 0
 3 -7 2 205.89 7.03 0
 3 -7 3 78.83 4.54 0
 3 -7 4 24.72 3.07 0
 3 -7 5 24.66 2.91 0
 3 -6 3 53.16 4.11 0
 3 -6 4 295.08 7.66 0
 3 -6 5 233.29 6.69 0
 3 -6 6 90.78 4.22 0
 3 -5 3 229.86 7.11 0
 3 -5 5 146.16 5.5 0
 3 -5 6 227.32 6.58 0
 3 -4 2 291.28 7.9 0
 3 -4 4 195.95 6.49 0
 3 -4 5 706.56 11.58 0
 3 -3 2 167.97 6 0
 3 -3 4 405.37 8.84 0
 3 -3 5 2024.2 19.62 0
 3 -3 6 138.01 5.7 0
 3 -2 1 890.06 13.41 0
 3 -2 2 468.48 9.69 0
 3 -2 4 176.26 6.21 0
 3 -2 5 227.63 6.9 0
 3 -2 6 114.17 5.2 0
 3 -1 0 713.43 11.91 0
 3 -1 2 1296.89 15.7 0
 3 -1 3 44.49 3.64 0
 3 -1 4 60.74 3.96 0
 3 -1 5 676.63 11.76 0
 3 0 0 -0.72 2.14 0
 3 0 1 1458.96 16.73 0
 3 0 2 1073.17 14.32 0
 3 0 3 3.27 1.96 0
 3 0 4 1856.38 19.24 0
 3 0 5 240.4 7.29 0
 3 1 0 719.97 11.68 0
 3 1 1 833.14 12.58 0
 3 1 2 1268.15 15.75 0
 3 3 -6 137.09 5.35 0
 3 3 1 26.73 3.04 0
 3 4 -10 148.42 5.42 0
 3 4 -9 210.05 6.3 0
 3 4 -8 52.81 3.58 0
 3 4 -7 290.39 7.23 0
 3 4 -6 145.45 5.2 0
 3 4 -4 198.58 5.92 0
 3 4 -3 61.44 3.8 0
 3 4 -2 304.9 7.69 0
 3 4 -1 30.41 2.95 0
 3 5 -7 122.77 4.44 0
 3 5 -6 213.56 5.85 0
 3 5 -5 147.36 5.07 0
 3 5 -4 467.33 8.89 0
 4 -7 1 210.96 8.24 0
 4 -7 3 83.22 5.41 0
 4 -6 1 154.59 7.17 0
 4 -6 2 23.14 3.7 0
 4 -6 3 34.22 4.28 0
 4 -6 4 64.56 4.85 0
 4 -6 5 12.85 2.7 0
 4 -6 6 4.71 2.18 0
 4 -5 1 71.18 5.51 0
 4 -5 2 135.26 6.79 0
 4 -5 3 72.01 4.92 0
 4 -5 5 93.67 5.56 0
 4 -5 6 372.65 9.78 0
 4 -5 7 91.89 5.3 0
 4 -4 1 288.06 9.38 0
 4 -4 2 153.98 7.19 0
 4 -4 3 60.81 4.55 0
 4 -4 4 93.21 5.72 0
 4 -4 5 17.76 3.15 0
 4 -4 6 58.25 4.35 0
 4 -4 7 16.86 3.03 0
 4 -3 1 171.74 7.51 0
 4 -3 2 20.05 3.54 0
 4 -3 3 372.53 10 0
 4 -3 4 865.65 14.99 0
 4 -3 5 57.41 4.41 0
 4 -3 6 195.49 7.67 0
 4 -3 7 249.52 8.31 0
 4 -2 0 660.33 13.41 0
 4 -2 1 3.23 2.91 0
 4 -2 2 258.92 8.83 0
 4 -2 4 2.41 2.41 0
 4 -2 5 292.82 8.91 0
 4 -1 0 44.46 4.06 0
 4 -1 1 49.77 5.04 0
 4 -1 3 2278.13 24.13 0
 4 -1 5 121.32 6.46 0
 4 -1 6 262.16 8.96 0
 4 0 -2 8.95 2.71 0
 4 0 -1 108.96 5.79 0
 4 0 2 9.54 2.61 0
 4 0 4 896.53 15.52 0
 4 0 5 275.12 8.92 0
 4 1 -4 619.1 13.02 0
 4 1 -3 2277.75 24.12 0
 4 1 -2 420.22 10.62 0
 4 1 -1 53.17 4.4 0
 4 1 0 47.09 4.19 0
 4 1 1 44.73 4.47 0
 4 1 2 427.79 10.6 0
 4 1 3 2290.61 24.45 0
 4 2 -6 385.81 10.54 0
 4 2 -5 309.61 9.37 0
 4 2 -4 4.83 2.53 0
 4 2 -3 361.14 9.91 0
 4 2 -2 257.82 8.53 0
 4 2 -1 0.68 2.86 0
 4 2 0 673.6 13.34 0
 4 2 1 1.12 2.33 0
 4 2 2 258.45 8.49 0
 4 2 3 354.68 9.97 0
 4 3 -9 533 12.08 0
 4 3 -8 520.99 11.65 0
 4 3 -7 246.23 8.3 0
 4 3 -6 194 7.58 0
 4 3 -3 364.97 9.77 0
 4 3 -2 22.28 3.51 0
 4 3 -1 166.54 6.77 0
 4 3 0 1195.64 17.49 0
 4 3 1 163.88 7.19 0
 4 3 2 19.27 3.37 0
 4 4 -9 0.65 1.61 0
 4 4 -8 66.23 4.68 0
 4 4 -7 19.52 2.89 0
 4 4 -6 63.17 4.46 0
 4 4 -5 19.25 3.01 0
 4 4 -3 66.73 4.42 0
 4 4 -2 158.6 6.74 0
 4 4 -1 292.48 8.79 0
 4 4 0 10.11 2.7 0
 4 5 -6 383.41 9.31 0
 4 5 -5 83.98 4.67 0
 4 5 -4 359.49 9.28 0
 4 5 -3 59.32 4.4 0
 5 -1 -1 89.82 6.33 0
 5 -1 0 66.39 5.52 0
 5 0 -2 521.93 13.45 0
 5 0 -1 878.41 17.16 0
 5 0 0 1.73 2.58 0
 5 0 1 877.92 17.05 0
 5 1 -3 50.86 6.1 0
 5 1 -2 370.76 11.5 0
 5 1 -1 97.55 6.15 0
 5 1 0 66.56 5.67 0
 5 1 1 93.73 6.21 0
 5 2 -4 11.54 3.38 0
 5 2 -3 477.11 12.47 0
 5 2 -2 182.14 7.97 0
 5 2 -1 148.96 7.37 0
 5 2 0 38.22 5.28 0
 5 3 -3 222.52 8.77 0
 5 3 -2 264.78 9.46 0
 -3 -7 -6 165.35 7.38 0
 -3 -7 -5 24.16 3.42 0
 -3 -7 -4 24.24 3.29 0
 -3 -7 -3 79.35 4.36 0
 -3 -6 -7 2.94 2.51 0
 -3 -6 -6 83.19 5.46 0
 -3 -6 -5 221.81 7.64 0
 -2 -8 -5 63.92 5.5 0
 -2 -8 -4 98.5 5.98 0
 -2 -8 -3 139.23 6.38 0
 -2 -8 -2 134.02 5.87 0
 -2 -8 -1 330.56 8.3 0
 -2 -8 0 52.17 3.47 0
 -2 -8 1 328.24 7.15 0
 -2 -7 -7 153.66 7.98 0
 -2 -7 -5 409.4 10.96 0
 -2 -7 -4 153.05 6.9 0
 -2 -7 -3 243.11 7.78 0
 -2 -7 -1 303.48 7.55 0
 -2 -7 0 97.36 4.17 0
 -2 -7 1 309.56 6.47 0
 -2 -7 2 122.61 3.74 0
 -2 -7 3 241.57 4.36 0
 -2 -6 -8 213.95 9.04 0
 -2 -6 -7 106.3 6.27 0
 -2 -6 -6 204.41 8.2 0
 -2 -6 -5 79.73 5.05 0
 -2 -6 -4 150.97 6.27 0
 -2 -6 -3 108.14 5.22 0
 -2 -6 -2 212.88 6.47 0
 -2 -6 -1 990.7 12.45 0
 -2 -6 0 199.26 5.33 0
 -2 -6 1 970.36 10.18 0
 -2 -6 2 211.55 4.26 0
 -2 -6 3 102.96 2.4 0
 -2 -5 -9 124.39 7.06 0
 -2 -5 -8 211.18 8.76 0
 -2 -5 -7 63.51 4.91 0
 -2 -5 -5 345.01 9.39 0
 -2 -5 -4 639.18 11.78 0
 -2 -5 -3 783.41 12.08 0
 -2 -5 -2 241.91 6.3 0
 -2 -5 -1 73.85 3.38 0
 -2 -5 0 383.44 6.54 0
 -2 -5 1 75.92 2.65 0
 -2 -5 2 234.41 3.64 0
 -2 -4 -9 238.2 9.11 0
 -2 -4 -7 558.97 12.49 0
 -2 -4 -5 56.15 4.32 0
 -2 -4 -4 262.23 7.17 0
 -2 -4 -3 1658.94 16.3 0
 -2 -4 -2 386.7 7.31 0
 -2 -4 -1 447.7 7.12 0
 -2 -4 0 65.59 2.56 0
 -2 -4 1 439.39 5.15 0
 -2 -3 -11 6.13 3.13 0
 -2 -3 -10 292.77 9.88 0
 -2 -3 -9 565.62 13.11 0
 -2 -3 -7 620.55 12.63 0
 -2 -3 -6 230.88 7.6 0
 -2 -3 -4 1237.4 14.76 0
 -2 -3 -3 1487 14.97 0
 -2 -3 -2 64.54 3.05 0
 -1 -9 -3 76.09 5.74 0
 -1 -9 -2 83.56 5.47 0
 -1 -8 -5 385.1 11.42 0
 -1 -8 -4 5.86 2.81 0
 -1 -8 -3 167.32 7.47 0
 -1 -7 -7 343.17 11.24 0
 -1 -7 -6 63.69 5.2 0
 -1 -7 -5 20.23 4.02 0
 -1 -7 -4 17.1 3.25 0
 -1 -7 -3 210.86 7.59 0
 -1 -7 8 127.27 4.37 0
 -1 -6 -8 113.06 6.93 0
 -1 -6 -7 137.81 7 0
 -1 -6 -6 278.07 9.38 0
 -1 -6 -5 1128.07 17.27 0
 -1 -6 -4 606.52 12.09 0
 -1 -6 -3 145.99 5.86 0
 -1 -6 9 128.75 4.36 0
 -1 -6 10 5.08 1.72 0
 -1 -5 -10 79.51 7.15 0
 -1 -5 -8 1293.18 19.7 0
 -1 -5 -7 850.52 15.58 0
 -1 -5 -5 167.36 6.51 0
 -1 -5 -4 630.21 11.57 0
 -1 -5 -3 78.89 4.21 0
 -1 -5 8 1276.54 12.18 0
 -1 -5 9 537.08 8.43 0
 -1 -5 10 91.6 3.91 0
 -1 -5 11 201.98 5.85 0
 -1 -5 12 90.49 4.33 0
 -1 -4 -11 126.58 7.73 0
 -1 -4 -10 17.08 3.85 0
 -1 -4 -9 334.06 10.37 0
 -1 -4 -8 250.12 8.93 0
 -1 -4 -7 169.22 6.89 0
 -1 -4 -6 440.95 10.05 0
 -1 -4 -4 1144.9 14.37 0
 -1 -4 -3 1677.41 16.27 0
 -1 -4 -2 1366.92 13.62 0
 -1 -4 8 235.75 5.29 0
 -1 -4 9 338.97 6.77 0
 -1 -4 10 16.59 2.17 0
 -1 -4 11 133.53 5.1 0
 -1 -4 12 319.32 7.8 0
 -1 -3 -11 39.05 4.81 0
 -1 -3 -10 460.61 12.01 0
 -1 -3 -7 218.54 7.7 0
 -1 -3 -6 312.27 8.16 0
 -1 -3 -5 195.84 6.23 0
 -1 -3 -4 798.27 11.24 0
 -1 -3 -3 187.54 5.5 0
 -1 -3 -2 222.83 5.13 0
 -1 -3 -1 50.64 2.4 0
 -1 -3 5 189.49 3.46 0
 -1 -3 6 314.19 5.03 0
 -1 -3 7 216.52 4.66 0
 -1 -3 8 1995.69 15.09 0
 -1 -3 9 670.02 9.69 0
 -1 -3 10 496.08 8.98 0
 -1 -3 11 36.74 3.09 0
 -1 -2 -12 666.91 15.42 0
 -1 -2 -10 116.17 6.36 0
 -1 -2 -9 170.7 6.92 0
 -1 -2 -8 988.59 15.49 0
 -1 -2 -7 1048.17 14.85 0
 -1 -2 -6 413.71 8.88 0
 -1 -2 -5 723.88 10.87 0
 -1 -2 -4 2619.66 19 0
 -1 -2 -3 1470.44 12.99 0
 -1 -2 -2 4018.6 18.93 0
 -1 -2 -1 6677.78 21.16 0
 -1 -2 0 145.89 2.69 0
 -1 -2 4 2619.04 10.04 0
 -1 -2 6 415.57 5.87 0
 -1 -2 7 1048.7 10.38 0
 -1 -2 8 970.23 10.93 0
 -1 -1 -10 980.28 16.05 0
 -1 -1 -8 1011.87 15.17 0
 -1 -1 -5 1851.53 16.69 0
 -1 -1 -4 428.54 7.63 0
 -1 -1 -3 213.22 4.82 0
 -1 -1 -2 1708.52 11.67 0
 0 -7 10 38.41 3.63 0
 0 -6 -8 322.71 10.83 0
 0 -6 10 62.2 4.21 0
 0 -6 11 8.03 2.73 0
 0 -6 12 87.15 5.31 0
 0 -5 -10 6.4 3.26 0
 0 -5 -9 11.74 3.62 0
 0 -5 -7 37.03 4.35 0
 0 -5 9 10.11 2.56 0
 0 -5 10 8.75 2.56 0
 0 -5 11 17.51 3.2 0
 0 -5 12 -1.28 1.8 0
 0 -5 13 100.53 5.72 0
 0 -5 14 237.85 8.38 0
 0 -4 -11 230.14 9.37 0
 0 -4 -10 30.26 4.47 0
 0 -4 -9 49.6 4.62 0
 0 -4 -7 1296.91 18 0
 0 -4 8 911.31 12.44 0
 0 -4 9 47.27 3.83 0
 0 -4 10 37.72 3.62 0
 0 -4 11 242.88 7.85 0
 0 -4 12 114.45 5.88 0
 0 -4 14 13.95 3.2 0
 0 -3 -12 -1.6 2.54 0
 0 -3 -11 42.45 4.73 0
 0 -3 -10 2.77 2.84 0
 0 -3 -9 939.97 15.85 0
 0 -3 -8 20.45 3.3 0
 0 -3 -6 54.46 4.16 0
 0 -3 7 464.41 8.32 0
 0 -3 9 929.88 13.13 0
 0 -3 10 -0.93 1.76 0
 0 -3 11 34.98 3.87 0
 0 -3 12 1.08 1.98 0
 0 -3 13 227.92 8.24 0
 0 -3 14 4.94 2.68 0
 0 -2 -13 1.28 3.03 0
 0 -2 -12 20.17 3.86 0
 0 -2 -10 6.26 2.84 0
 0 -2 -9 7.44 2.47 0
 0 -2 -8 8.51 2.36 0
 0 -2 -7 1018.83 14.3 0
 0 -2 6 3266.98 20.12 0
 0 -2 7 997.73 11.86 0
 0 -2 8 9.71 1.99 0
 0 -2 9 9.89 2.17 0
 0 -2 10 0.68 2.31 0
 0 -2 11 1171.37 16.2 0
 0 -2 12 20.32 3.21 0
 0 -2 13 1.63 2.31 0
 0 -1 -12 1270.33 19.82 0
 0 -1 -11 26.51 4.35 0
 0 -1 -10 119.8 5.95 0
 0 -1 -9 48.27 3.96 0
 0 -1 -8 63.37 4.14 0
 0 -1 -7 2314.19 20.23 0
 0 -1 -6 535.11 9.11 0
 0 -1 -5 421.27 7.63 0
 0 -1 -3 2044.18 13.02 0
 0 -1 4 4870.46 19.72 0
 0 -1 5 417.35 6.58 0
 0 -1 7 2282.56 18.14 0
 0 -1 8 56.5 3.61 0
 0 -1 9 52.1 4.01 0
 0 -1 10 110.51 5.29 0
 0 -1 11 32.68 3.71 0
 0 -1 12 1250.35 17.9 0
 0 -1 13 583.62 13 0
 0 0 -12 1291.56 18.46 0
 0 0 -11 3.82 2.42 0
 0 0 -9 0.84 2.44 0
 0 0 -8 108.96 4.9 0
 0 0 -7 -0.49 1.79 0
 0 0 -6 366.81 7.41 0
 0 0 -5 2 1.22 0
 0 0 -3 2.5 1.3 0
 0 0 -2 1345.94 7.71 0
 0 0 2 1363.03 7.62 0
 0 0 3 1.11 0.92 0
 0 0 4 5299.04 21.24 0
 0 0 5 2.68 1.42 0
 0 0 6 367.89 7.23 0
 0 0 7 0.69 1.8 0
 0 0 8 119.21 4.95 0
 0 0 9 -1.58 2.29 0
 0 0 10 1073.88 15.53 0
 1 -5 11 205.75 8.25 0
 1 -5 12 82.74 5.6 0
 1 -4 -11 132.62 7.76 0
 1 -4 -10 8.4 3.28 0
 1 -4 10 11.69 2.87 0
 1 -4 11 120.69 6.53 0
 1 -4 12 318.99 9.93 0
 1 -4 13 90.56 5.96 0
 1 -3 -12 93.48 6.42 0
 1 -3 -11 39.69 5.06 0
 1 -3 -9 680.06 13.77 0
 1 -3 9 678.36 12.58 0
 1 -3 10 452.43 10.9 0
 1 -3 11 43.65 4.22 0
 1 -3 12 89.77 5.75 0
 1 -3 13 367.14 10.95 0
 1 -2 -13 516.89 13.56 0
 1 -2 -12 637.92 14.31 0
 1 -2 -11 454.73 11.82 0
 1 -2 -9 168.82 6.69 0
 1 -2 -8 975.12 14.7 0
 1 -2 8 978.25 14.57 0
 1 -2 9 180.9 6.65 0
 1 -2 10 123 6.29 0
 1 -2 11 444.39 11.16 0
 1 -2 12 659.34 13.97 0
 1 -2 13 491.15 12.47 0
 1 -1 -14 369 11.5 0
 1 -1 -13 40 4.72 0
 1 -1 -12 27.58 4.13 0
 1 -1 -11 446.13 11.06 0
 1 -1 -10 991.43 15.39 0
 1 -1 -9 247.77 7.43 0
 1 -1 -8 983.27 13.71 0
 1 -1 6 2364.15 19.35 0
 1 -1 7 298.62 7.56 0
 1 -1 8 1021.71 14.62 0
 1 -1 11 409.85 10.63 0
 1 -1 12 21.35 3.6 0
 1 -1 13 45.48 4.56 0
 1 0 -14 188.64 8.45 0
 1 0 -13 -0.2 2.34 0
 1 0 -12 2258 24.51 0
 1 0 -10 300.9 8.23 0
 1 0 -9 786.17 12.42 0
 1 0 -8 38.77 3.02 0
 1 0 -6 2261.11 16.65 0
 1 0 -5 4093.06 20.26 0
 1 0 4 -0.22 1.23 0
 1 0 5 4191.14 23.99 0
 1 0 6 2200.19 18.76 0
 1 0 7 303.65 7.64 0
 1 0 8 40.56 3.45 0
 1 0 9 790.89 13.35 0
 1 0 10 305.52 8.83 0
 1 0 11 119.72 6.55 0
 1 0 13 0.88 2.66 0
 1 1 -11 417.4 9.57 0
 1 1 -9 241.71 6.74 0
 1 1 -8 1031.91 12.44 0
 1 1 -7 295.07 6.22 0
 1 1 -6 2436.38 15.64 0
 1 1 -5 1870.43 12.06 0
 1 1 0 5654.5 14.02 0
 1 1 1 2779.52 12.42 0
 1 1 2 1819.01 11.89 0
 1 1 3 217.41 4.77 0
 1 1 4 430.39 7.33 0
 1 1 5 1826.99 16.15 0
 1 1 6 2463.79 20.09 0
 1 1 7 298.51 7.77 0
 1 1 11 434.84 11.27 0
 1 1 12 18.6 3.61 0
 1 2 3 1446.5 12.47 0
 1 2 4 2661.75 18.63 0
 1 2 5 748.88 10.9 0
 1 2 6 431.2 8.94 0
 1 2 7 1044.05 14.49 0
 2 -4 11 0.68 2.68 0
 2 -3 -11 4.05 2.98 0
 2 -3 10 282.36 9.37 0
 2 -3 11 1.96 2.74 0
 2 -2 -13 499.21 13.45 0
 2 -2 -12 154.14 7.56 0
 2 -2 -11 60.57 4.95 0
 2 -2 -10 219.11 8.31 0
 2 -2 9 271.02 8.81 0
 2 -2 11 51.62 4.74 0
 2 -1 -14 14.1 3.48 0
 2 -1 -13 20.63 3.9 0
 2 -1 -12 571.15 12.76 0
 2 -1 -11 23.02 3.46 0
 2 -1 -10 173.84 6.94 0
 2 -1 -9 185.57 6.62 0
 2 -1 10 165.7 7.28 0
 2 -1 11 22.7 3.85 0
 2 -1 12 590.97 14.43 0
 2 0 -15 144.51 7.37 0
 2 0 -14 101.14 6.21 0
 2 0 -13 304.09 9.6 0
 2 0 -12 126.16 6.07 0
 2 0 -11 217.08 7.58 0
 2 0 -10 498.93 10.51 0
 2 0 -9 58.54 3.69 0
 2 0 -8 9.76 2.09 0
 2 0 5 1029.57 13.06 0
 2 0 6 280.33 8.01 0
 2 0 10 498.23 12.16 0
 2 0 11 227.4 8.73 0
 2 0 12 125.35 6.95 0
 2 1 -14 7.71 2.76 0
 2 1 -12 593.47 11.8 0
 2 1 -11 17.06 2.7 0
 2 1 -10 174.1 5.92 0
 2 1 -9 188.41 5.69 0
 2 1 3 1763.04 15.5 0
 2 1 4 799.31 11.39 0
 2 1 5 403.51 8.58 0
 2 1 6 1485.71 17.09 0
 2 1 11 19.39 4.21 0
 2 2 -7 30.34 1.73 0
 2 2 -6 52.01 1.94 0
 2 2 -5 114.2 2.17 0
 2 2 -1 243.92 3.51 0
 2 2 0 5019.51 18.43 0
 2 2 2 1042.61 10.91 0
 2 2 3 322.55 6.75 0
 2 2 4 136.85 4.9 0
 2 2 8 311.28 8.99 0
 2 2 9 258.55 8.67 0
 2 2 11 61.01 5.5 0
 2 3 3 1469.59 14.26 0
 2 3 4 1212.3 14.05 0
 2 3 7 590.06 12.1 0
 2 3 8 328.86 9.38 0
 3 -2 10 138.99 7.62 0
 3 -1 -13 195.68 8.24 0
 3 -1 -12 238.24 8.5 0
 3 -1 8 726.24 14.55 0
 3 -1 9 703.79 15.26 0
 3 0 -14 205.29 8.04 0
 3 0 -13 -0.73 1.87 0
 3 0 -12 193.59 7.16 0
 3 0 -11 59.14 4.42 0
 3 0 -10 36 3.67 0
 3 0 -9 5.73 1.94 0
 3 0 6 18.96 3.02 0
 3 0 7 3.41 2.67 0
 3 0 8 250.1 9.04 0
 3 0 9 8.95 3.08 0
 3 0 10 39.19 4.77 0
 3 1 -14 6.95 2.29 0
 3 1 -13 217.2 7.31 0
 3 1 -12 211.94 6.81 0
 3 1 -11 148.29 5.56 0
 3 1 -10 568.43 9.98 0
 3 1 6 886.42 14.56 0
 3 1 7 121.38 6.21 0
 3 1 8 766.18 14.79 0
 3 1 9 677.98 14.49 0
 3 1 10 547.93 13.66 0
 3 2 -11 217.75 5.53 0
 3 2 -8 217.84 4.48 0
 3 2 -7 136.05 3.28 0
 3 2 -6 103.74 2.55 0
 3 2 0 349.78 6.32 0
 3 2 1 867.74 10.54 0
 3 2 2 461.62 8.28 0
 3 2 5 237.55 7.33 0
 3 2 6 105.22 5.45 0
 3 2 7 149.78 6.95 0
 3 2 9 308.44 10.1 0
 3 2 10 149.72 7.77 0
 3 3 -1 30.24 1.65 0
 3 3 0 31.83 2.04 0
 3 3 1 25.3 2.22 0
 3 3 4 380.18 8.54 0
 3 3 6 150.75 6.54 0
 3 3 7 235.54 8.13 0
 3 3 8 561.41 12.73 0
 3 3 10 7.93 3.21 0
 4 -1 -12 39.92 4.34 0
 4 0 -13 104.95 5.82 0
 4 0 -12 6.46 2.25 0
 4 0 -11 341.89 9.24 0
 4 0 -10 624.38 11.83 0
 4 0 7 47.21 5.69 0
 4 0 8 25.33 4.19 0
 4 1 4 593.13 11.85 0
 4 1 5 122.08 6.16 0
 4 1 6 281.13 9.26 0
 4 1 7 1561.56 21.61 0
 4 2 -7 220.82 4.3 0
 4 2 1 1.19 1.37 0
 4 2 2 250.48 7.21 0
 4 2 3 345.73 8.6 0
 4 2 5 299.52 8.91 0
 4 2 6 377.11 10.39 0
 4 2 7 211.18 8.27 0
 4 2 8 17.75 3.65 0
 4 3 -3 370.5 4.15 0
 4 3 -2 22.82 1.68 0
 4 3 1 162.97 5.23 0
 4 3 3 359.99 8.55 0
 4 3 4 841.62 13.62 0
 4 3 5 45.97 4.23 0
 4 3 6 182.83 7.52 0
 4 3 7 242.16 8.65 0
 4 4 2 151.56 5.26 0
 4 4 3 64.68 3.92 0
 4 4 4 87.98 4.9 0
 4 4 5 21.06 3.37 0
 4 4 6 52.36 4.64 0
 4 4 7 20.06 3.54 0
 5 1 4 353.92 10.26 0
 5 1 6 4.61 2.89 0
 5 2 0 45.91 3.55 0
 5 2 1 151.29 6.12 0
 5 2 2 183.01 6.86 0
 5 2 3 493.75 11.22 0
 5 2 4 14.94 2.96 0
 5 2 5 383.95 10.8 0
 5 2 6 260.23 9.44 0
 5 3 1 206.99 6.46 0
 5 3 2 277.86 7.9 0
 5 3 4 496.51 11.52 0
 5 3 5 201.16 7.86 0
 5 3 6 78.01 5.33 0
 5 4 4 55.47 3.99 0
 5 4 5 2.59 2.04 0
 5 4 6 102.68 6.15 0
 6 2 3 104.98 5.95 0
 -6 4 -14 78.93 7.95 0
 -6 5 -15 42.08 7.87 0
 -6 5 -14 60.11 8.39 0
 -5 1 -13 64.78 5.58 0
 -5 2 -14 158.26 8.95 0
 -5 3 -16 51.6 6.65 0
 -5 3 -15 319.85 12.92 0
 -5 3 -14 25.49 5.55 0
 -5 4 -17 11.61 5.08 0
 -5 4 -16 58.22 7.27 0
 -5 4 -15 51.06 7.03 0
 -5 5 -17 68.5 8.68 0
 -5 5 -16 34 6.75 0
 -5 5 -15 8.45 5.39 0
 -5 5 -14 44.05 7.8 0
 -5 6 -15 59.6 9.18 0
 -5 6 -14 23.56 6.63 0
 -5 7 -14 41.76 9.02 0
 -4 -2 -9 153.49 3.69 0
 -4 -1 -12 40.77 3.31 0
 -4 -1 -11 191.04 5.78 0
 -4 -1 -10 3.87 1.97 0
 -4 0 -12 11.83 3.08 0
 -4 0 -11 341.56 9 0
 -4 1 -15 167.23 8.23 0
 -4 1 -13 323.4 10.41 0
 -4 1 -12 42.51 4.37 0
 -4 2 -17 7.12 4.11 0
 -4 2 -16 105.82 7.81 0
 -4 2 -15 335.62 11.78 0
 -4 2 -13 12.6 4.46 0
 -4 3 -18 19.19 5.35 0
 -4 3 -17 25.37 5.71 0
 -4 3 -16 29.49 5.63 0
 -4 3 -15 94.68 7.5 0
 -4 3 -14 333.86 12.8 0
 -4 3 -13 190.14 9.92 0
 -4 4 -19 116.07 9.87 0
 -4 4 -16 13.89 5.04 0
 -4 4 -15 53.31 7.32 0
 -4 4 -14 40.35 6.84 0
 -4 4 -13 206.95 10.92 0
 -4 5 -19 1.15 4.92 0
 -4 5 -18 106.24 10.27 0
 -4 5 -17 81.62 9.88 0
 -4 5 -16 30.55 6.49 0
 -4 5 -15 1.39 5.03 0
 -4 5 -14 103.58 9.37 0
 -4 5 -13 36.93 6.45 0
 -4 6 -18 40.3 8.24 0
 -4 6 -17 72.48 9.39 0
 -4 6 -16 58.28 8.58 0
 -4 6 -15 153.46 11.69 0
 -4 6 -13 160.49 11.47 0
 -4 7 -16 29.01 7.14 0
 -4 7 -14 26.65 7.74 0
 -4 7 -13 30.95 7.49 0
 -4 8 -15 13.05 7.15 0
 -4 8 -14 2.82 6.82 0
 -4 8 -13 110.11 11.3 0
 -4 9 -12 -2.73 6.03 0
 -3 -2 -10 140.21 3.35 0
 -3 -2 -9 308.21 4.66 0
 -3 -2 -8 219.23 3.78 0
 -3 -2 -7 141.36 3.09 0
 -3 -1 -14 8.1 2.35 0
 -3 -1 -13 209.77 6.48 0
 -3 -1 -12 219.77 6.36 0
 -3 -1 -11 144.9 5.07 0
 -3 -1 -10 532.58 8.74 0
 -3 -1 -9 677.95 9.57 0
 -3 0 -16 132.01 6.87 0
 -3 0 -13 -0.83 2.57 0
 -3 0 -12 199.83 7.11 0
 -3 0 -11 50.47 4.21 0
 -3 0 -10 33.95 3.59 0
 -3 1 -18 17.75 4.69 0
 -3 1 -17 62.29 6.34 0
 -3 1 -15 119 6.88 0
 -3 1 -14 7.64 3.73 0
 -3 1 -11 137.67 6.71 0
 -3 2 -19 32.85 5.87 0
 -3 2 -18 84.47 7.67 0
 -3 2 -17 126.46 8.54 0
 -3 2 -16 106.18 7.96 0
 -3 2 -15 31.08 5.02 0
 -3 2 -14 129.74 7.44 0
 -3 2 -13 92.82 6.84 0
 -3 2 -12 249.78 9.44 0
 -3 3 -20 131.54 9.76 0
 -3 3 -18 19.6 5.93 0
 -3 3 -17 152.53 10.25 0
 -3 3 -16 46.67 6.35 0
 -3 3 -14 54.2 6.16 0
 -3 3 -13 56.03 6.46 0
 -3 3 -12 21.33 4.96 0
 -3 4 -21 70.52 9.18 0
 -3 4 -20 13.59 5.32 0
 -3 4 -19 22.24 6.44 0
 -3 4 -18 89.16 9.22 0
 -3 4 -17 116.89 9.72 0
 -3 4 -16 198.16 11.45 0
 -3 4 -15 190.58 10.44 0
 -3 4 -14 103.64 8.33 0
 -3 4 -13 278.6 12.23 0
 -3 4 -12 2.64 3.97 0
 -3 5 -20 30.73 7 0
 -3 5 -19 8.64 6.52 0
 -3 5 -18 57.95 8.19 0
 -3 5 -17 98.5 9.74 0
 -3 5 -16 49.12 8.02 0
 -3 5 -15 64.29 7.9 0
 -3 5 -14 53.71 7.5 0
 -3 5 -13 187.36 11.03 0
 -3 6 -19 34.9 8.31 0
 -3 6 -18 116.79 11.25 0
 -3 6 -17 -0.51 5.23 0
 -3 6 -16 131.72 11.08 0
 -3 6 -15 1.07 5.55 0
 -3 6 -14 214.52 12.57 0
 -3 6 -13 35.91 6.62 0
 -3 6 -12 38.25 7.27 0
 -3 7 -17 7.85 6.07 0
 -3 7 -16 31.31 7.3 0
 -3 7 -15 7.17 5.74 0
 -3 7 -13 243.64 13.84 0
 -3 8 -16 29.67 7.95 0
 -3 8 -13 24.85 7.29 0
 -3 8 -12 124.28 10.93 0
 -3 8 -11 136.04 10.7 0
 -3 9 -14 3.2 5.87 0
 -3 9 -13 3.84 5.64 0
 -3 9 -12 123.09 12.03 0
 -3 9 -11 97.42 10.22 0
 -3 10 -12 56.41 10.24 0
 -3 10 -11 39.77 8.32 0
 -3 10 -10 122.06 11.98 0
 -3 11 -9 11.11 6.34 0
 -2 -2 -15 150.13 5.75 0
 -2 -2 -14 49.47 3.59 0
 -2 -2 -13 499.93 8.97 0
 -2 -2 -12 147.88 4.72 0
 -2 -2 -11 49.99 2.87 0
 -2 -2 -10 197.55 4.46 0
 -2 -2 -9 255.9 4.53 0
 -2 -2 -7 27.94 1.31 0
 -2 -2 -3 318.29 3.68 0
 -2 -2 -2 1024.8 7.67 0
 -2 -1 -15 126.56 5.98 0
 -2 -1 -14 10.25 2.77 0
 -2 -1 -13 19.54 2.8 0
 -2 -1 -12 555.73 10.16 0
 -2 -1 -11 19.02 2.5 0
 -2 -1 -10 168.19 5.28 0
 -2 -1 -9 188.81 5.07 0
 -2 -1 -8 59.48 2.94 0
 -2 -1 -7 312.94 5.5 0
 -2 0 -18 81.22 6.63 0
 -2 0 -17 0.85 2.83 0
 -2 0 -16 215.44 8.69 0
 -2 0 -13 317.77 9.3 0
 -2 0 -12 127.96 5.82 0
 -2 0 -11 209.4 7.06 0
 -2 0 -9 57.53 3.63 0
 -2 0 -8 8.06 2.21 0
 -2 1 -20 114.97 8.63 0
 -2 1 -19 28.39 5.21 0
 -2 1 -18 157.99 9.02 0
 -2 1 -17 194.32 9.13 0
 -2 1 -16 5.37 3.92 0
 -2 1 -15 124.48 7.54 0
 -2 1 -14 14.6 3.78 0
 -2 1 -11 16.77 3.23 0
 -2 1 -9 189.76 6.54 0
 -2 2 -20 8.97 4.56 0
 -2 2 -19 119.45 8.93 0
 -2 2 -18 45.94 6.74 0
 -2 2 -17 159.8 9.33 0
 -2 2 -16 137.41 8.9 0
 -2 2 -15 161.73 9.07 0
 -2 2 -14 50.78 5.54 0
 -2 2 -13 518.11 13.31 0
 -2 2 -10 200.18 7.81 0
 -2 3 -22 51.96 7.21 0
 -2 3 -21 75.79 9.32 0
 -2 3 -20 146.85 10.42 0
 -2 3 -19 201.75 11.37 0
 -2 3 -18 18.12 6.1 0
 -2 3 -16 72.36 7.74 0
 -2 3 -15 34.89 5.66 0
 -2 3 -14 68.09 6.99 0
 -2 3 -13 44.34 5.51 0
 -2 3 -12 20.78 4.41 0
 -2 3 -11 7.28 3.38 0
 -2 4 -22 -1.84 4.08 0
 -2 4 -20 4.27 5.6 0
 -2 4 -19 119.9 9.92 0
 -2 4 -18 78 9.22 0
 -2 4 -17 62.11 8.3 0
 -2 4 -16 213.63 11.73 0
 -2 4 -15 237.37 11.49 0
 -2 4 -14 40.62 6.37 0
 -2 4 -13 58.99 6.38 0
 -2 4 -12 29.17 5.12 0
 -2 4 -11 -1.11 3.97 0
 -2 5 -21 89.55 11.02 0
 -2 5 -20 62.23 9.16 0
 -2 5 -19 33.21 7.41 0
 -2 5 -18 94.54 9.31 0
 -2 5 -17 12.52 5.65 0
 -2 5 -16 151.34 10.98 0
 -2 5 -15 10.46 5.63 0
 -2 5 -14 120.39 9.24 0
 -2 5 -13 183.05 10.29 0
 -2 5 -12 206.66 11.01 0
 -2 5 -11 33.34 5.36 0
 -2 6 -20 47.14 8.84 0
 -2 6 -19 61.34 8.88 0
 -2 6 -18 45.8 8.19 0
 -2 6 -17 210.37 12.93 0
 -2 6 -15 13.68 5.55 0
 -2 6 -14 20.77 5.71 0
 -2 6 -13 180.82 11.23 0
 -2 6 -12 3.49 5.26 0
 -2 6 -11 72.23 7.7 0
 -2 7 -19 27.46 8.35 0
 -2 7 -18 54.17 9.89 0
 -2 7 -17 31.35 7.79 0
 -2 7 -15 72.49 9.37 0
 -2 7 -14 66.74 8.32 0
 -2 7 -13 119.57 9.56 0
 -2 7 -12 94.62 8.82 0
 -2 7 -11 148.21 9.8 0
 -2 7 -10 11.79 4.41 0
 -2 8 -17 296.13 15.96 0
 -2 8 -16 14 6.8 0
 -2 8 -15 110.6 11.8 0
 -2 8 -14 57.53 8.8 0
 -2 8 -13 151.8 11.04 0
 -2 8 -12 160.51 11.07 0
 -2 8 -11 10.54 5.78 0
 -2 8 -10 40.72 7.53 0
 -2 9 -15 3.53 6.93 0
 -2 9 -14 240.67 14.34 0
 -2 9 -13 57.82 9.06 0
 -2 9 -12 57.01 8.91 0
 -2 9 -11 16.07 6.03 0
 -2 9 -10 136.69 11.32 0
 -2 9 -9 15.65 5.78 0
 -2 10 -13 8.07 6.15 0
 -2 10 -12 24.93 8.08 0
 -2 10 -11 111.17 10.69 0
 -2 10 -10 31 7.29 0
 -2 10 -9 42.59 8.47 0
 -2 10 -8 37.47 7.19 0
 -2 11 -11 36.04 9.17 0
 -2 11 -10 72.93 10.18 0
 -2 11 -9 -2.13 5.13 0
 -2 11 -8 127.32 10.87 0
 -2 11 -7 24.85 6.78 0
 -2 12 -7 31.61 7.69 0
 -2 12 -6 8.16 6.36 0
 -2 12 -5 24.99 7.35 0
 -2 13 -2 21.83 5.82 0
 -1 -2 -15 83.85 5.38 0
 -1 -2 -14 3.19 2.68 0
 -1 -2 -13 469.47 10.07 0
 -1 -2 -12 646.6 11.12 0
 -1 -2 -11 451.5 8.73 0
 -1 -2 -10 119.44 4.44 0
 -1 -2 -9 179.78 4.78 0
 -1 -2 -7 1004.71 8.49 0
 -1 -2 -6 410.58 4.55 0
 -1 -1 -19 81.83 6.96 0
 -1 -1 -18 33.79 4.91 0
 -1 -1 -17 125.6 7.51 0
 -1 -1 -14 358.16 9.92 0
 -1 -1 -13 51.01 4.47 0
 -1 -1 -12 20.95 3.23 0
 -1 -1 -10 939.2 12.26 0
 -1 -1 -9 231.74 5.9 0
 -1 -1 -8 981.62 10.68 0
 -1 -1 -7 294.85 5.6 0
 -1 -1 -6 2460.68 13.72 0
 -1 -1 -5 1849.32 10.16 0
 -1 -1 -4 416.82 3.99 0
 -1 0 -20 5.84 4.52 0
 -1 0 -19 262.43 11.44 0
 -1 0 -18 41.59 5.65 0
 -1 0 -17 240.2 10 0
 -1 0 -16 74.53 6.26 0
 -1 0 -15 146.64 7.66 0
 -1 0 -13 -1.43 2.39 0
 -1 0 -12 2191.4 22.79 0
 -1 0 -11 120.06 5.82 0
 -1 0 -9 796.79 11.78 0
 -1 0 -8 39.26 2.94 0
 -1 0 -7 312.97 6.5 0
 -1 0 -6 2232.94 15.3 0
 -1 1 -21 3.14 4.42 0
 -1 1 -20 17.91 5.4 0
 -1 1 -19 65.02 8 0
 -1 1 -18 25.9 5.26 0
 -1 1 -17 130.06 8.55 0
 -1 1 -16 200.62 9.63 0
 -1 1 -15 7.9 4.16 0
 -1 1 -12 19.13 3.67 0
 -1 1 -10 964.33 14.88 0
 -1 1 -8 1008.97 13.41 0
 -1 1 -7 309.69 7.18 0
 -1 2 -22 79.37 9.45 0
 -1 2 -21 42.2 7.33 0
 -1 2 -20 28.46 6.43 0
 -1 2 -18 180.08 10.52 0
 -1 2 -17 7.2 4.71 0
 -1 2 -16 40.91 6.3 0
 -1 2 -15 83.77 7.39 0
 -1 2 -14 7.46 3.91 0
 -1 2 -13 514.11 13.63 0
 -1 2 -8 947.68 14.42 0
 -1 3 -23 -3.51 4.93 0
 -1 3 -22 5.5 5.39 0
 -1 3 -21 132.8 10.87 0
 -1 3 -20 160.09 11.41 0
 -1 3 -18 6.08 5.43 0
 -1 3 -17 37.42 6.66 0
 -1 3 -16 172.49 10.4 0
 -1 3 -15 190.67 10.53 0
 -1 3 -13 380.29 12.64 0
 -1 3 -12 106.55 6.95 0
 -1 3 -9 671.4 13.81 0
 -1 3 -8 1949.47 21.95 0
 -1 4 -22 86.57 10.79 0
 -1 4 -21 32.43 8.34 0
 -1 4 -20 267.07 14.18 0
 -1 4 -19 16.5 5.81 0
 -1 4 -18 220.42 12.54 0
 -1 4 -17 194.81 11.37 0
 -1 4 -16 158.28 10.08 0
 -1 4 -15 50.7 6.75 0
 -1 4 -14 288.13 12.02 0
 -1 4 -13 98.59 7.6 0
 -1 4 -12 326.61 11.88 0
 -1 4 -11 142.47 8.17 0
 -1 5 -21 34.13 8.29 0
 -1 5 -20 6.85 6.91 0
 -1 5 -19 41.56 7.9 0
 -1 5 -18 85.31 9.04 0
 -1 5 -17 2.22 4.93 0
 -1 5 -16 -2.39 4.13 0
 -1 5 -15 103.45 8.98 0
 -1 5 -14 56.72 7.49 0
 -1 5 -13 41.53 6.42 0
 -1 5 -11 212.12 9.79 0
 -1 5 -10 93.97 6.91 0
 -1 6 -20 25.83 7.37 0
 -1 6 -19 88.34 11.27 0
 -1 6 -18 42.19 8.36 0
 -1 6 -17 70.55 9.21 0
 -1 6 -16 281.67 14.14 0
 -1 6 -14 51.35 8.08 0
 -1 6 -13 69.62 7.68 0
 -1 6 -12 25 5.28 0
 -1 6 -11 191.46 9.86 0
 -1 6 -10 5.72 4.09 0
 -1 6 -8 117.25 7.55 0
 -1 7 -19 26.37 7.39 0
 -1 7 -18 39.13 7.96 0
 -1 7 -17 212 14.25 0
 -1 7 -16 22.87 7.15 0
 -1 7 -15 91.36 9.53 0
 -1 7 -14 111.27 10.53 0
 -1 7 -13 143.85 10.47 0
 -1 7 -12 49.22 7.21 0
 -1 7 -10 188.1 10.89 0
 -1 7 -9 162.22 9.5 0
 -1 7 -8 120.99 8.13 0
 -1 8 -18 18.58 7.6 0
 -1 8 -17 9.74 7.4 0
 -1 8 -16 8.5 6.02 0
 -1 8 -14 16.93 6.15 0
 -1 8 -13 262.19 14.4 0
 -1 8 -12 31.62 6.64 0
 -1 8 -11 200.01 11.95 0
 -1 8 -10 307.85 13.85 0
 -1 8 -9 167.59 10.23 0
 -1 8 -8 56.12 7.6 0
 -1 8 -7 16.06 4.73 0
 -1 9 -16 25.75 8.65 0
 -1 9 -15 155.49 12.85 0
 -1 9 -14 51.94 8.57 0
 -1 9 -13 12.37 6.65 0
 -1 9 -10 13.7 5.7 0
 -1 9 -9 34.98 6.71 0
 -1 9 -8 43.09 7.54 0
 -1 9 -6 40.36 6.21 0
 -1 10 -14 256.09 15.34 0
 -1 10 -13 61.74 9 0
 -1 10 -12 96.95 11.59 0
 -1 10 -11 -0.45 5.73 0
 -1 10 -10 165.77 12.39 0
 -1 10 -9 24.6 6.53 0
 -1 10 -8 246.74 13.11 0
 -1 10 -7 92.98 9.05 0
 -1 10 -6 14.25 5.69 0
 -1 10 -5 18.34 6.05 0
 -1 11 -12 65.32 9.93 0
 -1 11 -11 9.68 7.42 0
 -1 11 -10 14.83 7.24 0
 -1 11 -9 222.82 14 0
 -1 11 -8 95.76 10.39 0
 -1 11 -7 36.9 7.36 0
 -1 11 -6 194.3 12.03 0
 -1 11 -5 17.22 5.74 0
 -1 11 -4 171.1 11.07 0
 -1 11 -3 2.49 4.55 0
 -1 12 -9 19.39 7.34 0
 -1 12 -8 67.8 9.78 0
 -1 12 -6 12.7 5.94 0
 -1 12 -5 82.17 9.65 0
 -1 12 -4 27.05 6.24 0
 -1 12 -3 224.28 12.68 0
 -1 13 -5 6.56 6.11 0
 0 -2 -18 466.08 13.66 0
 0 -2 -17 65.08 6.08 0
 0 -2 -16 1085.32 19.29 0
 0 -2 -13 1.42 2.95 0
 0 -2 -12 23.83 3.51 0
 0 -2 -11 1129.38 15.63 0
 0 -2 -10 3.6 2.12 0
 0 -2 -9 5.6 2.33 0
 0 -2 -8 9.82 2.04 0
 0 -1 -20 0.19 4.1 0
 0 -1 -19 74.53 7.34 0
 0 -1 -18 209.24 10.19 0
 0 -1 -17 18.83 4.51 0
 0 -1 -16 39.63 5.79 0
 0 -1 -15 9.89 3.98 0
 0 -1 -12 1288.32 18.23 0
 0 -1 -11 35.54 3.89 0
 0 -1 -10 114.31 5.49 0
 0 -1 -9 50.6 3.58 0
 0 -1 -7 2202.31 17.05 0
 0 -1 -6 532.56 7.9 0
 0 -1 -5 425.61 6.36 0
 0 -1 -4 4779.28 18.07 0
 0 -1 -3 2025.4 10.19 0
 0 0 -22 292.18 13.62 0
 0 0 -21 0.63 4.12 0
 0 0 -19 -3.86 3.69 0
 0 0 -17 4.08 4.08 0
 0 0 -12 1260.52 18.45 0
 0 0 -11 1.37 2.96 0
 0 0 -9 -2.08 1.94 0
 0 0 -8 115.34 4.98 0
 0 0 -7 1.95 1.92 0
 0 0 -6 374.36 6.99 0
 0 0 -5 0.43 1.35 0
 0 0 -4 5277.79 20.34 0
 0 0 -3 0.46 1.35 0
 0 0 2 1382.05 7.35 0
 0 1 -23 56.38 8.38 0
 0 1 -22 131.59 10.54 0
 0 1 -20 2.98 4.85 0
 0 1 -19 77.13 8.63 0
 0 1 -18 204.27 10.75 0
 0 1 -17 21.54 5.63 0
 0 1 -16 40.46 5.57 0
 0 1 -15 7.11 3.63 0
 0 1 -14 6.92 3.92 0
 0 1 -11 31.63 4.56 0
 0 1 -10 120.2 5.96 0
 0 1 -9 48.09 4.35 0
 0 1 -8 59.34 4.02 0
 0 1 -7 2240.73 19.43 0
 0 1 -6 540.77 9.18 0
 0 1 -5 415.07 7.29 0
 0 1 -4 4872.94 21.8 0
 0 1 -3 2000.36 12.69 0
 0 2 -23 60.65 8.25 0
 0 2 -22 16.57 6.66 0
 0 2 -21 39.32 7.41 0
 0 2 -20 37.05 6.91 0
 0 2 -19 336.59 14.69 0
 0 2 -18 460.34 15.82 0
 0 2 -17 58.52 7.28 0
 0 2 -15 121.88 8.23 0
 0 2 -14 137.75 8.32 0
 0 2 -13 -0.58 2.73 0
 0 2 -10 5.59 3.03 0
 0 2 -9 8.94 2.75 0
 0 2 -8 9.87 2.46 0
 0 2 -7 1034.2 14.25 0
 0 2 -6 3203.92 23.2 0
 0 2 -5 568.47 9.5 0
 0 2 -4 7458.17 30.97 0
 0 3 -23 21.35 7.37 0
 0 3 -22 89.53 10.43 0
 0 3 -20 157.89 11.83 0
 0 3 -19 5.44 4.92 0
 0 3 -18 184.52 11.6 0
 0 3 -17 7.37 4.66 0
 0 3 -16 11.34 4.96 0
 0 3 -15 227.4 10.84 0
 0 3 -14 8.48 4.19 0
 0 3 -13 229.66 10.55 0
 0 3 -12 0.39 3.01 0
 0 3 -6 53.44 4.1 0
 0 3 -5 5.63 2.36 0
 0 4 -22 109.74 11.16 0
 0 4 -21 9.93 5.92 0
 0 4 -20 66.95 9.31 0
 0 4 -19 99.69 9.57 0
 0 4 -18 7.63 6.27 0
 0 4 -17 520.51 17.49 0
 0 4 -16 78 8.47 0
 0 4 -15 671.51 18.66 0
 0 4 -14 14.16 4.9 0
 0 4 -12 114.12 7.84 0
 0 5 -20 323.66 16.48 0
 0 5 -19 64.33 8.93 0
 0 5 -17 40.18 7.3 0
 0 5 -16 212.78 12.8 0
 0 5 -15 55.48 7.55 0
 0 5 -14 233.02 12.33 0
 0 5 -13 105.2 8.04 0
 0 5 -12 2.08 3.51 0
 0 5 -11 21.14 4.38 0
 0 5 -10 9.61 3.61 0
 0 5 -9 6.52 3.33 0
 0 5 -6 -1.03 2.67 0
 0 5 -5 368.36 9.97 0
 0 6 -20 23.58 7.23 0
 0 6 -19 1.81 6.63 0
 0 6 -17 375.85 16.86 0
 0 6 -16 0.83 4.67 0
 0 6 -15 190.52 11.95 0
 0 6 -14 519.92 18.09 0
 0 6 -13 379.04 14.62 0
 0 6 -11 6.71 4.03 0
 0 6 -10 54.77 6.65 0
 0 6 -9 16.98 4.38 0
 0 6 -8 331.26 11.42 0
 0 6 -7 2.25 3.96 0
 0 7 -19 3.31 5.74 0
 0 7 -18 51.26 9.32 0
 0 7 -17 15.69 6.6 0
 0 7 -16 189.3 13.28 0
 0 7 -15 7.57 5.43 0
 0 7 -14 10.06 5.65 0
 0 7 -13 14.38 6.18 0
 0 7 -12 113.8 8.88 0
 0 7 -11 274.76 12.42 0
 0 7 -10 36.6 6.43 0
 0 7 -9 41.65 5.96 0
 0 7 -8 4.04 4.09 0
 0 7 -7 151.79 8.44 0
 0 7 -6 23.5 4.79 0
 0 7 -5 697.34 15.78 0
 0 8 -18 141.5 12.82 0
 0 8 -16 130.46 12.11 0
 0 8 -15 -2.06 5.63 0
 0 8 -14 471.95 18.34 0
 0 8 -13 0.63 4.79 0
 0 8 -12 7.22 6.06 0
 0 8 -11 22.48 5.92 0
 0 8 -10 11.4 4.93 0
 0 8 -9 76.4 7.31 0
 0 8 -7 171.53 9.88 0
 0 8 -5 113.04 7.53 0
 0 8 -4 424.94 13.25 0
 0 9 -16 57.98 9.62 0
 0 9 -15 68.36 9.99 0
 0 9 -14 57 9.46 0
 0 9 -13 83.85 10.54 0
 0 9 -12 45.4 8.49 0
 0 9 -11 137.18 11.17 0
 0 9 -10 213.95 12.59 0
 0 9 -8 42.43 6.66 0
 0 9 -7 36.02 6.04 0
 0 9 -6 34.36 5.84 0
 0 9 -5 71.46 6.99 0
 0 9 -4 1.81 3.72 0
 0 9 -3 46.78 5.98 0
 0 9 -2 64.61 6.28 0
 0 10 -13 30.05 7.75 0
 0 10 -11 7.18 5.68 0
 0 10 -10 174.91 11.83 0
 0 10 -9 39.25 7.32 0
 0 10 -8 31.6 6.54 0
 0 10 -7 201.91 11.83 0
 0 10 -6 30.47 6.55 0
 0 10 -5 14.51 5.07 0
 0 10 -4 87.15 7.55 0
 0 10 -3 88.75 8.01 0
 0 10 -1 31.64 5.41 0
 0 10 0 97.5 6.59 0
 0 11 -12 4.18 6.39 0
 0 11 -11 -3.68 5.5 0
 0 11 -10 27.28 7.14 0
 0 11 -9 47.44 8.56 0
 0 11 -8 89.15 10.06 0
 0 11 -7 33.09 6.74 0
 0 11 -6 144.5 10.66 0
 0 11 -5 -2.52 4.19 0
 0 11 -4 67.87 8.42 0
 0 11 -3 376.45 13.85 0
 0 11 -2 4.63 3.97 0
 0 12 -8 13.18 6.18 0
 0 12 -7 -1.28 4.57 0
 0 12 -6 -3.19 4.86 0
 0 12 -5 18.85 5.49 0
 0 12 -4 10.21 4.3 0
 1 -2 -16 44.09 5.75 0
 1 -2 -15 70.93 6.2 0
 1 -2 -14 0.32 3.04 0
 1 -2 -11 451.05 11.34 0
 1 -2 -9 174.55 6.9 0
 1 -1 -20 21.84 5.53 0
 1 -1 -18 37.64 6.14 0
 1 -1 -17 142.09 9.24 0
 1 -1 -16 206.89 10.07 0
 1 -1 -15 4.88 4.16 0
 1 -1 -11 432.12 11.54 0
 1 -1 -10 962.9 16.07 0
 1 -1 -9 238.62 8.03 0
 1 -1 -8 1015.3 14.74 0
 1 -1 -7 301.52 8.01 0
 1 -1 -6 2499.52 20.51 0
 1 -1 -4 433.99 7.56 0
 1 0 -23 -2.74 4.61 0
 1 0 -22 32.46 6.69 0
 1 0 -21 50.46 7.56 0
 1 0 -20 10.61 5.28 0
 1 0 -19 248.36 12.47 0
 1 0 -18 37.09 6.72 0
 1 0 -17 248.29 12.05 0
 1 0 -16 80.97 7.35 0
 1 0 -15 168.87 9.59 0
 1 0 -10 284.79 9.1 0
 1 0 -9 787.4 14.01 0
 1 0 -8 35.61 3.65 0
 1 0 -7 308.18 7.95 0
 1 0 -6 2293.64 19.67 0
 1 0 -4 -1.75 1.45 0
 1 0 -3 20.45 2.24 0
 1 0 -2 452.45 6.44 0
 1 1 -23 21.23 7.15 0
 1 1 -22 64.91 8.94 0
 1 1 -21 2.3 5 0
 1 1 -20 18.06 6 0
 1 1 -19 55.57 7.76 0
 1 1 -18 30.98 6.21 0
 1 1 -17 136.69 9.4 0
 1 1 -16 208.1 10.7 0
 1 1 -15 2.2 4.33 0
 1 1 -14 381.12 13.04 0
 1 1 -13 54.71 5.72 0
 1 1 -10 955.63 16.23 0
 1 1 -9 243.99 8.28 0
 1 1 -8 1011.05 15.09 0
 1 1 -6 2362.36 20.05 0
 1 1 -5 1824.33 16.71 0
 1 1 -2 1769.4 12.26 0
 1 1 -1 2579.32 12.96 0
 1 1 0 5736.58 16.78 0
 1 2 -23 111.46 11.28 0
 1 2 -22 76.21 9.82 0
 1 2 -21 41.35 8.52 0
 1 2 -20 33.94 7.95 0
 1 2 -19 21.97 6.76 0
 1 2 -18 191.45 12.05 0
 1 2 -17 6.32 4.97 0
 1 2 -16 37.85 6.43 0
 1 2 -14 4 4.14 0
 1 2 -13 512.52 14.38 0
 1 2 -12 600.74 14.82 0
 1 2 -9 174.82 7.3 0
 1 2 -7 1012.67 15.07 0
 1 2 -6 422.25 9.32 0
 1 2 -5 754.6 11.59 0
 1 2 -4 2689.16 20.02 0
 1 2 -3 1451.58 13.54 0
 1 2 -2 4085.34 20.43 0
 1 2 -1 6783.09 23.5 0
 1 2 0 151.99 3.23 0
 1 2 1 6660.97 16.14 0
 1 3 -22 1.71 6.34 0
 1 3 -21 146.07 12.14 0
 1 3 -19 208.69 13.08 0
 1 3 -17 37.92 7.43 0
 1 3 -15 177.91 10.49 0
 1 3 -14 248.58 11.51 0
 1 3 -13 368.08 13.03 0
 1 3 -12 103.89 7.49 0
 1 3 -11 44.95 4.97 0
 1 3 -6 313.29 8.65 0
 1 3 -4 804.48 12.07 0
 1 3 -3 202.18 5.95 0
 1 3 -2 225.08 5.58 0
 1 3 -1 51.29 2.77 0
 1 3 0 4.46 1.37 0
 1 3 1 53.24 2.19 0
 1 3 2 216.91 3.23 0
 1 4 -22 103.11 11.92 0
 1 4 -21 22.99 7.86 0
 1 4 -20 272.53 15.11 0
 1 4 -19 14.27 6.14 0
 1 4 -18 212.65 12.79 0
 1 4 -16 161.84 11.04 0
 1 4 -15 48.79 7.38 0
 1 4 -14 273.74 12.64 0
 1 4 -13 91.62 8.31 0
 1 4 -11 132.23 8.14 0
 1 4 -3 1627.3 16.83 0
 1 4 -2 1345.23 14.28 0
 1 4 -1 319.74 6.88 0
 1 4 0 236.97 5.54 0
 1 4 1 323.27 5.71 0
 1 4 2 1358.75 10.16 0
 1 5 -21 35.19 8.88 0
 1 5 -20 11.28 6.57 0
 1 5 -19 35.76 7.82 0
 1 5 -18 82.65 10.07 0
 1 5 -17 -3.36 5.86 0
 1 5 -16 -3.4 5.3 0
 1 5 -15 95.38 9.13 0
 1 5 -13 50.89 6.59 0
 1 5 -11 206.04 10.12 0
 1 5 -10 94.3 7.19 0
 1 5 -6 173.21 7.57 0
 1 5 -5 152.97 6.65 0
 1 5 -4 633.66 12.32 0
 1 5 0 8.61 2.21 0
 1 5 1 9.24 1.82 0
 1 5 6 193.28 3.34 0
 1 6 -20 21.56 8.65 0
 1 6 -19 97.09 11.96 0
 1 6 -18 59.19 9.21 0
 1 6 -17 66.79 9.06 0
 1 6 -16 256.88 13.75 0
 1 6 -15 314.06 14.5 0
 1 6 -14 45.18 6.94 0
 1 6 -13 72.04 8.05 0
 1 6 -12 22.47 5.59 0
 1 6 -11 196.68 10.2 0
 1 6 -10 6.5 4.17 0
 1 6 -9 125.15 7.98 0
 1 6 -7 130.55 7.43 0
 1 6 -3 155.91 6.73 0
 1 6 -2 87.56 5.18 0
 1 6 -1 197.88 6.86 0
 1 7 -19 31.94 8.57 0
 1 7 -18 47.92 9.39 0
 1 7 -16 22.55 7.03 0
 1 7 -15 82 9.95 0
 1 7 -14 103.19 9.55 0
 1 7 -13 142.58 10.4 0
 1 7 -12 47.54 7.12 0
 1 7 -11 416.89 15.69 0
 1 7 -10 185.73 10.92 0
 1 7 -9 157.52 9.69 0
 1 7 -8 133.74 9.03 0
 1 7 -6 62.44 5.82 0
 1 7 -5 14.25 3.92 0
 1 7 -2 95.56 5.6 0
 1 7 -1 18.99 3.5 0
 1 7 0 140.75 5.9 0
 1 7 1 18.26 3.08 0
 1 7 2 100.77 4.73 0
 1 7 3 216.97 6.06 0
 1 7 4 18.69 2.26 0
 1 8 -18 10.1 6.55 0
 1 8 -17 10.49 6.61 0
 1 8 -16 12.33 6.53 0
 1 8 -14 22.05 6.92 0
 1 8 -13 263.4 13.96 0
 1 8 -12 36.65 7.26 0
 1 8 -11 203.43 12.47 0
 1 8 -10 300.52 13.96 0
 1 8 -9 135.08 9.45 0
 1 8 -7 10.11 4.54 0
 1 8 -6 73.43 7.05 0
 1 8 -5 369.16 12.18 0
 1 8 -4 5.29 3.82 0
 1 8 -3 171.69 8.01 0
 1 8 0 306.83 9.1 0
 1 8 1 269.75 8.1 0
 1 8 2 218.67 6.98 0
 1 9 -16 7.92 6.55 0
 1 9 -15 155.08 13.01 0
 1 9 -14 52.47 9.8 0
 1 9 -13 25.43 7.78 0
 1 9 -12 124.49 10.53 0
 1 9 -11 -2.1 5.03 0
 1 9 -10 10.2 5.7 0
 1 9 -9 34.42 6.89 0
 1 9 -6 39.28 6.08 0
 1 9 -5 233.14 11.02 0
 1 9 -4 220.78 9.97 0
 1 9 -3 67.65 6.02 0
 1 9 -2 95.64 6.57 0
 1 9 -1 65.32 5.53 0
 1 10 -14 266.89 15.89 0
 1 10 -13 63.22 9.89 0
 1 10 -12 95.61 10 0
 1 10 -11 -1.84 5.16 0
 1 10 -9 19.1 6 0
 1 10 -8 243.98 13.2 0
 1 10 -7 101.24 9.09 0
 1 10 -6 22.26 5.52 0
 1 10 -5 21.21 5.74 0
 1 10 -4 32.59 5.83 0
 1 10 -3 74.82 6.92 0
 1 11 -12 60.24 10.03 0
 1 11 -11 9.89 6.16 0
 1 11 -10 15.19 7.05 0
 1 11 -9 221.6 12.98 0
 1 11 -8 91.9 10.34 0
 1 11 -7 45.07 7.95 0
 1 11 -5 8.78 4.55 0
 1 12 -10 90.03 10.87 0
 1 12 -9 21.99 7.09 0
 1 12 -8 62.99 8.74 0
 2 -1 -18 156.13 10.72 0
 2 -1 -17 200.79 11.6 0
 2 -1 -15 126.92 9.2 0
 2 -1 -14 11.39 4.19 0
 2 -1 -13 23.4 5.06 0
 2 -1 -12 575.01 15.19 0
 2 -1 -9 184.29 8.05 0
 2 -1 -8 53.99 4.88 0
 2 -1 -7 295.07 8.75 0
 2 0 -21 9.69 6.88 0
 2 0 -20 3.2 5.41 0
 2 0 -18 67.41 8.22 0
 2 0 -17 3.59 5 0
 2 0 -16 208.5 11.76 0
 2 0 -15 137.08 9.71 0
 2 0 -13 318.49 12.29 0
 2 0 -12 119.88 7.67 0
 2 0 -9 61.93 4.92 0
 2 0 -7 142.83 6.47 0
 2 0 -6 272.62 8.19 0
 2 0 -5 1057.48 14.77 0
 2 0 -4 1037.78 14.07 0
 2 1 -22 203.78 13.68 0
 2 1 -21 57.57 9.11 0
 2 1 -20 107.72 10.56 0
 2 1 -19 35.07 8.3 0
 2 1 -18 168.87 11.27 0
 2 1 -17 195.87 12.21 0
 2 1 -16 3.8 4.63 0
 2 1 -15 130.4 9.23 0
 2 1 -13 22.83 5.06 0
 2 1 -12 587.67 15.69 0
 2 1 -11 19.51 4.42 0
 2 1 -6 1526.56 18.97 0
 2 1 -4 777.13 12.37 0
 2 1 -3 1781.86 17.33 0
 2 1 -2 478.14 8.5 0
 2 1 -1 470.68 7.88 0
 2 2 -22 95.93 11.07 0
 2 2 -21 209.8 13.66 0
 2 2 -20 11.63 6.4 0
 2 2 -19 115.75 11.37 0
 2 2 -18 36.63 7.28 0
 2 2 -17 153.76 10.67 0
 2 2 -16 137.71 10.38 0
 2 2 -13 497.47 15.6 0
 2 2 -12 149.14 9.14 0
 2 2 -11 56.26 6.27 0
 2 2 -4 123.09 5.27 0
 2 2 -3 315.63 7.83 0
 2 2 -2 1049.23 12.61 0
 2 2 -1 241.52 5.76 0
 2 2 0 4852.1 22.2 0
 2 3 -22 37.98 8.7 0
 2 3 -21 89.4 10.79 0
 2 3 -20 140.28 11.9 0
 2 3 -19 205.31 13.26 0
 2 3 -18 25.17 7.02 0
 2 3 -17 27.41 7.46 0
 2 3 -16 86.39 8.67 0
 2 3 -15 34.29 6.79 0
 2 3 -14 77.23 7.25 0
 2 3 -13 46.49 6.61 0
 2 3 -12 20.89 4.62 0
 2 3 -11 1.98 2.9 0
 2 3 -3 1409.89 15.72 0
 2 3 -2 68.55 3.95 0
 2 3 0 1358.49 12.32 0
 2 3 1 1213.87 10.44 0
 2 3 2 67.7 2.26 0
 2 4 -21 48.55 9.07 0
 2 4 -20 13.68 7.06 0
 2 4 -19 85.22 10.57 0
 2 4 -18 76.19 10.74 0
 2 4 -17 77.49 9.81 0
 2 4 -16 198.37 11.96 0
 2 4 -15 237.17 12.98 0
 2 4 -14 58.91 7.2 0
 2 4 -13 53.8 7.13 0
 2 4 -11 2.64 4.11 0
 2 4 -10 98.26 7.19 0
 2 4 -9 257.5 10.07 0
 2 4 -5 62.17 4.53 0
 2 4 -1 443.86 8.23 0
 2 4 0 62.96 3.06 0
 2 4 2 393.07 5.49 0
 2 4 3 1642.11 7.84 0
 2 5 -20 57.66 9.74 0
 2 5 -19 40.96 8.72 0
 2 5 -17 7.52 6.78 0
 2 5 -16 174.06 11.79 0
 2 5 -15 15.33 5.87 0
 2 5 -14 120.04 10.14 0
 2 5 -13 166.56 10.21 0
 2 5 -12 201.12 11.15 0
 2 5 -11 24.54 5.09 0
 2 5 -10 343.74 12.62 0
 2 5 -9 127.87 8.4 0
 2 5 -8 211.07 9.49 0
 2 5 -4 623.26 12.69 0
 2 5 -3 758.01 13.31 0
 2 5 -2 242.01 7.2 0
 2 5 1 76.47 3.42 0
 2 5 2 242.74 4.91 0
 2 5 3 757.38 6.88 0
 2 6 -19 73.96 10.85 0
 2 6 -17 196.26 12.97 0
 2 6 -16 35.14 7.74 0
 2 6 -15 16.27 6.6 0
 2 6 -13 187.99 11.62 0
 2 6 -12 0.27 3.84 0
 2 6 -11 72.33 8.14 0
 2 6 -10 324.69 12.72 0
 2 6 -9 423.21 14.04 0
 2 6 -8 205.61 10.03 0
 2 6 -7 123.79 8.02 0
 2 6 -3 98.97 6.07 0
 2 6 -2 213.65 7.53 0
 2 6 -1 992.75 14.46 0
 2 6 0 203.53 6.28 0
 2 6 1 1003.89 12.31 0
 2 6 3 103.36 3.21 0
 2 6 4 147.97 2.57 0
 2 7 -18 63.29 9.83 0
 2 7 -17 31.65 7.65 0
 2 7 -16 33.23 7.97 0
 2 7 -14 60.62 8.45 0
 2 7 -13 117.52 10.76 0
 2 7 -11 168.41 10.83 0
 2 7 -10 15.23 4.83 0
 2 7 -9 53.62 6.69 0
 2 7 -8 69.36 7.37 0
 2 7 -6 422.19 13.4 0
 2 7 -2 123.87 6.32 0
 2 7 -1 311.23 8.82 0
 2 7 0 107.57 5.17 0
 2 7 1 324.16 7.76 0
 2 7 2 117.55 4.35 0
 2 8 -17 270.87 16.24 0
 2 8 -16 17.8 7.08 0
 2 8 -15 126.58 11.77 0
 2 8 -14 75.77 9.8 0
 2 8 -13 156.79 11.55 0
 2 8 -11 7.17 5.18 0
 2 8 -10 40.83 6.79 0
 2 8 -9 31 6.39 0
 2 8 -8 21.3 5.85 0
 2 8 -7 48.62 6.73 0
 2 8 -6 154.24 9.2 0
 2 8 -5 54.05 6.5 0
 2 8 -4 102.91 6.74 0
 2 8 -3 142.82 7.7 0
 2 9 -15 2.38 6.61 0
 2 9 -14 239.52 14.1 0
 2 9 -13 51.74 8.77 0
 2 9 -12 48.34 8.23 0
 2 9 -11 18.28 6.55 0
 2 9 -9 8.93 5.13 0
 2 9 -8 95.13 8.22 0
 2 9 -7 22.17 5.24 0
 2 9 -6 30.26 5.62 0
 2 9 -5 271.17 11.48 0
 2 9 -3 10.03 3.63 0
 2 10 -13 5.47 5.88 0
 2 10 -12 31.82 7.33 0
 2 10 -11 112.99 10.99 0
 2 10 -10 25.18 6.86 0
 2 10 -9 42.15 7.7 0
 2 10 -8 20.69 5.86 0
 2 10 -7 112.7 9.5 0
 2 10 -6 26.46 6.07 0
 2 11 -12 1.28 5.68 0
 2 11 -11 49.96 8.17 0
 2 11 -10 81.24 9.2 0
 2 11 -9 6.5 5 0
 2 11 -8 137.44 9.91 0
 2 11 -7 30.72 6.07 0
 3 0 -18 72.04 9.29 0
 3 0 -17 312.81 15.05 0
 3 0 -15 59.32 7.87 0
 3 0 -14 217.94 11.93 0
 3 0 -13 -0.08 3.51 0
 3 0 -11 53.7 6.13 0
 3 0 -10 38.64 5.67 0
 3 1 -20 25.59 7.53 0
 3 1 -18 10.64 6.14 0
 3 1 -17 45.77 7.44 0
 3 1 -15 96.59 9.09 0
 3 1 -14 15.05 5.88 0
 3 1 -13 211.12 11 0
 3 1 -12 213.41 10.79 0
 3 1 -11 144.93 8.89 0
 3 1 -10 551.45 15.42 0
 3 2 -21 105.31 12.72 0
 3 2 -20 69.72 9.78 0
 3 2 -19 43.96 8.73 0
 3 2 -17 130.41 10.8 0
 3 2 -15 32.1 6.64 0
 3 2 -13 92.28 8.8 0
 3 2 -12 226.43 11.3 0
 3 2 -11 228.2 11.05 0
 3 2 -6 109.23 6.55 0
 3 3 -21 204.62 15.3 0
 3 3 -20 122.9 12.07 0
 3 3 -19 34.9 8.86 0
 3 3 -18 25.92 7.33 0
 3 3 -16 48.21 8.36 0
 3 3 -15 49.77 8.15 0
 3 3 -14 47.37 7.53 0
 3 3 -12 17.47 5.43 0
 3 3 -11 34.28 5.77 0
 3 3 -10 14.91 4.64 0
 3 3 -9 872.87 19.17 0
 3 3 -5 1980.42 23.96 0
 3 3 -4 390.72 10.48 0
 3 3 0 25.68 2.68 0
 3 4 -20 11.99 7.59 0
 3 4 -19 14.41 6.97 0
 3 4 -17 102.29 10.5 0
 3 4 -16 202.23 13.54 0
 3 4 -15 203.88 12.93 0
 3 4 -14 90.87 9.72 0
 3 4 -13 264.8 13.4 0
 3 4 -12 5.71 5.08 0
 3 4 -11 26.76 5.65 0
 3 4 -10 143.26 8.87 0
 3 4 -9 222.97 10.75 0
 3 4 -8 58.19 6.23 0
 3 4 -4 206.18 8.08 0
 3 4 -3 61.06 4.48 0
 3 4 -2 301.44 8.48 0
 3 5 -19 2.35 6.55 0
 3 5 -18 57.64 9.77 0
 3 5 -17 83.28 10.46 0
 3 5 -15 46.24 8.07 0
 3 5 -14 46.58 7.69 0
 3 5 -13 210.49 12.02 0
 3 5 -12 42.32 6.74 0
 3 5 -11 291.98 12.77 0
 3 5 -10 6.54 4.51 0
 3 5 -9 342.99 12.77 0
 3 5 -8 77.29 7.35 0
 3 5 -7 128.12 7.66 0
 3 5 -4 442.31 11.6 0
 3 5 -3 218.91 8.04 0
 3 5 -2 780.1 13.68 0
 3 5 -1 330.24 8.45 0
 3 5 0 157.6 5.68 0
 3 6 -17 4.29 6.72 0
 3 6 -16 134.98 11.58 0
 3 6 -15 8.42 7.09 0
 3 6 -14 246.76 14.17 0
 3 6 -12 43.27 7.23 0
 3 6 -11 466.93 16.56 0
 3 6 -10 54.02 7.4 0
 3 6 -9 6.31 4.24 0
 3 6 -8 4.48 4.07 0
 3 6 -7 1.68 3.44 0
 3 6 -6 84.4 6.59 0
 3 6 -3 55.8 5.07 0
 3 6 -2 41 4.02 0
 3 6 -1 349.07 9.01 0
 3 6 0 134.12 5.49 0
 3 6 1 354.94 7.66 0
 3 7 -17 5.89 7.26 0
 3 7 -16 44.04 8.85 0
 3 7 -15 20.94 8.21 0
 3 7 -14 9.02 6.24 0
 3 7 -13 213.4 12.87 0
 3 7 -12 228.76 12.82 0
 3 7 -11 72.26 8.61 0
 3 7 -10 56.88 7.47 0
 3 7 -9 46.75 7.19 0
 3 7 -8 55.55 6.83 0
 3 7 -7 529.53 15.49 0
 3 7 -5 23.21 4.9 0
 3 7 -4 28.17 4.27 0
 3 7 -2 189.55 7.45 0
 3 7 -1 357.3 9.39 0
 3 8 -16 35.57 9.03 0
 3 8 -15 108.89 10.97 0
 3 8 -14 71.22 9.65 0
 3 8 -13 32.08 7.98 0
 3 8 -12 120.71 11.16 0
 3 8 -10 55.41 7.76 0
 3 8 -9 82.51 7.96 0
 3 8 -7 23.61 5.16 0
 3 8 -6 2.92 3.56 0
 3 8 -5 105.76 7.16 0
 3 8 -4 25.77 4.67 0
 3 8 -3 74.57 5.29 0
 3 9 -15 74.29 10.73 0
 3 9 -14 8.36 6.18 0
 3 9 -13 -0.28 5.4 0
 3 9 -12 132.09 11.32 0
 3 9 -11 70.85 8.68 0
 3 9 -10 18.42 5.86 0
 3 9 -9 9.76 5.42 0
 3 9 -7 197.37 10.92 0
 3 10 -13 5.34 6.44 0
 3 10 -12 47.72 8.95 0
 3 10 -11 36 8.2 0
 3 10 -9 64.38 8.43 0
 3 10 -8 35.76 6.72 0
 3 11 -11 106.62 10.16 0
 4 1 -16 145.73 11.17 0
 4 1 -15 161.52 11.99 0
 4 1 -14 38.28 7.14 0
 4 1 -13 315.22 14.46 0
 4 1 -11 206.84 10.99 0
 4 1 -10 1.17 3.33 0
 4 1 -9 681.33 17.7 0
 4 2 -19 21.25 7.66 0
 4 2 -18 36.63 8.75 0
 4 2 -17 8.46 6.26 0
 4 2 -15 328.1 15.94 0
 4 2 -14 161.98 11.37 0
 4 2 -13 19.39 6.53 0
 4 2 -12 91.66 8.96 0
 4 2 -11 109.62 9.33 0
 4 2 -8 11.47 4.45 0
 4 3 -19 81.16 10.97 0
 4 3 -18 24.95 7.73 0
 4 3 -17 21.01 7.28 0
 4 3 -16 24.99 7.22 0
 4 3 -15 84.95 10.4 0
 4 3 -14 348.59 16.4 0
 4 3 -13 206.87 12.24 0
 4 3 -11 19.94 6.58 0
 4 3 -9 566.07 16.65 0
 4 3 -8 549.31 16.07 0
 4 3 -6 195.22 9.55 0
 4 3 -3 367.14 10.72 0
 4 4 -19 90.65 12.39 0
 4 4 -18 142.63 13.54 0
 4 4 -17 58.29 10.17 0
 4 4 -16 20.61 7.76 0
 4 4 -14 53.71 8.24 0
 4 4 -13 206.6 12.46 0
 4 4 -12 105.12 10.05 0
 4 4 -11 98.13 9.4 0
 4 4 -10 12.71 5.08 0
 4 4 -9 1.45 4.32 0
 4 4 -8 66.31 8 0
 4 4 -7 17.87 5 0
 4 4 -6 62.93 6.58 0
 4 4 -3 60.97 5.13 0
 4 4 -2 159.22 7.03 0
 4 5 -18 80.56 11.78 0
 4 5 -17 81.91 11.8 0
 4 5 -16 35.42 8.43 0
 4 5 -15 8.22 6.96 0
 4 5 -14 90.05 11.33 0
 4 5 -13 25.42 6.84 0
 4 5 -12 71.76 9.07 0
 4 5 -10 475.82 16.96 0
 4 5 -5 90.59 7.14 0
 4 5 -2 136.74 6.52 0
 4 5 -1 57.62 4.48 0
 4 6 -17 106.64 12.67 0
 4 6 -15 135.85 12.43 0
 4 6 -14 45.88 8.44 0
 4 6 -13 152.81 11.68 0
 4 6 -12 77.19 10.18 0
 4 6 -11 59.88 8.6 0
 4 6 -10 0.13 4.43 0
 4 6 -9 39.72 7.11 0
 4 6 -8 97.96 8.39 0
 4 6 -7 39.11 6.05 0
 4 6 -6 6.36 4.05 0
 4 6 -5 9.38 3.86 0
 4 6 -4 62.98 5.93 0
 4 7 -16 45.89 9.28 0
 4 7 -15 88.77 11.15 0
 4 7 -13 33.26 7.67 0
 4 7 -12 136.54 11.75 0
 4 7 -11 301.82 14.74 0
 4 7 -10 120.71 10.75 0
 4 7 -9 54.15 7.94 0
 4 7 -8 101.8 9.17 0
 4 7 -7 246.16 11.95 0
 4 7 -6 109.65 8.28 0
 4 7 -5 147.53 8.64 0
 4 7 -4 2.22 3.25 0
 4 8 -15 22.01 8.29 0
 4 8 -14 -0.64 6.01 0
 4 8 -12 222.96 13.64 0
 4 8 -11 92.64 11.3 0
 4 8 -10 74.02 9.33 0
 4 8 -9 106.44 9.77 0
 4 8 -8 4.66 4.53 0
 4 8 -7 47.27 6.52 0
 4 9 -13 63.31 10.24 0
 4 9 -12 5.7 5.75 0
 4 9 -11 130.4 11.7 0
 4 9 -10 45.72 7.84 0
 4 9 -9 126.7 10.16 0
 4 9 -8 27.23 5.65 0
 5 3 -14 21.78 8.02 0
 5 3 -13 74.72 9.84 0
 5 3 -12 24.2 7.13 0
 5 3 -10 168.36 10.85 0
 5 4 -17 24.99 8.1 0
 5 4 -16 47.98 9.11 0
 5 4 -15 45.37 9.75 0
 5 4 -14 142.95 11.86 0
 5 4 -13 25.29 7.37 0
 5 4 -12 3.36 6.06 0
 5 4 -11 391.01 16.79 0
 5 4 -9 9.04 5.64 0
 5 4 -8 174.9 10.74 0
 5 4 -7 79.62 7.79 0
 5 5 -16 37.65 8.65 0
 5 5 -15 3.62 7.39 0
 5 5 -13 78.82 10.46 0
 5 5 -12 180.8 13.22 0
 5 5 -11 35.89 7.88 0
 5 5 -10 9.76 6.19 0
 5 5 -9 125.43 9.56 0
 5 5 -8 207.8 11.89 0
 5 5 -7 -2.68 4.49 0
 5 5 -6 42.85 6.09 0
 5 5 -5 1.17 3.85 0
 5 6 -15 49.04 9.04 0
 5 6 -12 181.19 12.67 0
 5 6 -11 53.19 8.31 0
 5 6 -10 39.28 7.32 0
 5 6 -9 59.69 8.27 0
 5 6 -8 17.86 5.56 0
 5 6 -7 44.14 6.88 0
 5 6 -6 28.54 5.62 0
 5 6 -5 235.33 10.86 0
 5 7 -14 47.59 9.89 0
 5 7 -13 52.84 8.85 0
 5 7 -12 150.72 12.2 0
 5 7 -10 142.81 11.44 0
 5 7 -9 -0.41 4.56 0
 5 7 -8 121.16 10.03 0
 5 8 -11 14.98 6.26 0
 5 8 -10 32.37 7.54 0
 5 8 -9 19.23 6.41 0
 5 9 -11 137.39 11.36 0
 -6 2 8 -0.41 2.84 0
 -6 2 9 149.69 7.8 0
 -6 3 6 163.83 7.33 0
 -6 3 7 65.17 5.56 0
 -6 3 8 97.71 6.55 0
 -6 3 9 256.16 9.95 0
 -6 3 10 97.5 7.5 0
 -6 3 11 8.09 4.2 0
 -6 4 3 19.85 3.6 0
 -6 4 4 188.07 7.69 0
 -6 4 6 222.55 9.17 0
 -6 4 7 108.56 7.25 0
 -6 4 8 8.13 3.76 0
 -6 4 9 68.13 6.82 0
 -6 4 10 73.26 6.96 0
 -6 4 11 9.59 4.45 0
 -6 4 12 63.45 7.25 0
 -6 4 13 153.01 10.14 0
 -6 4 14 76.2 9.03 0
 -6 5 -1 1.01 2.97 0
 -6 5 0 229.28 8.58 0
 -6 5 1 -1.14 2.47 0
 -6 5 2 67.76 5.62 0
 -6 5 3 159.46 7.9 0
 -6 5 4 147.12 7.68 0
 -6 5 5 23.3 4.43 0
 -6 5 6 231.01 10.1 0
 -6 5 7 140.48 8.5 0
 -6 5 8 45.66 6.1 0
 -6 5 9 108.05 8.56 0
 -6 5 10 35.29 6.1 0
 -6 5 11 14.13 5.16 0
 -6 5 12 49.61 7.36 0
 -6 5 13 222.23 12.02 0
 -6 5 14 58.91 8.01 0
 -6 5 15 46.86 7.98 0
 -6 6 -3 219.69 9.08 0
 -6 6 -2 25.8 4.44 0
 -6 6 0 502.5 13.33 0
 -6 6 1 20.89 4.84 0
 -6 6 3 221.24 9.78 0
 -6 6 4 0.72 3.56 0
 -6 6 5 80.51 7.06 0
 -6 6 6 55.94 7.05 0
 -6 6 8 19.96 5 0
 -6 6 9 12.63 5.69 0
 -6 6 10 176.56 11.02 0
 -6 6 11 33.89 6.99 0
 -6 6 12 179.31 10.97 0
 -6 6 13 28.08 7.01 0
 -6 6 14 28.84 7.4 0
 -6 7 -4 20.3 4.57 0
 -6 7 -3 52.32 6.29 0
 -6 7 -2 207.6 9.88 0
 -6 7 -1 115.13 8.1 0
 -6 7 0 1.04 4.03 0
 -6 7 1 114.61 8.22 0
 -6 7 2 178.36 9.5 0
 -6 7 3 42.74 6.37 0
 -6 7 4 23.2 5.26 0
 -6 7 5 43.87 6.07 0
 -6 7 6 49.81 6.63 0
 -6 7 7 16.14 5.37 0
 -6 7 8 43.55 6.75 0
 -6 7 9 89.35 8.99 0
 -6 7 10 250.18 13.08 0
 -6 7 11 91.41 9.17 0
 -6 7 12 105.05 9.98 0
 -6 8 -3 24.13 5.67 0
 -6 8 -2 107.13 8.24 0
 -6 8 -1 32.33 5.91 0
 -6 8 0 7.09 4.61 0
 -6 8 1 37.67 6.33 0
 -6 8 2 98.13 8.19 0
 -6 8 3 18.06 5.36 0
 -6 8 4 28.87 6.32 0
 -6 8 6 60.64 7.75 0
 -6 8 7 43.13 6.95 0
 -6 8 8 106.68 9.8 0
 -6 9 -3 12.32 5.14 0
 -6 9 -2 22.26 5.5 0
 -6 9 -1 6.22 5.12 0
 -6 9 0 3.46 4.69 0
 -6 9 1 4.68 4.77 0
 -6 9 3 17.59 5.72 0
 -6 9 4 78.06 9.51 0
 -6 9 5 -0.88 4.08 0
 -6 9 6 119.69 10.26 0
 -6 9 7 -2.29 4.7 0
 -6 10 -1 2.03 4.83 0
 -6 10 0 -0.82 4.51 0
 -5 0 3 109 3.11 0
 -5 0 4 0.48 1.2 0
 -5 1 0 70.17 1.94 0
 -5 1 1 97.9 2.83 0
 -5 1 2 365.86 6.07 0
 -5 1 3 49.06 3 0
 -5 1 4 344.48 7.39 0
 -5 2 -2 179.48 4.54 0
 -5 2 -1 152.4 4.31 0
 -5 2 0 44.47 2.8 0
 -5 2 1 157.91 4.86 0
 -5 2 2 183.94 5.56 0
 -5 2 3 502.09 9.63 0
 -5 3 -3 234.84 6.55 0
 -5 3 -2 288.97 7.16 0
 -5 3 -1 202.05 6.18 0
 -5 3 0 99.42 4.7 0
 -5 3 1 190.51 6.39 0
 -5 3 2 269.24 7.68 0
 -5 3 3 214.28 7.35 0
 -5 3 4 480.91 11.05 0
 -5 3 7 9.81 3.32 0
 -5 4 -3 34.67 4.2 0
 -5 4 5 2.22 3.09 0
 -5 4 6 124.2 7.41 0
 -5 4 7 96.53 6.88 0
 -5 4 9 11.28 4.81 0
 -5 5 -6 38.38 4.65 0
 -5 5 -5 3.53 2.95 0
 -5 5 -4 59.54 5.04 0
 -5 5 -3 179.28 7.8 0
 -5 5 -2 58.89 5.3 0
 -5 5 0 37.01 4.86 0
 -5 5 2 47.72 5.23 0
 -5 5 3 175.9 8.05 0
 -5 5 4 64.21 6.24 0
 -5 5 6 46.82 5.85 0
 -5 5 7 0.59 3.54 0
 -5 5 8 191.53 9.77 0
 -5 5 9 128.23 8.99 0
 -5 5 10 7.7 4.99 0
 -5 5 11 39.42 6.55 0
 -5 6 -6 31.03 5.01 0
 -5 6 -5 252.94 10.17 0
 -5 6 -4 116.55 7.09 0
 -5 6 -3 81.46 6.63 0
 -5 6 1 51.77 5.8 0
 -5 6 2 95.33 7.11 0
 -5 6 3 63.05 6.42 0
 -5 6 4 97.34 7.22 0
 -5 6 5 260.57 11.5 0
 -5 6 6 25.07 5.41 0
 -5 6 7 52.04 7.09 0
 -5 6 8 17.77 5.11 0
 -5 6 10 32.97 6.68 0
 -5 6 12 174.49 11.6 0
 -5 6 13 145.6 10.72 0
 -5 6 14 25.84 6.53 0
 -5 6 15 53.55 8.81 0
 -5 6 16 76.52 9.47 0
 -5 7 -7 67.84 7.57 0
 -5 7 -6 51.32 6.75 0
 -5 7 -5 0.25 4.26 0
 -5 7 -4 98.48 7.78 0
 -5 7 -3 126.46 8.36 0
 -5 7 -2 206.97 9.88 0
 -5 7 -1 67.68 6.45 0
 -5 7 1 92.68 7.37 0
 -5 7 2 191.9 9.95 0
 -5 7 3 110.2 8.54 0
 -5 7 5 0.59 4.02 0
 -5 7 6 57.36 7.5 0
 -5 7 7 61.31 7.97 0
 -5 7 9 3 4.9 0
 -5 7 10 155.33 11.21 0
 -5 7 11 47.11 8.32 0
 -5 7 12 164.65 11.67 0
 -5 7 13 58.72 8.39 0
 -5 7 14 39.21 7.38 0
 -5 8 -7 111.72 8.99 0
 -5 8 -6 8.44 4.59 0
 -5 8 -5 53.14 7.37 0
 -5 8 -4 139.42 9.71 0
 -5 8 -3 130.1 9.28 0
 -5 8 -2 36.83 6.11 0
 -5 8 -1 214.19 11.28 0
 -5 8 0 73.77 8.64 0
 -5 8 1 190 10.79 0
 -5 8 2 39.7 6.35 0
 -5 8 3 137.41 9.84 0
 -5 8 5 41.82 6.7 0
 -5 8 6 5.98 4.93 0
 -5 8 7 105.82 9.83 0
 -5 8 8 28.51 7.5 0
 -5 8 9 19.21 6.73 0
 -5 8 10 35.93 7.55 0
 -5 8 11 31.46 7.55 0
 -5 8 12 54.29 8.48 0
 -5 8 13 9.61 6.7 0
 -5 9 -7 30.67 6.61 0
 -5 9 -6 179.83 11.4 0
 -5 9 -5 6.58 4.95 0
 -5 9 -4 21.47 5.9 0
 -5 9 -2 36.44 7.05 0
 -5 9 1 62.83 8.44 0
 -5 9 2 41.59 7.65 0
 -5 9 3 96.79 9.68 0
 -5 9 4 21.29 6 0
 -5 9 5 7.86 5.72 0
 -5 9 6 186.27 11.66 0
 -5 9 7 39.85 7.25 0
 -5 9 8 13.11 6.2 0
 -5 9 9 149.62 11.47 0
 -5 9 10 63.21 9.16 0
 -5 10 -5 14.95 6.33 0
 -5 10 -3 100.47 9.88 0
 -5 10 -2 46.99 7.76 0
 -5 10 -1 96.07 9.53 0
 -5 10 0 42.85 7.32 0
 -5 10 1 87.51 9.73 0
 -5 10 2 41.88 8.01 0
 -5 10 3 85.42 9.16 0
 -5 10 4 139.21 11.33 0
 -5 10 5 15.28 6.07 0
 -5 10 6 50.62 7.75 0
 -5 10 7 21.16 6.84 0
 -4 0 1 107.64 2.21 0
 -4 0 2 8.47 1.22 0
 -4 1 -2 412.59 5.32 0
 -4 1 -1 45.42 2.02 0
 -4 1 0 42.46 2.18 0
 -4 1 1 50.85 2.56 0
 -4 1 2 413.33 6.96 0
 -4 2 -3 359.92 6.96 0
 -4 2 -2 257.7 5.78 0
 -4 2 -1 1.9 1.71 0
 -4 2 0 658.53 9.34 0
 -4 2 1 1.18 1.8 0
 -4 2 2 258.25 6.56 0
 -4 2 3 348.07 7.84 0
 -4 3 -5 50.26 4.12 0
 -4 3 -4 870.26 12.74 0
 -4 3 -3 348.6 8.17 0
 -4 3 -1 165.07 5.88 0
 -4 3 0 1174.08 14.56 0
 -4 3 1 173.51 6.13 0
 -4 3 2 25.72 3.59 0
 -4 3 3 353.44 8.93 0
 -4 3 4 846.75 14.13 0
 -4 3 5 52.97 4.83 0
 -4 4 -5 20.9 3.6 0
 -4 4 -4 85.57 5.32 0
 -4 4 -3 60.16 4.88 0
 -4 4 -2 151.97 6.26 0
 -4 4 -1 282.28 8.46 0
 -4 4 0 10.17 2.8 0
 -4 4 1 290.47 8.8 0
 -4 4 2 163.6 7.17 0
 -4 4 6 49.19 5.21 0
 -4 5 -7 95.46 6.73 0
 -4 5 -6 379.4 11.38 0
 -4 5 3 64.82 5.98 0
 -4 5 4 374.24 11.49 0
 -4 5 5 97.95 6.6 0
 -4 5 6 397.92 12.61 0
 -4 5 7 93.77 7.37 0
 -4 5 8 579.98 15.8 0
 -4 6 -7 42.21 5.66 0
 -4 6 -6 5.77 3.7 0
 -4 6 -5 16.22 4.28 0
 -4 6 -3 27.05 4.72 0
 -4 6 -2 28.47 4.92 0
 -4 6 0 25.82 4.6 0
 -4 6 2 26.54 4.71 0
 -4 6 3 30.06 4.99 0
 -4 6 4 72.09 6.66 0
 -4 6 5 12.05 4.2 0
 -4 6 6 7.18 4.8 0
 -4 6 7 49.4 6.37 0
 -4 6 8 110.47 8.47 0
 -4 6 9 33.61 6 0
 -4 6 10 1.37 4.21 0
 -4 6 11 57.35 8.07 0
 -4 7 -8 106.54 8.65 0
 -4 7 -6 115.59 8.45 0
 -4 7 -5 151.08 8.71 0
 -4 7 -4 6.95 4.02 0
 -4 7 -3 76.2 7.39 0
 -4 7 -1 229.51 10.21 0
 -4 7 0 27.27 4.96 0
 -4 7 1 214.93 10.01 0
 -4 7 2 282.64 11.63 0
 -4 7 3 84.85 7.77 0
 -4 7 4 7.45 4.31 0
 -4 7 5 149.56 9.26 0
 -4 7 6 107.86 8.71 0
 -4 7 7 262.01 12.62 0
 -4 7 8 108.53 9 0
 -4 7 9 67.87 8.15 0
 -4 7 11 315.85 14.76 0
 -4 7 12 145.46 11.14 0
 -4 7 13 30.2 7.03 0
 -4 7 14 22.34 6.91 0
 -4 7 15 93.18 11.28 0
 -4 7 16 41.66 8.1 0
 -4 8 -8 8.18 5.58 0
 -4 8 -7 38.03 6.22 0
 -4 8 -6 16.5 5.03 0
 -4 8 -5 19.16 5.36 0
 -4 8 -4 124.67 9.4 0
 -4 8 -2 132.32 9.26 0
 -4 8 -1 29.86 5.76 0
 -4 8 0 99.24 8.64 0
 -4 8 1 21.98 5.44 0
 -4 8 2 122.81 9.19 0
 -4 8 3 60.92 7.61 0
 -4 8 4 136.92 9.35 0
 -4 8 5 22.47 5.73 0
 -4 8 6 8.11 5.74 0
 -4 8 7 46.42 7.23 0
 -4 8 8 5.01 5.08 0
 -4 8 10 68.55 9.13 0
 -4 8 11 97.52 10.43 0
 -4 8 12 210.59 13.56 0
 -4 8 13 94.24 11.22 0
 -4 8 14 6.46 6.08 0
 -4 8 15 12.62 7.67 0
 -4 9 -8 20.99 6.94 0
 -4 9 -7 74.85 8.73 0
 -4 9 -6 32.14 7.14 0
 -4 9 -5 310.4 13.59 0
 -4 9 -4 23.81 6.45 0
 -4 9 -3 112.6 9.08 0
 -4 9 -2 12.5 5.93 0
 -4 9 0 401.5 15.35 0
 -4 9 1 267.95 13.31 0
 -4 9 2 2.39 5.69 0
 -4 9 3 115.27 10.03 0
 -4 9 4 19.83 5.83 0
 -4 9 5 296.16 14.33 0
 -4 9 6 24.33 6.57 0
 -4 9 7 92.52 10.91 0
 -4 9 8 24.64 7.8 0
 -4 9 9 117.44 11.16 0
 -4 9 10 45.16 8.17 0
 -4 9 11 119.76 11.54 0
 -4 9 12 5.63 6.47 0
 -4 9 13 62.23 9.61 0
 -4 10 -8 55.77 8.2 0
 -4 10 -7 170.48 12.04 0
 -4 10 -6 159.41 11.87 0
 -4 10 -5 29.57 6.87 0
 -4 10 -3 17.26 6.01 0
 -4 10 -2 25.26 7.18 0
 -4 10 -1 4.14 5.87 0
 -4 10 1 12.34 6.8 0
 -4 10 2 38.78 7.41 0
 -4 10 3 23.28 6.39 0
 -4 10 4 48.17 8.66 0
 -4 10 5 26.52 6.8 0
 -4 10 6 168.07 11.84 0
 -4 10 7 181.96 12.24 0
 -4 10 8 70.94 9.49 0
 -4 10 9 72.57 9.84 0
 -4 11 -7 116.03 10.63 0
 -4 11 -6 141.46 11.35 0
 -4 11 -5 278.43 14.75 0
 -4 11 -4 119.51 10.9 0
 -4 11 -3 31.06 7.02 0
 -4 11 -2 49.62 8.2 0
 -4 11 -1 25.24 6.61 0
 -4 11 0 13.06 6.5 0
 -4 11 1 31.64 8.07 0
 -4 11 2 48.48 8.32 0
 -4 11 3 22.41 7.32 0
 -4 11 4 122.6 11.53 0
 -4 11 5 275.72 14.75 0
 -4 11 6 139.56 11.34 0
 -3 0 1 1432.88 8.58 0
 -3 1 -2 1264.06 9.6 0
 -3 1 -1 840.81 7.84 0
 -3 1 0 727.63 7.61 0
 -3 1 1 808.74 8.53 0
 -3 2 -4 186.33 5.43 0
 -3 2 -3 516.63 8.23 0
 -3 2 -2 480.21 7.78 0
 -3 2 -1 869.75 10.22 0
 -3 2 0 350.34 6.85 0
 -3 2 1 890.47 10.93 0
 -3 2 2 487.02 8.55 0
 -3 3 -5 1961.83 19.52 0
 -3 3 -4 378.35 8.47 0
 -3 3 -3 622.07 10.45 0
 -3 3 -2 176.3 5.78 0
 -3 3 -1 29.57 3.45 0
 -3 3 0 30.66 2.98 0
 -3 3 1 25.31 3.15 0
 -3 3 2 177.23 6.08 0
 -3 3 3 624.16 11.45 0
 -3 4 -6 148.82 7.01 0
 -3 4 -5 706.43 13.17 0
 -3 4 -4 205.73 7.52 0
 -3 4 -3 61.1 4.41 0
 -3 4 -1 28.04 3.74 0
 -3 4 0 71.49 4.88 0
 -3 4 1 30.4 3.79 0
 -3 4 2 305.82 8.87 0
 -3 4 3 64.11 5.09 0
 -3 4 4 200.8 7.92 0
 -3 5 -7 132.33 7.32 0
 -3 5 5 144.83 7.35 0
 -3 5 6 219.28 9.48 0
 -3 6 -8 8.51 4.51 0
 -3 6 -7 2.05 3.33 0
 -3 6 -6 80.62 6.86 0
 -3 6 -5 240.04 9.83 0
 -3 6 -4 307.42 10.59 0
 -3 6 -3 56.49 5.48 0
 -3 6 4 311.03 11.12 0
 -3 6 5 225.48 10.17 0
 -3 6 6 86.85 7.33 0
 -3 6 7 7.74 4.42 0
 -3 6 8 5.67 3.89 0
 -3 6 9 5.79 4.24 0
 -3 7 -8 48.74 6.38 0
 -3 7 -7 532.19 15.36 0
 -3 7 -6 180.28 9.74 0
 -3 7 -5 29.07 5.31 0
 -3 7 -4 34.05 5.24 0
 -3 7 -3 83.52 7.18 0
 -3 7 -2 204.57 9.91 0
 -3 7 0 4.34 3.7 0
 -3 7 4 26.75 5.58 0
 -3 7 5 20.15 5.32 0
 -3 7 6 171.81 10.19 0
 -3 7 7 530.45 16.24 0
 -3 7 9 43.16 6.8 0
 -3 7 10 55.74 7.88 0
 -3 7 11 67.94 7.97 0
 -3 7 12 230.18 13.09 0
 -3 7 13 237.55 14.03 0
 -3 8 -9 79.62 8.44 0
 -3 8 -8 171.86 10.92 0
 -3 8 -7 32.91 6.61 0
 -3 8 -6 3.79 4.58 0
 -3 8 -5 114.55 8.54 0
 -3 8 -4 29.26 5.59 0
 -3 8 -3 82.99 7.42 0
 -3 8 -2 112.71 8.17 0
 -3 8 -1 3.42 4.01 0
 -3 8 0 636.25 17.49 0
 -3 8 1 3.77 4.02 0
 -3 8 2 112.2 8.7 0
 -3 8 3 74.11 7.05 0
 -3 8 4 25.03 5.54 0
 -3 8 5 107.12 8.51 0
 -3 8 6 3.48 4.41 0
 -3 8 7 34.22 6.37 0
 -3 8 8 197.91 12.03 0
 -3 8 10 54.01 7.79 0
 -3 8 11 136.46 11.08 0
 -3 8 12 136.7 10.58 0
 -3 8 13 22.68 6.59 0
 -3 8 14 70.58 9.33 0
 -3 8 15 108.83 11.3 0
 -3 9 -9 -3.01 4.81 0
 -3 9 -8 153.29 11.62 0
 -3 9 -7 188.46 11.43 0
 -3 9 -6 75.16 8.91 0
 -3 9 -5 278.97 13.3 0
 -3 9 -4 150.19 10.02 0
 -3 9 -3 -3.94 5.07 0
 -3 9 -2 24.62 5.54 0
 -3 9 -1 0.6 5.04 0
 -3 9 0 76.7 8.48 0
 -3 9 1 -0.92 3.96 0
 -3 9 2 27.45 6.04 0
 -3 9 3 5.17 4.75 0
 -3 9 4 155.46 10.25 0
 -3 9 5 279.11 13.78 0
 -3 9 6 77.7 8.51 0
 -3 9 7 200.94 12.52 0
 -3 9 8 171.66 12.35 0
 -3 9 9 -1.35 5.16 0
 -3 9 10 14.17 6.19 0
 -3 9 12 129.91 11.65 0
 -3 9 13 1.68 5.89 0
 -3 9 14 7.9 6.49 0
 -3 10 -8 32.41 7.44 0
 -3 10 -7 21.26 7 0
 -3 10 -6 41.35 7.77 0
 -3 10 -5 24.97 6.48 0
 -3 10 -4 58.09 8.11 0
 -3 10 -3 186.83 12.32 0
 -3 10 -2 163.24 11.63 0
 -3 10 -1 61.42 8.1 0
 -3 10 0 91.08 9.08 0
 -3 10 1 57.26 8.07 0
 -3 10 2 139.91 11.01 0
 -3 10 3 177.86 12.14 0
 -3 10 4 69.16 8.9 0
 -3 10 6 58.45 8.8 0
 -3 10 7 21.28 6.31 0
 -3 10 8 32.32 7.52 0
 -3 10 9 76.57 10.46 0
 -3 10 10 116.03 10.76 0
 -3 10 11 38.55 8.73 0
 -3 10 12 47.81 9.34 0
 -3 11 -8 12.38 6.59 0
 -3 11 -7 123.09 10.84 0
 -3 11 -6 30.43 7.4 0
 -3 11 -5 8.85 5.92 0
 -3 11 -4 32.79 7.26 0
 -3 11 -3 9.58 6.09 0
 -3 11 -1 123.12 10.49 0
 -3 11 0 151.03 11.37 0
 -3 11 2 46.66 8.06 0
 -3 11 3 20.75 7.17 0
 -3 11 4 26.81 6.99 0
 -3 11 5 2.41 5.54 0
 -3 11 6 30.3 8.32 0
 -3 11 7 121.52 11.58 0
 -3 11 8 22.21 7.29 0
 -3 11 9 17.81 7.34 0
 -3 12 -4 25.35 7.36 0
 -3 12 -3 108.95 11.99 0
 -3 12 -2 0.78 6.53 0
 -3 12 -1 93.83 10.92 0
 -3 12 0 0.23 5.81 0
 -3 12 1 91.69 10.62 0
 -3 12 2 2.55 6.24 0
 -3 12 3 109.32 10.58 0
 -3 12 4 30.83 7.94 0
 -2 1 -3 1747.31 11.9 0
 -2 1 -2 461.14 5.84 0
 -2 1 -1 462.14 5.59 0
 -2 1 0 2.51 1.23 0
 -2 2 -5 120.14 4.74 0
 -2 2 -4 133.76 4.53 0
 -2 2 -3 317.13 6.5 0
 -2 2 -1 236 5.49 0
 -2 2 0 4976.79 23.45 0
 -2 2 1 249.96 5.68 0
 -2 3 -6 232.3 7.39 0
 -2 3 -5 104.08 4.77 0
 -2 3 -4 1181.83 14.37 0
 -2 3 -3 1423.65 15.35 0
 -2 3 -2 71.63 3.88 0
 -2 3 -1 1146.47 13.28 0
 -2 3 0 1335.94 14.56 0
 -2 3 1 1177.42 13.86 0
 -2 3 2 68.56 3.89 0
 -2 4 -5 62.92 4.4 0
 -2 4 -4 248 7.7 0
 -2 4 -3 1619.14 18.44 0
 -2 4 -2 389.88 9.09 0
 -2 4 0 63.42 4.42 0
 -2 4 1 430.34 9.82 0
 -2 4 2 401.66 9.53 0
 -2 4 3 1616.88 19.14 0
 -2 5 -8 208.81 8.91 0
 -2 5 -3 756.56 14.27 0
 -2 5 -2 251.74 8.32 0
 -2 5 -1 72.68 4.96 0
 -2 5 0 399.13 10.49 0
 -2 5 1 76.26 5.41 0
 -2 5 2 228.79 8.17 0
 -2 6 -7 112.95 7.32 0
 -2 6 -5 86.79 6.72 0
 -2 6 3 95.41 6.68 0
 -2 6 4 149.53 8.03 0
 -2 6 5 80.56 6.16 0
 -2 6 6 197.2 9.36 0
 -2 6 7 110.82 8.17 0
 -2 7 -9 66.85 6.85 0
 -2 7 -8 67.65 6.71 0
 -2 7 -7 140.88 8.48 0
 -2 7 -6 434.41 13.86 0
 -2 7 -4 143.65 8.12 0
 -2 7 -3 272.53 10.79 0
 -2 7 -2 115.23 7.34 0
 -2 7 0 107.24 7.13 0
 -2 7 1 296.81 10.94 0
 -2 7 5 428.41 13.58 0
 -2 7 6 426.21 13.89 0
 -2 7 8 71.25 6.69 0
 -2 7 9 71 7.3 0
 -2 7 10 19.31 5.18 0
 -2 7 11 160.46 11.18 0
 -2 8 -8 26.29 6.21 0
 -2 8 -7 45.37 7.17 0
 -2 8 -6 137.86 9.25 0
 -2 8 -5 60.51 7.33 0
 -2 8 -3 131.99 8.9 0
 -2 8 -2 136.9 8.86 0
 -2 8 0 51.51 6.2 0
 -2 8 2 144.67 9.48 0
 -2 8 3 147.76 9.32 0
 -2 8 4 104.19 7.67 0
 -2 8 5 60.75 6.73 0
 -2 8 6 148.82 9.96 0
 -2 8 7 53.67 7.25 0
 -2 8 8 18.77 6.38 0
 -2 8 9 30.71 6.7 0
 -2 8 10 36.13 6.48 0
 -2 8 11 9.29 5.1 0
 -2 8 12 160.82 11 0
 -2 8 13 145.2 11.32 0
 -2 8 15 109.6 10.63 0
 -2 8 16 18.52 7.36 0
 -2 8 17 273.28 16.13 0
 -2 9 -9 15.06 5.93 0
 -2 9 -8 94.14 9.49 0
 -2 9 -7 23.19 5.99 0
 -2 9 -6 28.34 6.37 0
 -2 9 -5 301.72 13.25 0
 -2 9 -4 70.78 7.37 0
 -2 9 -3 8.86 5.53 0
 -2 9 -2 41.11 6.41 0
 -2 9 -1 63.07 7.73 0
 -2 9 0 37.1 6.14 0
 -2 9 1 67.99 8.39 0
 -2 9 2 34.67 6.52 0
 -2 9 3 7.96 4.98 0
 -2 9 4 72.63 8.88 0
 -2 9 6 32.45 6.66 0
 -2 9 7 11.57 5.47 0
 -2 9 8 108.38 9.89 0
 -2 9 9 13.24 5.67 0
 -2 9 11 16.27 6.6 0
 -2 9 13 50.72 8.81 0
 -2 9 14 271.02 15.5 0
 -2 9 15 -3.36 6.28 0
 -2 10 -9 42.53 8.6 0
 -2 10 -8 40.25 7.71 0
 -2 10 -7 104.17 9.47 0
 -2 10 -6 17.94 7 0
 -2 10 -5 41.79 7.28 0
 -2 10 -4 8.65 5.34 0
 -2 10 -3 66.5 8.89 0
 -2 10 -1 82.72 8.24 0
 -2 10 0 -0.31 4.77 0
 -2 10 2 177.5 11.09 0
 -2 10 3 98.29 9.5 0
 -2 10 4 23.97 6.59 0
 -2 10 5 39.27 7.02 0
 -2 10 6 21 6.18 0
 -2 10 7 101.35 10.42 0
 -2 10 8 31.46 7.2 0
 -2 10 9 35.98 7.18 0
 -2 10 10 29.63 7.74 0
 -2 10 11 102.15 10.27 0
 -2 10 12 20.66 7.51 0
 -2 10 13 8.25 7.28 0
 -2 11 -8 116.78 11.7 0
 -2 11 -7 20.16 6.79 0
 -2 11 -6 1.88 5.17 0
 -2 11 -5 39.87 7.57 0
 -2 11 -4 52.34 8.1 0
 -2 11 -3 29.92 6.99 0
 -2 11 -2 15.06 6.37 0
 -2 11 -1 30.51 7.09 0
 -2 11 0 11.2 6.18 0
 -2 11 1 37.34 7.95 0
 -2 11 2 16.53 6.52 0
 -2 11 3 41.05 7.48 0
 -2 11 4 47 8.02 0
 -2 11 6 11.26 6.74 0
 -2 11 7 33.15 8.13 0
 -2 11 8 126.03 11.96 0
 -2 11 9 2.53 5.58 0
 -2 11 10 73.85 10.23 0
 -2 11 11 57.79 9.82 0
 -2 12 -7 35.18 8.2 0
 -2 12 -6 13.88 6.62 0
 -2 12 -5 19.15 6.84 0
 -2 12 -4 54.77 8.84 0
 -2 12 -3 4.34 6.71 0
 -2 12 -1 28.84 7.43 0
 -2 12 1 15.84 6.57 0
 -2 12 2 85.52 11.04 0
 -2 12 3 5.51 6.01 0
 -2 12 4 45.11 8.22 0
 -2 12 5 29.1 7.89 0
 -2 12 6 15.18 6.45 0
 -2 12 7 29.31 7.96 0
 -1 1 -3 217.83 4.56 0
 -1 1 -2 1697.52 10.3 0
 -1 1 -1 2743.48 12.16 0
 -1 1 0 5651.95 17.16 0
 -1 2 -4 2626.83 18.23 0
 -1 2 -3 1436.75 12.64 0
 -1 2 -2 4083.92 20.38 0
 -1 2 -1 6785.7 25.26 0
 -1 2 1 6774.84 25.69 0
 -1 3 -6 317.92 8.4 0
 -1 3 -4 783.98 11.62 0
 -1 3 -3 195.32 6.07 0
 -1 3 -2 233.6 6.27 0
 -1 3 -1 49.96 3.62 0
 -1 3 2 216.87 6.26 0
 -1 4 -7 175.21 7.51 0
 -1 4 -6 445.62 10.42 0
 -1 4 -5 279.13 8.08 0
 -1 4 -4 1122.17 15.5 0
 -1 4 -3 1703.8 18.5 0
 -1 4 -2 1417.69 16.4 0
 -1 4 -1 310.29 7.97 0
 -1 4 0 237.69 7.05 0
 -1 4 1 334.66 8.56 0
 -1 4 2 1385.71 16.67 0
 -1 5 -5 148.04 6.78 0
 -1 6 -7 139.32 7.84 0
 -1 6 -6 282.29 10.15 0
 -1 6 6 268.7 9.99 0
 -1 6 7 140.16 7.79 0
 -1 7 -7 350.92 12.43 0
 -1 7 -6 55.38 5.9 0
 -1 7 -5 12.95 3.81 0
 -1 7 -4 26.02 4.72 0
 -1 7 -3 216 9.6 0
 -1 7 -2 94.84 6.69 0
 -1 7 -1 18.64 4.57 0
 -1 7 0 133.79 7.49 0
 -1 7 1 22.92 4.28 0
 -1 7 2 100.94 7.01 0
 -1 7 4 21.07 4.3 0
 -1 7 5 16.59 4.12 0
 -1 7 6 56.06 5.96 0
 -1 7 7 329.81 12.28 0
 -1 7 8 120.87 7.98 0
 -1 7 9 152.85 9.19 0
 -1 7 10 168.16 9.81 0
 -1 8 -8 56.98 6.86 0
 -1 8 -7 10.05 4.61 0
 -1 8 -6 82.96 7.16 0
 -1 8 -5 374.21 13.12 0
 -1 8 -4 5.43 3.99 0
 -1 8 -2 207.71 9.91 0
 -1 8 -1 285.68 11.24 0
 -1 8 0 302.71 11.56 0
 -1 8 2 207.87 10.39 0
 -1 8 3 163.39 8.88 0
 -1 8 4 6.37 4.67 0
 -1 8 5 397.33 14.3 0
 -1 8 6 72 7.74 0
 -1 8 7 4.38 3.76 0
 -1 8 8 54.94 6.95 0
 -1 8 9 147.31 10.4 0
 -1 8 11 202.87 11.7 0
 -1 8 12 43.64 7.22 0
 -1 8 14 23.58 6.66 0
 -1 8 15 66.85 9.48 0
 -1 8 17 8.67 6.72 0
 -1 8 18 8.53 6.78 0
 -1 9 -9 37.58 7.5 0
 -1 9 -8 55.11 7.64 0
 -1 9 -5 249.43 11.94 0
 -1 9 -3 82.79 7.47 0
 -1 9 -1 80.6 8.2 0
 -1 9 0 199.22 10.39 0
 -1 9 1 73.46 7.64 0
 -1 9 2 100.67 8.48 0
 -1 9 3 74.07 7.38 0
 -1 9 4 244.42 11.77 0
 -1 9 6 42.23 6.63 0
 -1 9 7 282.82 13.64 0
 -1 9 8 51.89 7.47 0
 -1 9 9 46.75 7.33 0
 -1 9 10 20.27 6.94 0
 -1 9 11 1.66 5.15 0
 -1 9 13 18.25 7.62 0
 -1 9 14 52.76 9.36 0
 -1 9 15 133.72 11.34 0
 -1 10 -9 33.73 7.37 0
 -1 10 -8 245.64 13.89 0
 -1 10 -7 105.11 10.17 0
 -1 10 -6 15.02 5.48 0
 -1 10 -4 16.53 5.79 0
 -1 10 -3 64.43 7.81 0
 -1 10 -2 132.21 10.38 0
 -1 10 -1 7.55 5.27 0
 -1 10 1 3.02 4.72 0
 -1 10 2 151.1 10.11 0
 -1 10 4 21.28 6.68 0
 -1 10 5 24.76 6.37 0
 -1 10 6 18.12 6.91 0
 -1 10 7 88.6 10.22 0
 -1 10 8 249.53 13.83 0
 -1 10 9 29.11 7.76 0
 -1 10 10 156.18 11.55 0
 -1 10 11 2.02 6.1 0
 -1 10 12 114.87 10.37 0
 -1 10 13 60.04 8.99 0
 -1 10 14 264.88 15.17 0
 -1 11 -8 76.95 9.45 0
 -1 11 -7 39.47 8.06 0
 -1 11 -6 195.14 13.19 0
 -1 11 -5 18.78 6.54 0
 -1 11 -4 156.81 11.7 0
 -1 11 -3 2.79 5.6 0
 -1 11 -2 21.76 6.39 0
 -1 11 -1 41.16 7.49 0
 -1 11 0 18.28 6.66 0
 -1 11 1 49.6 8.57 0
 -1 11 2 39.9 7.37 0
 -1 11 3 -0.7 4.9 0
 -1 11 4 158.71 11.77 0
 -1 11 5 13.08 6.75 0
 -1 11 6 179.92 12.34 0
 -1 11 7 30.65 7.15 0
 -1 11 8 95.02 11.26 0
 -1 11 9 226.87 14.49 0
 -1 11 10 9.65 6.38 0
 -1 11 11 9.64 7.15 0
 -1 11 12 62.48 10.33 0
 -1 12 -8 49.31 9.21 0
 -1 12 -7 2.37 6.74 0
 -1 12 -6 12.11 7.12 0
 -1 12 -4 22.01 7.45 0
 -1 12 -3 217.52 13.57 0
 -1 12 -2 67.62 9.23 0
 -1 12 -1 15.85 6.71 0
 -1 12 0 28.14 7.94 0
 -1 12 1 14.03 6.48 0
 -1 12 2 72.92 10.21 0
 -1 12 4 38.68 7.92 0
 -1 12 5 80.4 9.86 0
 -1 12 6 1.57 5.68 0
 -1 12 7 1.58 5.56 0
 -1 12 8 62.76 9.33 0
 0 1 -2 595.47 6.04 0
 0 1 0 -0.65 0.7 0
 0 2 -4 7382.84 30.17 0
 0 2 -3 4879.02 22.36 0
 0 2 -2 215.39 4.78 0
 0 2 -1 5562.58 21.37 0
 0 2 0 9999.99 28.23 0
 0 2 1 5836.01 21.84 0
 0 3 -5 5.8 2.36 0
 0 3 -3 3583.24 22.52 0
 0 3 -2 698.99 9.89 0
 0 3 -1 115.87 4.28 0
 0 3 0 1.82 2.12 0
 0 3 1 117.23 4.27 0
 0 3 2 697.78 9.83 0
 0 4 -4 374.49 8.79 0
 0 4 -3 3838.82 26.65 0
 0 4 -2 1631.42 17.11 0
 0 4 -1 2119.79 19.21 0
 0 4 0 281.19 7.25 0
 0 4 1 2103.85 19.31 0
 0 4 2 1600.78 16.9 0
 0 4 3 3908.16 26.72 0
 0 5 -5 364.44 9.93 0
 0 5 4 123.57 5.8 0
 0 5 5 371.78 10.24 0
 0 6 -7 2.08 2.86 0
 0 6 1 1339.57 19.37 0
 0 6 7 -1.47 2.61 0
 0 7 -8 3.19 4.17 0
 0 7 -6 18.38 4.42 0
 0 7 -4 -1.85 3.02 0
 0 7 -3 126.64 7.16 0
 0 7 -2 85.15 6.28 0
 0 7 -1 204.95 9.13 0
 0 7 1 199.44 8.53 0
 0 7 2 84.58 6.21 0
 0 7 3 116 7.32 0
 0 7 4 -0.38 3.1 0
 0 7 6 22.51 4.65 0
 0 7 7 150.27 8.43 0
 0 7 8 4.81 3.74 0
 0 7 9 47.33 6.26 0
 0 7 10 39.73 5.95 0
 0 8 -8 178.53 10.21 0
 0 8 -7 175.38 9.67 0
 0 8 -6 322 12.32 0
 0 8 -3 17.11 4.32 0
 0 8 -2 371.84 12.52 0
 0 8 -1 368.94 12.61 0
 0 8 0 13.45 4.24 0
 0 8 1 371.92 12.65 0
 0 8 2 365.82 12.44 0
 0 8 5 107.36 8.52 0
 0 8 7 166.68 9.47 0
 0 8 8 171.29 10.31 0
 0 8 9 76.2 7.34 0
 0 8 10 8.78 4.69 0
 0 8 11 14.2 5.74 0
 0 8 13 0.46 4.71 0
 0 8 14 451.57 17.23 0
 0 8 15 0.48 5.43 0
 0 8 16 119.21 11.25 0
 0 8 18 130.04 11.98 0
 0 9 -8 44.64 7.01 0
 0 9 -7 44.46 7.19 0
 0 9 -6 38.76 6.38 0
 0 9 -5 84.18 7.49 0
 0 9 -4 2.07 4.31 0
 0 9 -3 46.65 6.67 0
 0 9 -2 66.53 6.79 0
 0 9 -1 117.3 8.87 0
 0 9 0 -2.07 3.75 0
 0 9 2 68.06 7.15 0
 0 9 3 47.5 7.05 0
 0 9 4 0.01 3.95 0
 0 9 5 72.11 8.18 0
 0 9 6 32.16 6.03 0
 0 9 7 41.52 6.8 0
 0 9 8 35.98 6.24 0
 0 9 9 388.53 15.21 0
 0 9 10 219.88 12.01 0
 0 9 11 149.06 11.41 0
 0 9 12 42.14 7.44 0
 0 9 13 72.82 8.89 0
 0 9 14 41.09 7.51 0
 0 9 15 60.79 8.72 0
 0 9 16 56.65 9.14 0
 0 9 17 28.8 7.37 0
 0 10 -8 23.8 6.89 0
 0 10 -7 211.6 12.03 0
 0 10 -6 25.34 6.22 0
 0 10 -5 9.31 5.19 0
 0 10 -4 73.54 7.93 0
 0 10 -3 88.5 8.95 0
 0 10 -2 1019.59 23.41 0
 0 10 -1 29.18 5.96 0
 0 10 0 98.72 9.11 0
 0 10 1 34.55 6.98 0
 0 10 2 1027.9 23.58 0
 0 10 4 87.35 8.68 0
 0 10 5 5.52 4.77 0
 0 10 6 24.95 6.27 0
 0 10 7 213.86 12.69 0
 0 10 8 29.68 6.78 0
 0 10 9 29.15 7.08 0
 0 10 10 179.31 12.62 0
 0 10 11 1.97 5.36 0
 0 10 13 26.65 7.84 0
 0 10 14 80.01 10.32 0
 0 10 15 -0.7 5.74 0
 0 11 -8 117.35 11.6 0
 0 11 -7 29.66 7.5 0
 0 11 -6 172.3 11.78 0
 0 11 -5 0.15 4.93 0
 0 11 -4 74.87 8.36 0
 0 11 -3 368.3 15.49 0
 0 11 -2 -4.91 4.26 0
 0 11 -1 14.21 5.73 0
 0 11 0 -2.72 4.66 0
 0 11 1 17.57 5.82 0
 0 11 2 -0.8 4.82 0
 0 11 3 357.83 15.82 0
 0 11 4 70.13 8.14 0
 0 11 5 1.31 5.84 0
 0 11 6 169.65 12.13 0
 0 11 7 25.13 7.11 0
 0 11 8 114.66 10.98 0
 0 11 9 32.94 8.25 0
 0 11 10 12.48 6.33 0
 0 11 11 8.35 6.9 0
 0 11 12 -4.33 5.19 0
 0 12 -7 1.24 5.62 0
 0 12 -6 -0.24 5.51 0
 0 12 -5 12.78 6.22 0
 0 12 -4 4.48 5.81 0
 0 12 -1 164.82 12.09 0
 0 12 0 107.79 10.12 0
 0 12 1 159.51 12.32 0
 0 12 2 78.18 9.35 0
 0 12 3 8.72 7.02 0
 0 12 4 14.84 6.4 0
 0 12 5 14.59 6.25 0
 0 12 6 1.1 5.39 0
 0 12 7 1.68 5.4 0
 0 12 8 7.15 5.89 0
 0 12 9 309.24 16.14 0
 0 13 -2 221.93 14.5 0
 0 13 -1 41.4 8.21 0
 0 13 0 3.15 6.66 0
 0 13 1 43.76 8.44 0
 0 13 2 223.97 14.11 0
 0 13 3 -4.29 6.77 0
 1 2 -2 4087.36 18.53 0
 1 2 -1 6789.71 22.03 0
 1 2 0 153.08 3.35 0
 1 2 1 6716.23 21.1 0
 1 3 -4 801.95 11.33 0
 1 3 -3 198.16 5.47 0
 1 3 -2 223.84 5.69 0
 1 3 -1 55.15 3.05 0
 1 3 0 6.31 2.17 0
 1 4 -3 1637.74 16.89 0
 1 4 0 240.37 6.49 0
 1 4 1 337.37 7.57 0
 1 4 2 1438.74 15.38 0
 1 4 3 1665.93 16.71 0
 1 5 -6 172.52 7.54 0
 1 5 -5 157.16 6.71 0
 1 5 -4 650.26 12.49 0
 1 5 -3 77.84 4.83 0
 1 5 4 631.79 12 0
 1 6 -7 143.26 7.93 0
 1 6 -1 194.9 7.43 0
 1 6 1 204.75 7.83 0
 1 6 2 81.66 5.54 0
 1 6 3 158.51 7.13 0
 1 6 8 128.92 7.77 0
 1 7 -7 352.2 12.54 0
 1 7 -6 56.45 5.98 0
 1 7 -5 18.63 4.08 0
 1 7 -4 19.37 4.35 0
 1 7 -3 201.17 8.58 0
 1 7 4 24.06 4.31 0
 1 7 5 19.9 4.29 0
 1 7 8 127.54 8.08 0
 1 7 9 156.5 8.62 0
 1 7 10 189 9.68 0
 1 7 11 389.16 13.72 0
 1 8 -7 15.32 4.85 0
 1 8 -6 81.06 6.9 0
 1 8 -5 381.52 12.78 0
 1 8 -4 8.36 3.88 0
 1 8 -3 162.56 8.97 0
 1 8 -2 216.11 9.9 0
 1 8 -1 278.72 10.95 0
 1 8 1 274.57 10.48 0
 1 8 2 213.85 9.51 0
 1 8 3 183.52 9.08 0
 1 8 4 5.25 3.78 0
 1 8 5 394.34 13.06 0
 1 8 6 64.05 6.51 0
 1 8 7 7.8 4.15 0
 1 8 9 143.11 9.11 0
 1 8 10 310.4 12.88 0
 1 8 12 39.26 6.43 0
 1 8 13 260.25 12.93 0
 1 8 14 15.9 6.39 0
 1 8 15 68.22 8.5 0
 1 8 16 9.46 5.58 0
 1 8 17 15.14 6.27 0
 1 8 18 16.37 6.98 0
 1 9 -7 287.2 13.02 0
 1 9 -6 42.04 6.31 0
 1 9 -5 237.59 11.63 0
 1 9 -4 227.12 10.99 0
 1 9 -3 79.36 7.27 0
 1 9 -2 84.63 7.78 0
 1 9 -1 75.55 7.26 0
 1 9 0 202.55 10.02 0
 1 9 1 66.4 7.57 0
 1 9 2 94.01 7.41 0
 1 9 3 78.51 7.85 0
 1 9 4 228.8 10.73 0
 1 9 5 253.59 11.42 0
 1 9 6 34.66 6.27 0
 1 9 7 272.36 12.45 0
 1 9 8 50.52 7.16 0
 1 9 10 18.52 5.58 0
 1 9 11 0.02 5.22 0
 1 9 12 96.85 8.87 0
 1 9 13 12.42 5.47 0
 1 9 14 69.43 8.77 0
 1 9 15 160.45 11.22 0
 1 9 16 19.59 6.63 0
 1 9 17 13.74 6.15 0
 1 10 -7 96.39 9.58 0
 1 10 -6 16.83 5.77 0
 1 10 -5 24.42 6.46 0
 1 10 -4 19.6 5.43 0
 1 10 -3 73.27 8.3 0
 1 10 -2 130.54 9.78 0
 1 10 -1 6.03 4.54 0
 1 10 0 6.3 4.53 0
 1 10 1 3.61 5.24 0
 1 10 2 140 10 0
 1 10 5 25.22 5.68 0
 1 10 6 22.39 5.73 0
 1 10 7 85.92 8.51 0
 1 10 8 263.65 13.27 0
 1 10 9 23.71 6.78 0
 1 10 10 169.09 11.27 0
 1 10 11 3.59 5.33 0
 1 10 12 106.89 10.19 0
 1 10 13 72.42 9.41 0
 1 10 14 263.46 14.71 0
 1 10 15 1.35 5.58 0
 1 11 -7 30.16 7.45 0
 1 11 -6 184.16 12.2 0
 1 11 -5 15.86 5.86 0
 1 11 -4 151.75 10.53 0
 1 11 -3 6.1 4.97 0
 1 11 -2 43.37 7.17 0
 1 11 -1 55.89 7.7 0
 1 11 0 12.84 5.47 0
 1 11 1 51.55 7.62 0
 1 11 2 38.46 6.78 0
 1 11 3 4.65 5.03 0
 1 11 4 161.96 11.15 0
 1 11 5 5.76 5.09 0
 1 11 6 182.97 11.14 0
 1 11 7 39.52 7.25 0
 1 11 8 95.64 9.71 0
 1 11 9 196.1 11.98 0
 1 11 10 6.13 5.67 0
 1 11 12 66.56 9.39 0
 1 11 13 63.98 9.07 0
 1 12 -6 10.04 6.04 0
 1 12 -5 96.45 9.7 0
 1 12 -4 41.53 7.78 0
 1 12 -3 210.27 13.15 0
 1 12 -2 58.31 8.95 0
 1 12 -1 21.18 6.4 0
 1 12 0 30.71 6.6 0
 1 12 1 10.86 6.23 0
 1 12 2 70.57 8.86 0
 1 12 4 44.11 7.56 0
 1 12 5 80.73 9.59 0
 1 12 6 13.26 7.01 0
 1 12 7 5.79 6.39 0
 1 12 8 62.15 8.83 0
 1 12 9 10.17 5.75 0
 1 13 -3 0.69 5.61 0
 1 13 -2 48.47 8.72 0
 1 13 -1 29.1 7.24 0
 1 13 0 46.15 8.29 0
 1 13 2 46.25 8.81 0
 2 0 2 1.37 0.67 0
 2 2 0 4797.58 15.25 0
 2 2 1 245 3.49 0
 2 2 2 1056.32 7.57 0
 2 3 -2 66.61 3.25 0
 2 3 -1 1158.36 10.7 0
 2 3 0 1343.2 11.05 0
 2 3 1 1158.39 10.19 0
 2 3 2 66.07 2.98 0
 2 3 3 1454.75 12.3 0
 2 4 -2 392.66 7.77 0
 2 4 -1 440.1 8.05 0
 2 4 0 61.86 3.49 0
 2 4 1 449.66 7.93 0
 2 4 3 1675.33 15.81 0
 2 5 -3 766.32 12.8 0
 2 5 -2 254.2 7.43 0
 2 5 -1 75.31 4.38 0
 2 5 0 397.54 8.71 0
 2 5 2 251.85 7.23 0
 2 5 4 649.76 11.75 0
 2 5 6 312.3 8.68 0
 2 6 -3 101.83 5.76 0
 2 6 -2 221.4 7.67 0
 2 6 -1 985.64 15.59 0
 2 6 0 204.49 7.51 0
 2 6 1 996.48 15.29 0
 2 6 3 110.98 6.02 0
 2 6 4 152.19 6.84 0
 2 6 5 83.52 5.79 0
 2 6 9 429.38 12.1 0
 2 7 -5 432.84 12.35 0
 2 7 -4 154.65 7.81 0
 2 7 6 436.65 12.37 0
 2 7 7 147.61 7.96 0
 2 7 8 59.08 6.08 0
 2 7 9 66.61 5.93 0
 2 7 10 12.66 4.54 0
 2 7 11 155.32 9.15 0
 2 7 12 86.36 7.65 0
 2 7 13 114 8.94 0
 2 7 14 70.02 8.09 0
 2 8 -6 157.89 9.22 0
 2 8 -5 62.95 7.08 0
 2 8 -3 141.16 8.29 0
 2 8 0 49.01 5.31 0
 2 8 1 351.47 11.41 0
 2 8 2 139.53 8.04 0
 2 8 3 141.54 8.05 0
 2 8 4 111.76 7.35 0
 2 8 5 61.85 5.79 0
 2 8 6 136.14 8.06 0
 2 8 7 54.86 6.32 0
 2 8 8 28.2 5.03 0
 2 8 9 28.41 5.48 0
 2 8 10 55.44 6.51 0
 2 8 11 13.56 4.61 0
 2 8 13 142.36 9.36 0
 2 8 14 65.89 8.11 0
 2 8 15 119.64 9.08 0
 2 8 17 272.1 13.28 0
 2 8 18 14.16 5.45 0
 2 9 -5 299.1 12.68 0
 2 9 -4 78.24 6.93 0
 2 9 -3 7.22 4.03 0
 2 9 -2 37.02 5.94 0
 2 9 -1 67.63 6.44 0
 2 9 0 38.91 5.54 0
 2 9 1 63.97 6.93 0
 2 9 2 29.21 5.05 0
 2 9 3 6.87 4.11 0
 2 9 4 76.13 6.63 0
 2 9 5 280.28 11.3 0
 2 9 6 25.33 4.89 0
 2 9 7 20.7 4.86 0
 2 9 8 98.05 8.3 0
 2 9 9 10.32 4.48 0
 2 9 10 125.62 8.81 0
 2 9 11 15.33 5.05 0
 2 9 12 48.3 7.42 0
 2 9 15 3.85 4.06 0
 2 10 -6 29.72 6.77 0
 2 10 -5 36.49 6.86 0
 2 10 -3 99.93 8.52 0
 2 10 -2 174.69 10.36 0
 2 10 -1 91.7 7.81 0
 2 10 0 0.86 4.19 0
 2 10 1 96.34 8.66 0
 2 10 2 193.64 10.55 0
 2 10 3 76.97 7.41 0
 2 10 4 12.68 4.56 0
 2 10 5 42 6.38 0
 2 10 8 30.15 5.75 0
 2 10 9 51.33 7.54 0
 2 10 10 24.53 5.93 0
 2 10 11 105.59 8.68 0
 2 10 12 23.67 6.1 0
 2 10 13 11.68 4.91 0
 2 11 -5 41.82 7.59 0
 2 11 -4 48.44 7.98 0
 2 11 -3 32.21 7.04 0
 2 11 -2 10.54 5.84 0
 2 11 -1 44.51 7.44 0
 2 11 0 9.1 5.48 0
 2 11 1 47.43 7.52 0
 2 11 2 17.26 6.09 0
 2 11 3 34.85 6.37 0
 2 11 4 48.86 7.09 0
 2 11 5 55.07 8.09 0
 2 11 6 10.26 5.01 0
 2 11 7 40.64 6.72 0
 2 11 8 124.43 9.62 0
 2 11 9 3.36 4.15 0
 2 12 -5 20.05 6.67 0
 2 12 -4 56.3 8.65 0
 2 12 -3 5.09 5.35 0
 2 12 -2 97.63 8.91 0
 2 12 -1 29.49 6.45 0
 2 12 0 84.88 9.73 0
 2 12 1 16.9 5.7 0
 2 12 2 100.47 9.35 0
 2 12 3 11.17 5.79 0
 2 12 4 53.65 7.77 0
 2 12 5 30.84 6.36 0
 2 12 6 11.91 5.17 0
 2 12 7 39.6 6.78 0
 2 12 8 10.79 4.69 0
 2 13 -2 25.58 6.85 0
 2 13 -1 54.56 7.9 0
 2 13 0 12.61 6.11 0
 2 13 1 79.05 9.11 0
 2 13 2 27.21 6.3 0
 2 13 3 73.15 9.05 0
 3 0 3 1.02 0.63 0
 3 2 4 184.74 3.22 0
 3 3 1 25.9 1.5 0
 3 3 2 177.06 3.35 0
 3 3 3 631.22 6.62 0
 3 3 4 395.07 5.9 0
 3 3 5 1956.12 14.14 0
 3 4 0 65.4 3.08 0
 3 4 1 30.19 2.33 0
 3 4 2 288.35 5.7 0
 3 4 6 150.12 5.06 0
 3 4 7 287.28 7.57 0
 3 5 -1 322.01 7.51 0
 3 5 0 159.83 5.4 0
 3 5 1 330.8 7.32 0
 3 5 2 772.94 10.96 0
 3 5 3 209.02 6.06 0
 3 5 4 459.99 8.94 0
 3 5 5 154.76 5.63 0
 3 5 6 216.73 6.83 0
 3 5 7 127.91 5.48 0
 3 5 8 88.69 5.15 0
 3 5 9 317.2 9.32 0
 3 6 -2 41.83 4.08 0
 3 6 -1 355.92 8.9 0
 3 6 0 140.16 5.77 0
 3 6 1 347.9 8.55 0
 3 6 2 40.53 3.41 0
 3 6 3 60.56 3.97 0
 3 6 4 298.24 8.16 0
 3 6 5 243.89 7.77 0
 3 6 6 94.48 5.48 0
 3 6 7 4.11 2.53 0
 3 6 10 58.85 4.84 0
 3 8 -4 18.16 4.26 0
 3 8 -3 74.45 6.19 0
 3 8 -2 102.56 6.73 0
 3 8 -1 5.87 3.65 0
 3 8 0 645.09 14.31 0
 3 8 1 11.52 3.27 0
 3 8 2 116.4 6.39 0
 3 8 3 85.98 5.83 0
 3 8 4 25.56 3.85 0
 3 8 6 -2.03 1.58 0
 3 9 -3 3.97 3.53 0
 3 9 -2 32.14 4.81 0
 3 9 -1 0.97 3.23 0
 3 9 0 86.71 6.3 0
 3 9 1 1.42 2.44 0
 3 9 3 -4.07 1.58 0
 3 10 -4 87.83 7.5 0
 3 10 -3 191.49 9.98 0
 4 2 6 379.49 3.93 0
 -5 2 -9 61.46 4.22 0
 -5 2 -8 65.28 4.05 0
 -5 2 -7 109.55 4.59 0
 -5 2 -6 256.5 6.19 0
 -5 2 -5 388.95 7.12 0
 -5 2 -4 15.88 1.92 0
 -5 3 -13 77.38 6.24 0
 -5 3 -11 60.8 5.25 0
 -5 3 -10 156.02 7.08 0
 -5 3 -7 17.15 3.09 0
 -5 3 -6 82.67 4.72 0
 -5 3 -5 211.57 6.66 0
 -5 3 -4 501.24 9.66 0
 -5 3 -3 232.48 6.62 0
 -5 4 -14 134.14 8.66 0
 -5 4 -13 22.02 4.4 0
 -5 4 -12 2.49 3.23 0
 -5 4 -11 373.84 11.53 0
 -5 4 -10 169.32 8.14 0
 -5 4 -9 7.71 3.47 0
 -5 4 -8 188.03 7.77 0
 -5 4 -7 90.9 5.8 0
 -5 5 -14 52.88 7.15 0
 -5 5 -13 67.08 7.51 0
 -5 5 -12 192.1 9.85 0
 -5 5 -11 38.29 5.99 0
 -5 5 -10 11.14 3.8 0
 -5 5 -9 127.09 7.89 0
 -5 5 -8 208.7 9.29 0
 -5 5 -7 3.99 3.44 0
 -5 5 -6 43.25 5.08 0
 -5 5 -5 3.23 2.91 0
 -5 5 -4 63.93 5.42 0
 -5 5 -2 52.48 5.16 0
 -5 6 -14 29.27 6.57 0
 -5 6 -11 49.97 6.54 0
 -5 6 -10 48.42 6.55 0
 -5 6 -9 64.43 7.14 0
 -5 6 -8 22.11 4.8 0
 -5 6 -7 54.56 6.33 0
 -5 6 -6 29.58 4.85 0
 -5 6 -5 260.64 10.54 0
 -5 6 -4 113.4 7.61 0
 -5 6 -3 69.96 6.55 0
 -5 6 -2 95.25 6.9 0
 -5 7 -12 157.95 10.21 0
 -5 7 -11 32.03 6.73 0
 -5 7 -10 141.55 10.1 0
 -5 7 -9 -3.6 4.81 0
 -5 7 -8 127.07 9.02 0
 -5 7 -7 70.49 7.79 0
 -5 7 -6 44.3 6.17 0
 -5 7 -5 -2.66 3.54 0
 -5 7 -4 105.14 7.83 0
 -5 7 -3 118.99 8.45 0
 -5 7 -2 197.05 10.43 0
 -5 8 -14 10.09 5.64 0
 -5 8 -13 4.26 5.12 0
 -5 8 -11 27.33 6.54 0
 -5 8 -10 37.74 6.79 0
 -5 8 -9 15.22 5.91 0
 -5 8 -8 24.89 6.02 0
 -5 8 -7 108.94 8.8 0
 -5 8 -6 7.93 5.05 0
 -5 8 -5 38.33 6.26 0
 -5 8 -4 128.84 9.67 0
 -5 8 -3 142.98 10.11 0
 -5 8 -2 28.19 6.56 0
 -5 9 -11 139.47 11.25 0
 -5 9 -10 70.56 9.12 0
 -5 9 -9 164.2 11.17 0
 -5 9 -8 20.7 6.29 0
 -5 9 -6 179.64 11.18 0
 -5 9 -5 8.44 5.64 0
 -5 9 -4 23.39 6.38 0
 -5 9 -2 35.65 6.96 0
 -5 10 -8 7.31 5.76 0
 -5 10 -7 20.05 6.77 0
 -5 10 -6 56.41 8.69 0
 -5 10 -5 10.73 5.86 0
 -5 10 -4 151.98 11.23 0
 -5 10 -3 98.61 10.43 0
 -4 -1 -6 264.26 3.77 0
 -4 0 -6 14.43 1.65 0
 -4 0 -5 279.76 3.98 0
 -4 1 -8 222.64 6.41 0
 -4 1 -7 1621.28 15.24 0
 -4 1 -6 271.96 5.96 0
 -4 1 -5 115.97 3.72 0
 -4 1 -3 2190.29 12.53 0
 -4 2 -9 160.93 6.67 0
 -4 2 -8 13 2.69 0
 -4 2 -7 213.15 6.55 0
 -4 2 -6 373.36 8.06 0
 -4 2 -5 312.94 7.09 0
 -4 2 -4 4.83 1.98 0
 -4 2 -2 262.16 5.94 0
 -4 3 -13 186.41 9.14 0
 -4 3 -12 244.92 10.02 0
 -4 3 -11 17.38 4.14 0
 -4 3 -10 452.8 11.74 0
 -4 3 -7 251.17 8 0
 -4 3 -5 58.16 4.39 0
 -4 3 -2 22.44 2.85 0
 -4 3 -1 170.78 5.97 0
 -4 4 -20 91.48 9.6 0
 -4 4 -19 104.39 10.04 0
 -4 4 -18 146.13 10.86 0
 -4 4 -17 53.94 7.98 0
 -4 4 -16 26.22 5.93 0
 -4 4 -15 47.23 6.86 0
 -4 4 -14 50.58 6.62 0
 -4 4 -13 205.56 10.3 0
 -4 4 -12 126.33 7.83 0
 -4 4 -11 81.63 6.66 0
 -4 4 -10 11.5 3.65 0
 -4 4 -9 -1.59 3.26 0
 -4 4 -8 60.09 5.44 0
 -4 4 -3 60.85 4.56 0
 -4 4 -2 153.59 6.76 0
 -4 4 -1 295.61 8.72 0
 -4 4 0 9.37 2.95 0
 -4 5 -19 5.23 5.28 0
 -4 5 -18 90.9 9.23 0
 -4 5 -17 83.37 9.31 0
 -4 5 -16 21.21 6.2 0
 -4 5 -15 7.08 5.26 0
 -4 5 -14 87.72 8.43 0
 -4 5 -13 34.38 6.58 0
 -4 5 -12 75.14 7 0
 -4 5 -10 455.31 13.68 0
 -4 5 -9 161.21 8.25 0
 -4 5 -8 550.05 14.03 0
 -4 5 -7 108.05 6.72 0
 -4 5 -6 395.41 11.86 0
 -4 6 -18 39.04 7.8 0
 -4 6 -17 95.22 9.04 0
 -4 6 -16 70.24 9.01 0
 -4 6 -15 148.37 10.27 0
 -4 6 -14 40.14 6.87 0
 -4 6 -13 166.03 10.25 0
 -4 6 -12 76.42 8.25 0
 -4 6 -11 49.91 6.65 0
 -4 6 -10 6.32 4.32 0
 -4 6 -9 36.49 5.9 0
 -4 6 -8 103.36 7.72 0
 -4 6 -6 3.72 3.85 0
 -4 6 -5 16.02 4.3 0
 -4 6 -4 67.31 6.52 0
 -4 6 -2 20.81 4.64 0
 -4 6 0 19.47 4.54 0
 -4 7 -17 176.74 12.78 0
 -4 7 -16 44.93 7.65 0
 -4 7 -15 90.59 10.52 0
 -4 7 -14 31.8 7.41 0
 -4 7 -13 33.41 7.61 0
 -4 7 -12 137.15 9.76 0
 -4 7 -11 308.48 13.84 0
 -4 7 -10 109.68 9.21 0
 -4 7 -9 57.72 7.43 0
 -4 7 -8 114.03 8.92 0
 -4 7 -6 104.04 8.12 0
 -4 7 -5 146.8 9.14 0
 -4 7 -4 2.82 3.88 0
 -4 7 -3 82.86 7.58 0
 -4 7 -2 272.54 11.48 0
 -4 7 -1 212.83 10.54 0
 -4 7 0 21.78 4.9 0
 -4 8 -15 26.89 7.35 0
 -4 8 -14 7.3 5.54 0
 -4 8 -13 105.78 9.84 0
 -4 8 -12 227.66 13.33 0
 -4 8 -10 67.37 8.98 0
 -4 8 -9 110.39 10.01 0
 -4 8 -8 13.76 5.59 0
 -4 8 -7 48.45 7.66 0
 -4 8 -6 14.36 5.12 0
 -4 8 -5 22.31 5.97 0
 -4 8 -4 129.61 9.84 0
 -4 8 -2 123.87 9.62 0
 -4 8 -1 33.4 6.24 0
 -4 8 0 95.59 8.15 0
 -4 9 -13 67.55 9.83 0
 -4 9 -12 2.81 6.07 0
 -4 9 -11 128.22 11.27 0
 -4 9 -10 48.64 8.78 0
 -4 9 -9 123.98 10.38 0
 -4 9 -8 23.24 6.3 0
 -4 9 -7 86.49 8.83 0
 -4 9 -6 37.62 7.06 0
 -4 9 -5 293.36 14.53 0
 -4 9 -4 14.34 5.46 0
 -4 9 -3 116.57 9.49 0
 -4 9 -2 14.83 6.05 0
 -4 9 -1 265.31 13.7 0
 -4 9 0 437.41 16.81 0
 -4 10 -11 17.16 6.79 0
 -4 10 -10 30.31 7.52 0
 -4 10 -9 76.2 9.78 0
 -4 10 -8 63.83 9.69 0
 -4 10 -7 170.86 12.84 0
 -4 10 -6 170.77 12.86 0
 -4 10 -5 36.93 7.88 0
 -4 10 -4 49.76 8.1 0
 -4 10 -3 22.06 6.98 0
 -4 10 -1 11.34 6.72 0
 -4 11 -7 98.03 10.45 0
 -4 11 -6 153.41 12.4 0
 -4 11 -5 261.49 15.1 0
 -4 11 -4 121.89 11.15 0
 -4 11 -3 23.03 7.35 0
 -4 11 -2 51.15 9.64 0
 -3 0 -4 1831.81 10.71 0
 -3 0 -3 1.6 0.62 0
 -3 1 -5 647.97 8.8 0
 -3 1 -4 57.86 2.78 0
 -3 1 -3 44.81 2.33 0
 -3 1 -2 1269.55 9.75 0
 -3 1 -1 824.53 7.7 0
 -3 2 -6 112.29 5.06 0
 -3 2 -5 232.72 6.24 0
 -3 2 -4 178.68 5.17 0
 -3 2 -3 534.18 8.47 0
 -3 2 -2 475.73 7.85 0
 -3 2 -1 866.47 10.28 0
 -3 3 -6 145.72 6.13 0
 -3 3 -5 1970.39 19.7 0
 -3 3 -4 402.26 9.01 0
 -3 3 -3 660.13 10.88 0
 -3 3 -2 174.96 6.01 0
 -3 3 -1 31.71 3.07 0
 -3 3 0 25.99 3.16 0
 -3 3 1 27.13 3.16 0
 -3 4 -9 210.87 8.73 0
 -3 4 -4 203.03 7.32 0
 -3 4 -3 62.03 4.91 0
 -3 4 -2 295.96 8.68 0
 -3 4 0 69.75 4.65 0
 -3 5 -19 12.07 6.36 0
 -3 5 -18 61.08 8.94 0
 -3 5 -16 47.02 7.99 0
 -3 5 -15 55.35 7.48 0
 -3 5 -14 56.88 7.46 0
 -3 5 -13 180.99 10.46 0
 -3 5 -12 50.1 6.43 0
 -3 5 -10 4.16 3.92 0
 -3 5 -9 346.07 11.98 0
 -3 5 -6 221.51 9.09 0
 -3 6 -19 28.21 7.79 0
 -3 6 -18 119.57 11.44 0
 -3 6 -17 2.17 5.46 0
 -3 6 -16 140 11.02 0
 -3 6 -15 3.46 5.44 0
 -3 6 -13 37.75 6.57 0
 -3 6 -12 36.88 6.45 0
 -3 6 -11 461.99 15.07 0
 -3 6 -10 51.46 6.69 0
 -3 6 -9 6.55 3.84 0
 -3 6 -8 4.57 3.77 0
 -3 6 -7 5.98 3.56 0
 -3 6 -6 91.94 6.83 0
 -3 6 -5 235.95 10.12 0
 -3 6 -4 305.26 10.85 0
 -3 6 -3 58.15 5.68 0
 -3 6 -2 47.33 5.59 0
 -3 6 -1 342.37 11.41 0
 -3 6 1 353.26 11.72 0
 -3 6 2 43.67 5.21 0
 -3 7 -18 29.62 7.95 0
 -3 7 -17 1.15 5.74 0
 -3 7 -16 42.57 7.83 0
 -3 7 -15 8.49 6.02 0
 -3 7 -14 2.86 4.96 0
 -3 7 -13 233.9 12.68 0
 -3 7 -12 224.02 12.7 0
 -3 7 -10 71.95 8.83 0
 -3 7 -9 48.39 7.27 0
 -3 7 -8 41.43 6.11 0
 -3 7 -6 176.34 9.47 0
 -3 7 -5 26.52 5.25 0
 -3 7 -4 23.76 5.49 0
 -3 7 -3 78.48 6.67 0
 -3 7 -2 219.79 10.47 0
 -3 7 -1 358.24 12.57 0
 -3 7 0 5.22 3.73 0
 -3 7 1 373.03 12.86 0
 -3 7 2 216.86 10.25 0
 -3 8 -16 38.13 8.76 0
 -3 8 -15 99.51 11.01 0
 -3 8 -14 88.37 10.25 0
 -3 8 -13 20.72 6.36 0
 -3 8 -12 132.05 10.89 0
 -3 8 -11 136.42 11.18 0
 -3 8 -10 60.46 8.43 0
 -3 8 -9 82.7 8.46 0
 -3 8 -8 192.85 11.3 0
 -3 8 -7 40.32 7.27 0
 -3 8 -4 27.37 6.18 0
 -3 8 -3 79.96 8 0
 -3 8 -2 112.12 8.39 0
 -3 8 -1 7.85 4.7 0
 -3 8 0 627.86 17.61 0
 -3 8 1 8.67 4.97 0
 -3 8 2 109.24 8.25 0
 -3 9 -14 1.69 5.87 0
 -3 9 -13 0.21 5.66 0
 -3 9 -12 124.27 10.9 0
 -3 9 -11 83.04 10.35 0
 -3 9 -10 12.21 6.06 0
 -3 9 -9 2.02 5.87 0
 -3 9 -8 164.07 12.07 0
 -3 9 -7 200.17 12.69 0
 -3 9 -6 79.86 9.14 0
 -3 9 -4 167.48 10.65 0
 -3 9 -3 -0.9 4.47 0
 -3 9 -2 28.7 6.74 0
 -3 9 -1 0.35 4.86 0
 -3 9 0 79.86 8.73 0
 -3 9 1 7.65 5.02 0
 -3 10 -12 58.35 9.94 0
 -3 10 -11 42.56 8.61 0
 -3 10 -10 111.02 10.94 0
 -3 10 -9 59.97 9.12 0
 -3 10 -8 34 8.56 0
 -3 10 -7 12.87 6.86 0
 -3 10 -6 56.1 9.13 0
 -3 10 -5 28.41 7.02 0
 -3 10 -4 74.81 9.07 0
 -3 10 -3 171.96 12.14 0
 -3 10 -2 160.81 11.85 0
 -3 10 -1 56.74 8.36 0
 -3 10 1 57.37 8.24 0
 -3 11 -9 20.92 7.46 0
 -3 11 -8 19.71 8.09 0
 -3 11 -7 127.86 11.93 0
 -3 11 -6 32.96 8.07 0
 -3 11 -5 6.49 6.42 0
 -3 11 -4 23.57 8.07 0
 -3 11 -2 41.49 8.49 0
 -3 11 -1 149.9 12.26 0
 -3 11 0 167.55 13.03 0
 -3 12 -3 92.03 11.39 0
 -3 12 -2 6.63 7.11 0
 -3 12 -1 111.19 12.67 0
 -2 -2 -2 1019.28 7.28 0
 -2 0 -2 1.29 0.63 0
 -2 1 -1 472.73 5.72 0
 -2 1 0 3.52 1.11 0
 -2 2 -3 316.06 6.54 0
 -2 2 -1 235.92 5.35 0
 -2 2 0 4873.98 22.88 0
 -2 2 1 240.83 5.5 0
 -2 3 -5 90.64 4.99 0
 -2 3 -4 1186.79 14.67 0
 -2 3 -3 1434.78 15.32 0
 -2 3 -2 69.55 4.23 0
 -2 3 -1 1178.94 13.59 0
 -2 3 0 1391.19 14.91 0
 -2 3 1 1176.08 13.79 0
 -2 3 2 67.24 3.94 0
 -2 4 -5 62.88 5.03 0
 -2 4 -4 272.43 8.21 0
 -2 4 -3 1694.35 18.99 0
 -2 4 0 66.99 4.52 0
 -2 4 1 438.73 9.78 0
 -2 4 2 391.05 9.41 0
 -2 5 -10 358.67 12.36 0
 -2 5 -9 128.32 7.8 0
 -2 5 -8 216.96 9.27 0
 -2 5 -7 63.32 5.39 0
 -2 6 -20 43.06 9 0
 -2 6 -19 69.85 10.2 0
 -2 6 -17 222.37 13.82 0
 -2 6 -16 32.49 7.96 0
 -2 6 -15 12.16 5.65 0
 -2 6 -14 27.72 6.85 0
 -2 6 -13 168.69 11.18 0
 -2 6 -12 3.98 4.65 0
 -2 6 -11 73.59 7.07 0
 -2 6 -10 297.62 12.02 0
 -2 6 -9 399.55 13.4 0
 -2 6 -8 198.85 9.49 0
 -2 6 -7 113.08 7.28 0
 -2 6 -5 83 6.28 0
 -2 6 -3 107.02 6.71 0
 -2 6 -2 201.16 8.83 0
 -2 6 0 189.94 8.58 0
 -2 6 1 980.12 18.27 0
 -2 6 2 208.05 9 0
 -2 6 3 100.21 7.04 0
 -2 7 -18 69.52 10.77 0
 -2 7 -17 35.8 8.63 0
 -2 7 -16 28.47 7.41 0
 -2 7 -15 80.61 9.97 0
 -2 7 -11 150.01 10.29 0
 -2 7 -10 18.75 5.32 0
 -2 7 -9 71.19 7.36 0
 -2 7 -8 63.46 7.69 0
 -2 7 -7 137.05 8.58 0
 -2 7 -6 439.32 14.12 0
 -2 7 -5 424.13 13.52 0
 -2 7 -4 140.54 8.24 0
 -2 7 -3 267.63 11.1 0
 -2 7 -2 128.67 8.31 0
 -2 7 0 92.87 7.17 0
 -2 7 2 127.18 7.86 0
 -2 7 3 243.5 10.63 0
 -2 8 -17 299.12 16.11 0
 -2 8 -16 17.02 7.09 0
 -2 8 -14 56.52 8.96 0
 -2 8 -13 135.71 11.25 0
 -2 8 -12 155.09 11.84 0
 -2 8 -11 9.64 5.4 0
 -2 8 -10 44.39 7.72 0
 -2 8 -9 25.19 6.09 0
 -2 8 -7 47.13 7.02 0
 -2 8 -6 156.47 9.89 0
 -2 8 -5 64.7 7.02 0
 -2 8 -4 96.75 7.87 0
 -2 8 -3 152.62 9.38 0
 -2 8 -2 145.34 9.66 0
 -2 8 -1 351.7 13.07 0
 -2 8 0 52.84 6.41 0
 -2 8 1 347.87 13.45 0
 -2 9 -15 1.66 6.07 0
 -2 9 -14 258.89 15.4 0
 -2 9 -13 49.4 8.78 0
 -2 9 -12 52.11 9.3 0
 -2 9 -11 18.38 6.51 0
 -2 9 -10 146.8 11.89 0
 -2 9 -9 5.69 5.08 0
 -2 9 -8 102.54 9.25 0
 -2 9 -7 22.24 5.94 0
 -2 9 -6 35.02 7.28 0
 -2 9 -5 286.63 13.36 0
 -2 9 -4 68.86 8.06 0
 -2 9 -2 36.73 6.34 0
 -2 9 -1 63.13 7.47 0
 -2 9 0 30.04 6.17 0
 -2 9 2 33.87 6.13 0
 -2 10 -13 2.08 6.65 0
 -2 10 -11 85.65 10.35 0
 -2 10 -10 26.48 7.45 0
 -2 10 -9 37.87 7.72 0
 -2 10 -8 37.11 8.47 0
 -2 10 -7 115.47 11.28 0
 -2 10 -6 20.79 7.06 0
 -2 10 -5 30.66 6.72 0
 -2 10 -3 73.31 8.56 0
 -2 10 -2 186.92 11.73 0
 -2 10 -1 105.07 10.21 0
 -2 10 0 3.83 5.15 0
 -2 10 1 102.76 9.48 0
 -2 10 2 167.35 11.19 0
 -2 11 -11 40.06 9.4 0
 -2 11 -10 82.8 10.41 0
 -2 11 -9 3.46 6.53 0
 -2 11 -8 128.37 11.26 0
 -2 11 -7 34.07 8 0
 -2 11 -6 5.07 6.1 0
 -2 11 -5 33.18 7.62 0
 -2 11 -4 55.93 8.95 0
 -2 11 -3 35.32 8.68 0
 -2 11 -1 38.67 7.87 0
 -2 11 0 7.55 6.46 0
 -2 11 1 53.55 9 0
 -2 12 -6 9.66 6.49 0
 -2 12 -5 20.59 7.44 0
 -2 12 -4 51.18 9.07 0
 -2 12 -3 13.07 6.69 0
 -2 12 -2 96.65 11.99 0
 -2 12 -1 22.25 7.5 0
 -2 12 0 72.76 10.21 0
 -1 1 -1 2641.96 11.74 0
 -1 1 0 5764.99 17.21 0
 -1 1 1 2657.34 12.51 0
 -1 2 -2 4105.93 20.25 0
 -1 2 -1 6828.79 25.09 0
 -1 2 0 145.8 4.01 0
 -1 2 1 6754.7 25.57 0
 -1 3 -1 53.41 3.22 0
 -1 3 0 8.08 2.26 0
 -1 3 1 54.73 3.5 0
 -1 4 -5 302.94 8.67 0
 -1 4 -4 1157.57 15.88 0
 -1 4 -3 1698.2 18.33 0
 -1 4 -2 1450.23 16.92 0
 -1 4 -1 333.43 8.35 0
 -1 4 1 331.3 8.23 0
 -1 4 3 1702.61 18.83 0
 -1 5 -8 1282.01 20.73 0
 -1 5 -7 750.56 15.63 0
 -1 5 -3 80.92 5.49 0
 -1 5 -2 509.03 11.29 0
 -1 5 -1 8.49 2.63 0
 -1 5 0 10.27 2.72 0
 -1 5 1 7.53 2.88 0
 -1 5 2 487.83 11.19 0
 -1 5 3 85.04 5.38 0
 -1 6 -11 180.98 10.32 0
 -1 6 -10 7.24 4.26 0
 -1 6 -9 125.02 7.93 0
 -1 6 -8 115.6 7.79 0
 -1 6 -7 128.7 7.65 0
 -1 6 -6 281.32 10.41 0
 -1 6 -5 1090.19 19.31 0
 -1 6 -4 573.09 13.73 0
 -1 7 -18 48.98 9.16 0
 -1 7 -17 211.58 13.31 0
 -1 7 -16 26.72 7.58 0
 -1 7 -15 97.16 10.21 0
 -1 7 -14 106.03 10.51 0
 -1 7 -13 152.24 11.07 0
 -1 7 -12 48.63 7.59 0
 -1 7 -11 376.24 14.71 0
 -1 7 -10 178.28 10.59 0
 -1 7 -9 151.9 9.14 0
 -1 7 -8 123.91 8.63 0
 -1 7 -7 331.23 12.18 0
 -1 7 -6 55.93 6.72 0
 -1 7 -3 211.12 9.45 0
 -1 7 -2 90.94 6.56 0
 -1 7 0 136.8 8.3 0
 -1 7 2 101.54 7.51 0
 -1 7 3 210.29 9.51 0
 -1 8 -17 8.02 7.33 0
 -1 8 -16 18.74 7.09 0
 -1 8 -15 71.19 9.85 0
 -1 8 -14 23.73 6.75 0
 -1 8 -13 236.96 13.06 0
 -1 8 -12 44.78 7.37 0
 -1 8 -11 198.68 12.15 0
 -1 8 -10 294.19 13.3 0
 -1 8 -9 153.53 10.47 0
 -1 8 -8 49.29 6.71 0
 -1 8 -7 11.73 4.4 0
 -1 8 -6 82.62 7.87 0
 -1 8 -4 3.76 4.69 0
 -1 8 -3 175.83 9.68 0
 -1 8 -2 226.09 11.14 0
 -1 8 -1 274.69 11.44 0
 -1 8 0 315.56 11.97 0
 -1 8 1 269.84 11.3 0
 -1 8 2 197.4 9.93 0
 -1 8 3 156.65 8.87 0
 -1 9 -16 9.34 6.61 0
 -1 9 -15 141.13 12.63 0
 -1 9 -14 62.94 9.79 0
 -1 9 -13 15.02 6.82 0
 -1 9 -12 103.87 10.76 0
 -1 9 -11 3.5 5.6 0
 -1 9 -10 18.93 6.27 0
 -1 9 -9 34.88 6.92 0
 -1 9 -8 48.81 7.61 0
 -1 9 -7 269.51 12.9 0
 -1 9 -6 32.07 7.08 0
 -1 9 -5 244.33 12.09 0
 -1 9 -4 243.59 12.12 0
 -1 9 -3 72.39 7.6 0
 -1 9 -2 86.97 7.78 0
 -1 9 -1 68.6 7.96 0
 -1 9 0 200.61 10.9 0
 -1 9 1 66.49 7.67 0
 -1 9 2 90.3 8.21 0
 -1 10 -14 270.52 16.13 0
 -1 10 -13 57.85 10.06 0
 -1 10 -12 113.79 11.87 0
 -1 10 -11 7.25 6.52 0
 -1 10 -10 169.21 12.5 0
 -1 10 -9 29.85 7.44 0
 -1 10 -8 234.64 13.61 0
 -1 10 -7 86.65 10.25 0
 -1 10 -6 14.21 6.28 0
 -1 10 -5 28.7 7 0
 -1 10 -4 26.69 6.26 0
 -1 10 -3 64.86 8.66 0
 -1 10 -2 146.95 11.21 0
 -1 10 -1 11.78 6.7 0
 -1 10 0 0.45 5.41 0
 -1 10 1 4.53 4.74 0
 -1 10 2 154.52 10.71 0
 -1 11 -11 11.46 6.96 0
 -1 11 -10 15 6.58 0
 -1 11 -9 222.4 14.71 0
 -1 11 -8 85.09 11.2 0
 -1 11 -7 42.76 8.78 0
 -1 11 -6 196.37 13.78 0
 -1 11 -5 14.56 7.41 0
 -1 11 -4 166.46 11.93 0
 -1 11 -3 -6.07 5.62 0
 -1 11 -2 27.49 7.16 0
 -1 11 -1 39.13 7.82 0
 -1 11 0 10.99 6.86 0
 -1 11 1 54.76 9.16 0
 -1 12 -8 69.29 9.95 0
 -1 12 -7 -2.46 6.12 0
 -1 12 -6 20.08 8.23 0
 -1 12 -5 102.64 11.54 0
 -1 12 -3 231.15 14.06 0
 -1 12 -2 82.51 11.25 0
 -1 12 -1 15.03 6.88 0
 -1 12 0 32.24 8.24 0
 0 -1 -1 2391.33 10.1 0
 0 -1 0 -0.79 0.91 0
 0 1 0 -1.19 0.69 0
 0 1 1 2291.36 10 0
 0 2 -1 5743.03 21.63 0
 0 2 0 9637.08 27.25 0
 0 2 1 5739.1 21.54 0
 0 3 -2 715.83 10.1 0
 0 3 0 2 2.23 0
 0 3 1 118.27 4.67 0
 0 3 2 686.76 9.67 0
 0 4 -4 381.24 9.27 0
 0 4 -3 3967.65 27.32 0
 0 4 -2 1640.73 17.16 0
 0 4 -1 2127.22 19.18 0
 0 4 0 276.62 7.26 0
 0 4 1 2086.79 19.03 0
 0 4 2 1647.04 17.31 0
 0 4 3 4024.44 27.33 0
 0 5 -4 126.08 6.14 0
 0 5 -3 124.77 5.95 0
 0 5 -2 31.44 4.01 0
 0 5 -1 47.26 4.14 0
 0 5 0 -1.92 1.92 0
 0 5 1 52.98 4.37 0
 0 5 3 123.38 5.92 0
 0 6 -9 20.44 4.52 0
 0 6 -8 302.46 11.06 0
 0 6 -7 -0.48 3.05 0
 0 6 -6 86.36 6.17 0
 0 6 -5 508.91 13.19 0
 0 7 -16 202.5 13.09 0
 0 7 -15 3.66 5.52 0
 0 7 -14 9.27 5.19 0
 0 7 -13 10.33 5.13 0
 0 7 -12 92.96 8.57 0
 0 7 -10 37.06 6.28 0
 0 7 -9 36.65 6.53 0
 0 7 -8 7.32 4.32 0
 0 7 -7 151.97 8.61 0
 0 7 -6 22.8 4.59 0
 0 7 -5 671.19 15.95 0
 0 7 -4 -0.5 3.19 0
 0 7 -3 117.01 7.62 0
 0 7 -2 78.12 6.07 0
 0 7 0 1.74 2.93 0
 0 7 1 219.5 9.52 0
 0 7 2 80.81 6.58 0
 0 7 3 115.71 7.54 0
 0 8 -18 151.35 13.01 0
 0 8 -17 143.64 12.78 0
 0 8 -16 122.2 12.01 0
 0 8 -15 4.39 5.55 0
 0 8 -14 430.92 17.55 0
 0 8 -11 21.47 5.87 0
 0 8 -10 2.64 4.84 0
 0 8 -9 86.45 8.85 0
 0 8 -8 165.97 10.25 0
 0 8 -7 157.52 9.46 0
 0 8 -6 338.39 13.21 0
 0 8 -5 122.26 8.53 0
 0 8 -4 428.25 14.28 0
 0 8 -3 20.34 4.69 0
 0 8 -2 357.17 12.88 0
 0 8 -1 356.66 12.76 0
 0 8 0 10.36 4.06 0
 0 8 1 367.89 12.6 0
 0 8 3 21.67 5.39 0
 0 9 -16 65.54 9.84 0
 0 9 -15 53.78 9.56 0
 0 9 -14 45.26 8.91 0
 0 9 -11 142.91 11.54 0
 0 9 -10 226.75 12.79 0
 0 9 -9 362.71 15.02 0
 0 9 -8 41.39 6.9 0
 0 9 -6 34.19 6.78 0
 0 9 -5 76.42 7.91 0
 0 9 -4 2.73 4.23 0
 0 9 -3 45.86 6.68 0
 0 9 -1 124.76 8.89 0
 0 9 0 -0.18 3.92 0
 0 9 1 120.37 9.09 0
 0 9 2 62.89 7.15 0
 0 9 3 50.11 6.61 0
 0 10 -13 37.6 8.36 0
 0 10 -12 71.7 9.72 0
 0 10 -11 -0.49 5.39 0
 0 10 -10 177.61 12.98 0
 0 10 -9 43.44 8.01 0
 0 10 -8 30.4 6.96 0
 0 10 -7 194.47 11.99 0
 0 10 -6 38.48 8.05 0
 0 10 -5 8.39 5.29 0
 0 10 -4 90.49 9.46 0
 0 10 -3 92.89 9.35 0
 0 10 -2 985.5 23.82 0
 0 10 0 88.63 9.16 0
 0 10 1 38.3 6.78 0
 0 10 2 1007.4 24.02 0
 0 11 -12 -2.52 5.99 0
 0 11 -11 -0.48 5.98 0
 0 11 -10 13.12 7.27 0
 0 11 -9 46.07 8.77 0
 0 11 -8 113.93 10.79 0
 0 11 -7 36.52 7.68 0
 0 11 -6 162.87 11.93 0
 0 11 -5 0.29 5.87 0
 0 11 -4 72.34 9.21 0
 0 11 -3 355.01 16.45 0
 0 11 -2 3.2 5.4 0
 0 11 -1 13.19 5.87 0
 0 11 0 -1.99 4.86 0
 0 11 1 17.03 6.24 0
 0 11 2 0.39 5.17 0
 0 12 -8 15.6 7.19 0
 0 12 -7 1.24 7.39 0
 0 12 -6 -8.54 6.79 0
 0 12 -5 21.7 7.8 0
 0 12 -4 6.84 6.11 0
 0 12 -3 13.16 6.5 0
 0 12 -2 95.79 10.58 0
 0 12 -1 149.14 12.55 0
 0 12 1 149.87 11.71 0
 1 -1 0 5814.39 17.13 0
 1 2 -1 6739.12 21.92 0
 1 2 0 149.77 3.3 0
 1 2 1 6670.76 20.76 0
 1 3 -2 233.2 5.75 0
 1 3 -1 51.07 3.19 0
 1 3 0 4.66 1.76 0
 1 3 1 52.01 3.12 0
 1 3 2 219.89 5.38 0
 1 4 -4 1121.05 14.84 0
 1 4 -2 1427.14 15.6 0
 1 4 2 1401.57 14.92 0
 1 4 3 1688.49 16.85 0
 1 5 -4 643.5 12.59 0
 1 5 -3 84.66 5.3 0
 1 5 -2 503.4 10.71 0
 1 5 -1 5.57 2.39 0
 1 5 1 7.36 2.39 0
 1 5 2 507.62 10.52 0
 1 5 3 79.22 5.11 0
 1 6 -8 118.66 7.91 0
 1 6 -7 139.12 7.82 0
 1 6 -6 280.65 10.1 0
 1 7 -13 132.2 10.54 0
 1 7 -12 38.52 7.31 0
 1 7 -10 168.4 10.1 0
 1 7 -9 162.64 9.26 0
 1 7 -8 126.89 8.71 0
 1 7 -7 343.97 12.14 0
 1 7 -6 65.57 6.18 0
 1 7 -5 14.85 4.1 0
 1 7 -4 25.68 4.54 0
 1 7 -3 201.81 8.68 0
 1 7 -2 93.44 6.43 0
 1 7 -1 20.11 4.12 0
 1 7 0 129.31 7.26 0
 1 7 1 15.65 3.69 0
 1 7 2 94.39 6.38 0
 1 7 3 215.02 9.19 0
 1 8 -17 15.82 6.96 0
 1 8 -16 11.56 7.51 0
 1 8 -15 70.29 9.4 0
 1 8 -14 21.48 7.04 0
 1 8 -13 255.91 14.05 0
 1 8 -12 29.77 7.06 0
 1 8 -11 194.19 11.17 0
 1 8 -10 314.56 14 0
 1 8 -9 162.84 10.61 0
 1 8 -8 50.99 7.09 0
 1 8 -7 7.04 4.22 0
 1 8 -6 74.16 7.59 0
 1 8 -5 385.98 13.31 0
 1 8 -4 0.34 3.51 0
 1 8 -3 177.08 9.61 0
 1 8 -2 210.34 10.31 0
 1 8 -1 264.56 11.06 0
 1 8 0 290.58 11.03 0
 1 8 1 267.67 10.95 0
 1 8 2 197.93 9.32 0
 1 8 3 166.27 9.19 0
 1 9 -16 20.16 7.6 0
 1 9 -15 143.53 12.15 0
 1 9 -14 43.93 9.1 0
 1 9 -13 20.4 7.17 0
 1 9 -12 111.52 11.07 0
 1 9 -11 6.66 5.25 0
 1 9 -10 19.85 6.52 0
 1 9 -8 51.78 7.6 0
 1 9 -7 284.05 13.37 0
 1 9 -6 47.95 6.89 0
 1 9 -5 240.62 11.68 0
 1 9 -4 216.29 10.94 0
 1 9 -3 81.88 7.48 0
 1 9 -2 88.53 8.36 0
 1 9 -1 69.26 7.13 0
 1 9 0 200.28 10.09 0
 1 9 1 69.06 6.95 0
 1 9 2 91.26 7.67 0
 1 9 3 74.23 7.14 0
 1 10 -14 251.59 14.92 0
 1 10 -13 53.48 8.85 0
 1 10 -12 95.04 10.8 0
 1 10 -11 1.32 5.68 0
 1 10 -10 150.83 11.11 0
 1 10 -9 30.45 7.04 0
 1 10 -8 256.5 14.01 0
 1 10 -7 98.2 9.79 0
 1 10 -6 19.43 6.23 0
 1 10 -5 21.57 6.24 0
 1 10 -4 27.71 6.89 0
 1 10 -3 69.76 8.65 0
 1 10 -2 145.43 10.33 0
 1 10 -1 8.68 4.97 0
 1 10 0 -2.81 4.14 0
 1 10 1 12.47 5.42 0
 1 10 2 134.95 9.81 0
 1 11 -12 62.75 10.29 0
 1 11 -11 9.31 6.37 0
 1 11 -10 19.83 7.38 0
 1 11 -9 206.59 13.22 0
 1 11 -8 100.15 11.61 0
 1 11 -6 178.95 12.08 0
 1 11 -5 16.25 6.54 0
 1 11 -4 172.89 11.74 0
 1 11 -3 2.15 6.34 0
 1 11 -2 33.4 7.21 0
 1 11 -1 55.66 8.81 0
 1 11 0 16.09 6.67 0
 1 11 1 60.82 8.56 0
 1 12 -8 62.4 9.5 0
 1 12 -7 -0.54 6.66 0
 1 12 -6 19.26 7.62 0
 1 12 -4 27.99 7.38 0
 1 12 -3 214.41 13.94 0
 1 12 -2 69.7 9.92 0
 1 12 -1 13.46 6.33 0
 1 12 0 33.84 7.37 0
 1 13 -1 23.28 7.42 0
 2 0 -1 822.85 6.04 0
 2 2 0 4848.27 15.52 0
 2 3 -2 68.2 3.41 0
 2 3 -1 1174.7 10.88 0
 2 4 -3 1677.35 16.84 0
 2 4 -2 382.43 7.87 0
 2 4 0 70.08 3.61 0
 2 4 1 448.4 7.99 0
 2 4 2 405.48 7.66 0
 2 5 -4 641.5 12.36 0
 2 5 -3 771.59 13.03 0
 2 5 -2 236.15 7.35 0
 2 5 -1 76.84 4.66 0
 2 5 0 398.28 8.98 0
 2 5 1 73.32 4.31 0
 2 6 -8 194.29 9.37 0
 2 6 -7 124.35 7.64 0
 2 6 -6 208.78 8.74 0
 2 6 0 195.79 7.25 0
 2 6 1 1005.82 15.68 0
 2 6 2 206.36 7.43 0
 2 7 -13 113.25 10.22 0
 2 7 -12 100.76 9.16 0
 2 7 -11 158.54 9.91 0
 2 7 -10 15.17 5.51 0
 2 7 -9 71.04 7.45 0
 2 7 -8 67.82 6.96 0
 2 7 -7 148.22 8.64 0
 2 7 -6 413.64 12.83 0
 2 7 -5 395.93 11.97 0
 2 7 -4 154.7 7.76 0
 2 7 -3 244.16 9.29 0
 2 7 -2 129.05 7.24 0
 2 7 -1 298.18 9.85 0
 2 7 0 96.16 6.08 0
 2 7 2 121.75 6.68 0
 2 8 -17 291.12 16.23 0
 2 8 -16 12.39 7.01 0
 2 8 -15 115.61 10.69 0
 2 8 -14 72.36 9.31 0
 2 8 -13 142.87 10.91 0
 2 8 -12 155.54 10.61 0
 2 8 -11 14.12 5.79 0
 2 8 -10 35.78 6.17 0
 2 8 -9 24.69 6.1 0
 2 8 -8 27.17 5.6 0
 2 8 -7 50.69 6.96 0
 2 8 -6 159.71 9.52 0
 2 8 -5 56.69 7.04 0
 2 8 -3 143.73 8.28 0
 2 8 -2 148.62 8.22 0
 2 8 -1 353.74 12.08 0
 2 8 0 55.47 5.56 0
 2 8 1 348.7 11.68 0
 2 8 2 134.83 8.09 0
 2 9 -16 37.99 9.03 0
 2 9 -15 -6.73 4.95 0
 2 9 -14 264.77 14.54 0
 2 9 -13 58.37 8.61 0
 2 9 -12 57.09 8.16 0
 2 9 -11 25.13 6.53 0
 2 9 -10 139.67 10.08 0
 2 9 -9 8.61 5.18 0
 2 9 -8 104.83 8.69 0
 2 9 -7 19.98 5.84 0
 2 9 -6 26.91 5.59 0
 2 9 -5 299.83 12.47 0
 2 9 -4 74.81 7.35 0
 2 9 -3 3.17 4.62 0
 2 9 -2 28.53 5.41 0
 2 9 -1 59.04 6.68 0
 2 9 0 32.8 5.36 0
 2 9 1 66.36 7.38 0
 2 9 2 32.52 5.97 0
 2 10 -14 60.99 10.04 0
 2 10 -13 11.93 7.71 0
 2 10 -12 22.13 6.65 0
 2 10 -11 115.5 10.4 0
 2 10 -10 25.9 6.87 0
 2 10 -8 38.02 8.08 0
 2 10 -7 87.64 9.16 0
 2 10 -6 26.53 6.31 0
 2 10 -5 36.71 6.52 0
 2 10 -4 8.65 5.09 0
 2 10 -3 82.92 7.85 0
 2 10 -2 179.31 10.75 0
 2 10 -1 90.56 8.71 0
 2 10 0 1.31 4.36 0
 2 10 1 78.87 7.49 0
 2 11 -11 42.34 8.62 0
 2 11 -10 83.8 10.21 0
 2 11 -9 6.29 5.72 0
 2 11 -8 149.7 11.62 0
 2 11 -7 31.65 7.07 0
 2 11 -6 1.49 5.21 0
 2 11 -5 32.55 7.28 0
 2 11 -4 53.38 8.02 0
 2 11 -3 31.13 6.64 0
 2 11 -2 16.39 5.61 0
 2 11 -1 40.63 7.07 0
 2 11 0 4.18 5.93 0
 2 11 1 46.98 7.19 0
 2 12 -8 7.4 6.18 0
 2 12 -7 38.3 7.76 0
 2 12 -6 16.51 6.47 0
 2 12 -5 29.02 7.63 0
 2 12 -4 56.49 8.48 0
 2 12 -3 4.19 5.36 0
 2 12 -2 79.98 9.55 0
 2 12 -1 20.61 6.18 0
 2 12 0 84.72 9.32 0
 3 2 -1 856.34 6.2 0
 3 3 -1 27.01 1.87 0
 3 3 0 27.05 1.66 0
 3 4 -4 210.27 6.32 0
 3 4 -3 63.07 3.79 0
 3 4 -2 293.21 6.54 0
 3 5 -5 151.66 6.72 0
 3 5 -4 471.14 10.22 0
 3 5 -3 221.19 6.9 0
 3 5 -2 805.82 12.25 0
 3 5 -1 330.27 7.79 0
 3 5 0 149.62 5.29 0
 3 5 1 331.02 7.46 0
 3 6 -9 2.43 3.52 0
 3 6 -8 9.04 4.05 0
 3 6 -7 -0.09 3.23 0
 3 6 -6 91.49 6.08 0
 3 6 -2 45.9 4.52 0
 3 6 -1 359.66 9.23 0
 3 6 0 146.74 6.1 0
 3 6 1 340.63 8.69 0
 3 7 -16 42.08 7.76 0
 3 7 -15 16.26 6.49 0
 3 7 -14 4.29 4.99 0
 3 7 -13 225.85 11.98 0
 3 7 -12 219.46 11.36 0
 3 7 -10 68.67 7.82 0
 3 7 -9 42.52 6.33 0
 3 7 -8 61.5 6.44 0
 3 7 -7 513.23 14.21 0
 3 7 -6 168.47 8.16 0
 3 7 -5 23.23 4.18 0
 3 7 -4 26.85 4.21 0
 3 7 -3 81.15 5.93 0
 3 7 -2 195.98 8.02 0
 3 8 -16 31.27 6.95 0
 3 8 -15 106.18 10.55 0
 3 8 -14 85.99 9.76 0
 3 8 -12 130.52 10.41 0
 3 8 -11 133.68 9.45 0
 3 8 -10 61.11 7.3 0
 3 8 -9 76.67 7.25 0
 3 8 -8 191.92 10.34 0
 3 8 -7 22.3 4.9 0
 3 8 -6 10.44 4.1 0
 3 8 -4 22.82 4.84 0
 3 8 -2 108 6.77 0
 3 8 -1 8.26 3.53 0
 3 8 0 633.48 14.6 0
 3 8 1 5.33 3.44 0
 3 9 -15 72.63 9.62 0
 3 9 -14 9.93 6.52 0
 3 9 -13 -0.86 5.63 0
 3 9 -12 129.06 10.52 0
 3 9 -10 14.5 5.51 0
 3 9 -9 6.59 4.7 0
 3 9 -8 147.82 10.23 0
 3 9 -7 204.1 10.69 0
 3 9 -6 84.09 7.81 0
 3 9 -5 294.68 12 0
 3 9 -3 1.17 3.5 0
 3 9 -2 18.61 4.4 0
 3 9 -1 -1.72 3.2 0
 3 9 0 75.49 6.94 0
 3 9 1 -2.9 2.9 0
 3 10 -13 1.84 5.98 0
 3 10 -12 46.52 7.86 0
 3 10 -11 36.07 7.28 0
 3 10 -10 119.01 10 0
 3 10 -9 76.93 9.38 0
 3 10 -8 34.47 6.63 0
 3 10 -7 17.4 5.79 0
 3 10 -6 46.92 6.99 0
 3 10 -5 18.9 5.17 0
 3 10 -4 79.97 7.61 0
 3 10 -3 171.51 10.2 0
 3 10 -2 156.24 9.53 0
 3 10 -1 53.26 7.01 0
 3 10 0 90.71 7.99 0
 3 11 -10 62.48 9.17 0
 3 11 -9 15.78 6.49 0
 3 11 -8 9.88 5.69 0
 3 11 -7 127.19 10.56 0
 3 11 -5 3.72 4.68 0
 3 11 -4 30.77 6.89 0
 3 11 -3 11.83 5.72 0
 3 11 -2 35.75 6.5 0
 3 11 -1 152.5 10.01 0
 3 12 -6 140.01 10.59 0
 3 12 -4 24.72 6.21 0
 3 12 -3 100.63 9.47 0
 3 12 -2 2.29 4.52 0
 4 0 -1 113.79 2.27 0
 4 1 -2 421.5 4.17 0
 4 2 -2 255.56 3.15 0
 4 3 -3 375.89 6.17 0
 4 3 -2 23.31 1.57 0
 4 4 -5 15.78 2.74 0
 4 4 -3 67.24 3.32 0
 4 4 -2 163.82 4.36 0
 4 4 -1 287.16 4.96 0
 4 5 -2 139.96 4.85 0
 4 5 -1 68.18 3.34 0
 4 5 0 107.9 3.74 0
 4 6 -11 56.93 6.97 0
 4 6 -10 3.27 3.7 0
 4 6 -9 36.4 4.9 0
 4 6 -8 101.29 6.58 0
 4 6 -7 41.23 4.92 0
 4 6 -6 3.85 2.9 0
 4 6 -3 26.77 3.34 0
 4 7 -17 155 11.94 0
 4 7 -16 44.63 7.79 0
 4 7 -15 94.73 9.46 0
 4 7 -14 27.99 6.06 0
 4 7 -13 22.17 5.78 0
 4 7 -12 137.32 9.54 0
 4 7 -11 316.72 12.39 0
 4 7 -10 107.29 7.69 0
 4 7 -7 247.87 9.82 0
 4 7 -6 100.68 6.44 0
 4 7 -5 154.19 7.39 0
 4 7 -4 1.76 2.22 0
 4 7 -3 77.54 5.04 0
 4 8 -15 12.11 5.93 0
 4 8 -14 6.43 5.41 0
 4 8 -12 190.42 10.61 0
 4 8 -11 90.6 8.48 0
 4 8 -10 68.64 7.99 0
 4 8 -9 116.84 8.03 0
 4 8 -8 5.26 4.12 0
 4 8 -7 53.78 6.35 0
 4 8 -6 15.56 3.78 0
 4 8 -5 15.75 3.49 0
 4 9 -14 42.83 7.36 0
 4 9 -13 47.11 7.19 0
 4 9 -12 8.94 5.23 0
 4 9 -11 141.51 9.63 0
 4 9 -10 40.15 6.39 0
 4 9 -9 115.98 8.54 0
 4 9 -8 22.82 4.89 0
 -1 -8 1 258.78 4.49 0
 -1 -7 2 99.98 2.33 0
 -1 -6 2 92.51 2.05 0
 -1 -6 2 92.39 2.1 0
 -1 -5 1 7.23 0.9 0
 -1 -5 5 158.56 2.43 0
 -1 -4 0 239.74 3.53 0
 -1 -4 1 340.11 3.19 0
 -1 -3 0 4.75 0.72 0
 0 -9 2 58.23 3.53 0
 0 -8 3 18.55 2.44 0
 0 -8 4 428.69 7.86 0
 0 -8 5 111.91 4.12 0
 0 -8 6 323.24 6.69 0
 0 -7 3 118.66 4.37 0
 0 -7 4 0.72 1.36 0
 0 -7 5 677.76 9.46 0
 0 -7 6 18.41 2.19 0
 0 -7 7 140.75 4.65 0
 0 -7 8 4.08 1.51 0
 0 -7 9 37.22 2.99 0
 0 -7 10 38.2 3.22 0
 0 -7 11 264.9 7.4 0
 0 -6 5 536.04 8.23 0
 0 -6 6 79.56 3.56 0
 0 -6 7 -0.55 1.29 0
 0 -6 8 306.62 6.97 0
 0 -6 9 15.55 2.3 0
 0 -6 10 57.78 3.86 0
 0 -6 11 8.09 2.46 0
 0 -6 14 515.62 11.71 0
 0 -5 3 124.54 3.74 0
 0 -5 5 354.69 6.41 0
 0 -5 6 -1.75 1.36 0
 0 -5 7 36.09 2.8 0
 0 -5 8 30.75 2.88 0
 0 -5 9 6.52 2.2 0
 0 -5 10 6.02 2.07 0
 0 -5 11 19.14 3.01 0
 0 -5 14 251.21 8.71 0
 0 -4 3 3985.94 18.54 0
 0 -4 4 367.16 5.96 0
 0 -4 5 596.45 7.94 0
 0 -4 6 360.9 6.57 0
 0 -4 7 1214.1 12.69 0
 0 -4 8 863.82 11.45 0
 0 -4 9 53.94 3.79 0
 0 -4 10 34 3.59 0
 0 -4 11 239.1 7.5 0
 0 -4 14 16.61 3.58 0
 0 -3 3 3584.84 15.89 0
 0 -3 4 3500.63 16.77 0
 0 -3 5 4.32 1.34 0
 0 -3 6 58.21 2.97 0
 0 -3 7 456.73 7.78 0
 0 -3 8 21.75 2.55 0
 0 -3 9 918.93 12.87 0
 0 -3 10 0.83 1.89 0
 0 -2 2 225.51 3.43 0
 0 -2 3 4791.43 16.54 0
 0 -2 4 7367.97 23.06 0
 0 -2 6 3128.44 18.62 0
 0 -2 7 1009.51 11.68 0
 0 -2 8 9.77 2.28 0
 0 -2 9 9.44 2.22 0
 0 -2 10 2.84 2.1 0
 0 -2 11 1141.23 16.62 0
 0 -1 2 606.39 4.7 0
 0 -1 3 2013.24 10.29 0
 0 -1 4 4871.98 18.65 0
 0 -1 5 415.27 6.37 0
 0 -1 6 525.7 8.14 0
 0 -1 7 2283.2 18.06 0
 0 -1 8 61.75 3.65 0
 0 -1 9 51.72 3.91 0
 0 -1 10 119.46 5.38 0
 0 -1 11 26.24 3.35 0
 0 0 -2 1394.3 7.49 0
 0 0 2 1299.99 7.08 0
 0 0 3 1.56 1.37 0
 0 0 4 5339.48 20.8 0
 0 0 5 -0.15 1.5 0
 0 0 6 370.97 7.1 0
 0 0 7 0.92 1.61 0
 0 0 9 -1.9 1.37 0
 1 -8 3 166.44 6.68 0
 1 -8 4 4.81 2.48 0
 1 -8 10 296.76 8.76 0
 1 -8 11 202.18 7.57 0
 1 -7 4 20.42 2.98 0
 1 -7 5 14.25 2.77 0
 1 -7 6 57.79 4.3 0
 1 -7 7 335.59 8.88 0
 1 -7 11 397.48 10.51 0
 1 -7 12 50.79 4.62 0
 1 -7 13 150.42 7.21 0
 1 -7 14 102.58 6.31 0
 1 -7 15 90.86 6.52 0
 1 -6 4 591.69 10.86 0
 1 -6 6 281.58 7.91 0
 1 -6 7 131.66 5.61 0
 1 -6 8 111.79 5.41 0
 1 -6 12 21 3.88 0
 1 -6 13 78.4 5.98 0
 1 -6 17 74.96 6.73 0
 1 -5 4 619.94 10.53 0
 1 -5 5 155.24 5.61 0
 1 -5 6 183.09 6.32 0
 1 -5 7 824.98 12.98 0
 1 -5 8 1311.89 16.88 0
 1 -5 9 517.77 11.18 0
 1 -5 12 98.34 5.88 0
 1 -5 13 41.58 4.83 0
 1 -5 14 60.08 5.83 0
 1 -5 15 117.01 7.21 0
 1 -5 16 4.97 3.48 0
 1 -5 17 1.32 3.46 0
 1 -4 4 1135.24 13.38 0
 1 -4 5 294.52 7.12 0
 1 -4 7 165.45 5.9 0
 1 -4 8 252.69 7.46 0
 1 -4 9 323.43 8.73 0
 1 -4 12 314.31 9.93 0
 1 -4 14 300.39 10.74 0
 1 -4 15 50.54 5.99 0
 1 -4 16 168.52 8.96 0
 1 -4 17 172.11 9.19 0
 1 -3 3 194.01 5.21 0
 1 -3 4 812.01 10.86 0
 1 -3 5 190.43 5.54 0
 1 -3 8 1916.46 19.43 0
 1 -3 9 657.43 12.05 0
 1 -3 10 432.87 10.31 0
 1 -3 13 372.19 11.13 0
 1 -3 14 254.77 9.89 0
 1 -3 15 194.46 9.13 0
 1 -3 16 163.44 8.87 0
 1 -3 17 37.33 5.4 0
 1 -2 3 1431.6 12.76 0
 1 -2 4 2633.82 17.93 0
 1 -2 5 761.67 10.31 0
 1 -2 7 1050.43 13.47 0
 1 -2 8 946.37 13.43 0
 1 -2 9 174.78 6.55 0
 1 -2 10 112.72 5.72 0
 1 -2 13 509.3 13.3 0
 1 -2 14 6.64 3.55 0
 1 -2 15 80.29 6.59 0
 1 -1 2 1705.42 11.94 0
 1 -1 4 422.89 7.12 0
 1 -1 5 1913.94 15.65 0
 1 -1 6 2406.77 18.75 0
 1 -1 7 301.54 7.25 0
 1 -1 8 1002.31 13.89 0
 1 -1 9 233.71 7.32 0
 1 -1 10 957.15 15.4 0
 1 -1 13 58.37 5.75 0
 1 -1 14 365.84 11.92 0
 1 -1 15 2.4 3.17 0
 1 0 1 2734.5 12.52 0
 1 0 3 18.6 2.16 0
 1 0 4 -0.45 1.46 0
 1 0 5 4118.8 22.37 0
 1 0 6 2173.08 17.82 0
 1 0 7 308.08 7.61 0
 1 0 8 40.4 3.23 0
 1 0 10 294.82 8.72 0
 1 0 13 0.1 2.45 0
 1 0 14 195.5 9.14 0
 1 1 2 1705.11 10.37 0
 1 1 3 215.44 4.4 0
 1 1 4 432.25 6.98 0
 1 1 5 1926.96 15.69 0
 1 1 6 2517.76 19.52 0
 1 1 7 301.43 7.65 0
 1 1 12 24.59 3.48 0
 1 2 1 6590.88 17.43 0
 1 2 2 4112.59 16.85 0
 1 2 3 1474.66 11.7 0
 1 2 4 2711.32 17.61 0
 1 2 5 763.65 10.52 0
 1 2 6 438.53 8.63 0
 1 2 7 1056.93 14.1 0
 1 2 9 170.22 6.61 0
 2 -10 2 173.2 8.16 0
 2 -10 3 88.42 6.69 0
 2 -10 4 15.17 3.75 0
 2 -10 5 42.92 5.09 0
 2 -10 6 24.64 4.04 0
 2 -9 3 6.68 3.11 0
 2 -9 4 83.32 6.6 0
 2 -9 5 296.62 10.53 0
 2 -9 6 31.95 4.65 0
 2 -9 7 18.02 3.76 0
 2 -9 8 100.06 6.62 0
 2 -9 9 9.67 3.44 0
 2 -9 10 125.83 7.32 0
 2 -8 4 97.66 6.16 0
 2 -8 5 62.79 5.61 0
 2 -8 6 142.61 7.51 0
 2 -8 7 48.24 5.36 0
 2 -8 8 21.19 3.76 0
 2 -8 9 20.11 3.93 0
 2 -8 11 4.97 3.07 0
 2 -8 12 172.67 8.52 0
 2 -8 13 144.1 8.08 0
 2 -8 14 69.4 6.5 0
 2 -7 7 142.5 7.3 0
 2 -7 8 66.63 5.42 0
 2 -7 9 63.64 5.61 0
 2 -7 10 19.52 4.18 0
 2 -7 11 157.85 7.85 0
 2 -7 12 93.71 6.82 0
 2 -7 13 115.83 7.75 0
 2 -7 14 76.03 6.87 0
 2 -7 15 66.42 6.62 0
 2 -7 16 24.26 4.77 0
 2 -7 17 36.65 6.07 0
 2 -6 8 210.31 8.54 0
 2 -6 10 324.73 10.81 0
 2 -6 11 63.33 5.41 0
 2 -6 12 7.52 3.34 0
 2 -6 13 177.34 8.79 0
 2 -6 14 24.81 4.71 0
 2 -6 15 11.24 4.02 0
 2 -6 16 21.46 5.11 0
 2 -6 17 217.03 10.65 0
 2 -6 18 49.11 6.73 0
 2 -6 19 64.37 7.91 0
 2 -6 20 22.81 4.78 0
 2 -5 4 648.45 12.57 0
 2 -5 5 344.78 9.81 0
 2 -5 9 121.14 6.79 0
 2 -5 10 353.99 10.8 0
 2 -5 11 27.89 4.56 0
 2 -5 12 204.5 9.04 0
 2 -5 13 183.37 8.9 0
 2 -5 14 113.69 7.73 0
 2 -5 15 8.87 3.83 0
 2 -5 16 168.86 9.92 0
 2 -5 17 16.04 4.88 0
 2 -5 18 111.72 8.7 0
 2 -5 19 30.91 5.96 0
 2 -5 20 50.42 7.35 0
 2 -4 4 256.11 7.67 0
 2 -4 5 61.04 4.47 0
 2 -4 6 717.03 13.26 0
 2 -4 10 94.81 5.96 0
 2 -4 11 3.32 2.88 0
 2 -4 12 23.53 4.22 0
 2 -4 13 64.24 5.86 0
 2 -4 14 60.51 6.69 0
 2 -4 15 250.93 10.78 0
 2 -4 16 209.96 10.68 0
 2 -4 17 85.54 8.2 0
 2 -4 18 75.93 8.46 0
 2 -4 19 106.99 8.93 0
 2 -4 20 3.19 3.84 0
 2 -3 6 215.32 7.1 0
 2 -3 7 610.16 12.32 0
 2 -3 8 332.15 9.39 0
 2 -3 11 0.5 2.53 0
 2 -3 12 20.21 3.75 0
 2 -3 13 48.01 4.98 0
 2 -3 15 27.58 5.11 0
 2 -3 16 75.96 6.96 0
 2 -3 17 31.48 5.58 0
 2 -3 18 21.89 5.11 0
 2 -3 19 223.45 11.96 0
 2 -2 3 315.78 7.37 0
 2 -2 4 133.99 5.24 0
 2 -2 5 115.51 5.03 0
 2 -2 6 53.5 3.84 0
 2 -2 11 52.71 4.83 0
 2 -2 12 155.51 7.58 0
 2 -2 14 48.44 5.88 0
 2 -2 16 138.24 8.84 0
 2 -2 17 170.88 10.05 0
 2 -2 18 37.56 6.74 0
 2 -1 2 472.1 8.15 0
 2 -1 3 1764.97 16.47 0
 2 -1 4 783.41 11.45 0
 2 -1 5 397.67 8.63 0
 2 -1 6 1523.17 17.35 0
 2 -1 11 17.71 3.4 0
 2 -1 13 24.81 4.34 0
 2 -1 14 10.93 3.55 0
 2 -1 15 121.99 8.37 0
 2 -1 16 1.48 3.85 0
 2 -1 18 149 9.88 0
 2 0 2 0.87 2.05 0
 2 0 3 26.48 2.44 0
 2 0 4 969.8 12.05 0
 2 0 5 1086.9 13.6 0
 2 0 6 272.14 7.38 0
 2 0 11 210.5 8.29 0
 2 0 12 131.59 7.11 0
 2 0 13 331.21 11.58 0
 2 0 14 112.96 7.59 0
 2 0 15 130.59 8.27 0
 2 0 16 220.42 11.26 0
 2 0 17 -1.52 3.19 0
 2 1 0 4.54 1.42 0
 2 1 1 479.54 6.92 0
 2 1 2 485.86 7.35 0
 2 1 3 1771.54 14.82 0
 2 1 4 783.47 10.68 0
 2 1 5 408.22 8.41 0
 2 1 6 1465.51 16.11 0
 2 1 11 18.22 3.54 0
 2 1 12 590.11 14.58 0
 2 1 13 24.35 4.43 0
 2 1 14 9.42 3.45 0
 2 1 15 128.49 8.42 0
 2 1 16 -0.15 3.6 0
 2 2 -1 248.28 3.92 0
 2 2 0 4882.25 17.81 0
 2 2 1 252.5 4.62 0
 2 2 2 1025.44 10.02 0
 2 2 3 321.46 6.39 0
 2 2 4 127.5 4.35 0
 2 2 5 113.41 4.7 0
 2 2 8 290 8.41 0
 2 2 12 151.01 7.65 0
 2 2 13 523.73 14.25 0
 2 2 14 45.75 5.42 0
 2 3 -1 1175.27 5.82 0
 2 3 0 1334.73 8.14 0
 2 3 1 1162.74 9.09 0
 2 3 2 67.62 2.73 0
 2 3 3 1474.16 13.07 0
 2 3 7 591.72 11.42 0
 2 3 8 315.91 8.96 0
 2 3 11 0.55 2.25 0
 3 -11 1 136.16 8.59 0
 3 -11 2 40.18 5.88 0
 3 -11 3 8.29 4 0
 3 -11 4 24.13 4.94 0
 3 -10 2 151.63 9.1 0
 3 -10 3 178.18 9.78 0
 3 -10 4 82.94 7.7 0
 3 -10 5 22.81 5.16 0
 3 -10 6 54.36 6.6 0
 3 -10 7 11.51 4.08 0
 3 -10 8 22.86 4.85 0
 3 -10 9 63.65 6.75 0
 3 -9 3 2.09 3.43 0
 3 -9 4 162.33 9.42 0
 3 -9 6 68.44 6.89 0
 3 -9 7 197.21 9.96 0
 3 -9 8 163.53 9.01 0
 3 -9 9 2.25 3.55 0
 3 -9 10 19.8 4.97 0
 3 -9 11 89.49 7.53 0
 3 -9 12 123 8.43 0
 3 -9 13 4.79 3.79 0
 3 -8 3 82.97 6.51 0
 3 -8 4 28.18 5.15 0
 3 -8 5 110.57 7.42 0
 3 -8 6 5.25 3.97 0
 3 -8 7 30.81 4.93 0
 3 -8 8 187.93 9.7 0
 3 -8 9 76.31 7.07 0
 3 -8 10 70.79 6.63 0
 3 -8 11 128.27 8.23 0
 3 -8 12 117.48 8.16 0
 3 -8 13 24.72 4.84 0
 3 -8 14 74.18 6.85 0
 3 -8 15 106.47 8.31 0
 3 -8 16 23.56 5.2 0
 3 -7 4 26.34 4.48 0
 3 -7 5 20.76 4.64 0
 3 -7 6 178.92 9.15 0
 3 -7 7 542.99 14.81 0
 3 -7 8 59.77 6.5 0
 3 -7 9 38.18 5.21 0
 3 -7 10 67.59 6.38 0
 3 -7 11 58.12 7.14 0
 3 -7 12 235.29 11.02 0
 3 -7 14 9.05 4.07 0
 3 -7 15 17.09 4.96 0
 3 -7 16 38.98 6.42 0
 3 -7 17 -0.31 3.59 0
 3 -6 4 305.68 10.51 0
 3 -6 6 95.64 6.7 0
 3 -6 7 0.63 3.44 0
 3 -6 8 2.04 3.31 0
 3 -6 9 4.74 3.65 0
 3 -6 10 52.79 5.81 0
 3 -6 11 477.67 14.51 0
 3 -6 12 30.12 5.04 0
 3 -6 13 39.52 5.64 0
 3 -6 14 239.37 11.09 0
 3 -6 15 4.06 4.72 0
 3 -6 16 142.04 9.29 0
 3 -6 17 11.57 5.51 0
 3 -6 18 131.86 9.46 0
 3 -6 19 16.52 5.37 0
 3 -5 5 149.3 7.58 0
 3 -5 7 126.78 7.24 0
 3 -5 8 83.62 6.19 0
 3 -5 10 4.76 3.67 0
 3 -5 11 309.47 11.55 0
 3 -5 12 38.69 5.53 0
 3 -5 13 194.88 10.15 0
 3 -5 14 45.84 6.47 0
 3 -5 17 93.7 8.52 0
 3 -5 18 46.58 6.93 0
 3 -5 19 6.03 5.12 0
 3 -5 20 24.96 6.54 0
 3 -4 7 292.13 10.23 0
 3 -4 8 60.17 5.19 0
 3 -4 9 212.03 9.44 0
 3 -4 10 137.67 7.78 0
 3 -4 11 32.29 4.72 0
 3 -4 12 1.96 3.27 0
 3 -4 13 282.79 11.4 0
 3 -4 14 96.87 7.96 0
 3 -4 15 194.93 10.26 0
 3 -4 18 100.23 9.37 0
 3 -4 19 21.78 5.76 0
 3 -4 20 15.62 5.5 0
 3 -3 4 382.59 10.33 0
 3 -3 8 555.09 13.54 0
 3 -3 9 862.25 17.16 0
 3 -3 10 15.92 3.87 0
 3 -3 12 23.87 4.46 0
 3 -3 14 55.8 6.36 0
 3 -3 15 42.75 6.46 0
 3 -3 16 46.92 6.49 0
 3 -3 17 152.08 10.04 0
 3 -3 18 30.13 6.18 0
 3 -3 19 37.26 6.56 0
 3 -3 20 117.96 9.82 0
 3 -3 21 199.21 12.25 0
 3 -2 9 322.09 10.42 0
 3 -2 10 156.22 7.92 0
 3 -2 11 228.42 9.41 0
 3 -2 14 137.05 8.97 0
 3 -2 15 27.96 5.24 0
 3 -2 16 98.26 8.29 0
 3 -2 17 131.54 9.63 0
 3 -2 18 99.51 9.19 0
 3 -2 19 31.52 7.25 0
 3 -2 20 86.43 9.44 0
 3 -1 2 1273.2 15.87 0
 3 -1 10 537.38 13.41 0
 3 -1 11 154.68 8.18 0
 3 -1 12 226.57 9.64 0
 3 -1 14 11.09 3.95 0
 3 -1 15 119.19 8.86 0
 3 -1 17 55.36 7.12 0
 3 -1 18 11.49 5.11 0
 3 -1 19 22.58 6.17 0
 3 -1 20 25.84 6.71 0
 3 0 1 1475.15 15.67 0
 3 0 2 1079 14.16 0
 3 0 6 23.95 3.13 0
 3 0 7 2.92 2.28 0
 3 0 10 36.22 4.33 0
 3 0 11 48.93 4.86 0
 3 0 12 215.19 9.46 0
 3 0 13 1.46 3.38 0
 3 0 14 205.5 10.11 0
 3 0 16 146.91 9.73 0
 3 0 17 320.66 13.74 0
 3 0 18 79.17 9.15 0
 3 0 19 1.14 4.2 0
 3 1 0 714.32 9.93 0
 3 1 1 832.29 11.5 0
 3 1 2 1284.39 14.53 0
 3 1 6 900.66 14.37 0
 3 1 10 555.52 13.5 0
 3 1 11 137.29 7.73 0
 3 1 12 244.37 10.35 0
 3 1 13 202.84 9.51 0
 3 1 14 6.72 3.72 0
 3 1 15 109.13 8.67 0
 3 1 16 89.59 7.68 0
 3 1 18 17.58 5.09 0
 3 2 -1 890.34 10.1 0
 3 2 0 349.98 6.57 0
 3 2 1 871.12 10.62 0
 3 2 7 138.53 6.07 0
 3 2 11 246.05 9.71 0
 3 2 12 259.73 10.78 0
 3 2 13 100.67 7.2 0
 3 2 14 112.94 8.49 0
 3 2 15 30.54 5.75 0
 3 3 -3 650.62 6.8 0
 3 3 -2 162.81 3.51 0
 3 3 -1 28.77 1.75 0
 3 3 1 30.5 2.21 0
 3 3 5 1945.79 19.24 0
 3 3 6 143.3 5.91 0
 3 3 7 232.85 8.04 0
 3 3 10 8.39 3.13 0
 3 3 11 35.78 4.77 0
 3 3 12 16.93 4.12 0
 3 3 13 48.12 6.11 0
 3 4 -1 28.54 1.32 0
 3 4 0 73.33 2.44 0
 3 4 1 25.19 1.87 0
 3 4 4 212.04 6.14 0
 3 4 5 724.75 11.87 0
 3 4 9 202.78 8.1 0
 3 4 10 143.41 7.5 0
 3 4 11 26.72 4.26 0
 4 -12 -1 83.15 8.65 0
 4 -12 0 63.07 8.17 0
 4 -11 1 33.88 6.43 0
 4 -11 2 48.7 6.84 0
 4 -11 3 20.06 5.69 0
 4 -11 4 127.14 9.48 0
 4 -11 5 267.27 12.65 0
 4 -11 6 128.36 9.3 0
 4 -10 2 30.27 5.77 0
 4 -10 3 14.68 5.17 0
 4 -10 4 40.88 6.35 0
 4 -10 5 30.05 6.36 0
 4 -10 7 187.82 10.54 0
 4 -10 8 69.41 8.14 0
 4 -10 9 80.59 8.61 0
 4 -10 10 25.11 5.77 0
 4 -9 2 10.84 4.63 0
 4 -9 3 119.13 9.02 0
 4 -9 4 7.1 4.78 0
 4 -9 5 304.1 13.25 0
 4 -9 6 36.25 6.3 0
 4 -9 7 88.13 8.24 0
 4 -9 8 20.68 5.7 0
 4 -9 9 112.12 9.32 0
 4 -9 10 34.23 6.26 0
 4 -9 11 111.45 8.65 0
 4 -9 12 2.51 3.84 0
 4 -9 13 51.35 7.15 0
 4 -9 14 29.93 5.63 0
 4 -8 3 66.76 7.53 0
 4 -8 4 121.76 9.22 0
 4 -8 5 23.75 5.81 0
 4 -8 6 6.69 4.32 0
 4 -8 7 42.33 6.62 0
 4 -8 8 6.53 4.14 0
 4 -8 9 106.24 8.44 0
 4 -8 10 76.03 7.77 0
 4 -8 12 206.72 11.61 0
 4 -8 13 109.31 8.7 0
 4 -8 14 4.16 4.02 0
 4 -8 15 17.16 5.35 0
 4 -7 3 78.36 7.52 0
 4 -7 4 1.91 3.7 0
 4 -7 5 159.03 9.73 0
 4 -7 6 98.39 8.19 0
 4 -7 7 255.37 11.74 0
 4 -7 8 111.98 8.91 0
 4 -7 9 55.96 7.23 0
 4 -7 10 122.68 8.84 0
 4 -7 11 311.71 13.19 0
 4 -7 12 135.16 10 0
 4 -7 13 34.12 6.28 0
 4 -7 14 31.97 6.03 0
 4 -7 15 94.35 8.96 0
 4 -7 16 35.95 6.13 0
 4 -7 17 148.83 10.77 0
 4 -6 4 71.25 6.85 0
 4 -6 5 7.08 3.81 0
 4 -6 7 50.6 6.31 0
 4 -6 8 112.38 8.17 0
 4 -6 9 29.32 5.41 0
 4 -6 10 2.78 3.79 0
 4 -6 11 61.08 6.73 0
 4 -6 12 69.07 8.49 0
 4 -6 13 141.79 10.05 0
 4 -6 14 34.71 6.17 0
 4 -6 15 146.21 10.41 0
 4 -6 16 58.24 7.68 0
 4 -6 17 99.92 9.27 0
 4 -6 18 35.96 7.18 0
 4 -5 5 86.22 6.62 0
 4 -5 7 86.47 7.29 0
 4 -5 8 574.03 16.12 0
 4 -5 11 403.34 14.69 0
 4 -5 13 29.18 5.89 0
 4 -5 14 92.03 8.53 0
 4 -5 15 7.18 4.69 0
 4 -5 16 29.92 6.07 0
 4 -5 17 86.47 9.77 0
 4 -5 18 91.14 10.01 0
 4 -4 3 59.72 5.32 0
 4 -4 4 87.72 6.67 0
 4 -4 6 63.79 6.35 0
 4 -4 7 16.94 4.06 0
 4 -4 8 69.35 6.47 0
 4 -4 9 3.39 3.5 0
 4 -4 10 13.32 4.2 0
 4 -4 12 114.7 8.61 0
 4 -4 13 221.49 11.12 0
 4 -4 14 37.59 6.32 0
 4 -4 15 41.34 6.45 0
 4 -4 16 15.36 5.21 0
 4 -4 17 50.69 7.76 0
 4 -4 18 140.07 11.19 0
 4 -4 19 105.94 10.32 0
 4 -3 5 55.77 5.07 0
 4 -3 6 199.93 8.97 0
 4 -3 7 251.97 10.33 0
 4 -3 9 554.36 15.21 0
 4 -3 10 476.08 14.64 0
 4 -3 11 26.28 5.23 0
 4 -3 12 248.24 11.23 0
 4 -3 13 198.68 10.76 0
 4 -3 14 351.12 13.8 0
 4 -3 15 88.7 8.18 0
 4 -3 16 14.51 5.8 0
 4 -3 17 17.63 6.43 0
 4 -3 18 29.4 6.55 0
 4 -3 19 81.49 10.1 0
 4 -3 20 94.71 10.81 0
 4 -2 5 297.31 10.28 0
 4 -2 6 386.37 11.72 0
 4 -2 7 224.48 9.46 0
 4 -2 8 13.43 3.65 0
 4 -2 9 172 8.94 0
 4 -2 10 9.42 3.4 0
 4 -2 11 117.88 7.67 0
 4 -2 12 80.73 7.23 0
 4 -2 13 14.72 4.72 0
 4 -2 14 163.95 9.64 0
 4 -2 16 97.22 9.08 0
 4 -2 17 12.77 5.78 0
 4 -2 18 31.02 6.75 0
 4 -2 19 30.02 7.1 0
 4 -2 20 110.23 10.22 0
 4 -1 7 1661.45 23.57 0
 4 -1 8 232.14 9.39 0
 4 -1 9 688.56 16.2 0
 4 -1 10 2.61 3.38 0
 4 -1 11 190.41 9.39 0
 4 -1 12 42.85 6.18 0
 4 -1 13 302.59 12.35 0
 4 -1 14 44.86 6.14 0
 4 -1 15 168.84 10.17 0
 4 -1 16 150.13 9.94 0
 4 -1 17 27.13 6.04 0
 4 -1 18 20.87 6.81 0
 4 -1 20 12 5.77 0
 4 0 1 113.53 5.86 0
 4 0 2 10.84 2.8 0
 4 0 3 7.07 2.71 0
 4 0 8 22.98 4 0
 4 0 9 427.9 12.7 0
 4 0 10 643.21 15.69 0
 4 0 11 367.78 12.51 0
 4 0 12 4.13 3.73 0
 4 0 13 107.42 8.13 0
 4 0 14 80.31 7.58 0
 4 0 15 43.33 6.46 0
 4 0 16 367.31 14.87 0
 4 0 17 6.37 5.29 0
 4 0 19 22.93 5.97 0
 4 0 20 -3.81 5.78 0
 4 1 0 43.61 3.46 0
 4 1 1 51.89 4.15 0
 4 1 2 426.2 9.92 0
 4 1 3 2299.78 23.22 0
 4 1 4 605.67 12.57 0
 4 1 8 218.2 8.74 0
 4 1 9 671.47 15.44 0
 4 1 10 3.22 3.1 0
 4 1 11 182.94 9.17 0
 4 1 13 319.04 12.94 0
 4 1 14 54.87 6.56 0
 4 1 15 165.69 10.17 0
 4 1 16 148.34 10.61 0
 4 1 17 20.61 5.85 0
 4 1 18 20.07 6.17 0
 4 1 19 154.36 11 0
 4 2 -2 252.58 6.55 0
 4 2 -1 3.32 1.73 0
 4 2 1 2.55 1.75 0
 4 2 2 255.02 7.26 0
 4 2 3 363.46 9.08 0
 4 2 4 7.62 2.48 0
 4 2 8 18.08 3.95 0
 4 2 9 168.11 8.41 0
 4 2 10 9.7 3.33 0
 4 2 12 92.7 7.83 0
 4 2 13 12.1 4.17 0
 4 2 14 192.62 10.95 0
 4 2 15 308.8 13.27 0
 4 2 16 96.55 9.05 0
 4 2 17 11.9 5.1 0
 4 2 18 32.14 6.45 0
 4 3 -1 176.66 5.15 0
 4 3 0 1220.21 13.35 0
 4 3 1 163.37 5.38 0
 4 3 2 19.24 2.7 0
 4 3 3 360.67 8.49 0
 4 3 4 847.52 13.44 0
 4 3 5 54.54 4.3 0
 4 3 8 557.88 13.25 0
 4 3 10 480.13 13.74 0
 4 3 11 22.47 4.55 0
 4 3 12 262.5 11.07 0
 4 3 13 203.3 10.67 0
 4 3 15 83.85 8.32 0
 4 3 16 20.65 5.19 0
 4 4 0 9.99 1.48 0
 4 4 1 274.02 6.06 0
 4 4 3 64.58 3.62 0
 4 4 5 18.96 2.84 0
 4 4 8 69.96 5.31 0
 4 4 9 2.06 2.97 0
 4 4 10 14.66 4.31 0
 4 4 11 93.78 7.24 0
 4 4 12 111.58 7.87 0
 4 4 13 211.36 10.28 0
 4 5 4 360.06 8.29 0
 4 5 5 102.56 5.04 0
 4 5 8 556.22 12.87 0
 4 5 9 155.13 7.47 0
 5 -10 1 88.23 9.23 0
 5 -10 2 47.3 7.55 0
 5 -10 3 96.21 10.31 0
 5 -10 4 126.26 10.69 0
 5 -10 5 5.87 4.88 0
 5 -10 6 50.49 7.45 0
 5 -10 7 19.74 5.98 0
 5 -10 8 7.73 4.79 0
 5 -9 2 28.08 6.31 0
 5 -9 3 91.14 8.75 0
 5 -9 4 19.33 6.2 0
 5 -9 5 6.04 5.13 0
 5 -9 6 167.34 11.02 0
 5 -9 7 39.18 7.43 0
 5 -9 8 19.8 5.62 0
 5 -9 9 155 11 0
 5 -9 10 61.74 7.98 0
 5 -9 11 126.46 10.22 0
 5 -8 2 29.99 5.98 0
 5 -8 4 146.06 10.82 0
 5 -8 5 46.27 7.1 0
 5 -8 6 13.9 5.94 0
 5 -8 7 106.49 9.13 0
 5 -8 8 26.82 6.97 0
 5 -8 9 26.18 6.1 0
 5 -8 10 33.43 6.85 0
 5 -8 11 27.32 6.14 0
 5 -8 12 60.27 8.28 0
 5 -8 13 4.46 4.52 0
 5 -7 2 207.01 11.32 0
 5 -7 3 112.07 9.25 0
 5 -7 4 108.17 9.25 0
 5 -7 5 -2.42 3.89 0
 5 -7 6 40.37 6.42 0
 5 -7 7 75.11 8.42 0
 5 -7 8 133.28 9.77 0
 5 -7 9 2.26 4.69 0
 5 -7 10 127.82 9.73 0
 5 -7 11 35.46 7.07 0
 5 -7 12 173.57 11.42 0
 5 -7 13 55.27 7.68 0
 5 -7 14 52.42 8.29 0
 5 -6 3 74.8 7.56 0
 5 -6 4 105.74 8.79 0
 5 -6 6 24.73 6.06 0
 5 -6 7 48.09 6.74 0
 5 -6 9 51.5 7.15 0
 5 -6 10 35.86 6.55 0
 5 -6 11 42.63 6.96 0
 5 -6 12 186.59 11.93 0
 5 -6 13 169.05 10.99 0
 5 -6 15 53.77 7.51 0
 5 -5 3 169.54 9.89 0
 5 -5 4 64.88 7.37 0
 5 -5 5 2.14 3.46 0
 5 -5 6 40.32 5.96 0
 5 -5 7 3.49 4.38 0
 5 -5 9 140.45 10 0
 5 -5 10 19.9 5.35 0
 5 -5 11 35.45 6.58 0
 5 -5 12 177.19 10.93 0
 5 -5 14 62.83 7.95 0
 5 -5 15 7.5 4.88 0
 5 -5 16 33.31 7.23 0
 5 -5 17 44.81 7.88 0
 5 -4 3 26.28 4.86 0
 5 -4 5 2.45 3.81 0
 5 -4 6 122.84 8.32 0
 5 -4 7 78.56 7.85 0
 5 -4 8 174.34 10.02 0
 5 -4 9 9.17 4.11 0
 5 -4 10 183.4 11.05 0
 5 -4 11 373.22 14.73 0
 5 -4 12 8.08 4.91 0
 5 -4 14 132.72 9.83 0
 5 -4 15 39.54 7.05 0
 5 -3 2 292.59 11.12 0
 5 -3 3 246.82 10.45 0
 5 -3 4 513.16 15.15 0
 5 -3 6 76.32 7.03 0
 5 -3 7 14.99 4.06 0
 5 -3 9 16.92 5.14 0
 5 -3 10 189.15 10.48 0
 5 -3 11 63.73 7.75 0
 5 -3 12 19.19 5.02 0
 5 -3 13 88.14 8.35 0
 5 -3 14 15.72 5.73 0
 5 -3 15 339.99 15.33 0
 5 -3 16 40.11 7.2 0
 5 -3 17 -0.61 4.51 0
 5 -3 18 41.43 8 0
 5 -2 2 195.59 9.04 0
 5 -2 4 15.04 4.23 0
 5 -2 5 418.9 13.37 0
 5 -2 6 251.7 10.56 0
 5 -2 8 57.65 6.56 0
 5 -2 9 58.6 6.4 0
 5 -2 10 116 8.67 0
 5 -2 11 1.62 3.39 0
 5 -2 12 12.62 4.52 0
 5 -2 13 23.31 5.94 0
 5 -2 14 150.63 10.61 0
 5 -2 15 56.18 8.35 0
 5 -2 16 21.03 6.13 0
 5 -2 17 507.94 18.9 0
 5 -2 18 41.29 8.02 0
 5 -1 4 350.46 11.92 0
 5 -1 6 3.62 3.27 0
 5 -1 7 50.21 5.51 0
 5 -1 8 296.74 11.76 0
 5 -1 10 89.76 8.1 0
 5 -1 11 5.09 4.07 0
 5 -1 12 91.35 7.83 0
 5 -1 13 68.08 6.97 0
 5 -1 14 263.25 12.77 0
 5 -1 15 203.43 11.49 0
 5 -1 16 154.36 10.86 0
 5 -1 17 3.06 4.62 0
 5 -1 18 87.6 10.41 0
 5 0 3 118.28 6.93 0
 5 0 4 5.81 3.15 0
 5 0 5 18.9 4.02 0
 5 0 6 144.7 8.36 0
 5 0 7 12.4 3.82 0
 5 0 8 224.32 10.32 0
 5 0 9 -3.61 2.95 0
 5 0 10 9.75 4.18 0
 5 0 11 148.83 9.52 0
 5 0 12 0.04 3.98 0
 5 0 13 269.09 12.81 0
 5 0 14 -0.5 4.13 0
 5 0 15 -2.67 4.08 0
 5 0 16 81.95 8.56 0
 5 0 18 -0.72 4.94 0
 5 0 19 43.45 7.69 0
 5 1 4 377.39 11.31 0
 5 1 5 535 13.58 0
 5 1 6 8.37 3.3 0
 5 1 7 50.73 5.74 0
 5 1 8 283.87 11.12 0
 5 1 9 51.72 6.41 0
 5 1 10 78.29 6.48 0
 5 1 11 6.93 3.91 0
 5 1 12 75.7 7.61 0
 5 1 14 261.92 12.64 0
 5 1 15 219.81 12.62 0
 5 1 16 150.49 11.13 0
 5 1 17 2.15 4.83 0
 5 1 18 88.46 10.45 0
 5 2 -3 484.37 10.45 0
 5 2 -2 180.27 6.62 0
 5 2 -1 156.5 6.54 0
 5 2 0 44.52 3.85 0
 5 2 1 139.16 6.21 0
 5 2 5 394.17 11.17 0
 5 2 6 252.1 9.55 0
 5 2 7 97.23 6.76 0
 5 2 8 57.33 5.92 0
 5 2 9 53.46 6.34 0
 5 2 10 118.22 7.77 0
 5 2 11 1.37 3.6 0
 5 2 12 24 5.16 0
 5 2 13 18.4 5.02 0
 5 2 14 151.05 10.54 0
 5 2 15 53.1 7.32 0
 5 2 17 483.93 18.19 0
 5 2 18 42.23 7.5 0
 5 3 0 95.2 4.77 0
 5 3 1 206.28 6.86 0
 5 3 2 275.09 8.13 0
 5 3 6 84.55 5.57 0
 5 3 7 21.9 4.3 0
 5 3 8 16.07 3.75 0
 5 3 9 3.33 3.84 0
 5 3 10 170.25 9.07 0
 5 3 11 58.95 7.16 0
 5 3 12 17.64 5.14 0
 5 3 13 80.5 7.6 0
 5 3 14 14.69 4.86 0
 5 3 16 46.07 7.53 0
 5 3 17 2.08 4.23 0
 5 4 6 118.08 6.54 0
 5 4 7 95.28 6.29 0
 5 4 8 190.61 8.73 0
 5 4 9 8.18 3.38 0
 5 4 10 168.74 9.06 0
 5 4 11 382 13.42 0
 5 4 12 2.51 4.62 0
 5 4 13 26.59 6.04 0
 5 4 14 130.83 9.68 0
 5 5 10 18.12 3.77 0
 5 5 11 26.18 4.78 0
 6 -9 1 2.99 5.56 0
 6 -9 2 23.38 7.03 0
 6 -9 3 7.5 5.69 0
 6 -9 4 82.57 10.03 0
 6 -9 5 1.85 4.72 0
 6 -8 1 35.72 6.9 0
 6 -8 2 103.61 9.51 0
 6 -8 3 21.72 6.38 0
 6 -8 4 19.99 6.14 0
 6 -8 5 10.77 5.62 0
 6 -8 6 60.05 8.45 0
 6 -8 7 42.14 7.16 0
 6 -8 8 92.15 9.23 0
 6 -8 9 64.29 8.84 0
 6 -7 1 102.05 9.08 0
 6 -7 2 186.48 11.64 0
 6 -7 3 47.18 7.38 0
 6 -7 4 21.75 6.27 0
 6 -7 5 40.23 7.16 0
 6 -7 6 43.62 7.07 0
 6 -7 7 6.55 4.9 0
 6 -7 8 42.91 7.69 0
 6 -7 9 91.5 10.54 0
 6 -7 10 262.01 14.16 0
 6 -7 11 80.7 9.48 0
 6 -6 1 19.69 5.6 0
 6 -6 2 20.35 5.6 0
 6 -6 3 245.15 13.41 0
 6 -6 4 2.16 4.94 0
 6 -6 5 61.14 8.42 0
 6 -6 6 58.56 7.94 0
 6 -6 7 97.5 9.06 0
 6 -6 8 19.8 6.01 0
 6 -6 11 28.37 6.79 0
 6 -6 12 183.14 12.04 0
 6 -6 13 15.35 6.19 0
 6 -5 1 1.65 4 0
 6 -5 2 53 7.41 0
 6 -5 4 157.94 10.96 0
 6 -5 5 23.54 6.15 0
 6 -5 6 217.16 11.97 0
 6 -5 7 129.44 10.16 0
 6 -5 8 42.45 7.2 0
 6 -5 9 118.57 9.85 0
 6 -5 10 31.17 6.72 0
 6 -5 11 12.01 5.97 0
 6 -5 13 225.87 13.61 0
 6 -5 14 69.42 9 0
 6 -4 1 189.15 10.67 0
 6 -4 2 159.15 10 0
 6 -4 3 18.27 4.96 0
 6 -4 4 190.38 11.37 0
 6 -4 5 105.35 8.56 0
 6 -4 6 230.87 12.06 0
 6 -4 7 101.36 9.44 0
 6 -4 8 1.86 3.9 0
 6 -4 9 53.68 7.13 0
 6 -4 10 81.42 8.57 0
 6 -4 11 10.13 5.81 0
 6 -4 12 58.17 8.73 0
 6 -4 14 82.35 9.73 0
 6 -4 15 6.08 5.2 0
 6 -3 1 120.82 8.45 0
 6 -3 2 35.23 5.81 0
 6 -3 5 41.68 6.45 0
 6 -3 6 153.36 9.95 0
 6 -3 7 51.58 6.8 0
 6 -3 8 104.2 9.27 0
 6 -3 9 238.4 12.64 0
 6 -3 10 103.43 9.24 0
 6 -3 11 12.33 5.02 0
 6 -3 12 57.21 7.69 0
 6 -3 14 109.09 9.83 0
 6 -3 15 7.25 4.79 0
 6 -2 0 36.52 5.7 0
 6 -2 1 32.05 5.27 0
 6 -2 2 17.62 4.94 0
 6 -2 3 119.41 8.37 0
 6 -2 4 99.74 7.79 0
 6 -2 5 146.33 9.51 0
 6 -2 7 48.75 6.78 0
 6 -2 8 0.96 4.62 0
 6 -2 9 169.08 10.32 0
 6 -2 10 129.29 9.57 0
 6 -2 12 155.42 10.87 0
 6 -2 13 40.24 7.04 0
 6 -2 14 58.19 8.06 0
 6 -2 15 17.07 5.69 0
 6 -2 16 6.95 4.97 0
 6 -1 -1 14.48 3.93 0
 6 -1 0 -4.54 3.09 0
 6 -1 1 19.64 4.45 0
 6 -1 3 4.56 3.61 0
 6 -1 4 7.42 3.7 0
 6 -1 5 21.33 5.06 0
 6 -1 6 3.25 3.83 0
 6 -1 7 74.25 7.54 0
 6 -1 8 71.52 8.29 0
 6 -1 9 88.89 8.13 0
 6 -1 10 97.92 8.34 0
 6 -1 11 73.59 7.84 0
 6 -1 12 -1.35 3.95 0
 6 -1 13 49.49 7.42 0
 6 -1 15 32.91 7.91 0
 6 -1 16 159.3 11.91 0
 6 0 -1 110.13 7.1 0
 6 0 0 38.1 5.37 0
 6 0 1 111.93 7.29 0
 6 0 2 7.14 3.72 0
 6 0 3 3.43 3.37 0
 6 0 4 37.96 5.42 0
 6 0 5 130.66 8.72 0
 6 0 6 275.64 11.58 0
 6 0 7 75.86 7.04 0
 6 0 8 24.45 5.32 0
 6 0 10 21.61 5.59 0
 6 0 11 37.97 6.43 0
 6 0 12 20.94 5.55 0
 6 0 13 81.16 8.21 0
 6 0 15 98.04 9.96 0
 6 0 16 14.63 6.04 0
 6 1 -3 4.53 2.73 0
 6 1 -2 113.02 7.07 0
 6 1 -1 16.88 3.6 0
 6 1 0 -3.99 2.8 0
 6 1 1 15.51 3.63 0
 6 1 3 5.26 3.21 0
 6 1 4 13.3 4.08 0
 6 1 5 18.93 4.74 0
 6 1 6 0.82 3.26 0
 6 1 7 64.95 6.37 0
 6 1 8 69.14 6.82 0
 6 1 9 75.06 7.58 0
 6 1 10 88.28 8.32 0
 6 1 11 69.02 8.31 0
 6 1 12 2.31 4.14 0
 6 1 13 50.16 7.43 0
 6 1 14 64.15 8.33 0
 6 1 15 28.01 6.16 0
 6 1 16 166.94 12.26 0
 6 2 2 26.09 4.1 0
 6 2 3 119.83 7.16 0
 6 2 4 94.3 6.71 0
 6 2 5 135.12 7.87 0
 6 2 6 90.87 7.07 0
 6 2 7 43.86 5.99 0
 6 2 8 4.64 3.5 0
 6 2 9 135.83 8.57 0
 6 2 10 135.01 9.24 0
 6 2 11 74.9 7.35 0
 6 2 12 153.42 10.31 0
 6 2 13 47.54 6.88 0
 6 2 15 23.22 6.04 0
 6 2 16 6.78 5.47 0
 6 3 4 25.47 3.71 0
 6 3 5 53.09 4.95 0
 6 3 7 61.86 5.63 0
 6 3 8 99.52 7.38 0
 6 3 9 261.7 11.14 0
 6 3 10 95.44 7.58 0
 6 3 11 2.67 4.03 0
 6 3 12 68.13 8.18 0
 6 3 14 100.32 9.24 0
 6 3 15 10.83 5.23 0
 6 3 16 50.42 7.59 0
 6 4 8 -1.81 2.34 0
 6 4 11 6.12 4.42 0
 6 4 12 50.44 7.08 0
 6 4 13 171.4 10.77 0
 6 4 15 9.33 5.3 0
 7 -7 -1 15.1 6.23 0
 7 -7 0 21.33 6.37 0
 7 -7 1 20.27 7.44 0
 7 -7 2 20.05 6.98 0
 7 -7 3 46.56 8.02 0
 7 -7 4 44.05 8.37 0
 7 -7 5 65.67 9.38 0
 7 -6 -1 45.22 7.7 0
 7 -6 1 62.02 8.61 0
 7 -6 2 112.01 10.32 0
 7 -6 4 26.28 6.96 0
 7 -6 5 36.09 7.19 0
 7 -6 6 11.15 5.52 0
 7 -6 7 27.11 6.8 0
 7 -6 8 28.6 7.02 0
 7 -5 0 -0.56 5.38 0
 7 -5 1 95.74 9.8 0
 7 -5 2 123.98 10.33 0
 7 -5 3 21.91 6.39 0
 7 -5 4 13.65 6.94 0
 7 -5 5 15.74 6.59 0
 7 -5 6 105.75 10.28 0
 7 -5 7 68.46 8.77 0
 7 -5 9 50.6 7.94 0
 7 -5 10 21.98 6.71 0
 7 -4 -1 44.73 7.69 0
 7 -4 0 87.98 8.53 0
 7 -4 1 39.23 6.99 0
 7 -4 2 357.76 16.08 0
 7 -4 3 32.01 7.13 0
 7 -4 4 95.15 9.87 0
 7 -4 6 28.72 6.69 0
 7 -4 7 27.44 6.57 0
 7 -4 8 96.03 9.45 0
 7 -4 9 4.49 5.11 0
 7 -4 10 26.9 6.86 0
 7 -4 11 22.81 6.57 0
 7 -3 0 6.45 4.97 0
 7 -3 1 29.43 6.16 0
 7 -3 2 145.1 10.13 0
 7 -3 3 0.02 4.57 0
 7 -3 4 9.42 5.16 0
 7 -3 5 24.86 5.94 0
 7 -3 6 18.93 5.81 0
 7 -3 7 119.13 10.13 0
 7 -3 8 45.65 7.68 0
 7 -3 10 7.41 6.07 0
 7 -3 11 81.3 10.01 0
 7 -3 12 3.27 5.19 0
 7 -2 -2 439.41 15.48 0
 7 -2 0 72.91 8.48 0
 7 -2 2 425.35 15.77 0
 7 -2 3 53.34 7.31 0
 7 -2 4 27.1 5.88 0
 7 -2 5 9.66 4.91 0
 7 -2 6 224.18 12.18 0
 7 -2 7 30.48 6.29 0
 7 -2 8 7.38 4.84 0
 7 -2 9 20.68 5.67 0
 7 -2 10 65.47 8.55 0
 7 -2 11 11.34 6.29 0
 7 -2 12 49.24 8.31 0
 7 -2 13 48.45 8.23 0
 7 -1 -3 78.83 7.69 0
 7 -1 -2 139.58 9.48 0
 7 -1 -1 63.07 7.59 0
 7 -1 0 0.36 3.65 0
 7 -1 1 66.5 7.06 0
 7 -1 2 129.39 9.14 0
 7 -1 3 75.14 7.45 0
 7 -1 4 34.77 6.15 0
 7 -1 5 137.35 9.54 0
 7 -1 7 45.87 6.88 0
 7 -1 8 81.16 9.39 0
 7 -1 9 5.52 5.12 0
 7 -1 11 110.45 9.55 0
 7 -1 12 39.72 6.9 0
 7 -1 13 16.27 5.93 0
 7 0 -4 94.58 7.56 0
 7 0 -3 77.66 7.08 0
 7 0 -2 4.96 3.69 0
 7 0 -1 114.55 8.01 0
 7 0 0 2.84 3.61 0
 7 0 2 2.67 3.89 0
 7 0 3 81.22 7.93 0
 7 0 4 91.25 8.36 0
 7 0 5 506.47 16.53 0
 7 0 6 111.56 9.26 0
 7 0 7 0.77 4.02 0
 7 0 8 90.12 8.24 0
 7 0 9 5.79 4.51 0
 7 0 10 7.99 4.85 0
 7 0 11 40.73 7.2 0
 7 0 12 12.85 5.47 0
 7 0 13 156.55 11.38 0
 7 0 14 14.09 6.17 0
 7 1 -1 64.89 5.78 0
 7 1 0 2.67 2.93 0
 7 1 1 68.61 6.56 0
 7 1 2 135.59 8.64 0
 7 1 3 91.55 7.67 0
 7 1 4 31.84 5.38 0
 7 1 5 147.65 9.03 0
 7 1 6 39.56 6.07 0
 7 1 7 49.7 6.93 0
 7 1 8 74.21 8.42 0
 7 1 9 6.74 4.43 0
 7 1 10 23.02 6.04 0
 7 1 11 99.99 9.05 0
 7 1 12 30.64 6.39 0
 7 1 13 16.3 5.54 0
 7 1 14 35.67 6.91 0
 7 2 4 27.98 4.61 0
 7 2 5 18.4 4.24 0
 7 2 6 218.69 10.51 0
 7 2 8 3.39 3.83 0
 7 2 9 18.47 5.06 0
 7 2 10 75.69 8.16 0
 7 2 11 12.26 4.57 0
 7 2 12 58.56 7.64 0
 7 2 13 42.11 7.77 0
 7 3 10 10.84 3.98 0
 7 3 12 3.35 4.1 0
 8 -5 -3 25.26 7.17 0
 8 -5 -2 5.97 5.47 0
 8 -5 -1 0.5 4.87 0
 8 -5 0 4.93 5.39 0
 8 -5 1 5.46 6.45 0
 8 -5 2 9.49 6.18 0
 8 -4 -4 18.14 5.72 0
 8 -4 -3 183.57 12.09 0
 8 -4 -2 8.37 5.65 0
 8 -4 -1 114.59 11.19 0
 8 -4 0 19.88 6.46 0
 8 -4 1 120.59 10.97 0
 8 -4 2 0.82 5.17 0
 8 -4 3 155.16 12.08 0
 8 -4 4 26.78 6.64 0
 8 -4 5 43.15 8.55 0
 8 -4 6 25.61 7.01 0
 8 -3 -4 74.63 9.2 0
 8 -3 -3 17.51 5.93 0
 8 -3 -2 58.52 8.98 0
 8 -3 -1 38.91 7.11 0
 8 -3 0 2.48 5.14 0
 8 -3 2 38.02 6.87 0
 8 -3 4 76.01 9.53 0
 8 -3 5 124.08 10.44 0
 8 -3 6 41.02 8.06 0
 8 -3 7 25.92 6.71 0
 8 -2 -4 116.42 9.29 0
 8 -2 -3 114.59 9.59 0
 8 -2 -2 43.47 7.35 0
 8 -2 -1 27.23 6.3 0
 8 -2 0 317.08 14.74 0
 8 -2 1 15.46 5.8 0
 8 -2 2 51.61 7.54 0
 8 -2 3 112.45 10.11 0
 8 -2 4 124.1 10.76 0
 8 -2 5 93.09 9.04 0
 8 -2 6 106.51 10.31 0
 8 -2 7 194.12 12.78 0
 8 -2 8 11.3 5.53 0
 8 -2 9 25.85 7.39 0
 8 -1 -4 77.74 8.17 0
 8 -1 -3 21.05 5.43 0
 8 -1 -2 18.24 5.24 0
 8 -1 -1 31.64 6.54 0
 8 -1 0 152.48 10.1 0
 8 -1 1 42.47 7.17 0
 8 -1 2 15.45 5.17 0
 8 -1 3 10 5.7 0
 8 -1 4 70.94 8.68 0
 8 -1 5 30.23 6.18 0
 8 -1 6 119.99 10.41 0
 8 -1 7 76.23 8.76 0
 8 -1 8 25.47 6.79 0
 8 -1 9 97.42 9.76 0
 8 0 1 322.09 13.3 0
 8 0 2 12.38 5.35 0
 8 0 3 84.87 8.21 0
 8 0 4 263.28 13.09 0
 8 0 6 454.77 16.57 0
 8 0 7 28.2 6.18 0
 8 0 8 25.95 5.75 0
 8 0 10 111.51 9.58 0
 8 1 5 28.05 5.52 0
 8 1 6 123.35 9.15 0
 8 1 7 78.33 8.2 0
 8 1 8 26.04 5.55 0
 8 1 9 106.04 9.45 0
 8 1 10 69.61 8.44 0
 -3 0 10 37.48 1.72 0
 -3 0 11 56.1 2.4 0
 -3 0 12 206.4 4.61 0
 -3 0 13 0.6 1.25 0
 -3 1 10 533.16 4.17 0
 -3 1 11 144.23 3.12 0
 -3 1 12 231.38 4.55 0
 -3 2 9 305.37 3.12 0
 -3 2 10 148.5 2.93 0
 -3 2 11 217.74 4.08 0
 -3 2 12 224.75 4.65 0
 -3 3 8 582.99 6.45 0
 -3 3 10 14.64 1.69 0
 -3 3 11 30.5 2.24 0
 -3 4 8 55.23 3.08 0
 -3 4 9 222.92 5.38 0
 -3 4 10 143.06 4.52 0
 -3 4 11 33.54 2.85 0
 -3 5 8 84.93 4.28 0
 -3 5 10 3.05 1.81 0
 -3 6 9 4.86 2.65 0
 -3 7 10 62.38 5.09 0
 -2 -1 4 769.06 6.47 0
 -2 1 6 1497.04 8.21 0
 -2 1 7 324.42 4.72 0
 -2 1 8 52.71 2.47 0
 -2 1 9 193.64 4.73 0
 -2 1 10 171.35 4.86 0
 -2 1 14 9.43 2.49 0
 -2 1 17 207.16 8.11 0
 -2 2 4 130 2.99 0
 -2 2 5 116.6 2.88 0
 -2 2 6 52.34 2.22 0
 -2 2 7 28.7 1.98 0
 -2 2 8 310.62 5.76 0
 -2 2 9 263.58 5.82 0
 -2 2 10 203.92 5.59 0
 -2 2 11 61.82 3.76 0
 -2 2 12 147.87 5.45 0
 -2 2 13 518.36 10.3 0
 -2 2 14 40.35 3.97 0
 -2 2 17 145.07 7.01 0
 -2 3 4 1186.43 10.87 0
 -2 3 5 97.33 3.46 0
 -2 3 6 216.72 5.1 0
 -2 3 7 579.56 8.42 0
 -2 3 8 324.02 6.75 0
 -2 3 9 532.97 8.95 0
 -2 3 10 294.02 7.09 0
 -2 3 11 4.64 2.05 0
 -2 3 12 18.91 3.01 0
 -2 3 13 45.43 3.86 0
 -2 3 16 76.92 5.39 0
 -2 4 3 1630.57 15.29 0
 -2 4 4 256.3 6.25 0
 -2 4 5 66.66 3.79 0
 -2 4 6 694.35 10.37 0
 -2 4 7 566.3 9.66 0
 -2 4 8 368.58 8.16 0
 -2 4 9 247.38 6.89 0
 -2 4 10 97.34 4.75 0
 -2 4 11 0.55 2.3 0
 -2 4 12 20.77 3.47 0
 -2 4 15 236.67 8.5 0
 -2 4 16 209.96 8.32 0
 -2 5 3 752.19 12.1 0
 -2 5 4 633.98 11.22 0
 -2 5 5 344.59 8.5 0
 -2 5 6 312.94 8.21 0
 -2 5 7 60.57 4.51 0
 -2 5 8 217.09 7.08 0
 -2 5 9 120.46 5.63 0
 -2 5 10 345.89 9.31 0
 -2 5 14 110.67 6.31 0
 -2 5 15 13.5 3.58 0
 -2 6 4 142.17 6.74 0
 -2 6 5 72.24 5.49 0
 -2 6 11 71.57 5.72 0
 -2 6 12 3.14 2.88 0
 -2 6 13 180.04 8.21 0
 -2 6 14 22.47 4.38 0
 -2 6 15 13.85 3.73 0
 -2 7 5 414.58 11.58 0
 -2 7 6 408.37 11.34 0
 -2 7 8 65.57 5.73 0
 -2 7 9 55.24 5.75 0
 -2 7 10 19.89 4.29 0
 -2 7 11 155.33 7.93 0
 -2 7 12 98.36 6.92 0
 -2 7 13 126.46 7.76 0
 -2 7 14 64.76 6.31 0
 -2 8 5 54.86 5.94 0
 -2 8 6 157.1 8.68 0
 -2 8 7 51.19 5.81 0
 -2 8 8 16.13 4.13 0
 -2 8 9 21.41 4.46 0
 -2 8 10 48.45 6.29 0
 -2 8 11 10.09 3.89 0
 -2 8 12 175.26 8.8 0
 -2 8 13 137.25 8.26 0
 -2 9 7 18.83 4.74 0
 -2 9 8 95.25 7.59 0
 -2 9 9 14.03 5.19 0
 -2 9 10 137.52 8.79 0
 -2 9 11 14.39 4.46 0
 -2 9 12 51.84 6.34 0
 -2 9 13 49.55 6.49 0
 -2 10 9 37.33 6.41 0
 -2 10 10 30.73 6.25 0
 -2 10 11 101.09 8.78 0
 -2 10 12 16.11 5.61 0
 -1 1 3 207.48 2.95 0
 -1 1 4 439.53 5 0
 -1 1 19 56.68 6.9 0
 -1 1 20 16.68 4.88 0
 -1 2 1 6749.64 21.83 0
 -1 2 2 3993.19 16.73 0
 -1 2 3 1445.74 10.38 0
 -1 2 4 2650.65 14.81 0
 -1 2 6 418.91 6.94 0
 -1 2 8 991.77 12.3 0
 -1 2 10 113.53 4.98 0
 -1 2 11 461.67 10.25 0
 -1 2 12 641.61 12.38 0
 -1 2 16 39.91 4.96 0
 -1 2 17 8.25 3.69 0
 -1 2 18 185.03 9.3 0
 -1 2 19 15.77 4.28 0
 -1 2 20 48.65 6.69 0
 -1 3 1 52.46 3.47 0
 -1 3 2 231.43 5.61 0
 -1 3 3 192.35 5.07 0
 -1 3 4 784.61 9.9 0
 -1 3 5 195.39 5.49 0
 -1 3 6 301.25 6.81 0
 -1 3 7 216.5 6.05 0
 -1 3 8 1960.39 18.42 0
 -1 3 9 672.06 11.39 0
 -1 3 11 46.85 4.45 0
 -1 3 12 92.97 5.86 0
 -1 3 15 190.94 8.55 0
 -1 3 16 168.37 8.48 0
 -1 3 17 35.27 5.34 0
 -1 3 18 5.74 3.85 0
 -1 3 19 188.25 9.65 0
 -1 3 20 154.12 9.22 0
 -1 4 1 336.53 7.65 0
 -1 4 2 1367.24 14.81 0
 -1 4 3 1689.54 16.53 0
 -1 4 4 1122.31 13.72 0
 -1 4 5 291.96 7.31 0
 -1 4 6 451.65 9.39 0
 -1 4 7 170.21 6.19 0
 -1 4 8 245.39 7.43 0
 -1 4 10 15.61 3.17 0
 -1 4 13 82.8 6.01 0
 -1 4 14 282.33 10.13 0
 -1 4 15 49.52 5.89 0
 -1 4 16 148.69 8.32 0
 -1 4 17 185.82 9.06 0
 -1 4 18 202.24 9.95 0
 -1 4 19 13.83 4.86 0
 -1 5 1 6.38 2.76 0
 -1 5 2 491.4 10.45 0
 -1 5 3 72.4 4.87 0
 -1 5 4 638.78 11.88 0
 -1 5 5 162.3 6.6 0
 -1 5 6 186.86 7.14 0
 -1 5 7 833 14.14 0
 -1 5 8 1263.42 17.64 0
 -1 5 12 86.67 6.34 0
 -1 5 13 52.99 5.53 0
 -1 5 14 52.87 6.02 0
 -1 5 15 103 7.38 0
 -1 5 16 3.31 3.73 0
 -1 5 17 -0.69 3.47 0
 -1 5 18 89.69 7.74 0
 -1 5 19 40.56 6.27 0
 -1 6 2 83.94 5.81 0
 -1 6 9 126.98 7.36 0
 -1 6 10 5 3.76 0
 -1 6 11 189.16 8.64 0
 -1 6 12 17.55 4.62 0
 -1 6 13 70.94 6.68 0
 -1 6 14 46.51 5.85 0
 -1 6 15 316.28 11.97 0
 -1 6 16 261.07 11.12 0
 -1 6 17 72.14 7.15 0
 -1 6 18 44 6.45 0
 -1 7 1 22.63 4.13 0
 -1 7 2 107.37 6.72 0
 -1 7 3 219.78 9.06 0
 -1 7 5 14.71 4.14 0
 -1 7 7 350.02 11.17 0
 -1 7 9 161.44 8.76 0
 -1 7 11 406.65 12.98 0
 -1 7 12 37.87 5.33 0
 -1 7 13 142.83 8.51 0
 -1 7 14 118.95 8.53 0
 -1 7 15 89.09 7.8 0
 -1 7 16 23.31 5.95 0
 -1 7 17 191.31 10.53 0
 -1 8 2 201.6 9.38 0
 -1 8 3 177.2 8.9 0
 -1 8 4 4.85 3.93 0
 -1 8 5 371.3 12.55 0
 -1 8 6 78.54 6.95 0
 -1 8 7 12.55 4.18 0
 -1 8 8 55.1 6.68 0
 -1 8 11 192.23 9.94 0
 -1 8 12 43.37 6.31 0
 -1 8 13 258.21 11.47 0
 -1 8 14 14.78 5.26 0
 -1 8 15 63.23 7.37 0
 -1 8 17 16.93 6.1 0
 -1 9 3 74.17 7.45 0
 -1 9 4 232.79 10.75 0
 -1 9 5 237.84 11.56 0
 -1 9 6 32.76 6.49 0
 -1 9 7 285.69 12.34 0
 -1 9 8 46.31 6.71 0
 -1 9 9 37.1 6.1 0
 -1 9 11 4.21 4.95 0
 -1 9 12 111.47 9.28 0
 -1 9 13 15.05 5.89 0
 -1 9 14 52.69 7.19 0
 -1 9 15 151.92 10.43 0
 -1 9 16 14.24 5.21 0
 -1 10 5 30.69 6.9 0
 -1 10 6 19.01 6.08 0
 -1 10 7 88.05 8.39 0
 -1 10 8 222.92 12.1 0
 -1 10 9 25.44 6.01 0
 -1 10 10 166.7 11.03 0
 -1 10 11 8.88 5.94 0
 -1 10 12 109.46 9.7 0
 -1 10 13 55.14 7.43 0
 -1 10 14 260.59 13.02 0
 -1 10 15 -0.17 4.19 0
 -1 11 8 92.62 9.77 0
 -1 11 9 201.64 12.59 0
 -1 11 10 12.38 5.89 0
 -1 11 11 9.41 5.91 0
 -1 11 12 66.24 8.9 0
 -1 11 13 81.41 9.56 0
 0 -1 0 -1.16 0.76 0
 0 -1 1 2356.2 10.06 0
 0 1 0 -0.17 0.81 0
 0 1 1 2293.91 9.86 0
 0 1 2 630.72 5.89 0
 0 1 21 34.1 6.35 0
 0 1 22 109.3 9.56 0
 0 1 23 64.36 8.62 0
 0 2 -1 5733.65 21.7 0
 0 2 0 9985.17 27.78 0
 0 2 1 5691.03 21.32 0
 0 2 2 228.03 4.91 0
 0 2 3 4811.07 21.51 0
 0 2 4 7557.56 28.87 0
 0 2 6 3171.86 21.45 0
 0 2 7 1014.31 12.82 0
 0 2 17 65.15 7.11 0
 0 2 18 473.43 14.84 0
 0 2 19 340.02 13.51 0
 0 2 20 33.22 6.07 0
 0 2 21 45.36 7.76 0
 0 2 22 9.64 5.18 0
 0 2 23 52.32 7.63 0
 0 3 -1 121.45 4.3 0
 0 3 0 -0.14 1.78 0
 0 3 1 114.72 4.23 0
 0 3 2 720.16 9.88 0
 0 3 3 3612.39 22.11 0
 0 3 4 3477 22.64 0
 0 3 5 5.86 2.26 0
 0 3 6 55.27 3.85 0
 0 3 7 472.26 9.74 0
 0 3 8 24.46 3.55 0
 0 3 13 241.02 9.31 0
 0 3 14 7.6 3.66 0
 0 3 15 232.49 10.2 0
 0 3 16 6.01 3.97 0
 0 3 17 2.26 3.8 0
 0 3 18 200.66 10.34 0
 0 3 19 4.77 4.41 0
 0 3 20 144.1 10.2 0
 0 3 21 16.9 5.3 0
 0 3 22 70.37 8.5 0
 0 4 -1 2107.63 19.11 0
 0 4 0 278.93 7.3 0
 0 4 1 2052.33 18.73 0
 0 4 2 1628.34 16.95 0
 0 4 3 3917.54 26.36 0
 0 4 4 367.73 8.52 0
 0 4 5 601.82 11.3 0
 0 4 6 354.19 9.06 0
 0 4 7 1257.47 17.01 0
 0 4 8 871.81 14.72 0
 0 4 9 54.64 4.74 0
 0 4 12 117.76 6.99 0
 0 4 13 227.95 9.82 0
 0 4 14 18.9 5.11 0
 0 4 15 662.28 16.63 0
 0 4 16 81.3 7.4 0
 0 4 17 509.44 15.74 0
 0 4 19 99.43 8.71 0
 0 4 20 55.53 7.14 0
 0 4 21 13.26 5.14 0
 0 4 22 107.89 9.66 0
 0 5 1 47.76 3.72 0
 0 5 3 122.81 5.73 0
 0 5 4 133.47 6.42 0
 0 5 5 364.88 9.79 0
 0 5 6 0.8 2.35 0
 0 5 7 37.99 4.27 0
 0 5 10 9.31 3.68 0
 0 5 13 107.03 7.77 0
 0 5 14 244.04 10.63 0
 0 5 15 60.87 6.64 0
 0 5 16 223.7 10.75 0
 0 5 17 49.45 6.93 0
 0 5 18 292.14 12.86 0
 0 5 19 55.66 7.91 0
 0 5 20 342 14.38 0
 0 5 21 349.25 14.67 0
 0 6 8 322.07 10.6 0
 0 6 9 17.34 4.01 0
 0 6 10 65.94 5.97 0
 0 6 11 7.06 3.87 0
 0 6 12 89.17 7.53 0
 0 6 13 384.6 13.21 0
 0 6 14 540.71 15.98 0
 0 6 15 196.74 10.28 0
 0 6 16 5.17 4.55 0
 0 6 17 391.74 14.48 0
 0 6 18 22.38 6.16 0
 0 6 19 3.68 4.63 0
 0 6 20 19.98 6.27 0
 0 6 21 86.35 9.79 0
 0 7 -1 213.6 8.78 0
 0 7 0 1.19 2.79 0
 0 7 1 225.15 9.08 0
 0 7 4 0.19 3.02 0
 0 7 5 688.98 15.87 0
 0 7 6 20.29 4.39 0
 0 7 7 141.17 8.47 0
 0 7 8 2.77 3.5 0
 0 7 10 44.19 5.86 0
 0 7 11 293.86 12.16 0
 0 7 12 111.5 8.69 0
 0 7 13 7.1 4.99 0
 0 7 14 6.79 4.42 0
 0 7 15 6.09 5.29 0
 0 7 16 172.09 10.8 0
 0 7 17 4.58 4.77 0
 0 7 19 5.16 4.86 0
 0 7 20 10.78 6.03 0
 0 8 0 10.5 4.18 0
 0 8 1 345.62 12.32 0
 0 8 2 370.79 12.39 0
 0 8 3 15.07 4.37 0
 0 8 4 439.97 13.92 0
 0 8 5 111.03 8.08 0
 0 8 6 348.11 12.72 0
 0 8 7 172.11 9.25 0
 0 8 8 152.54 9.07 0
 0 8 9 82.53 7.9 0
 0 8 10 13.02 4.55 0
 0 8 12 16.27 6 0
 0 8 13 3.41 5.08 0
 0 8 14 439.93 15.62 0
 0 8 15 9.69 6.03 0
 0 8 16 107.32 9.81 0
 0 8 17 136.2 10.79 0
 0 8 18 131.3 10.6 0
 0 8 19 31.03 6.48 0
 0 9 1 121.95 8.77 0
 0 9 2 70.79 6.99 0
 0 9 3 40.41 6.21 0
 0 9 4 6.74 4.55 0
 0 9 5 81.55 8.03 0
 0 9 6 29.55 5.73 0
 0 9 7 41.8 6.35 0
 0 9 8 40.27 6.69 0
 0 9 9 380.58 14.77 0
 0 9 10 226.09 12.33 0
 0 9 12 43.49 7.26 0
 0 9 13 77.69 9.05 0
 0 9 14 49.79 7.58 0
 0 9 15 58.16 8.42 0
 0 9 16 61.23 8.45 0
 0 9 17 31.5 7.19 0
 0 10 2 995.82 23.04 0
 0 10 3 100.5 8.58 0
 0 10 4 93.51 8.54 0
 0 10 5 9.63 5.3 0
 0 10 6 38.89 6.85 0
 0 10 7 186.13 11.01 0
 0 10 8 20.64 6.33 0
 0 10 9 31.03 6.67 0
 0 10 10 183.6 12.07 0
 0 10 11 -7.09 5.64 0
 0 10 12 68.17 9.14 0
 0 10 13 25.76 6.61 0
 0 10 14 71.64 9.22 0
 0 10 15 1.35 5.17 0
 0 11 4 57.95 7.88 0
 0 11 5 5.14 5.46 0
 0 11 6 175.36 12.07 0
 0 11 7 38.65 8.02 0
 0 11 8 92.42 9.71 0
 0 11 9 32.88 6.94 0
 0 11 10 20.22 6.99 0
 0 11 11 0.34 5.4 0
 0 11 12 5.6 5.44 0
 0 11 13 9.65 6.23 0
 0 12 6 4.79 7.02 0
 0 12 7 5.96 6 0
 0 12 8 16.89 6.62 0
 0 12 9 312.2 16 0
 1 1 -2 1741.77 8.97 0
 1 1 -1 2653.2 11.15 0
 1 1 0 5576.74 17.26 0
 1 1 1 2712.76 13.49 0
 1 1 22 67.35 8.86 0
 1 1 23 19.83 6.51 0
 1 2 -2 4049.57 18.77 0
 1 2 -1 6748.94 24.22 0
 1 2 0 149.5 4.08 0
 1 2 1 6699.19 25.73 0
 1 2 2 4105.45 21.31 0
 1 2 3 1452.05 13.88 0
 1 2 4 2617.07 19.46 0
 1 2 5 724.16 11.02 0
 1 2 19 13.15 5.17 0
 1 2 20 40.41 7.66 0
 1 2 22 67.8 8.48 0
 1 2 23 126.16 11.04 0
 1 3 -3 198.05 5.59 0
 1 3 -2 224.39 5.81 0
 1 3 -1 57.09 3.84 0
 1 3 0 7.53 2.34 0
 1 3 1 56.87 3.57 0
 1 3 2 222.98 6.1 0
 1 3 4 805.19 12.24 0
 1 3 5 190.07 6.64 0
 1 3 6 318.31 8.6 0
 1 3 12 101.28 6.79 0
 1 3 13 391.79 12.48 0
 1 3 15 196.07 9.96 0
 1 3 16 174.02 10.47 0
 1 3 18 10.7 5.24 0
 1 3 19 204.59 12.11 0
 1 3 20 166.16 11.68 0
 1 3 21 143.6 10.52 0
 1 3 22 5.86 5.61 0
 1 4 -3 1649.69 17.21 0
 1 4 -2 1387.05 15.68 0
 1 4 -1 316.76 7.75 0
 1 4 0 242.37 6.84 0
 1 4 1 312.99 7.92 0
 1 4 2 1406.46 16.62 0
 1 4 3 1712.34 18.66 0
 1 4 7 169.97 7.08 0
 1 4 10 13.38 3.55 0
 1 4 12 322.8 11.84 0
 1 4 13 106.24 7.36 0
 1 4 15 54.51 6.67 0
 1 4 16 139.71 9.66 0
 1 4 17 182.15 10.76 0
 1 4 18 228.49 12.22 0
 1 4 19 16.58 6.13 0
 1 4 20 252.19 13.47 0
 1 4 21 37.28 7.18 0
 1 4 22 90.27 10.34 0
 1 5 -3 83.22 5.16 0
 1 5 5 146.23 6.81 0
 1 5 10 95.25 6.73 0
 1 5 11 207.86 9.56 0
 1 5 12 94.58 7.36 0
 1 5 13 35.63 6.06 0
 1 5 14 47.97 6.82 0
 1 5 15 103.96 8.8 0
 1 5 16 2.8 4.83 0
 1 5 17 0.85 4.65 0
 1 5 18 94.87 9.3 0
 1 5 19 36.26 6.91 0
 1 5 20 14.56 5.92 0
 1 5 21 37.51 7.35 0
 1 6 9 127.38 7.71 0
 1 6 10 9.34 4.63 0
 1 6 11 177.26 9.61 0
 1 6 12 16.69 4.88 0
 1 6 13 79.98 7.92 0
 1 6 14 55.84 7.29 0
 1 6 16 276.71 12.95 0
 1 6 17 65.91 8.31 0
 1 6 18 48.75 8.44 0
 1 6 19 84.71 8.99 0
 1 6 20 22.21 6.51 0
 1 7 -2 96.25 6.98 0
 1 7 1 17.2 4 0
 1 7 2 103.52 6.96 0
 1 7 3 216.66 9.34 0
 1 7 5 18.92 4.22 0
 1 7 6 56.82 6.32 0
 1 7 7 355.76 12.67 0
 1 7 8 128.09 8.75 0
 1 7 9 155.99 9.45 0
 1 7 10 172.04 9.73 0
 1 7 11 397.07 14.15 0
 1 7 13 129.15 9.7 0
 1 7 14 106.65 9.74 0
 1 7 15 96.86 9.55 0
 1 7 16 33.64 7.13 0
 1 7 17 210.2 12.92 0
 1 7 18 41.68 8.39 0
 1 7 19 32.45 7.03 0
 1 8 -1 275.77 11.08 0
 1 8 0 316.13 11.93 0
 1 8 2 227.8 10.2 0
 1 8 3 173.93 9.31 0
 1 8 4 10.23 4.35 0
 1 8 5 397.76 13.72 0
 1 8 6 81.49 7.8 0
 1 8 7 12.77 4.69 0
 1 8 9 142.06 9.41 0
 1 8 10 308.66 13.56 0
 1 8 11 201.71 11.25 0
 1 8 12 49.62 7.39 0
 1 8 13 254.17 13.32 0
 1 8 14 17.93 5.87 0
 1 8 15 63.14 8.9 0
 1 8 16 21.9 6.64 0
 1 8 17 14.77 6.68 0
 1 8 18 8.83 6.73 0
 1 9 -1 78.4 7.56 0
 1 9 0 219.01 10.77 0
 1 9 2 82.47 7.61 0
 1 9 3 80.72 8.1 0
 1 9 4 223.27 11.23 0
 1 9 5 243.15 12 0
 1 9 6 44.04 7.46 0
 1 9 7 272.56 13.18 0
 1 9 8 45.62 6.99 0
 1 9 9 34.69 7.22 0
 1 9 10 16.97 5.57 0
 1 9 11 -0.08 4.83 0
 1 9 12 104.04 9.51 0
 1 9 13 8.15 5.78 0
 1 9 14 67.76 9.13 0
 1 9 16 18.65 6.48 0
 1 10 1 5.83 4.86 0
 1 10 2 131.52 9.8 0
 1 10 3 69.64 8.59 0
 1 10 4 25.29 7.14 0
 1 10 5 26.91 6.87 0
 1 10 6 13.82 6.34 0
 1 10 7 103.35 9.66 0
 1 10 8 258.17 13.26 0
 1 10 9 26.84 6.94 0
 1 10 10 148.12 11.76 0
 1 10 11 -2.77 5.26 0
 1 10 12 110.52 11.12 0
 1 10 13 58.61 8.66 0
 1 10 14 246.54 14.5 0
 1 10 15 3.7 5.53 0
 1 11 2 30.97 6.65 0
 1 11 3 4.86 5.49 0
 1 11 5 13.07 6.09 0
 1 11 6 181.42 12.11 0
 1 11 7 30.44 8.11 0
 1 11 8 81.11 9.89 0
 1 11 9 212.61 13.54 0
 1 11 10 4.14 6.36 0
 1 11 12 55.78 9.02 0
 1 12 4 32.32 7.78 0
 1 12 5 110.36 11.62 0
 1 12 6 11.42 6.91 0
 1 12 7 1.33 5.96 0
 1 12 8 57.66 8.87 0
 2 1 -3 1719.15 9.15 0
 2 1 -2 469.43 5.18 0
 2 1 -1 469.32 5.72 0
 2 1 0 7.03 1.54 0
 2 1 1 467.93 6.99 0
 2 2 -3 324.35 5.76 0
 2 2 -2 1052.19 10.23 0
 2 2 -1 240.2 5.44 0
 2 2 0 4947.03 23.7 0
 2 2 1 242.05 5.83 0
 2 2 2 1053.76 12.33 0
 2 2 3 326.22 7.71 0
 2 2 4 141.24 5.72 0
 2 2 19 104.53 10.07 0
 2 2 20 6.09 5.44 0
 2 2 21 208.39 13.49 0
 2 2 22 99.2 10.41 0
 2 3 -3 1463.87 14.33 0
 2 3 -2 64.9 3.66 0
 2 3 -1 1169.08 13.27 0
 2 3 0 1368.2 14.46 0
 2 3 1 1137.1 13.74 0
 2 3 3 1443.03 16.85 0
 2 3 11 5.23 3.57 0
 2 3 12 22.86 4.62 0
 2 3 13 41.76 5.88 0
 2 3 14 80.44 7.84 0
 2 3 15 29.48 5.94 0
 2 3 16 77.84 8.43 0
 2 3 19 196.98 12.69 0
 2 3 20 157.65 12.18 0
 2 3 21 77.16 9.51 0
 2 3 22 40.84 8.17 0
 2 4 5 63.27 4.97 0
 2 4 10 102.52 6.98 0
 2 4 11 2.61 3.4 0
 2 4 12 20.71 4.84 0
 2 4 15 231.16 11.56 0
 2 4 16 214.84 11.9 0
 2 4 19 103.18 10.47 0
 2 4 20 9.74 6.03 0
 2 4 21 51.71 9.01 0
 2 5 -3 777.44 13.89 0
 2 5 -2 241.6 8.25 0
 2 5 -1 71.1 4.76 0
 2 5 0 397.25 10.32 0
 2 5 1 73.94 5.03 0
 2 5 2 247.97 8.64 0
 2 5 7 69.1 6.35 0
 2 5 9 120.45 7.57 0
 2 5 10 357.41 12.51 0
 2 5 11 27.55 5.22 0
 2 5 12 184.52 9.93 0
 2 5 13 178.81 10.55 0
 2 5 14 107.45 9.4 0
 2 5 15 4.36 5.37 0
 2 5 17 4.68 5.18 0
 2 5 18 99.32 10.41 0
 2 5 19 30.45 7.22 0
 2 5 20 78.77 9.76 0
 2 5 21 103.76 10.32 0
 2 6 3 106.72 6.73 0
 2 6 5 77.85 6.54 0
 2 6 6 205.47 9.34 0
 2 6 7 112.3 7.41 0
 2 6 8 218.62 10.04 0
 2 6 9 401.7 13.38 0
 2 6 10 316.09 12.39 0
 2 6 12 -0.19 3.94 0
 2 6 14 25.92 5.96 0
 2 6 15 9.96 5.26 0
 2 6 17 228.09 13.04 0
 2 6 19 83.39 9.98 0
 2 6 20 43.83 8.6 0
 2 7 -2 131.93 8.04 0
 2 7 -1 326.52 11.13 0
 2 7 0 101.89 6.89 0
 2 7 1 307.11 11.32 0
 2 7 2 124.02 7.6 0
 2 7 3 267.44 10.98 0
 2 7 4 147.87 9.02 0
 2 7 5 434.94 13.68 0
 2 7 7 135.2 8.63 0
 2 7 8 72.04 7.64 0
 2 7 9 67.33 7.52 0
 2 7 10 14.8 5.24 0
 2 7 11 153.75 10.54 0
 2 7 13 125.56 10.2 0
 2 7 14 70.46 9.04 0
 2 7 15 79.74 8.74 0
 2 7 16 27.74 6.96 0
 2 7 17 42.18 7.99 0
 2 7 19 34.61 7.91 0
 2 8 -2 153.97 9.42 0
 2 8 1 364.44 13.05 0
 2 8 2 140.01 9.03 0
 2 8 3 148.29 9.41 0
 2 8 4 103.23 8 0
 2 8 5 47.24 6.89 0
 2 8 6 149.79 9.15 0
 2 8 7 50.84 6.62 0
 2 8 8 27.72 6.36 0
 2 8 9 21.02 5.46 0
 2 8 10 51.05 8.02 0
 2 8 11 13.56 6.07 0
 2 8 12 173.98 11.79 0
 2 8 13 147.49 10.85 0
 2 8 15 108.15 9.94 0
 2 8 16 18.73 6.59 0
 2 8 17 265.94 14.44 0
 2 9 -1 65.81 7.48 0
 2 9 0 33.48 6.08 0
 2 9 1 68.63 7.1 0
 2 9 2 36.85 6.12 0
 2 9 3 7.61 5.23 0
 2 9 4 72.24 7.6 0
 2 9 6 27.15 6.68 0
 2 9 7 24.37 6.3 0
 2 9 9 14.72 7.05 0
 2 9 10 132.36 10.95 0
 2 9 11 24.21 6.62 0
 2 9 13 49.78 8.99 0
 2 9 14 235.8 13.59 0
 2 9 15 0.81 5.8 0
 2 9 16 33.06 9.04 0
 2 10 1 103.9 9.01 0
 2 10 2 198.73 11.96 0
 2 10 3 76.08 8.22 0
 2 10 4 17.61 6.41 0
 2 10 5 36.73 7.63 0
 2 10 6 25.45 7.44 0
 2 10 7 108.67 9.81 0
 2 10 8 33.25 7.1 0
 2 10 9 48.12 7.93 0
 2 10 10 28.47 7.51 0
 2 10 11 95.21 10.54 0
 2 10 13 2.75 5.89 0
 2 11 1 30.95 7.07 0
 2 11 2 6.09 5.83 0
 2 11 3 38.66 7.6 0
 2 11 4 56.85 8.56 0
 2 11 5 44.73 8.17 0
 2 11 6 2.85 6.43 0
 2 11 7 24.73 7.17 0
 2 11 8 130.53 12.04 0
 2 11 9 5.02 5.86 0
 2 11 10 85.5 10.14 0
 2 11 11 34.36 8.23 0
 2 12 3 2.64 6.39 0
 2 12 4 42.02 9.27 0
 2 12 5 14.89 6.99 0
 2 12 6 10.57 7.02 0
 2 12 7 25.01 8.16 0
 3 0 -2 1045.5 6.59 0
 3 0 -1 1481.27 10.12 0
 3 1 -3 46.68 1.81 0
 3 1 -2 1277.67 9.59 0
 3 1 -1 828.05 8.66 0
 3 1 0 716.77 8.94 0
 3 1 1 840.91 10.62 0
 3 2 -3 514.19 7.32 0
 3 2 -2 477.51 7.51 0
 3 2 -1 880.86 10.53 0
 3 2 0 350.65 7.2 0
 3 2 1 864.23 11.78 0
 3 2 5 229.88 7.6 0
 3 2 18 86.05 8.94 0
 3 2 19 39.11 7.95 0
 3 2 20 89.71 11 0
 3 3 2 162.88 6.19 0
 3 3 3 638.61 12.25 0
 3 3 4 372.23 9.75 0
 3 3 5 1918.15 22.47 0
 3 3 8 589.99 14.27 0
 3 3 9 861.05 17.87 0
 3 3 10 18.47 5.11 0
 3 3 12 17.95 4.63 0
 3 3 13 55.79 6.72 0
 3 3 14 49.49 6.98 0
 3 3 15 53.66 7.89 0
 3 3 16 56.06 7.88 0
 3 3 17 147.41 10.85 0
 3 3 18 24.38 7.34 0
 3 3 19 41.82 8.63 0
 3 3 20 144.01 12.42 0
 3 3 21 192.48 13.16 0
 3 4 -3 57.43 4.37 0
 3 4 -2 306.58 8.18 0
 3 4 -1 34.85 4.21 0
 3 4 0 68.55 4.47 0
 3 4 2 301.62 9.1 0
 3 4 3 67.87 5.44 0
 3 4 7 292.73 10.38 0
 3 4 8 57.7 5.99 0
 3 4 10 142.25 8.38 0
 3 4 12 1.27 3.56 0
 3 4 13 272.8 12.35 0
 3 4 14 88.22 8.63 0
 3 4 15 195.27 11.53 0
 3 4 16 184.92 12.01 0
 3 4 17 108.1 10.15 0
 3 4 18 88.36 10.71 0
 3 4 19 18.77 6.87 0
 3 4 20 19.66 7.22 0
 3 5 -4 464.95 10.88 0
 3 5 -3 208.04 7.89 0
 3 5 -2 780.17 14.37 0
 3 5 5 146.62 8.06 0
 3 5 6 220.07 9.49 0
 3 5 7 117.06 7.93 0
 3 5 8 84.98 6.95 0
 3 5 9 326.45 12.72 0
 3 5 10 2.59 3.51 0
 3 5 11 312.73 13.19 0
 3 5 12 49.71 6.76 0
 3 5 14 59.52 7.82 0
 3 5 15 58.01 7.93 0
 3 5 16 46.85 7.95 0
 3 5 17 87.37 10.89 0
 3 5 19 0.15 5.55 0
 3 6 0 135.55 7.63 0
 3 6 2 43 5.64 0
 3 6 3 57.1 5.71 0
 3 6 4 299.24 11.01 0
 3 6 5 243.96 10.18 0
 3 6 6 90.06 7.24 0
 3 6 7 7.37 4.57 0
 3 6 8 7.51 3.97 0
 3 6 9 6.93 4.01 0
 3 6 10 56.27 7 0
 3 6 11 486.43 16.25 0
 3 6 12 39.08 6.65 0
 3 6 14 240.3 13.66 0
 3 6 15 7.03 5.85 0
 3 6 17 -0.72 6.43 0
 3 6 18 127.69 11.29 0
 3 6 19 24.6 8.39 0
 3 7 -3 79.16 6.94 0
 3 7 -1 382.67 12.23 0
 3 7 0 4.12 3.76 0
 3 7 1 367.09 12.68 0
 3 7 2 219.85 10 0
 3 7 3 78.63 7.31 0
 3 7 4 19.52 4.63 0
 3 7 5 20.86 4.95 0
 3 7 7 524.72 16.08 0
 3 7 8 53.7 6.97 0
 3 7 9 55.23 7.73 0
 3 7 10 58.29 7.82 0
 3 7 13 230 12.93 0
 3 7 14 8.94 6.44 0
 3 7 15 21.04 6.91 0
 3 7 16 39.18 7.89 0
 3 7 17 6.74 6.28 0
 3 8 -2 113.54 8.79 0
 3 8 -1 9.74 4.48 0
 3 8 0 626.68 16.99 0
 3 8 1 9.41 4.43 0
 3 8 2 112.28 8.56 0
 3 8 3 81.2 7.33 0
 3 8 4 22.33 5.4 0
 3 8 5 108.32 8.58 0
 3 8 7 28.28 6.32 0
 3 8 8 176.72 10.92 0
 3 8 9 84.32 9.25 0
 3 8 11 108.76 10.16 0
 3 8 12 126.02 11.18 0
 3 8 13 29.33 7.23 0
 3 8 14 90.09 10.65 0
 3 8 15 102.89 9.98 0
 3 8 16 28.65 7.79 0
 3 9 -2 28.14 6.02 0
 3 9 -1 3.52 5.02 0
 3 9 0 76.71 8.64 0
 3 9 2 27.7 6.29 0
 3 9 3 -1.94 4.51 0
 3 9 4 165.6 10.9 0
 3 9 5 292.82 13.57 0
 3 9 6 89.23 8.7 0
 3 9 7 210.88 12.51 0
 3 9 8 149.56 11.63 0
 3 9 9 0.01 5.45 0
 3 9 10 10.55 6.13 0
 3 9 11 70.25 9.06 0
 3 9 12 130.14 10.85 0
 3 9 14 9.37 6.45 0
 3 10 -1 47.89 7.44 0
 3 10 0 83.12 8.78 0
 3 10 1 55.53 8.45 0
 3 10 3 177.13 11.85 0
 3 10 4 71.58 8.81 0
 3 10 6 55.79 8.3 0
 3 10 7 15.44 6.98 0
 3 10 8 28.33 7.28 0
 3 10 9 63.29 9.92 0
 3 10 10 127.49 11.89 0
 3 10 11 36.58 8.5 0
 3 10 12 56.73 10.29 0
 3 11 1 138.82 11.61 0
 3 11 2 44.89 8.01 0
 3 11 3 15.83 7.09 0
 3 11 4 40.2 8.78 0
 3 11 5 9.6 6.47 0
 3 11 6 43.92 8.47 0
 3 11 7 111.58 11.42 0
 3 11 8 18.97 7.06 0
 3 11 9 13.58 7.41 0
 3 12 2 -2.47 5.55 0
 3 12 3 103.94 11.42 0
 3 12 4 18.35 7.1 0
 4 -1 -2 420.15 4.73 0
 4 0 -2 9.15 1.15 0
 4 0 -1 104.55 3.32 0
 4 1 -3 2291.02 11.86 0
 4 1 -2 418.63 6.21 0
 4 1 2 410.97 9.02 0
 4 2 1 2.72 2 0
 4 2 2 262.69 7.8 0
 4 2 3 344.1 9.23 0
 4 2 4 1.69 2.53 0
 4 2 7 207.07 8.89 0
 4 2 16 100.64 9.29 0
 4 2 17 17.31 6.37 0
 4 2 18 16.53 6.48 0
 4 2 19 35.59 7.88 0
 4 2 20 94.79 11.43 0
 4 3 -4 880.41 11.39 0
 4 3 -2 21.87 2.92 0
 4 3 -1 165.11 5.98 0
 4 3 0 1192.11 15.65 0
 4 3 2 21.9 3.89 0
 4 3 3 362.31 10.12 0
 4 3 6 200.79 8.74 0
 4 3 8 573.58 15.2 0
 4 3 10 477.52 15.02 0
 4 3 12 244.79 11.71 0
 4 3 13 206.86 11.24 0
 4 3 14 348.49 14.57 0
 4 3 16 21.75 6.46 0
 4 3 17 31.16 7.76 0
 4 3 19 91.33 10.69 0
 4 4 -4 94.95 5.01 0
 4 4 -3 58.83 4.17 0
 4 4 -2 171.5 6.7 0
 4 4 -1 280.86 8.27 0
 4 4 0 13.72 3.16 0
 4 4 5 19.26 4.22 0
 4 4 6 58.87 6.17 0
 4 4 7 17.56 4.62 0
 4 4 8 69.06 6.28 0
 4 4 9 0.88 4.31 0
 4 4 10 13.84 5.38 0
 4 4 11 98.53 8.18 0
 4 4 13 216.09 11.69 0
 4 4 14 55.93 7.85 0
 4 4 15 53.9 8.17 0
 4 4 16 14.3 7.17 0
 4 4 19 125.5 13.51 0
 4 5 2 123.96 7.53 0
 4 5 3 72.07 6 0
 4 5 5 98.36 6.99 0
 4 5 7 98.31 8.24 0
 4 5 8 534.76 15.91 0
 4 5 9 153.79 10.12 0
 4 5 10 481.65 16.11 0
 4 5 11 396.4 15.43 0
 4 5 12 62.9 7.82 0
 4 5 13 32.92 7.12 0
 4 5 14 90.93 9.2 0
 4 5 15 10.48 6.03 0
 4 5 17 76.66 10.72 0
 4 5 18 92.67 10.52 0
 4 6 -4 59.4 5.1 0
 4 6 -3 32.56 4.76 0
 4 6 -2 21.34 4.5 0
 4 6 -1 158.22 8.09 0
 4 6 0 21.05 4.37 0
 4 6 3 26.55 5.12 0
 4 6 4 61.82 6.25 0
 4 6 5 11.16 4.36 0
 4 6 6 3.33 3.8 0
 4 6 7 36.09 5.96 0
 4 6 8 108.98 8.52 0
 4 6 9 40.07 6.6 0
 4 6 10 6.33 5.77 0
 4 6 11 59.03 8.6 0
 4 6 12 85.52 8.71 0
 4 6 13 149.31 11.44 0
 4 6 14 46.36 8.03 0
 4 6 15 140.46 11.13 0
 4 6 16 47.53 8.45 0
 4 6 17 83.32 10.49 0
 4 7 -3 85.82 7.25 0
 4 7 -2 296.79 11.07 0
 4 7 -1 226.49 10.41 0
 4 7 0 21.59 4.87 0
 4 7 2 271.23 11.7 0
 4 7 3 95.39 8.24 0
 4 7 4 0.73 3.86 0
 4 7 5 147.46 9.57 0
 4 7 6 116.46 8.55 0
 4 7 7 245.59 12 0
 4 7 8 116.7 9.82 0
 4 7 9 65.16 8.34 0
 4 7 10 117.34 10.49 0
 4 7 11 295.7 14.94 0
 4 7 12 126.42 10.8 0
 4 7 13 27.42 7.17 0
 4 7 14 26.43 7.3 0
 4 7 16 34.26 8.73 0
 4 8 -3 73.71 7.28 0
 4 8 -2 134.39 9.12 0
 4 8 -1 30.11 6.42 0
 4 8 1 29.41 6.49 0
 4 8 2 130.69 9.78 0
 4 8 4 119.8 9.2 0
 4 8 5 20.83 6.07 0
 4 8 6 4.75 5.92 0
 4 8 7 47.59 8.01 0
 4 8 8 8.41 5.44 0
 4 8 9 126.08 11.08 0
 4 8 10 59.51 8.65 0
 4 8 11 87.58 10.8 0
 4 8 12 209.68 13.97 0
 4 8 13 102.16 10.48 0
 4 8 14 0.96 5.95 0
 4 9 -2 5.23 5.55 0
 4 9 -1 264.88 12.51 0
 4 9 1 258.81 12.63 0
 4 9 2 5.81 5.08 0
 4 9 3 108.44 10.09 0
 4 9 4 13.79 5.7 0
 4 9 5 316.55 14.74 0
 4 9 6 25.28 6.59 0
 4 9 7 73.73 8.99 0
 4 9 8 25.27 7.41 0
 4 9 10 37.95 7.8 0
 4 9 11 122.18 11.23 0
 4 9 12 4.74 5.86 0
 4 10 -1 6.17 5.67 0
 4 10 0 100.43 9.97 0
 4 10 1 12.74 5.74 0
 4 10 2 33.27 7.44 0
 4 10 3 22.54 6.33 0
 4 10 4 39.62 7.72 0
 4 10 7 185.41 12.68 0
 4 10 8 72.64 10.65 0
 4 10 10 35.72 8.32 0
 4 11 0 17.96 7.34 0
 4 11 1 19.58 6.88 0
 4 11 2 38.62 8.26 0
 4 11 3 20.47 7 0
 4 11 4 118.89 11.62 0
 4 11 5 279.4 15.53 0
 4 11 6 137.39 12.24 0
 5 0 0 -0.6 1.34 0
 5 0 1 900.51 12.51 0
 5 0 2 497.86 10.04 0
 5 1 -1 100.86 3.79 0
 5 1 0 72.3 3.89 0
 5 1 1 92.11 4.63 0
 5 1 2 391.24 9.34 0
 5 1 3 49.38 4.49 0
 5 1 18 95.5 10.45 0
 5 2 -1 158.06 5.3 0
 5 2 0 50.89 3.73 0
 5 2 1 149.7 6.06 0
 5 2 5 388.24 11.32 0
 5 2 6 260.2 9.9 0
 5 2 7 107.48 7.2 0
 5 2 8 69.09 6.56 0
 5 2 9 55.62 6.79 0
 5 2 10 105.44 8.74 0
 5 2 11 -0.15 4.04 0
 5 2 12 30.92 6.25 0
 5 2 13 28.3 6.48 0
 5 2 14 148.67 11.24 0
 5 2 15 65.75 8.98 0
 5 2 16 22.23 6.8 0
 5 2 17 483.49 19.05 0
 5 2 18 40.55 8.59 0
 5 3 -1 193.5 6.55 0
 5 3 0 96.3 5.31 0
 5 3 1 197.56 7.48 0
 5 3 4 512.08 13.11 0
 5 3 6 86.73 7.09 0
 5 3 7 18.08 4.89 0
 5 3 8 18.4 4.75 0
 5 3 9 11.96 4.58 0
 5 3 10 159.48 9.59 0
 5 3 11 47.4 7.3 0
 5 3 12 19.69 5.63 0
 5 3 13 82.15 8.56 0
 5 3 14 30.83 7.06 0
 5 3 15 327.09 15.37 0
 5 3 16 60.88 9.82 0
 5 3 17 1.9 5.57 0
 5 3 18 34.77 8.35 0
 5 4 2 166.06 7.96 0
 5 4 3 32.99 4.7 0
 5 4 4 54.22 6.36 0
 5 4 5 3.43 4.07 0
 5 4 6 105.68 7.57 0
 5 4 7 88.21 7.68 0
 5 4 9 7.51 4.78 0
 5 4 10 161.62 10.55 0
 5 4 11 366.05 15.04 0
 5 4 12 -1.28 4.48 0
 5 4 13 28.92 6.75 0
 5 4 14 132.81 11.23 0
 5 4 16 63.5 9.3 0
 5 5 0 45.67 5.09 0
 5 5 2 49.69 6.21 0
 5 5 3 180.08 8.7 0
 5 5 4 61.47 6.51 0
 5 5 5 3.93 3.8 0
 5 5 6 51.48 6.65 0
 5 5 8 219.39 11.12 0
 5 5 9 132.94 9.98 0
 5 5 10 11.97 5.97 0
 5 5 11 35.28 7.52 0
 5 5 12 171.61 11.46 0
 5 5 14 59.52 8.78 0
 5 5 15 7.34 6.1 0
 5 5 16 39.45 8.37 0
 5 6 -2 106.15 6.47 0
 5 6 -1 52.11 5.98 0
 5 6 1 40.31 5.8 0
 5 6 3 72.47 7.41 0
 5 6 4 111.66 8.47 0
 5 6 5 264.59 11.6 0
 5 6 6 31.07 6.27 0
 5 6 7 50.65 7.21 0
 5 6 9 61.99 8.61 0
 5 6 10 52.36 8.7 0
 5 6 11 54.21 8.69 0
 5 6 12 197.31 12.94 0
 5 6 13 170.16 12.09 0
 5 6 14 23.7 7.28 0
 5 6 15 59.85 9.86 0
 5 7 -2 214.54 9.86 0
 5 7 -1 86.21 6.94 0
 5 7 0 277.51 11.22 0
 5 7 2 201.03 10.33 0
 5 7 3 118.52 8.85 0
 5 7 4 102.76 8.31 0
 5 7 5 -1.02 5.28 0
 5 7 6 46.6 7.44 0
 5 7 7 69.76 8.68 0
 5 7 8 122.37 10.38 0
 5 7 9 -3.34 4.57 0
 5 7 10 134.45 10.48 0
 5 7 11 30.18 7.04 0
 5 7 12 156.95 12.34 0
 5 7 13 63.01 9.62 0
 5 8 -2 33.5 6.15 0
 5 8 -1 203.93 10.91 0
 5 8 0 65.91 7.37 0
 5 8 2 35.01 6.89 0
 5 8 3 138.4 10.33 0
 5 8 5 41.28 7.09 0
 5 8 6 6.26 5.65 0
 5 8 7 109.91 10.15 0
 5 8 8 22.98 6.77 0
 5 8 9 27.91 7.08 0
 5 8 11 28.3 8.13 0
 5 8 12 55.82 9.1 0
 5 9 -2 26.63 5.84 0
 5 9 -1 75.61 9.08 0
 5 9 0 19.61 5.65 0
 5 9 1 55.43 7.5 0
 5 9 2 38.03 6.83 0
 5 9 3 70.59 8.92 0
 5 9 4 18.1 6.16 0
 5 9 5 4.06 5.3 0
 5 9 6 182.38 12.34 0
 5 9 7 32.08 7.14 0
 5 9 8 13.59 7.03 0
 5 9 10 74.09 10.03 0
 5 10 -1 89.78 9.16 0
 5 10 0 38.65 7.11 0
 5 10 1 85.03 8.81 0
 5 10 2 31.55 7.38 0
 5 10 3 100.5 9.95 0
 5 10 4 137.58 11.58 0
 5 10 5 9.42 6.94 0
 5 10 6 63.83 9.42 0
 5 10 7 19.74 7.22 0
 6 0 5 126.53 6.88 0
 6 1 4 9.07 2.93 0
 6 1 5 26.29 4.62 0
 6 1 6 5.3 3.85 0
 6 1 7 76.36 6.42 0
 6 1 8 69.19 6.93 0
 6 1 9 81.47 7.35 0
 6 1 10 87.31 8.49 0
 6 1 11 68.96 8.21 0
 6 1 12 -1.82 4.39 0
 6 1 13 39.85 7.06 0
 6 1 14 60.67 9.05 0
 6 1 15 23.94 6.67 0
 6 1 16 170.45 12.88 0
 6 2 4 107.38 6.62 0
 6 2 5 144.33 7.96 0
 6 2 6 88.94 7.25 0
 6 2 7 55.1 6.7 0
 6 2 8 6.53 4.19 0
 6 2 9 148.49 9.44 0
 6 2 10 143.46 10.21 0
 6 2 11 89.61 8.49 0
 6 2 12 172.13 11.72 0
 6 2 13 59.92 9.11 0
 6 2 14 56.03 9.3 0
 6 2 15 20.98 6.89 0
 6 2 16 5.89 6.22 0
 6 3 4 22.68 4.59 0
 6 3 5 58.87 6.2 0
 6 3 6 164.67 8.91 0
 6 3 7 64.9 6.6 0
 6 3 8 90.41 8.35 0
 6 3 9 248.88 12.15 0
 6 3 10 105.23 9.44 0
 6 3 11 6.81 5.93 0
 6 3 12 64.87 8.39 0
 6 3 13 53.92 8.08 0
 6 3 14 103.56 10.39 0
 6 3 15 10.32 5.92 0
 6 3 16 56.03 9.16 0
 6 4 3 16.9 3.68 0
 6 4 4 177.43 9.11 0
 6 4 5 105.85 7.81 0
 6 4 7 117.72 9.05 0
 6 4 8 9.96 5.47 0
 6 4 10 74.72 8.16 0
 6 4 11 4.88 5.38 0
 6 4 13 170.33 12.26 0
 6 4 14 88.51 9.58 0
 6 4 15 0.46 5.55 0
 6 5 3 162.05 8.71 0
 6 5 5 17.21 5.28 0
 6 5 8 31.28 6.7 0
 6 5 9 113 9.13 0
 6 5 10 32.28 6.88 0
 6 5 12 48.32 8.15 0
 6 5 13 252.34 14.51 0
 6 6 3 242.81 11.04 0
 6 6 4 2.78 3.86 0
 6 6 5 74.03 7.8 0
 6 6 6 63.91 7.7 0
 6 6 7 102.28 9.15 0
 6 6 9 11.85 6.62 0
 6 6 10 165.07 12 0
 6 6 11 21.55 7.11 0
 6 6 12 166.99 12.65 0
 6 6 13 23.08 7.31 0
 6 7 4 30.5 6.09 0
 6 7 5 49.09 7.64 0
 6 7 7 12.54 5.79 0
 6 7 8 55 8.67 0
 6 7 9 98.09 9.45 0
 6 7 10 251.4 14.17 0
 6 7 11 88.82 10.33 0
 6 8 3 22.01 5.94 0
 6 8 4 29.76 6.64 0
 6 8 5 21.9 6.63 0
 6 8 7 57.01 8.87 0
 6 8 8 92.32 10.4 0
 6 8 9 80.73 10.04 0
 6 9 2 29.48 6.82 0
 6 9 3 14.26 5.47 0
 6 9 4 82.12 9.65 0
 6 9 5 5.44 5.38 0
 6 9 6 122.98 10.72 0
 7 0 10 9.65 5.15 0
 7 0 11 42.2 7.12 0
 7 0 12 5.51 5.28 0
 7 0 13 135.64 10.82 0
 7 0 14 2.24 5.5 0
 7 1 9 9.21 4.11 0
 7 1 10 26.16 5.63 0
 7 1 11 97.79 9.43 0
 7 1 12 53.8 7.86 0
 7 1 13 10.88 5.46 0
 7 1 14 30.28 7.15 0
 7 2 8 0.06 3.16 0
 7 2 9 23.22 5.26 0
 7 2 10 84.75 8.8 0
 7 2 11 7.32 5.92 0
 7 2 12 48.74 7.58 0
 7 2 13 29.62 6.86 0
 7 2 14 118.76 10.84 0
 7 3 9 24.73 5.61 0
 7 3 10 7.88 5.41 0
 7 3 11 59.65 7.99 0
 7 3 12 7.68 5.56 0
 7 3 13 110.21 10.22 0
 7 4 8 111.34 8.7 0
 7 4 9 15.72 5.52 0
 7 4 10 29.53 6.17 0
 7 4 12 86.61 10.75 0
 7 5 8 58.41 7.28 0
 7 5 9 56.99 8.27 0
 7 5 10 21.28 6.65 0
 7 5 11 31.92 7.47 0
 7 6 10 97.02 10.27 0
 7 7 8 50.47 8.2 0
 -6 6 -7 85.72 7.28 0
 -6 6 -6 57.87 6.67 0
 -6 7 -7 6.34 4.24 0
 -6 8 -7 50.72 7.25 0
 -6 8 -6 54.9 7.62 0
 -6 8 -5 17.97 5.32 0
 -6 9 -7 -2.46 3.88 0
 -6 9 -5 0.22 4.56 0
 -6 9 -4 84.03 9.26 0
 -6 9 -3 17.64 6.09 0
 -5 2 -7 101.44 4.35 0
 -5 3 -8 19.84 2.84 0
 -5 3 -7 17.1 2.91 0
 -5 5 -8 205.8 8.66 0
 -5 5 -7 1.9 2.98 0
 -5 6 -10 37.52 5.4 0
 -5 6 -9 73.7 6.55 0
 -5 6 -8 27.6 5.03 0
 -5 6 -7 47.6 5.85 0
 -5 7 -10 133.34 8.41 0
 -5 7 -9 3.81 4.03 0
 -5 7 -8 125.27 8.89 0
 -5 7 -7 64.21 7.39 0
 -5 7 -6 53.83 6.56 0
 -5 8 -10 35.82 6.12 0
 -5 8 -9 26.68 5.77 0
 -5 8 -8 21.39 5.51 0
 -5 8 -7 111.6 9.12 0
 -5 8 -6 5.37 4.71 0
 -5 8 -5 54.3 7.79 0
 -5 9 -9 164.09 10.72 0
 -5 9 -8 15.37 5.31 0
 -5 9 -7 32.96 7.12 0
 -5 9 -5 3.98 5.15 0
 -5 9 -4 15.96 5.95 0
 -5 10 -8 11.4 6.53 0
 -5 10 -7 16.34 6.44 0
 -5 10 -6 58.07 8.47 0
 -5 10 -5 14.22 6.34 0
 -5 10 -4 140.35 11.58 0
 -5 10 -3 109.22 11.01 0
 -4 -1 -5 120.71 2.65 0
 -4 1 -8 215.72 3.84 0
 -4 1 -7 1620.41 11.86 0
 -4 2 -10 11.51 1.73 0
 -4 2 -9 155.35 4.47 0
 -4 2 -8 15.16 2.1 0
 -4 2 -7 208.81 5.67 0
 -4 3 -11 19.98 2.56 0
 -4 3 -10 452.21 8.98 0
 -4 3 -9 551.6 10.12 0
 -4 3 -8 558.79 10.55 0
 -4 3 -7 245.78 7.15 0
 -4 5 -12 69.7 5.35 0
 -4 5 -11 365.93 10.57 0
 -4 5 -9 153.26 7.39 0
 -4 5 -7 98.37 6.49 0
 -4 6 -12 72.74 6.09 0
 -4 6 -10 -2.42 3.24 0
 -4 6 -9 38.22 5.56 0
 -4 6 -8 106.62 7.58 0
 -4 6 -7 44.86 5.98 0
 -4 6 -6 6.15 3.53 0
 -4 7 -12 130.07 8.36 0
 -4 7 -11 316.02 12.22 0
 -4 7 -10 102.94 7.93 0
 -4 7 -9 67.33 7.06 0
 -4 7 -8 106.24 8.03 0
 -4 7 -7 233.31 11.12 0
 -4 7 -6 98.61 8 0
 -4 7 -5 145.02 9.21 0
 -4 8 -12 208.98 11.03 0
 -4 8 -11 93.3 8.06 0
 -4 8 -9 96.54 8.71 0
 -4 8 -8 13.38 5.41 0
 -4 8 -7 45.63 6.68 0
 -4 8 -6 9.87 4.73 0
 -4 8 -5 17.22 5.86 0
 -4 8 -4 137.8 9.5 0
 -4 9 -12 0.41 4.3 0
 -4 9 -11 135.76 9.53 0
 -4 9 -10 45.95 6.96 0
 -4 9 -9 115.18 9.88 0
 -4 9 -8 16.72 5.57 0
 -4 9 -7 59.12 8.19 0
 -4 9 -6 22.87 6.27 0
 -4 9 -5 288.36 13.85 0
 -4 9 -4 22.06 6.25 0
 -4 9 -3 113.28 9.54 0
 -4 10 -10 45.78 7.69 0
 -4 10 -9 82 10.17 0
 -4 10 -8 57.72 8.25 0
 -4 10 -7 180.91 11.79 0
 -4 10 -6 154.83 11.11 0
 -4 10 -5 29.26 7.01 0
 -4 10 -4 51.2 8.11 0
 -4 10 -3 16.01 7.11 0
 -4 11 -7 110.17 10.25 0
 -4 11 -6 123.68 10.78 0
 -4 11 -5 273.88 15.17 0
 -4 11 -4 124.94 11.61 0
 -4 11 -3 26.43 7.76 0
 -4 11 -1 37.04 7.59 0
 -4 11 0 10.06 6.67 0
 -3 -1 -4 58.02 1.81 0
 -3 1 -10 543.96 6.08 0
 -3 1 -9 667.58 6.84 0
 -3 1 -7 113.34 3.17 0
 -3 1 -6 906.73 8.79 0
 -3 2 -12 234.53 5.89 0
 -3 2 -10 143.48 4.59 0
 -3 2 -9 323.74 6.68 0
 -3 2 -8 227.08 5.66 0
 -3 2 -7 146.07 4.66 0
 -3 2 -6 104.56 4.05 0
 -3 3 -13 51.6 3.96 0
 -3 3 -12 16.46 2.84 0
 -3 3 -11 36.83 3.58 0
 -3 3 -10 13.01 2.64 0
 -3 3 -9 851.41 12.55 0
 -3 3 -7 236.51 7.03 0
 -3 3 -6 138.71 5.61 0
 -3 4 -9 204.13 7.57 0
 -3 4 -8 53.14 4.64 0
 -3 4 -7 291.94 8.69 0
 -3 4 -6 145.8 6.55 0
 -3 5 -14 50.4 5.45 0
 -3 5 -13 187.52 8.41 0
 -3 5 -12 53.87 5.42 0
 -3 5 -11 303.69 10.1 0
 -3 5 -10 6.52 3.04 0
 -3 5 -9 326.62 10.33 0
 -3 6 -15 1.73 3.98 0
 -3 6 -14 237.11 10.27 0
 -3 6 -13 33.15 5.44 0
 -3 6 -12 28.25 5.22 0
 -3 6 -11 466.44 13.36 0
 -3 6 -10 63.24 5.89 0
 -3 6 -9 6.4 3.61 0
 -3 6 -8 2.72 3.36 0
 -3 6 -7 2.94 3.8 0
 -3 6 -6 96.21 6.56 0
 -3 6 -5 242.74 9.86 0
 -3 7 -15 18.12 5.09 0
 -3 7 -14 8.76 4.46 0
 -3 7 -13 245.22 11.15 0
 -3 7 -12 222.15 10.73 0
 -3 7 -11 57.93 7.13 0
 -3 7 -10 65.18 6.34 0
 -3 7 -8 49.47 6.48 0
 -3 7 -6 185.45 9.62 0
 -3 7 -5 30.61 5.36 0
 -3 8 -15 119.16 9.17 0
 -3 8 -14 80.18 7.72 0
 -3 8 -13 17.06 5.24 0
 -3 8 -12 119.46 9.42 0
 -3 8 -11 126.99 9.53 0
 -3 8 -9 73.54 7.72 0
 -3 8 -8 196.63 10.48 0
 -3 8 -7 29.48 5.89 0
 -3 8 -6 2.33 4.43 0
 -3 8 -5 111.92 8.53 0
 -3 8 -4 24.74 5.36 0
 -3 9 -15 79.07 8.99 0
 -3 9 -14 -3.68 4.18 0
 -3 9 -13 5.67 4.85 0
 -3 9 -12 128.84 10.1 0
 -3 9 -11 94.3 9.47 0
 -3 9 -10 15.06 5.41 0
 -3 9 -9 -1.25 4.8 0
 -3 9 -8 152.05 10.1 0
 -3 9 -7 184.98 11.69 0
 -3 9 -6 87.88 9.07 0
 -3 9 -4 166.43 10.42 0
 -3 9 -3 1.02 4.28 0
 -3 9 -2 29.95 6.69 0
 -3 10 -13 -2.37 4.12 0
 -3 10 -12 53.86 8.62 0
 -3 10 -11 32.92 6.86 0
 -3 10 -10 109.89 10.62 0
 -3 10 -9 60.93 8.57 0
 -3 10 -8 36.33 7.06 0
 -3 10 -7 12.09 5.86 0
 -3 10 -6 61.22 8.31 0
 -3 10 -5 36.51 7.17 0
 -3 10 -3 174.12 11.66 0
 -3 10 -2 165.9 11.42 0
 -3 10 -1 54.44 7.87 0
 -3 11 -10 59.46 9.26 0
 -3 11 -9 14.66 6.84 0
 -3 11 -8 9.07 6.72 0
 -3 11 -7 104.84 10.99 0
 -3 11 -6 34.48 7.42 0
 -3 11 -5 8.15 6.21 0
 -3 11 -4 26.1 7.03 0
 -3 11 -3 17.79 6.88 0
 -3 11 -2 40.08 7.78 0
 -3 11 -1 127.42 10.65 0
 -3 11 0 153.76 11.57 0
 -3 11 1 142.79 10.99 0
 -3 12 -4 30.63 7.96 0
 -3 12 -3 108.37 10.4 0
 -3 12 -2 -4.55 5.42 0
 -3 12 -1 100.28 10.55 0
 -3 12 0 3.4 5.99 0
 -3 12 2 3.52 6.97 0
 -3 12 3 100.86 10.38 0
 -3 12 4 28.17 7.91 0
 -2 -1 -2 486.26 5.11 0
 -2 1 -11 15.52 2.1 0
 -2 1 -10 170.7 4.66 0
 -2 1 -9 189 4.59 0
 -2 1 -8 52 2.54 0
 -2 1 -7 306.53 5.14 0
 -2 1 -6 1465.72 10.55 0
 -2 1 -5 403.29 5.66 0
 -2 2 -14 44.7 4.05 0
 -2 2 -12 147.43 5.58 0
 -2 2 -11 51.08 3.76 0
 -2 2 -10 202.27 5.88 0
 -2 2 -8 309.19 6.73 0
 -2 2 -7 27.49 2.65 0
 -2 2 -6 53.98 2.98 0
 -2 2 -5 115.01 3.88 0
 -2 3 -16 81.13 5.73 0
 -2 3 -13 37.24 4.05 0
 -2 3 -12 21.31 3.45 0
 -2 3 -11 2.28 2.34 0
 -2 3 -10 276.39 7.75 0
 -2 3 -9 534.62 10.4 0
 -2 3 -8 330.99 8.09 0
 -2 3 -7 588.62 10.39 0
 -2 3 -6 235.98 6.58 0
 -2 3 -5 97.35 4.52 0
 -2 4 -16 198.95 8.85 0
 -2 4 -15 245.97 9.56 0
 -2 4 -7 558.81 11.62 0
 -2 4 -6 707.14 12.81 0
 -2 4 -5 60.5 4.25 0
 -2 5 -17 7.64 3.92 0
 -2 5 -16 150.54 8.59 0
 -2 5 -15 10.69 4.53 0
 -2 5 -14 110.29 7.3 0
 -2 5 -12 207.9 8.99 0
 -2 5 -10 337.34 10.57 0
 -2 6 -17 210.51 10.51 0
 -2 6 -16 33.81 6.28 0
 -2 6 -15 11.8 4.39 0
 -2 6 -14 22.23 5 0
 -2 6 -13 184.03 9.65 0
 -2 6 -12 3.87 3.55 0
 -2 6 -11 60.55 6.51 0
 -2 6 -8 216.83 9.1 0
 -2 6 -6 213.39 9.05 0
 -2 6 -5 84.48 6.58 0
 -2 7 -17 40.98 6.74 0
 -2 7 -16 30.88 6.2 0
 -2 7 -15 77.6 7.55 0
 -2 7 -14 77.1 7.35 0
 -2 7 -13 111.62 8.49 0
 -2 7 -11 163.78 9.66 0
 -2 7 -10 11.14 4.76 0
 -2 7 -9 64.92 7.18 0
 -2 7 -8 62.33 6.82 0
 -2 7 -7 137.29 8.67 0
 -2 7 -6 433.56 13.69 0
 -2 7 -5 432.26 13.32 0
 -2 7 -3 242.9 10.4 0
 -2 8 -17 288.42 13.64 0
 -2 8 -16 7.44 4.86 0
 -2 8 -15 113.88 9.2 0
 -2 8 -13 145.59 10.32 0
 -2 8 -12 144.69 10.28 0
 -2 8 -11 9.98 5.11 0
 -2 8 -10 48.55 6.82 0
 -2 8 -9 25.4 5.69 0
 -2 8 -8 21.68 5.36 0
 -2 8 -7 42.55 6.22 0
 -2 8 -4 107.92 8.01 0
 -2 8 -3 143.91 9.15 0
 -2 8 -2 138.8 8.76 0
 -2 9 -16 21.33 6.25 0
 -2 9 -13 56.24 8.27 0
 -2 9 -12 49.58 7.48 0
 -2 9 -11 21.82 6.34 0
 -2 9 -10 133.31 9.78 0
 -2 9 -9 9.43 6.11 0
 -2 9 -8 98.76 8.9 0
 -2 9 -7 16.04 5.19 0
 -2 9 -6 37.94 6.6 0
 -2 9 -5 279.21 12.88 0
 -2 9 -4 77.02 7.54 0
 -2 9 -3 11.88 4.75 0
 -2 9 -2 38.39 6.25 0
 -2 9 -1 65.63 7.88 0
 -2 10 -14 65.66 9.33 0
 -2 10 -13 12.96 5.95 0
 -2 10 -12 23.13 7.04 0
 -2 10 -10 32.64 7.09 0
 -2 10 -9 44.16 7.71 0
 -2 10 -8 40.96 7.4 0
 -2 10 -7 109.49 9.78 0
 -2 10 -6 18.27 6.22 0
 -2 10 -5 36.25 7.86 0
 -2 10 -4 11.71 5.48 0
 -2 10 -2 170.7 11.43 0
 -2 10 -1 97.25 9.43 0
 -2 10 0 2.2 4.81 0
 -2 10 1 92.74 8.56 0
 -2 11 -10 92.99 9.74 0
 -2 11 -9 8.89 6.02 0
 -2 11 -8 144.15 11.75 0
 -2 11 -7 39.64 8.64 0
 -2 11 -6 1 5.28 0
 -2 11 -5 36 7.7 0
 -2 11 -4 51.23 8.04 0
 -2 11 -3 38.79 8.44 0
 -2 11 -1 38.83 7.44 0
 -2 11 0 7.29 5.77 0
 -2 11 1 47.77 8.04 0
 -2 11 3 39.12 7.37 0
 -2 11 4 54.71 8.48 0
 -2 12 -7 37.2 7.97 0
 -2 12 -6 23.01 7.2 0
 -2 12 -5 26.26 7.98 0
 -2 12 -3 6.76 5.88 0
 -2 12 -2 101.71 10.21 0
 -2 12 -1 21.08 6.84 0
 -2 12 0 86.97 10.21 0
 -2 12 1 17.43 7.27 0
 -2 12 2 90.48 10.58 0
 -2 12 3 12.58 6.33 0
 -2 12 4 54.86 8.27 0
 -2 12 5 15.1 6.45 0
 -2 12 6 12.63 6.73 0
 -2 12 7 42.19 8.08 0
 -2 12 8 9.66 5.91 0
 -1 -1 0 5910.11 17.04 0
 -1 0 -6 2185.05 11.51 0
 -1 1 -11 446.36 9.22 0
 -1 1 -10 978.4 12.43 0
 -1 1 -9 229.25 5.88 0
 -1 1 -8 1035.43 11.31 0
 -1 1 -7 291.5 5.82 0
 -1 1 -6 2397.52 14.49 0
 -1 1 -5 1856.97 11.88 0
 -1 1 -3 210.58 3.65 0
 -1 2 -13 506.5 11.52 0
 -1 2 -11 475.15 10.35 0
 -1 2 -9 179.49 6 0
 -1 2 -7 1019.2 11.92 0
 -1 2 -6 415.34 7.53 0
 -1 2 -5 723.84 9.25 0
 -1 2 -4 2684.16 17.09 0
 -1 3 -16 164.3 8.26 0
 -1 3 -15 178.63 8.19 0
 -1 3 -10 491.16 10.65 0
 -1 3 -9 659.06 12.06 0
 -1 3 -8 1894.3 19.02 0
 -1 3 -6 292.97 7.3 0
 -1 3 -5 195.42 6.16 0
 -1 3 -4 791.6 11.15 0
 -1 4 -16 155.64 8.46 0
 -1 4 -15 50.16 5.9 0
 -1 4 -13 108.3 6.99 0
 -1 4 -9 328.3 9.56 0
 -1 4 -7 165.61 6.54 0
 -1 4 -6 433.06 9.95 0
 -1 4 -5 285.84 7.94 0
 -1 4 -3 1669.57 17.78 0
 -1 5 -18 80.49 8.15 0
 -1 5 -17 4.16 4.41 0
 -1 5 -16 2.02 3.99 0
 -1 5 -15 100.13 7.85 0
 -1 5 -14 48.74 6.27 0
 -1 5 -13 48.53 5.48 0
 -1 5 -10 77.8 5.9 0
 -1 5 -5 160.16 6.94 0
 -1 5 -4 631.53 12.76 0
 -1 5 -3 80.88 4.94 0
 -1 6 -19 79.79 8.91 0
 -1 6 -18 51.92 7.43 0
 -1 6 -17 56.07 7.2 0
 -1 6 -16 292.31 12.56 0
 -1 6 -15 311.66 12.73 0
 -1 6 -14 51.11 6.67 0
 -1 6 -13 66.23 6.91 0
 -1 6 -12 26.14 5.01 0
 -1 6 -11 192.88 9.63 0
 -1 6 -10 4.01 3.42 0
 -1 6 -9 123.29 7.54 0
 -1 6 -8 107.61 6.78 0
 -1 6 -7 129.4 7.22 0
 -1 7 -19 32.38 6.52 0
 -1 7 -18 47.32 7.52 0
 -1 7 -17 217.87 12.47 0
 -1 7 -16 35.36 7.15 0
 -1 7 -15 91.41 8.39 0
 -1 7 -14 106.14 9.12 0
 -1 7 -13 138.71 9.91 0
 -1 7 -12 39.54 6 0
 -1 7 -11 385.91 13.57 0
 -1 7 -10 174.98 9.98 0
 -1 7 -9 156.73 9.12 0
 -1 7 -8 136.85 8.2 0
 -1 7 -7 340.07 12.17 0
 -1 7 -6 63.99 6.29 0
 -1 7 -5 21.99 4.37 0
 -1 7 -4 23.46 4.73 0
 -1 7 -3 218.95 9.39 0
 -1 7 -2 95.45 6.66 0
 -1 7 -1 21.51 4.19 0
 -1 8 -19 24.55 6.87 0
 -1 8 -18 13.53 6.35 0
 -1 8 -17 18.66 6.05 0
 -1 8 -16 17.34 6.24 0
 -1 8 -15 75.64 8.96 0
 -1 8 -14 19.62 6.09 0
 -1 8 -13 255.79 13.12 0
 -1 8 -12 34.78 6.51 0
 -1 8 -10 322.39 13.56 0
 -1 8 -9 156.15 9.63 0
 -1 8 -8 46.48 7.05 0
 -1 8 -7 10.65 4.41 0
 -1 8 -6 70.49 6.73 0
 -1 8 -5 372.43 13.28 0
 -1 8 -4 3.99 4.15 0
 -1 8 -3 165.68 9.35 0
 -1 8 -2 227.11 10.58 0
 -1 8 -1 275.54 11.21 0
 -1 8 0 307.25 11.66 0
 -1 9 -17 13.04 6.42 0
 -1 9 -16 14.76 7.18 0
 -1 9 -15 138.96 11.31 0
 -1 9 -14 61.19 8.38 0
 -1 9 -13 17.54 7.2 0
 -1 9 -12 108.87 10.26 0
 -1 9 -11 1.27 4.62 0
 -1 9 -10 17.06 5.61 0
 -1 9 -9 30.26 6.21 0
 -1 9 -8 45.3 6.84 0
 -1 9 -7 280.47 13.15 0
 -1 9 -5 246.93 12.03 0
 -1 9 -4 249.94 11.81 0
 -1 9 -3 84.44 7.67 0
 -1 9 -2 88.96 8.54 0
 -1 9 -1 74.45 6.9 0
 -1 9 0 215.93 11.11 0
 -1 9 1 64.52 6.8 0
 -1 9 2 76.97 7.28 0
 -1 10 -15 -2.33 5.62 0
 -1 10 -14 273.2 14.76 0
 -1 10 -13 60.63 8.64 0
 -1 10 -12 107.89 9.82 0
 -1 10 -11 -1.71 4.87 0
 -1 10 -10 153.56 11.09 0
 -1 10 -9 31.53 7.09 0
 -1 10 -8 253.42 13.42 0
 -1 10 -7 89.13 9.59 0
 -1 10 -6 17.8 6.06 0
 -1 10 -5 23.41 6.02 0
 -1 10 -4 20.25 6.19 0
 -1 10 -3 74.06 8.04 0
 -1 10 -2 132.4 10.56 0
 -1 10 -1 4.96 4.55 0
 -1 10 0 5.98 4.73 0
 -1 10 1 5.52 4.84 0
 -1 10 2 148.97 9.76 0
 -1 10 3 67.31 8.3 0
 -1 11 -12 54.34 9.02 0
 -1 11 -11 6.71 5.96 0
 -1 11 -10 14.61 6.83 0
 -1 11 -9 225.64 14.04 0
 -1 11 -8 88.93 10.03 0
 -1 11 -7 38.42 8.4 0
 -1 11 -6 169.09 11.49 0
 -1 11 -5 11.71 7.23 0
 -1 11 -4 151.82 11.42 0
 -1 11 -3 -2.74 4.89 0
 -1 11 -2 37.84 7.27 0
 -1 11 -1 55.09 8.22 0
 -1 11 0 3.07 5.12 0
 -1 11 1 65.65 8.6 0
 -1 11 3 10.67 6.38 0
 -1 11 4 177.47 11.2 0
 -1 11 6 169.84 11.68 0
 -1 11 7 39.58 7.84 0
 -1 11 8 79.18 9.77 0
 -1 12 -8 54.1 9.1 0
 -1 12 -7 2.65 5.9 0
 -1 12 -6 7.64 7.29 0
 -1 12 -5 98.36 11.24 0
 -1 12 -4 33.75 7.7 0
 -1 12 -3 197.63 12.72 0
 -1 12 -2 67.63 9.1 0
 -1 12 0 24.38 7.29 0
 -1 12 1 19.59 6.41 0
 -1 12 2 79.88 9.9 0
 -1 12 3 194.56 12.64 0
 -1 12 4 33.45 7.97 0
 -1 12 5 87.53 10.54 0
 -1 12 6 7.14 5.55 0
 -1 12 7 0.02 5.09 0
 -1 12 8 56.55 8.39 0
 -1 12 10 111.54 10.04 0
 0 -1 1 2340.5 10.07 0
 0 0 -4 5175.67 19.02 0
 0 0 -3 1.44 0.98 0
 0 0 -2 1331.69 6.67 0
 0 0 3 -0.57 1.09 0
 0 1 -10 121.97 5.68 0
 0 1 -9 47.07 3.71 0
 0 1 -8 61.31 4.11 0
 0 1 -7 2297.92 18.13 0
 0 1 -6 535.53 8.33 0
 0 1 -5 412.2 6.61 0
 0 1 -4 4859.31 20.05 0
 0 1 -3 2002.95 11.62 0
 0 1 -2 598.6 5.82 0
 0 2 -12 14.93 4.08 0
 0 2 -11 1115.62 16.77 0
 0 2 -10 3.21 2.44 0
 0 2 -9 8.71 2.52 0
 0 2 -7 1044.26 13.19 0
 0 2 -6 3083.73 21.13 0
 0 2 -5 575.72 8.74 0
 0 2 -4 7255.32 28.64 0
 0 2 -3 4975.41 22.35 0
 0 2 -2 222.9 4.86 0
 0 2 -1 5838.26 21.53 0
 0 3 -15 231.8 10.4 0
 0 3 -14 5.24 3.53 0
 0 3 -13 231.58 9.6 0
 0 3 -10 1.5 2.48 0
 0 3 -9 934.9 15.05 0
 0 3 -8 21.29 3.33 0
 0 3 -7 463.39 9.66 0
 0 3 -6 55.26 3.71 0
 0 3 -5 7.72 2.72 0
 0 3 -3 3680.39 22.99 0
 0 3 -2 698.44 9.98 0
 0 3 -1 119.22 4.65 0
 0 4 -17 521.15 16.19 0
 0 4 -16 83.06 7.86 0
 0 4 -15 687.29 17.25 0
 0 4 -14 21.44 4.88 0
 0 4 -12 114.53 7.5 0
 0 4 -8 827.06 14.78 0
 0 4 -7 1221.06 17.05 0
 0 4 -6 356.8 9.15 0
 0 4 -5 607.92 11.53 0
 0 4 -4 374.44 9.01 0
 0 4 -3 3893.89 27.11 0
 0 4 -2 1681.97 17.35 0
 0 5 -18 294.38 13.73 0
 0 5 -17 52.19 7.26 0
 0 5 -16 233.02 12.06 0
 0 5 -15 60.23 6.63 0
 0 5 -14 252.95 11.63 0
 0 5 -13 100.7 7.58 0
 0 5 -12 -3.45 3.11 0
 0 5 -11 21.5 4.76 0
 0 5 -10 4.24 3.46 0
 0 5 -9 11.95 3.42 0
 0 6 -19 -2.95 5.34 0
 0 6 -17 369.76 15.25 0
 0 6 -16 4.51 5.14 0
 0 6 -15 184.03 10.73 0
 0 6 -13 406.33 14.2 0
 0 6 -12 94.61 8.14 0
 0 6 -11 10.92 4.24 0
 0 6 -10 72.53 7.21 0
 0 6 -9 20.82 4.5 0
 0 6 -7 2.19 3.04 0
 0 6 -6 80.18 5.76 0
 0 7 -20 11.08 6.78 0
 0 7 -19 2.06 5.36 0
 0 7 -18 55.69 8.19 0
 0 7 -17 4.77 5.84 0
 0 7 -16 181.59 11.65 0
 0 7 -15 -0.88 4.77 0
 0 7 -14 14.72 5.91 0
 0 7 -13 7.85 4.69 0
 0 7 -12 95.96 8.2 0
 0 7 -11 277.42 12.5 0
 0 7 -9 38.31 5.85 0
 0 7 -8 2.65 4.39 0
 0 7 -6 27.71 4.68 0
 0 7 -5 688.69 16.11 0
 0 7 -4 2.36 3.1 0
 0 7 -3 122.37 7.28 0
 0 7 -2 87.79 6.2 0
 0 7 -1 215.95 9.11 0
 0 7 0 3.79 3.43 0
 0 8 -18 137.15 11.35 0
 0 8 -17 152.61 11.69 0
 0 8 -16 109.9 11.05 0
 0 8 -14 455.33 17.47 0
 0 8 -13 2.96 4.88 0
 0 8 -12 16.09 5.54 0
 0 8 -11 16.68 5.42 0
 0 8 -10 5.67 4.28 0
 0 8 -9 77.28 8.39 0
 0 8 -8 159.22 9.97 0
 0 8 -7 165.33 9.7 0
 0 8 -5 121.43 8.67 0
 0 8 -4 423 13.84 0
 0 8 -3 18.74 4.69 0
 0 8 -2 352.49 12.36 0
 0 8 -1 357.1 12.3 0
 0 8 0 12.96 4.38 0
 0 8 1 367.06 12.11 0
 0 8 2 377.41 12.39 0
 0 8 3 19.2 4.42 0
 0 9 -17 22.28 7.02 0
 0 9 -15 58.7 8.85 0
 0 9 -14 56.6 8.8 0
 0 9 -13 86.55 10.41 0
 0 9 -12 44.24 7.6 0
 0 9 -11 132.8 10.14 0
 0 9 -10 227.24 12.28 0
 0 9 -9 385.52 15.1 0
 0 9 -8 44.87 6.92 0
 0 9 -7 31.28 6.13 0
 0 9 -6 34.03 6.26 0
 0 9 -5 80.03 7.29 0
 0 9 -4 0.39 3.87 0
 0 9 -3 52.17 6.78 0
 0 9 -2 65.24 6.76 0
 0 9 -1 128.19 8.73 0
 0 9 0 -0.25 4.12 0
 0 9 2 66.51 6.71 0
 0 9 3 51.3 6.22 0
 0 9 4 5.09 3.84 0
 0 9 5 76.58 7.35 0
 0 9 6 31.36 5.18 0
 0 10 -15 1.38 6.23 0
 0 10 -14 70.5 9.81 0
 0 10 -13 40.08 8.09 0
 0 10 -12 63.1 8.91 0
 0 10 -11 -4.33 5.32 0
 0 10 -9 43.7 7.45 0
 0 10 -8 29.36 6.67 0
 0 10 -7 187.6 11.78 0
 0 10 -6 36.6 6.88 0
 0 10 -5 16.54 5.33 0
 0 10 -4 93.34 9.15 0
 0 10 -3 92.84 8.5 0
 0 10 -2 972.21 22.85 0
 0 10 -1 23.51 6.44 0
 0 10 0 78.16 8.57 0
 0 10 1 38.08 7.03 0
 0 10 2 1001.54 22.77 0
 0 10 3 98.52 8.25 0
 0 10 4 77.6 8.29 0
 0 10 5 8.07 4.59 0
 0 10 6 24.06 5.71 0
 0 10 7 209.41 11.14 0
 0 10 8 29.33 6.23 0
 0 10 9 38.17 5.88 0
 0 11 -12 2.59 5.96 0
 0 11 -10 22.76 7.04 0
 0 11 -9 34.74 7.71 0
 0 11 -8 110.23 10.43 0
 0 11 -7 29.65 7.83 0
 0 11 -6 159.13 11.29 0
 0 11 -5 3.04 4.97 0
 0 11 -4 70.16 9.23 0
 0 11 -2 0.43 5.52 0
 0 11 -1 8.38 5.99 0
 0 11 0 2.28 5.5 0
 0 11 1 10.3 5.39 0
 0 11 2 -1.46 4.71 0
 0 11 3 357.95 14.93 0
 0 11 4 77.76 9.36 0
 0 11 5 -1.53 4.38 0
 0 11 6 149.41 10.04 0
 0 11 7 36.24 6.59 0
 0 11 8 87.31 8.74 0
 0 11 9 46.26 6.49 0
 0 12 -8 15.2 7.03 0
 0 12 -7 3.54 6.53 0
 0 12 -6 -3.81 4.86 0
 0 12 -5 12.54 6.41 0
 0 12 -4 9.02 5.94 0
 0 12 -3 9.66 6.03 0
 0 12 -2 101.16 10.68 0
 0 12 -1 136.13 11.36 0
 0 12 0 105.39 9.83 0
 0 12 1 134.39 11.45 0
 0 12 2 87.76 9.45 0
 0 12 3 17.97 6.74 0
 0 12 4 7.16 5.94 0
 0 12 5 12.33 6.06 0
 0 12 6 1.97 5.11 0
 0 12 7 8.83 5.39 0
 0 12 8 18.55 5.22 0
 0 13 -2 206.78 14.13 0
 0 13 -1 31.86 7.63 0
 0 13 0 1.56 5.8 0
 0 13 1 35.23 7.65 0
 0 13 2 219.7 13.58 0
 0 13 3 1.24 5.94 0
 0 13 4 10.32 6.23 0
 0 13 5 18.87 6.95 0
 1 1 -8 1012.25 14.91 0
 1 1 -7 292.12 7.71 0
 1 1 -5 1827.65 16.38 0
 1 1 -4 437.8 7.65 0
 1 1 -3 222.46 5.22 0
 1 1 -1 2602.22 13.39 0
 1 1 0 5778.58 17.17 0
 1 1 1 2697.01 9.72 0
 1 2 -10 120.44 6.34 0
 1 2 -9 170.79 6.93 0
 1 2 -8 995.45 15.17 0
 1 2 -7 1075.64 15.13 0
 1 2 -2 4079.3 20.76 0
 1 2 -1 6749.94 24.76 0
 1 2 0 146.92 3.75 0
 1 2 1 6606.78 20.83 0
 1 2 2 4101.89 15.59 0
 1 3 -14 233.71 10.83 0
 1 3 -13 387.23 12.88 0
 1 3 -12 103.97 7.35 0
 1 3 -9 651.58 13.95 0
 1 3 -8 1926.76 22.32 0
 1 3 -6 299.52 8.41 0
 1 3 -4 824.58 12.31 0
 1 3 -2 234.85 6.09 0
 1 3 0 5.75 1.83 0
 1 3 1 53.77 3.09 0
 1 3 2 230.95 5.17 0
 1 4 -16 152.81 10.6 0
 1 4 -14 282.53 12.24 0
 1 4 -13 93.5 7.69 0
 1 4 -11 127.75 7.75 0
 1 4 -10 10.69 3.42 0
 1 4 -3 1696.57 18.19 0
 1 4 -2 1359.59 15.73 0
 1 4 -1 337.24 7.86 0
 1 4 0 240.65 6.45 0
 1 4 1 332.21 7.45 0
 1 4 2 1405.08 14.21 0
 1 4 3 1640.27 14.87 0
 1 5 -17 -4.77 5.26 0
 1 5 -16 3.01 5.42 0
 1 5 -14 43.61 7.13 0
 1 5 -12 105.13 8.38 0
 1 5 -11 215.09 10.38 0
 1 5 -10 95.63 6.9 0
 1 6 -18 53.59 8.79 0
 1 6 -17 71.17 9.68 0
 1 6 -16 257.04 13.82 0
 1 6 -15 322.21 14.76 0
 1 6 -14 44.6 7.61 0
 1 6 -11 197.63 10.69 0
 1 6 -10 8.32 4.31 0
 1 6 -9 117.68 7.74 0
 1 6 -8 112.71 7.79 0
 1 6 -7 132.44 7.54 0
 1 6 0 80.96 5.28 0
 1 6 1 195.8 7.39 0
 1 6 2 88.15 5.5 0
 1 6 4 595.8 11.73 0
 1 6 5 1121.22 15.92 0
 1 7 -19 33.8 7.97 0
 1 7 -18 31.61 7.49 0
 1 7 -17 197.69 13.13 0
 1 7 -15 88.8 10.11 0
 1 7 -14 109.05 10.49 0
 1 7 -13 136.86 10.75 0
 1 7 -12 43.87 7.57 0
 1 7 -11 387.72 14.77 0
 1 7 -10 175.51 10 0
 1 7 -9 171.42 9.51 0
 1 7 -8 124.73 8 0
 1 7 -7 337.66 12.1 0
 1 7 -6 62.79 6.03 0
 1 7 -5 15.61 4.21 0
 1 7 -4 22.77 4.65 0
 1 7 -2 107.36 6.98 0
 1 7 -1 17.35 3.84 0
 1 8 -18 8.76 7.63 0
 1 8 -17 15.16 7.45 0
 1 8 -16 11.36 6.18 0
 1 8 -15 60.85 8.85 0
 1 8 -14 14.41 6.25 0
 1 8 -13 265.71 14.02 0
 1 8 -11 198.33 12.04 0
 1 8 -9 133.95 9.39 0
 1 8 -8 58.39 7.58 0
 1 8 -7 12.82 4.69 0
 1 8 -6 65.52 6.69 0
 1 8 -5 384.52 13.47 0
 1 8 -4 3.92 3.59 0
 1 8 -3 177.95 9.2 0
 1 8 -2 220.92 10.07 0
 1 8 -1 278.27 10.89 0
 1 8 0 319.9 11.26 0
 1 8 1 284.61 10.86 0
 1 8 2 199.74 9.29 0
 1 8 3 174.18 8.72 0
 1 8 4 8.27 3.84 0
 1 8 5 382.84 11.79 0
 1 8 6 66.57 5.56 0
 1 8 7 8.01 3.61 0
 1 9 -16 18.23 7.08 0
 1 9 -15 149.18 11.95 0
 1 9 -14 46.67 9.03 0
 1 9 -13 20.46 7.64 0
 1 9 -12 110.71 9.95 0
 1 9 -11 4.18 5.72 0
 1 9 -10 22.37 6.25 0
 1 9 -9 46.74 7.36 0
 1 9 -8 49.72 7.92 0
 1 9 -7 286.15 12.79 0
 1 9 -6 37.85 6.85 0
 1 9 -5 261.74 11.94 0
 1 9 -4 217.93 11.12 0
 1 9 -2 95.37 7.78 0
 1 9 -1 69.34 6.72 0
 1 9 0 203.93 9.98 0
 1 9 1 64.89 6.62 0
 1 9 2 79.01 6.69 0
 1 9 3 85.98 7.28 0
 1 9 4 247.07 10.83 0
 1 9 5 247.02 10.43 0
 1 9 6 33.39 5.01 0
 1 9 7 276.88 10.86 0
 1 10 -14 271.45 16.09 0
 1 10 -13 51.23 9.49 0
 1 10 -12 95.99 10.12 0
 1 10 -11 2.22 6.8 0
 1 10 -10 178.03 11.97 0
 1 10 -9 17.95 7.29 0
 1 10 -8 249.9 13.68 0
 1 10 -7 97.49 9.1 0
 1 10 -6 16.17 6.63 0
 1 10 -5 26.18 6.58 0
 1 10 -4 27.51 6.04 0
 1 10 -3 65.78 7.72 0
 1 10 -1 10.14 4.68 0
 1 10 0 -0.28 4.1 0
 1 10 1 0.73 4.67 0
 1 10 2 130.45 8.73 0
 1 10 3 64.41 7.88 0
 1 10 4 30.56 5.7 0
 1 10 5 19.83 5.25 0
 1 10 6 16.54 5.27 0
 1 10 7 102.53 7.75 0
 1 11 -12 57.03 10 0
 1 11 -11 4.07 6.33 0
 1 11 -10 17.61 6.79 0
 1 11 -9 213.07 14.12 0
 1 11 -8 73.13 10.08 0
 1 11 -7 50.03 8.12 0
 1 11 -6 196.77 12.46 0
 1 11 -5 15.49 6.11 0
 1 11 -4 175.69 11.55 0
 1 11 -3 11.55 5.83 0
 1 11 -1 55.47 8.47 0
 1 11 0 9.69 5.17 0
 1 11 3 1.41 5.36 0
 1 11 4 154.94 10.33 0
 1 11 5 10.62 4.96 0
 1 11 6 202.98 10.93 0
 1 12 -8 63.22 9.77 0
 1 12 -7 1.47 5.45 0
 1 12 -6 15.91 6.45 0
 1 12 -5 96.43 9.79 0
 1 12 -4 41.06 7.9 0
 1 12 -3 214.58 13.48 0
 1 12 -2 86.76 10.59 0
 1 12 -1 16.65 6.11 0
 1 12 0 34.33 7.41 0
 1 12 1 16.71 6.17 0
 1 12 2 66.86 8.32 0
 1 12 3 219.9 12.16 0
 1 12 4 29.25 6.21 0
 1 12 5 86.66 8.15 0
 1 13 -2 54.43 9.28 0
 1 13 -1 26.37 6.95 0
 1 13 0 45.26 8.47 0
 1 13 1 26.62 7.5 0
 1 13 2 42.57 8.19 0
 1 13 3 7.65 5.87 0
 1 13 4 16.11 6.41 0
 2 2 -5 115.52 5.3 0
 2 2 -4 135.18 5.86 0
 2 2 -3 308.05 7.48 0
 2 2 -2 1056.43 12.68 0
 2 2 -1 254.02 6.07 0
 2 2 0 4867.77 23.02 0
 2 2 2 1028.88 8.7 0
 2 2 3 323.48 4.4 0
 2 2 4 130.78 2.31 0
 2 3 -12 13.85 4.4 0
 2 3 -11 2.35 4.01 0
 2 3 -3 1441.51 16.62 0
 2 3 -2 63.15 4.11 0
 2 3 -1 1202.18 13.58 0
 2 3 0 1332.98 13.57 0
 2 3 1 1139.66 11.59 0
 2 3 2 64.64 3.06 0
 2 3 3 1437.25 11.25 0
 2 3 4 1213.11 9.6 0
 2 3 5 90.89 2.58 0
 2 3 6 225.27 3.5 0
 2 3 7 593.13 4.97 0
 2 4 -14 60.61 7.5 0
 2 4 -13 66.18 7.88 0
 2 4 -11 7.81 3.85 0
 2 4 1 443.73 8.56 0
 2 4 2 381.36 7.61 0
 2 4 3 1646.32 14.53 0
 2 4 4 250.09 5.61 0
 2 4 5 61.71 2.92 0
 2 4 6 704.71 8.42 0
 2 4 7 573.16 7.26 0
 2 4 8 361.81 5.63 0
 2 5 -16 174.65 11.78 0
 2 5 -15 6.91 5.96 0
 2 5 -14 124.96 9.45 0
 2 5 -13 186.67 11.22 0
 2 5 -12 216.69 10.99 0
 2 5 -11 27.09 5.55 0
 2 5 -10 362.2 12.91 0
 2 5 -9 117.42 7.84 0
 2 5 -8 194.05 9 0
 2 5 -3 761.15 14.16 0
 2 5 -2 254.6 8.26 0
 2 5 -1 71.87 4.97 0
 2 5 1 75.43 4.6 0
 2 5 2 246.97 7.03 0
 2 5 3 733.13 11.38 0
 2 5 4 652.38 10.45 0
 2 5 5 346.95 7.58 0
 2 5 6 299.13 6.78 0
 2 5 7 63.3 3.36 0
 2 5 8 219.84 5.49 0
 2 6 -17 228.87 13.84 0
 2 6 -15 7.01 6.64 0
 2 6 -13 195.24 12.03 0
 2 6 -12 0.29 4.41 0
 2 6 -11 67.4 7.97 0
 2 6 -9 414.64 14.31 0
 2 6 -7 110.05 7.66 0
 2 6 -6 202.65 9.23 0
 2 6 -5 81.86 6.38 0
 2 6 -4 141.41 7.37 0
 2 6 0 190.26 7.51 0
 2 6 1 950.01 15.41 0
 2 6 2 206.84 7.45 0
 2 6 3 103.51 5.39 0
 2 6 4 149.71 6.11 0
 2 6 5 84.53 4.67 0
 2 6 6 200.71 6.59 0
 2 6 7 112.38 4.82 0
 2 7 -16 28.12 7.32 0
 2 7 -15 83.03 10.59 0
 2 7 -13 120.57 10.74 0
 2 7 -12 108.34 9.25 0
 2 7 -11 166.25 11.2 0
 2 7 -10 19.48 5.38 0
 2 7 -9 56.76 7.52 0
 2 7 -8 63.37 6.9 0
 2 7 -7 141.74 9.33 0
 2 7 -4 146.83 8.55 0
 2 7 -3 264.01 10.16 0
 2 7 -2 135.65 7.48 0
 2 7 -1 313.91 10.6 0
 2 7 7 142.92 6.07 0
 2 8 -17 305.07 16.2 0
 2 8 -15 111.88 10.7 0
 2 8 -14 66.31 10.03 0
 2 8 -13 153.73 11.48 0
 2 8 -11 13.62 6.03 0
 2 8 -10 32.03 7.1 0
 2 8 -9 16.36 5.87 0
 2 8 -8 27.17 5.84 0
 2 8 -7 49.77 6.93 0
 2 8 -6 159.67 10 0
 2 8 -5 58.32 7.05 0
 2 8 -4 108.23 7.71 0
 2 8 -3 141.58 8.37 0
 2 8 -2 142.63 8.57 0
 2 8 -1 358.07 12.15 0
 2 8 0 57.42 5.73 0
 2 8 1 357.1 11.54 0
 2 8 2 138.31 7.59 0
 2 8 3 152.65 7.85 0
 2 8 4 109.6 6.63 0
 2 8 5 56.73 5 0
 2 8 6 156.03 7.2 0
 2 9 -14 259.17 15.76 0
 2 9 -13 57.65 8.92 0
 2 9 -12 63.43 9.35 0
 2 9 -11 13.81 7.32 0
 2 9 -10 124.87 10.36 0
 2 9 -9 10.97 5.58 0
 2 9 -7 17.86 6.23 0
 2 9 -6 31.17 6.37 0
 2 9 -5 296.67 13.2 0
 2 9 -3 9.47 4.49 0
 2 9 -2 32.54 6.1 0
 2 9 -1 59.96 7.36 0
 2 9 0 32.14 5.37 0
 2 9 1 63.54 7.1 0
 2 9 2 35.59 5.43 0
 2 9 3 10.19 3.97 0
 2 9 5 302.22 10.56 0
 2 10 -13 9.91 6.55 0
 2 10 -11 96.47 11.87 0
 2 10 -10 29.31 7.43 0
 2 10 -9 44.62 7.88 0
 2 10 -8 25.37 6.9 0
 2 10 -6 31.27 6.81 0
 2 10 -5 33.07 6.43 0
 2 10 -4 23.55 6.03 0
 2 10 -3 92.29 9.12 0
 2 10 -2 174.25 11.09 0
 2 10 -1 79.04 7.68 0
 2 10 0 1.84 4.53 0
 2 10 1 97.65 7.88 0
 2 10 2 177.31 10.22 0
 2 10 3 80.3 7.59 0
 2 10 4 13.26 4.43 0
 2 11 -11 56.61 9.68 0
 2 11 -10 84.63 10.62 0
 2 11 -9 12.99 7 0
 2 11 -8 123.75 11.69 0
 2 11 -7 29.38 7.4 0
 2 11 -6 7.22 5.59 0
 2 11 -4 61.96 8.83 0
 2 11 -3 37.76 7.42 0
 2 11 -2 22.52 6.25 0
 2 11 -1 44.43 7.76 0
 2 11 0 6.94 5.25 0
 2 11 1 43.8 6.75 0
 2 11 2 18.03 5.36 0
 2 11 3 27.93 5.38 0
 2 11 4 57.62 6.13 0
 2 12 -7 24.19 7.06 0
 2 12 -5 34.22 8.24 0
 2 12 -4 51.09 8.41 0
 2 12 -3 -2.62 6.05 0
 2 12 -2 80.88 9.72 0
 2 12 -1 22.71 6.26 0
 2 12 0 73.61 9.29 0
 2 12 1 23.25 6.63 0
 2 12 2 94.69 9.36 0
 2 12 3 12.22 5.18 0
 2 13 1 71.82 9.08 0
 2 13 2 32.53 6.89 0
 3 3 -9 858.76 18.47 0
 3 3 -8 588.08 15.09 0
 3 3 -5 1980.67 23.8 0
 3 3 -3 631.8 12.4 0
 3 3 2 165.7 4.84 0
 3 3 3 637.89 8.43 0
 3 3 4 401.06 6.02 0
 3 4 -10 156.11 9.7 0
 3 4 -8 56.39 5.68 0
 3 4 -7 286.85 10.72 0
 3 4 -3 66.31 5.02 0
 3 4 -2 303.39 8.98 0
 3 4 -1 31.45 4.09 0
 3 4 1 25.43 3.01 0
 3 4 6 159.42 3.57 0
 3 5 -13 210.56 12.6 0
 3 5 -12 46.87 7.8 0
 3 5 -11 292.74 13.45 0
 3 5 -10 3.39 5.29 0
 3 5 -9 352.17 13.44 0
 3 5 -8 77.68 7.47 0
 3 5 -7 127.83 7.97 0
 3 5 -5 157.04 8.05 0
 3 5 -1 314.14 9.23 0
 3 5 1 336.94 8.89 0
 3 5 2 786.35 12.56 0
 3 5 3 218.86 6.43 0
 3 5 4 470.97 8.79 0
 3 5 5 151.66 4.85 0
 3 5 6 224.93 5.26 0
 3 6 -15 2.39 5.55 0
 3 6 -14 242.49 13.74 0
 3 6 -13 33.45 6.74 0
 3 6 -12 34.87 7.05 0
 3 6 -11 489.29 17.32 0
 3 6 -10 62.95 8.25 0
 3 6 -9 5.91 5.07 0
 3 6 -8 0.76 4.58 0
 3 6 -7 4.24 4.21 0
 3 6 -6 89.21 7.14 0
 3 6 -5 244.08 10.22 0
 3 6 1 335.36 9.65 0
 3 6 2 46.42 4.39 0
 3 6 3 55.5 4.2 0
 3 6 4 289.27 7.85 0
 3 6 5 244.09 6.84 0
 3 7 -15 18.81 7.11 0
 3 7 -12 234.73 13.96 0
 3 7 -10 62.48 8.16 0
 3 7 -9 44.01 7.38 0
 3 7 -8 56.77 7.9 0
 3 7 -7 542.69 17 0
 3 7 -6 180.53 10.39 0
 3 7 -5 18.94 4.87 0
 3 7 -4 21.03 4.77 0
 3 7 -2 216.91 9.55 0
 3 7 -1 370.81 11.73 0
 3 7 0 3.24 2.84 0
 3 8 -16 37.62 9.04 0
 3 8 -15 121.84 12.59 0
 3 8 -14 72.38 10.11 0
 3 8 -13 21.17 7.19 0
 3 8 -12 122.19 10.7 0
 3 8 -11 129.7 10.46 0
 3 8 -10 67.78 8.63 0
 3 8 -9 90.98 9.07 0
 3 8 -8 170.42 10.98 0
 3 8 -7 32.68 6.25 0
 3 8 -6 10.04 5.03 0
 3 8 -5 103.28 9 0
 3 8 -4 17.58 4.91 0
 3 8 -3 69.34 7.03 0
 3 8 -2 107.1 8.13 0
 3 8 -1 8.79 3.93 0
 3 8 0 615.25 15.27 0
 3 8 1 9.31 3.67 0
 3 8 2 105.25 6.9 0
 3 8 3 76.61 5.67 0
 3 9 -14 -1.49 5.69 0
 3 9 -12 127.5 11.49 0
 3 9 -11 78.69 9.79 0
 3 9 -10 15.22 6.52 0
 3 9 -9 2.54 5.48 0
 3 9 -8 160 11.83 0
 3 9 -7 198.51 12.84 0
 3 9 -5 298.36 13.35 0
 3 9 -4 150.56 10.52 0
 3 9 -3 -0.46 4.02 0
 3 9 -2 26.01 6.11 0
 3 9 -1 2.31 3.8 0
 3 9 0 77.43 6.8 0
 3 9 1 -0.18 3.11 0
 3 9 2 33.9 5.03 0
 3 9 3 -1.64 2 0
 3 10 -10 118.45 11.22 0
 3 10 -9 66.58 9.05 0
 3 10 -8 21.79 7.02 0
 3 10 -7 18.12 7.1 0
 3 10 -6 51.7 8.33 0
 3 10 -5 28.15 6.8 0
 3 10 -4 87.16 9.41 0
 3 10 -3 169.57 11.27 0
 3 10 -2 157.86 10.11 0
 3 10 0 85.11 8.37 0
 3 10 1 51.31 6.94 0
 3 11 -9 14.39 7.35 0
 3 11 -8 23.23 7.8 0
 3 11 -7 113.4 10.64 0
 3 11 -6 25.33 7.65 0
 3 11 -5 11.18 6.09 0
 3 11 -4 35.48 8 0
 3 11 -3 13.6 5.65 0
 3 11 -2 32.29 6.59 0
 3 11 -1 148.29 10.61 0
 3 11 0 149.11 10.31 0
 3 11 1 147.88 9.4 0
 3 12 -5 23.84 7.09 0
 3 12 -4 30.53 7.57 0
 3 12 -2 7.47 5.82 0
 3 12 -1 104.97 10.06 0
 3 12 0 -0.53 4.77 0
 4 4 -6 59.49 7.19 0
 4 4 -5 25.33 4.82 0
 4 4 -1 283.03 9.35 0
 4 4 0 13.3 3.06 0
 4 4 1 295.02 8.24 0
 4 5 -9 158.16 10.23 0
 4 5 -8 577.59 17.71 0
 4 5 -6 393.5 13.34 0
 4 5 -5 97.3 7.2 0
 4 5 -4 381.35 12.33 0
 4 5 1 66.57 4.91 0
 4 5 2 126.94 5.9 0
 4 5 3 69.01 4.11 0
 4 6 -10 3.48 5.09 0
 4 6 -9 38.86 7.02 0
 4 6 -8 106.95 9.41 0
 4 6 -7 46.99 6.8 0
 4 6 -6 4.63 4.38 0
 4 6 -5 17.45 5.53 0
 4 6 -3 31.74 5.56 0
 4 6 -2 26.37 4.67 0
 4 6 -1 144.44 7.6 0
 4 6 2 21.82 3.34 0
 4 7 -12 125.25 11.93 0
 4 7 -10 116.08 10.24 0
 4 7 -9 57.03 8.74 0
 4 7 -8 104.1 9.19 0
 4 7 -7 259.28 13.16 0
 4 7 -6 101.01 8.42 0
 4 7 -5 154.97 9.63 0
 4 7 -4 6.35 4.25 0
 4 7 -3 89.58 7.78 0
 4 7 -2 291.05 11.3 0
 4 7 -1 217.28 9.66 0
 4 7 0 22.46 4.71 0
 4 7 1 220.53 9.03 0
 4 8 -13 109.46 12.21 0
 4 8 -12 215.05 14.1 0
 4 8 -11 84.86 10.49 0
 4 8 -10 61.62 9.34 0
 4 8 -9 101.01 9.59 0
 4 8 -8 5.94 6.01 0
 4 8 -7 39.81 6.96 0
 4 8 -6 7.34 5.97 0
 4 8 -5 18.86 5.59 0
 4 8 -3 70.22 7.34 0
 4 8 -2 114.83 8.14 0
 4 8 -1 26.96 5.41 0
 4 9 -13 64.88 11.05 0
 4 9 -12 7.02 6.74 0
 4 9 -11 129.89 11.79 0
 4 9 -10 42.68 9.28 0
 4 9 -9 115.6 10.8 0
 4 9 -8 23.66 7.37 0
 4 9 -7 86.7 9.08 0
 4 9 -5 313.03 14.76 0
 4 9 -4 8.48 5.26 0
 4 9 -3 104.8 8.89 0
 4 9 -2 4.4 4.62 0
 4 9 -1 256.57 11.99 0
 4 10 -9 72.12 10.47 0
 4 10 -8 54.49 8.6 0
 4 10 -7 163.82 12.82 0
 4 10 -6 165.9 12.48 0
 4 10 -5 33.16 7.17 0
 4 10 -4 34.61 6.9 0
 4 10 -3 17.44 5.78 0
 4 10 -2 41.49 6.68 0
 4 10 -1 15.42 5.18 0
 4 11 -6 144.25 12.31 0
 4 11 -5 264.78 15 0
 4 11 -3 23.11 7.08 0
 4 11 -2 53.05 8.27 0
 5 7 -7 79.71 9.83 0
 5 7 -6 48.76 7.65 0
 5 7 -5 3.32 4.8 0
 5 7 -4 96.43 9.1 0
 5 7 -2 216.31 10.36 0
 5 8 -9 27.71 7.43 0
 5 8 -8 30.29 7.27 0
 5 8 -7 114.35 10.12 0
 5 8 -6 7.9 5.62 0
 5 8 -5 43.18 7.32 0
 5 8 -4 138.99 10.62 0
 5 8 -3 126.82 9.17 0
 5 9 -9 158.18 12.45 0
 5 9 -8 11.46 6.39 0
 5 9 -7 40.37 7.99 0
 5 9 -6 180.24 12.41 0
 5 9 -5 11.51 5.71 0
 5 9 -4 18.45 6.08 0
 5 9 -3 88.47 8.36 0
 5 10 -7 19.73 7.3 0
 5 10 -6 42.62 8.53 0
 5 10 -5 11.2 6.47 0
 5 10 -4 139.75 10.72 0
 -4 0 9 421.72 5.98 0
 -4 0 10 634.35 8.87 0
 -4 1 8 215.34 3.45 0
 -4 1 9 697.21 8.13 0
 -4 1 10 2.09 1.33 0
 -4 1 11 187.79 5.71 0
 -4 1 12 41.04 3.51 0
 -4 2 7 209.45 3.84 0
 -4 2 8 13.63 1.66 0
 -4 2 9 162.98 4.65 0
 -4 2 10 10.74 2.17 0
 -4 2 11 103.72 4.81 0
 -4 2 12 96.79 5.06 0
 -4 3 6 184.04 4.56 0
 -4 3 7 247.17 5.67 0
 -4 3 8 548.58 8.97 0
 -4 3 9 528.69 9.38 0
 -4 3 10 456.23 9.38 0
 -4 3 11 22.72 3.09 0
 -4 3 12 247.4 7.98 0
 -4 4 5 17.66 2.54 0
 -4 4 6 53.91 3.58 0
 -4 4 7 17.07 2.54 0
 -4 4 8 61.39 4.16 0
 -4 4 9 1.42 2.08 0
 -4 4 10 15.99 3.22 0
 -4 5 4 366.75 9.35 0
 -4 5 5 89.36 5.13 0
 -4 5 6 378.27 9.39 0
 -4 5 7 100.81 5.48 0
 -4 5 8 558.86 11.99 0
 -4 5 11 389.69 11.03 0
 -4 6 8 110.74 6.48 0
 -4 6 9 36.73 4.81 0
 -4 6 10 -1.23 2.82 0
 -4 6 11 51.79 6.13 0
 -4 7 4 1.27 3.22 0
 -4 7 5 145.53 8.07 0
 -4 7 6 115.99 7.25 0
 -4 7 7 236.45 9.56 0
 -4 7 8 105.09 7.13 0
 -4 7 9 65.77 6.56 0
 -4 7 10 100.64 7.18 0
 -4 7 11 287.25 11.51 0
 -4 8 5 15.4 4.73 0
 -4 8 6 9.95 4.68 0
 -4 8 7 40.6 5.77 0
 -4 8 8 8.66 4.48 0
 -4 8 9 99.01 7.59 0
 -4 8 10 57.57 6.73 0
 -4 9 6 34.92 6.08 0
 -4 9 7 70.7 8.24 0
 -4 9 9 103.66 8.76 0
 -4 10 7 172.17 10.97 0
 -3 -1 4 59.41 1.7 0
 -3 -1 5 641.91 6.39 0
 -3 0 5 233.71 2.89 0
 -3 1 5 621 5.71 0
 -3 1 6 884.55 8.49 0
 -3 1 7 113.62 3.78 0
 -3 2 3 508.76 6.11 0
 -3 2 4 178.27 3.93 0
 -3 2 5 236.62 4.92 0
 -3 2 6 103.63 3.81 0
 -3 2 7 139.74 4.81 0
 -3 2 8 230.15 6.34 0
 -3 2 9 305.48 7.81 0
 -3 2 10 135.89 6 0
 -3 2 11 231.76 8.02 0
 -3 2 14 129.74 7.64 0
 -3 2 15 26.87 5 0
 -3 2 16 115.74 7.93 0
 -3 2 18 91.64 7.94 0
 -3 2 19 34.91 6.1 0
 -3 3 2 170.95 4.97 0
 -3 3 3 613.55 8.89 0
 -3 3 4 403.69 7.57 0
 -3 3 5 1961.21 16.83 0
 -3 3 6 143.31 5.23 0
 -3 3 7 246.53 6.87 0
 -3 3 8 578.89 10.99 0
 -3 3 9 874.82 14.28 0
 -3 3 10 11.91 3.29 0
 -3 3 11 29.72 4.06 0
 -3 3 13 46.91 5.33 0
 -3 3 14 53.75 5.55 0
 -3 3 16 56.3 6.79 0
 -3 3 17 143.97 9.23 0
 -3 3 18 27.33 6.03 0
 -3 3 19 40.98 6.37 0
 -3 4 2 300.24 7.81 0
 -3 4 3 59.63 4.08 0
 -3 4 4 209.71 6.66 0
 -3 4 5 714.7 12.1 0
 -3 4 6 146.71 5.95 0
 -3 4 8 52.13 4.56 0
 -3 4 9 205.88 8.05 0
 -3 4 12 1.33 2.92 0
 -3 4 13 271.56 10.75 0
 -3 4 14 93.94 7.52 0
 -3 4 15 193.58 9.99 0
 -3 4 16 186.72 10.08 0
 -3 4 17 105.76 8.35 0
 -3 4 18 96.04 8.34 0
 -3 5 2 767.09 13.82 0
 -3 5 4 440.74 10.58 0
 -3 5 5 152.6 6.71 0
 -3 5 6 226.83 8.36 0
 -3 5 7 121.24 6.48 0
 -3 5 10 2.7 3.15 0
 -3 5 11 317.51 11.11 0
 -3 5 12 55.28 5.89 0
 -3 5 13 184.15 9.65 0
 -3 5 15 49.73 6.63 0
 -3 5 16 50.27 7.06 0
 -3 5 17 89.5 8.68 0
 -3 5 18 59.45 7.73 0
 -3 6 8 2.47 3.88 0
 -3 6 9 1.47 3.59 0
 -3 6 10 56.88 6.09 0
 -3 6 11 478.68 14.14 0
 -3 6 12 39.36 5.8 0
 -3 6 13 38.42 6.29 0
 -3 6 14 245.68 11.75 0
 -3 6 15 4.14 4.51 0
 -3 6 16 135.75 9.95 0
 -3 6 17 4.92 4.91 0
 -3 7 2 226.83 10.14 0
 -3 7 3 84.59 7.01 0
 -3 7 4 23.5 4.5 0
 -3 7 5 20.24 5.14 0
 -3 7 6 165.13 8.81 0
 -3 7 7 517.04 14.59 0
 -3 7 8 47.53 6.19 0
 -3 7 9 50.84 6.77 0
 -3 7 10 66.89 7.4 0
 -3 7 11 67.53 7.89 0
 -3 7 12 210.71 11.11 0
 -3 7 13 227.2 11.45 0
 -3 7 14 11.08 4.93 0
 -3 7 15 12.43 5.11 0
 -3 7 16 32.54 6.35 0
 -3 8 2 120.48 8.58 0
 -3 8 3 73.2 6.79 0
 -3 8 4 19.75 5.04 0
 -3 8 5 96.79 8.14 0
 -3 8 6 10.41 4.44 0
 -3 8 7 27.3 5.36 0
 -3 8 8 183.8 10.83 0
 -3 8 9 89.13 8.57 0
 -3 8 10 69.74 7.97 0
 -3 8 12 131.25 9.78 0
 -3 8 13 13.2 6 0
 -3 8 14 71.05 8.77 0
 -3 8 15 108.05 9.83 0
 -3 8 16 27.94 6.44 0
 -3 9 3 1.31 4.74 0
 -3 9 4 160.94 10.58 0
 -3 9 6 71.7 8.5 0
 -3 9 7 207.71 11.24 0
 -3 9 8 147.89 10.49 0
 -3 9 9 -0.01 4.92 0
 -3 9 10 20.93 5.81 0
 -3 9 11 92.95 9.38 0
 -3 9 12 130.05 10.48 0
 -3 9 13 -2.45 5.62 0
 -3 9 14 6.51 5.95 0
 -3 10 3 181.3 11.91 0
 -3 10 4 80.75 9.71 0
 -3 10 5 22.46 6.04 0
 -3 10 6 42.24 7.23 0
 -3 10 7 14.88 5.99 0
 -3 10 8 34.01 7.05 0
 -3 10 9 67.54 8.14 0
 -3 10 10 130.24 10.75 0
 -3 10 11 23.85 6.4 0
 -3 10 13 -5.69 4.79 0
 -3 11 5 6.58 6.12 0
 -3 11 6 29 7.45 0
 -3 11 8 21.07 6.75 0
 -3 11 9 16.33 6.12 0
 -3 11 10 66.16 9.21 0
 -3 11 11 82.13 9.98 0
 -2 1 3 1724.17 9.32 0
 -2 2 1 243.34 4.89 0
 -2 2 2 1040.4 9.62 0
 -2 2 4 134.23 4.17 0
 -2 2 5 117.3 4.19 0
 -2 2 6 51.16 3.25 0
 -2 2 7 30.48 3.04 0
 -2 2 8 311.05 8.19 0
 -2 2 21 212.66 12.99 0
 -2 2 22 100.62 9.64 0
 -2 2 23 14.98 7.13 0
 -2 3 0 1393.75 14.31 0
 -2 3 1 1163.37 12.6 0
 -2 3 2 62.05 3.65 0
 -2 3 3 1437.82 14.35 0
 -2 3 4 1199.89 13.64 0
 -2 3 6 221.82 7 0
 -2 3 7 611.11 11.68 0
 -2 3 9 497.69 11.32 0
 -2 3 13 37.54 5.38 0
 -2 3 14 61.14 6.94 0
 -2 3 15 33.98 6.29 0
 -2 3 16 82.09 8.25 0
 -2 3 17 20.9 5.43 0
 -2 3 19 208.35 12.63 0
 -2 3 20 153.18 11.35 0
 -2 3 21 91.55 9.95 0
 -2 3 22 35.32 7.83 0
 -2 4 0 62.36 4.44 0
 -2 4 1 432.04 9.33 0
 -2 4 3 1654.07 18.22 0
 -2 4 4 260.16 7.51 0
 -2 4 5 57.01 4.13 0
 -2 4 6 710.2 13.01 0
 -2 4 7 559.95 12.31 0
 -2 4 9 236.86 8.86 0
 -2 4 12 20.65 4.25 0
 -2 4 13 60.04 6.26 0
 -2 4 16 213.89 11.43 0
 -2 4 17 80.43 8.29 0
 -2 4 18 65.22 8.01 0
 -2 4 19 88.27 9.73 0
 -2 4 20 5.87 5.49 0
 -2 4 21 50.62 7.82 0
 -2 4 22 -4.3 4.52 0
 -2 5 0 402.81 10.32 0
 -2 5 1 73.32 4.94 0
 -2 5 2 250.37 8.42 0
 -2 5 3 753.34 14.07 0
 -2 5 4 657.08 13.51 0
 -2 5 5 330.5 9.77 0
 -2 5 6 295.26 9.78 0
 -2 5 11 27.2 4.81 0
 -2 5 12 209.15 10.59 0
 -2 5 13 177.7 10.19 0
 -2 5 16 151.23 10.65 0
 -2 5 18 106.13 10.31 0
 -2 5 19 30.38 7.23 0
 -2 5 20 61.46 8.73 0
 -2 5 21 95.91 10.09 0
 -2 6 7 124.81 8.02 0
 -2 6 8 204.45 9.62 0
 -2 6 9 416.93 13.16 0
 -2 6 10 308.01 12.05 0
 -2 6 11 64.69 7.12 0
 -2 6 13 191.16 10.65 0
 -2 6 14 24.92 6.22 0
 -2 6 15 21.72 6.11 0
 -2 6 16 23.06 6.45 0
 -2 6 17 222.23 13.39 0
 -2 6 18 61.81 9.1 0
 -2 6 19 77.75 9.86 0
 -2 6 20 33.76 7.3 0
 -2 7 0 110.56 7.79 0
 -2 7 2 119.22 7.87 0
 -2 7 3 265.61 10.92 0
 -2 7 6 406.81 13.3 0
 -2 7 7 139.77 8.5 0
 -2 7 8 77.86 7.06 0
 -2 7 10 17.56 5.28 0
 -2 7 13 114.94 9.07 0
 -2 7 14 74.69 8.58 0
 -2 7 15 79.16 9.69 0
 -2 7 16 26.92 7.19 0
 -2 7 17 38.21 8.01 0
 -2 7 18 55.5 8.69 0
 -2 7 19 36.61 7.9 0
 -2 8 0 55.41 6.93 0
 -2 8 1 363.13 13.67 0
 -2 8 4 111.59 8.81 0
 -2 8 5 62.09 7.17 0
 -2 8 6 157.61 10.27 0
 -2 8 7 53.98 7.22 0
 -2 8 8 25.54 5.63 0
 -2 8 9 19.53 5.33 0
 -2 8 10 35.45 6.44 0
 -2 8 11 2.97 5.09 0
 -2 8 12 164 10.87 0
 -2 8 13 145.64 11.17 0
 -2 8 14 72.59 8.96 0
 -2 8 15 111.88 9.9 0
 -2 8 16 7.54 6.07 0
 -2 8 17 298.32 14.9 0
 -2 8 18 3.65 5.48 0
 -2 9 0 34.55 6.43 0
 -2 9 1 70.63 7.62 0
 -2 9 2 38.11 6.77 0
 -2 9 3 3.39 4.17 0
 -2 9 4 80.68 7.98 0
 -2 9 5 286.37 12.85 0
 -2 9 6 34.9 7.32 0
 -2 9 7 18.44 5.74 0
 -2 9 8 100.56 9.01 0
 -2 9 9 13.41 5.66 0
 -2 9 10 140.14 11.06 0
 -2 9 11 18.49 7.07 0
 -2 9 12 54.14 8.41 0
 -2 9 13 56.07 8.43 0
 -2 9 14 261.01 14.26 0
 -2 9 15 -1.13 5.59 0
 -2 9 16 31.3 7.14 0
 -2 10 1 98.53 10.42 0
 -2 10 2 168.58 12.03 0
 -2 10 3 83.9 8.84 0
 -2 10 4 20.27 6.53 0
 -2 10 5 31.57 6.63 0
 -2 10 6 28.57 7.44 0
 -2 10 7 114.79 11.03 0
 -2 10 8 36.92 8.17 0
 -2 10 9 44.41 8.41 0
 -2 10 10 32.53 7.51 0
 -2 10 11 96.9 11.51 0
 -2 10 12 34.84 8.09 0
 -2 10 13 6.55 6.15 0
 -2 10 14 59.84 9.39 0
 -2 11 2 12.83 7.27 0
 -2 11 3 40.71 8.32 0
 -2 11 4 53.91 8.63 0
 -2 11 5 34.23 8.18 0
 -2 11 6 -0.01 6.44 0
 -2 11 7 24.4 7.92 0
 -2 11 8 122.3 11.34 0
 -2 11 9 6.5 5.93 0
 -2 11 10 71.84 10.11 0
 -2 11 11 50.14 9.09 0
 -2 12 5 23.65 8.04 0
 -2 12 6 15.09 7.58 0
 -2 12 7 26.13 7.33 0
 -2 12 8 5.11 6.37 0
 -1 -1 2 1811.05 9.89 0
 -1 1 0 5649.75 15.92 0
 -1 1 1 2571.94 10.37 0
 -1 1 2 1730.16 9.65 0
 -1 2 0 152.2 3.95 0
 -1 2 1 6834.35 24.85 0
 -1 2 2 4042.76 19.64 0
 -1 2 3 1436.61 12.62 0
 -1 2 4 2557.17 17.82 0
 -1 2 5 730.5 10.51 0
 -1 3 -1 55.03 3.97 0
 -1 3 0 5.65 2.21 0
 -1 3 1 49.26 3.31 0
 -1 3 2 235.28 6.37 0
 -1 3 3 190.53 6.06 0
 -1 3 4 803.26 11.95 0
 -1 3 5 193.08 6.34 0
 -1 3 6 302.14 8.15 0
 -1 3 7 197.46 7.36 0
 -1 3 8 1884.03 21.97 0
 -1 3 9 665.2 13.98 0
 -1 3 19 205.38 12.35 0
 -1 3 20 175.48 12.09 0
 -1 3 21 144.58 11.66 0
 -1 3 22 3.26 5.97 0
 -1 4 -1 315.54 8.26 0
 -1 4 1 338.9 8.4 0
 -1 4 2 1388.89 16.81 0
 -1 4 3 1683.35 18.47 0
 -1 4 4 1162.31 16.21 0
 -1 4 5 300.47 8.93 0
 -1 4 6 462.18 11.02 0
 -1 4 7 162.79 7.23 0
 -1 4 11 125.17 7.79 0
 -1 4 12 328.46 11.99 0
 -1 4 13 92.5 8.14 0
 -1 4 14 294.36 12.46 0
 -1 4 15 51.18 7.06 0
 -1 4 16 148.67 10.09 0
 -1 4 17 183.31 11.36 0
 -1 4 18 240.18 13.69 0
 -1 4 19 7.88 5.8 0
 -1 4 20 248.43 14.13 0
 -1 4 21 17.95 6.9 0
 -1 4 22 92.85 11.54 0
 -1 5 -1 7.76 2.85 0
 -1 5 0 13.35 3.54 0
 -1 5 1 3.98 2.77 0
 -1 5 2 481.52 11.33 0
 -1 5 3 78.9 5.26 0
 -1 5 4 619.08 13.24 0
 -1 5 10 88.43 7.51 0
 -1 5 11 197.55 9.73 0
 -1 5 12 96.74 7.97 0
 -1 5 13 52.72 6.86 0
 -1 5 14 42.75 6.52 0
 -1 5 15 109.95 9.62 0
 -1 5 16 1.57 5.63 0
 -1 5 17 1.22 6.02 0
 -1 5 18 88.18 10.59 0
 -1 5 19 42.32 7.91 0
 -1 5 20 11.15 6.23 0
 -1 5 21 35.86 7.85 0
 -1 6 7 140.4 7.97 0
 -1 6 8 117.72 7.78 0
 -1 6 10 2.07 3.9 0
 -1 6 12 14.87 5.2 0
 -1 6 13 75.58 9.28 0
 -1 6 15 308.4 14.69 0
 -1 6 16 276.82 14.24 0
 -1 6 18 57.77 8.75 0
 -1 6 19 92.59 10.61 0
 -1 6 20 20.68 7.23 0
 -1 7 -2 91.86 7.14 0
 -1 7 0 144.9 8.46 0
 -1 7 1 25.35 4.74 0
 -1 7 2 107.96 7.36 0
 -1 7 3 209.39 9.64 0
 -1 7 4 18.08 4.79 0
 -1 7 5 18.7 4.65 0
 -1 7 6 58.56 6.57 0
 -1 7 7 347.13 12.65 0
 -1 7 8 131.33 9.18 0
 -1 7 9 169.53 9.91 0
 -1 7 10 177.8 10.37 0
 -1 7 12 43.23 7.08 0
 -1 7 13 145.87 10.61 0
 -1 7 14 100.21 9.58 0
 -1 7 15 90.17 10.36 0
 -1 7 16 25.37 6.78 0
 -1 7 18 39.79 9.14 0
 -1 7 19 37.88 8.35 0
 -1 8 -1 265.44 12.18 0
 -1 8 1 270.82 11.5 0
 -1 8 3 181.97 9.97 0
 -1 8 4 2.25 4.06 0
 -1 8 5 385.98 14.54 0
 -1 8 6 82.35 7.65 0
 -1 8 7 10.64 4.81 0
 -1 8 8 52.19 6.89 0
 -1 8 9 158.72 10.54 0
 -1 8 10 321.4 14.04 0
 -1 8 11 217.66 12.66 0
 -1 8 12 29.15 6.75 0
 -1 8 13 262.33 13.85 0
 -1 8 15 62.82 9.31 0
 -1 8 16 11.72 6.3 0
 -1 8 17 17.86 7.28 0
 -1 8 18 10.16 6.65 0
 -1 9 -1 76.15 8.96 0
 -1 9 1 78.14 7.96 0
 -1 9 2 93.96 8.68 0
 -1 9 3 70.75 7.83 0
 -1 9 5 243.72 12.38 0
 -1 9 6 43.47 7.57 0
 -1 9 8 48.65 7.67 0
 -1 9 9 38.41 7.06 0
 -1 9 10 11.14 6.03 0
 -1 9 11 1.16 5.28 0
 -1 9 12 112.94 11.32 0
 -1 9 13 16.75 7.1 0
 -1 9 14 61.78 9.91 0
 -1 9 15 150.4 12.37 0
 -1 9 16 11.29 7.24 0
 -1 10 0 0.93 4.73 0
 -1 10 1 7.51 5.36 0
 -1 10 2 144.75 10.74 0
 -1 10 3 81.91 10.12 0
 -1 10 4 29.64 6.79 0
 -1 10 5 32.87 7.06 0
 -1 10 6 17.21 6.33 0
 -1 10 7 111.13 10.69 0
 -1 10 8 245.3 14.22 0
 -1 10 9 27.39 7.29 0
 -1 10 10 142.41 12.56 0
 -1 10 11 2.54 5.86 0
 -1 10 12 108.35 12.04 0
 -1 10 14 264.98 15.47 0
 -1 11 1 65.94 9.4 0
 -1 11 2 26.65 7.67 0
 -1 11 3 -3.2 5.24 0
 -1 11 4 148.14 12.64 0
 -1 11 5 14.59 6.52 0
 -1 11 6 192.39 13.45 0
 -1 11 7 40.57 8.19 0
 -1 11 8 73.47 10.22 0
 -1 11 10 11.2 7.16 0
 -1 11 11 0.6 5.96 0
 -1 12 2 80.64 10.6 0
 -1 12 3 201.81 14.89 0
 -1 12 4 38.14 8.72 0
 -1 12 5 78.48 10.79 0
 -1 12 6 6.55 7.11 0
 -1 12 7 2.61 7.33 0
 -1 12 8 58.57 9.38 0
 0 -1 0 -1.02 1.23 0
 0 -1 1 2401.57 10.98 0
 0 1 -1 2287.02 10.73 0
 0 1 0 -1.19 0.87 0
 0 2 0 9828.59 30.01 0
 0 2 1 5759.32 23.4 0
 0 2 2 220.75 5.13 0
 0 2 3 4913.32 24.3 0
 0 2 4 7469.12 32.29 0
 0 3 -2 709.17 10.7 0
 0 3 -1 113.07 4.75 0
 0 3 0 0.32 1.72 0
 0 3 2 685.6 10.48 0
 0 3 3 3644.29 24.72 0
 0 3 4 3394.53 24.79 0
 0 3 5 8.47 2.73 0
 0 3 6 51.79 4.27 0
 0 3 7 469.23 11 0
 0 3 22 79 10.7 0
 0 4 -2 1592.87 17.97 0
 0 4 -1 2099.75 20.36 0
 0 4 0 273.65 7.72 0
 0 4 1 2047.25 20.33 0
 0 4 3 4005.83 29.37 0
 0 4 4 391.43 9.83 0
 0 4 5 610.83 12.71 0
 0 4 7 1253.63 19.08 0
 0 4 11 236.86 10.61 0
 0 4 12 107 8.52 0
 0 4 13 213.1 10.84 0
 0 4 15 664.78 19.48 0
 0 4 16 88.91 8.79 0
 0 4 18 2.97 5.33 0
 0 4 20 66.75 9.51 0
 0 4 21 21.88 7.36 0
 0 4 22 104.73 12.38 0
 0 5 5 361.11 10.92 0
 0 5 9 10.93 4.48 0
 0 5 10 9.53 3.82 0
 0 5 12 -1.32 3.58 0
 0 5 13 108.46 9.08 0
 0 5 15 68.94 8.88 0
 0 5 16 208.61 12.85 0
 0 5 17 51.71 8.86 0
 0 5 18 296.1 15.1 0
 0 5 19 54.82 9.31 0
 0 5 20 332.38 16.59 0
 0 5 21 322.61 17.61 0
 0 6 6 73.84 6.92 0
 0 6 7 -1 3.95 0
 0 6 10 61.14 6.92 0
 0 6 11 13.13 5.39 0
 0 6 12 91.78 8.43 0
 0 6 13 407.28 15.92 0
 0 6 14 544.97 18.83 0
 0 6 16 4.11 5.75 0
 0 6 17 388.29 17.61 0
 0 6 18 22.38 6.83 0
 0 6 19 -3.9 5.34 0
 0 6 20 21.59 8.66 0
 0 7 -3 126.44 8.18 0
 0 7 -2 93.45 7.01 0
 0 7 -1 206.97 9.7 0
 0 7 0 3.95 3.48 0
 0 7 1 223.62 9.89 0
 0 7 2 94.1 7.58 0
 0 7 3 117.02 7.82 0
 0 7 4 -2.52 3.23 0
 0 7 5 705.45 17.69 0
 0 7 6 23.23 5.27 0
 0 7 9 31.97 5.94 0
 0 7 10 34.65 6.96 0
 0 7 11 275.45 13.21 0
 0 7 12 114.18 10.37 0
 0 7 13 11.02 6.38 0
 0 7 14 13.26 5.98 0
 0 7 15 1.89 5.57 0
 0 7 16 195.99 13.2 0
 0 7 17 5.47 6.66 0
 0 7 19 2.22 6.34 0
 0 8 -2 354.12 13.3 0
 0 8 0 11.2 4.4 0
 0 8 1 345.43 12.96 0
 0 8 2 345.75 13.25 0
 0 8 3 20.33 4.89 0
 0 8 4 448.67 15.13 0
 0 8 5 119.4 8.55 0
 0 8 6 337.83 13.61 0
 0 8 7 168.85 10.85 0
 0 8 8 161.52 10.17 0
 0 8 9 75.55 8.53 0
 0 8 10 14.09 6.17 0
 0 8 11 17.6 5.97 0
 0 8 13 6.54 6.51 0
 0 8 14 447.02 18.89 0
 0 8 15 -0.42 5.63 0
 0 8 16 134.24 12.96 0
 0 8 17 134.48 13.04 0
 0 8 18 143.13 13.42 0
 0 9 -2 54.26 7.12 0
 0 9 -1 113.16 9.22 0
 0 9 0 4.02 3.99 0
 0 9 1 114.77 9.13 0
 0 9 2 66.17 8.09 0
 0 9 3 54.86 7.34 0
 0 9 4 0.89 4.26 0
 0 9 5 70.25 8.91 0
 0 9 6 40.72 6.95 0
 0 9 8 43.91 7.99 0
 0 9 9 365.43 16.08 0
 0 9 10 244.38 13.4 0
 0 9 12 38.38 8.37 0
 0 9 13 72.37 10.04 0
 0 9 14 35.93 8.54 0
 0 9 15 45.45 8.88 0
 0 9 16 50.67 9.2 0
 0 10 -1 31.17 6.85 0
 0 10 0 88.66 8.98 0
 0 10 1 26.22 6.14 0
 0 10 5 12.73 5.86 0
 0 10 7 199.59 13.65 0
 0 10 8 28.15 7.68 0
 0 10 9 33.76 7.54 0
 0 10 10 185.35 13.59 0
 0 10 11 -1.55 5.71 0
 0 10 12 76.48 10.24 0
 0 10 13 23.2 7.51 0
 0 10 14 65.35 9.81 0
 0 11 0 0.41 6.15 0
 0 11 1 15.18 6.39 0
 0 11 2 -0.66 6.07 0
 0 11 3 360.85 16.55 0
 0 11 5 1.06 5.85 0
 0 11 7 30.17 7.95 0
 0 11 8 97.57 11.78 0
 0 11 9 35 8.2 0
 0 11 10 24.84 8.4 0
 0 11 11 1.97 6.25 0
 0 11 12 3.65 6.52 0
 0 12 2 93.27 11.33 0
 0 12 3 22.88 7.42 0
 0 12 4 3.73 7.82 0
 0 12 5 15.16 7.94 0
 0 12 6 -2.27 7.12 0
 0 12 7 5.48 6.45 0
 0 12 8 17.43 7.32 0
 1 1 -1 2652.31 10.85 0
 1 1 0 5750.6 16.91 0
 1 1 1 2687.96 13.12 0
 1 2 -2 4132.29 19.97 0
 1 2 -1 6778.86 25.05 0
 1 2 0 143.44 3.94 0
 1 2 1 6854.82 26.88 0
 1 2 2 3964.33 21.48 0
 1 2 3 1400.93 14.06 0
 1 3 -2 231.62 6.4 0
 1 3 -1 55.22 3.63 0
 1 3 0 7.79 2.41 0
 1 3 1 50.34 4.11 0
 1 3 2 220.18 6.5 0
 1 3 4 782.69 12.72 0
 1 3 5 202.93 7.07 0
 1 3 6 304.03 9.12 0
 1 4 -3 1727.04 19.16 0
 1 4 -2 1349.72 16.42 0
 1 4 -1 321.61 8.49 0
 1 4 0 232.06 7.24 0
 1 4 2 1383.47 17.24 0
 1 4 3 1661.3 19.64 0
 1 4 4 1158.53 17.16 0
 1 4 10 11.19 3.88 0
 1 4 12 333.61 12.94 0
 1 4 13 100.3 8.36 0
 1 4 14 264.14 12.89 0
 1 4 15 61.96 8.06 0
 1 4 17 183.32 12.11 0
 1 4 19 16.21 6.77 0
 1 4 20 257.23 15.3 0
 1 4 21 33.44 8.25 0
 1 5 4 632.84 14.16 0
 1 5 5 154.25 7.84 0
 1 5 8 1220.77 21.77 0
 1 5 10 84.07 7.36 0
 1 5 11 213.48 10.98 0
 1 5 12 92.85 8.22 0
 1 5 13 50.5 6.94 0
 1 5 14 40.09 6.78 0
 1 5 15 106.15 9.37 0
 1 5 16 5 5.34 0
 1 5 17 10.22 6.18 0
 1 5 18 86.12 11.26 0
 1 5 19 41.91 8.44 0
 1 5 20 15.92 7.72 0
 1 5 21 29.65 8.19 0
 1 6 6 278.85 10.97 0
 1 6 7 147.45 8.65 0
 1 6 8 124.38 8.61 0
 1 6 9 131.59 9.16 0
 1 6 10 7.86 4.04 0
 1 6 11 188.46 11.03 0
 1 6 13 60.26 8.48 0
 1 6 14 45.92 7.51 0
 1 6 15 331.19 16.04 0
 1 6 16 273.31 14.89 0
 1 6 17 64.15 9.25 0
 1 6 18 49.14 9.01 0
 1 6 19 66.55 10.39 0
 1 6 20 11.51 7 0
 1 7 -2 93.85 6.88 0
 1 7 -1 20.24 4.22 0
 1 7 0 142.01 8.4 0
 1 7 1 15.67 4.13 0
 1 7 3 215.86 9.96 0
 1 7 4 15.79 5.11 0
 1 7 5 12.26 4.07 0
 1 7 6 62.04 6.86 0
 1 7 7 337.66 13.3 0
 1 7 8 126.68 8.65 0
 1 7 9 160.96 10.27 0
 1 7 10 188.64 11.54 0
 1 7 11 385.44 15.63 0
 1 7 12 48.8 7.61 0
 1 7 13 140.44 10.93 0
 1 7 14 102.28 10.1 0
 1 7 15 82.37 10.83 0
 1 7 16 31.85 7.79 0
 1 7 17 196.83 13.93 0
 1 7 18 56.87 9.54 0
 1 7 19 34 8.81 0
 1 8 -3 176.79 10.07 0
 1 8 -2 217.52 10.76 0
 1 8 -1 280.96 11.89 0
 1 8 0 295.03 12.15 0
 1 8 2 227.64 11.14 0
 1 8 3 170.61 10.08 0
 1 8 4 6.22 5.26 0
 1 8 5 394.39 15 0
 1 8 6 79.29 7.83 0
 1 8 7 6.99 5.23 0
 1 8 9 156.17 10.77 0
 1 8 10 317.68 15.1 0
 1 8 11 205.04 12.37 0
 1 8 13 248.98 14.59 0
 1 8 14 22.16 7.07 0
 1 8 15 76.4 11.03 0
 1 8 16 19.44 7.31 0
 1 8 18 10.07 7.59 0
 1 9 -2 94.91 8.59 0
 1 9 0 189.47 10.75 0
 1 9 2 82.83 8.09 0
 1 9 3 86.59 8.35 0
 1 9 4 233.9 12.39 0
 1 9 5 257.45 13.39 0
 1 9 6 46.73 7.15 0
 1 9 7 256.1 13.52 0
 1 9 9 38.02 7.38 0
 1 9 10 17.29 6.07 0
 1 9 11 -2.2 4.88 0
 1 9 12 101.87 11.93 0
 1 9 13 19.24 7.86 0
 1 9 14 50.28 9.59 0
 1 9 16 18.55 8.9 0
 1 10 -2 130.61 11.51 0
 1 10 -1 12.3 5.68 0
 1 10 0 -0.47 5.02 0
 1 10 1 12.15 5.6 0
 1 10 2 138.23 10.41 0
 1 10 3 80.18 9.89 0
 1 10 4 17.77 6.77 0
 1 10 5 26.67 6.84 0
 1 10 6 15.92 6.15 0
 1 10 7 98.25 11.1 0
 1 10 8 265.84 15.05 0
 1 10 9 33.52 7.73 0
 1 10 10 181.6 13.72 0
 1 10 12 97.1 11.01 0
 1 10 13 65.78 10.14 0
 1 10 14 270.29 16.37 0
 1 11 0 14.13 6.9 0
 1 11 1 50.08 9.21 0
 1 11 2 25.35 7.01 0
 1 11 3 2.08 5.96 0
 1 11 4 164 12.22 0
 1 11 5 9.04 7.51 0
 1 11 7 44.21 9.6 0
 1 11 9 235.47 14.93 0
 1 11 10 9.32 7.83 0
 1 11 11 4.23 7.33 0
 1 11 12 57.59 9.94 0
 1 12 0 18.3 8.08 0
 1 12 1 17.64 7.11 0
 1 12 2 69.94 10.9 0
 1 12 3 209.53 14.52 0
 1 12 4 22.29 7.22 0
 1 12 5 106.94 11.01 0
 1 12 6 6.79 6.62 0
 1 12 7 1.49 5.97 0
 2 1 -1 455.1 4.55 0
 2 1 0 5.51 1.2 0
 2 1 1 467.6 6.2 0
 2 2 -2 1073.78 10.02 0
 2 2 -1 252.81 5.29 0
 2 2 0 4822.45 21.99 0
 2 2 1 239.85 5.58 0
 2 2 2 1024.4 11.71 0
 2 2 3 316.04 7.51 0
 2 3 -2 69.62 3.64 0
 2 3 -1 1195.62 13.31 0
 2 3 0 1353.96 14.52 0
 2 3 1 1167.62 13.85 0
 2 3 2 73.8 4.45 0
 2 3 3 1451.77 16.89 0
 2 4 4 257.41 8.56 0
 2 4 5 59.37 5.18 0
 2 4 9 238.2 10.18 0
 2 4 11 1.38 3.53 0
 2 4 13 66.32 8.12 0
 2 4 14 38.43 7.19 0
 2 4 15 232.19 12.88 0
 2 4 16 199.25 13.18 0
 2 4 17 77.22 9.37 0
 2 4 20 7.76 6.89 0
 2 4 21 36.6 8.67 0
 2 5 -3 757.4 14.49 0
 2 5 -2 232.03 7.99 0
 2 5 -1 78.42 5.57 0
 2 5 0 383.46 10.28 0
 2 5 1 78.25 5.3 0
 2 5 2 254.41 8.86 0
 2 5 3 750.93 15.08 0
 2 5 7 57.84 6.8 0
 2 5 8 202.59 9.56 0
 2 5 9 117.39 8.14 0
 2 5 10 347.71 13.45 0
 2 5 11 31.96 5.54 0
 2 5 12 200.87 10.96 0
 2 5 13 171.01 11.17 0
 2 5 14 106.41 9.04 0
 2 5 15 8.63 5.48 0
 2 5 16 138.11 11.04 0
 2 5 17 10.04 6.45 0
 2 5 18 100.06 11.88 0
 2 5 19 29.93 7.82 0
 2 5 20 71.17 10.97 0
 2 6 5 90.07 7.39 0
 2 6 6 214.02 10.27 0
 2 6 7 121.76 8.68 0
 2 6 8 209.12 10.53 0
 2 6 10 329.35 14.1 0
 2 6 11 77.83 7.92 0
 2 6 12 5.92 4.6 0
 2 6 13 168.5 11.23 0
 2 6 14 25.35 7.56 0
 2 6 15 7.53 5.94 0
 2 6 16 39.06 7.88 0
 2 6 17 211.51 13.71 0
 2 6 18 38.49 8.1 0
 2 7 -3 270.66 10.84 0
 2 7 -2 126.63 7.92 0
 2 7 -1 316.61 11.85 0
 2 7 0 112.08 7.64 0
 2 7 1 315.39 11.98 0
 2 7 2 122.63 8.19 0
 2 7 3 255.75 11.18 0
 2 7 4 146.54 8.84 0
 2 7 5 413.12 14.22 0
 2 7 6 420.83 14.75 0
 2 7 7 143.24 9.37 0
 2 7 8 72.17 7.95 0
 2 7 9 64.77 8.26 0
 2 7 10 15.76 5.85 0
 2 7 11 157.91 11.8 0
 2 7 12 86.11 10.21 0
 2 7 14 68.63 9.94 0
 2 7 15 83.22 10.2 0
 2 7 16 29.65 7.85 0
 2 7 17 28.73 8.35 0
 2 7 18 57.16 10.17 0
 2 8 -3 144.1 9.86 0
 2 8 -1 336.26 12.83 0
 2 8 0 54.62 6.71 0
 2 8 1 353.65 13.69 0
 2 8 2 128.14 9.5 0
 2 8 3 139.42 9.24 0
 2 8 4 109.56 8.66 0
 2 8 5 57.96 6.93 0
 2 8 6 150.93 10.03 0
 2 8 7 46.66 7.12 0
 2 8 8 20.14 6.77 0
 2 8 9 28.78 6.99 0
 2 8 10 55.38 8.1 0
 2 8 11 7.23 6.49 0
 2 8 12 163.09 12.69 0
 2 8 13 145.73 12.54 0
 2 8 14 61.87 10.43 0
 2 8 15 108.22 11.14 0
 2 8 16 10.23 7.61 0
 2 8 17 279.44 17.29 0
 2 9 -2 33.6 6.64 0
 2 9 0 33.49 6.81 0
 2 9 1 65.42 7.98 0
 2 9 2 36.78 7.15 0
 2 9 3 12.92 6.1 0
 2 9 5 296.56 14.17 0
 2 9 6 41.57 7.73 0
 2 9 7 23.68 6.26 0
 2 9 8 96.7 9.58 0
 2 9 9 17.57 6.32 0
 2 9 10 134.6 11.78 0
 2 9 11 18.56 6.6 0
 2 9 12 56.33 8.86 0
 2 9 14 234.2 15.03 0
 2 9 15 -0.38 7.27 0
 2 10 -1 92.89 9.21 0
 2 10 0 -1.15 5.21 0
 2 10 1 107.51 10.63 0
 2 10 4 18.11 6.36 0
 2 10 5 40.97 8.65 0
 2 10 6 23.13 7.15 0
 2 10 7 125.67 11.12 0
 2 10 8 35.83 7.95 0
 2 10 9 55.23 9.84 0
 2 10 10 21.62 7.28 0
 2 10 11 98.86 11.74 0
 2 10 12 20.38 7.77 0
 2 10 13 5.4 6.87 0
 2 11 0 3.04 5.97 0
 2 11 1 31.01 7.52 0
 2 11 2 11.25 7.06 0
 2 11 3 38.51 8.03 0
 2 11 4 59.78 9.34 0
 2 11 5 45.53 8.56 0
 2 11 6 3.69 6.14 0
 2 11 8 141.79 12.54 0
 2 11 9 2.94 7.83 0
 2 11 10 79.88 10.7 0
 2 11 11 41.33 9.27 0
 2 12 1 16.31 7.64 0
 2 12 3 4.34 6.17 0
 2 12 4 46.95 9.94 0
 2 12 5 23.87 8.42 0
 2 12 6 7.04 7.39 0
 2 12 7 27.47 9.14 0
 3 0 0 -0.24 0.5 0
 3 1 -1 807.69 5.43 0
 3 1 0 710.14 6.79 0
 3 1 1 808.15 8.48 0
 3 2 -2 492.4 6.5 0
 3 2 -1 877.65 9.03 0
 3 2 0 339.26 6.15 0
 3 2 1 879.67 10.74 0
 3 2 2 455.61 8.38 0
 3 2 3 510.07 9.39 0
 3 3 -2 168.83 5.11 0
 3 3 -1 26.88 2.79 0
 3 3 0 22.31 2.81 0
 3 3 4 376.67 9.56 0
 3 3 5 1896.59 21.91 0
 3 3 6 149.38 7.07 0
 3 4 -3 63.54 4.35 0
 3 4 -2 301.97 7.98 0
 3 4 -1 31.77 3.38 0
 3 4 0 68.87 4.56 0
 3 4 2 286.64 8.73 0
 3 4 3 62.32 5.26 0
 3 4 4 201.63 8.27 0
 3 4 5 683.18 14.68 0
 3 4 8 62.85 6.37 0
 3 4 9 216.72 10.09 0
 3 4 11 27.42 6.02 0
 3 4 12 4.75 5.16 0
 3 4 14 97.12 8.77 0
 3 4 15 187.78 12.25 0
 3 4 16 179.51 12.39 0
 3 4 17 106.47 11.14 0
 3 4 18 92.65 11.15 0
 3 4 19 12.03 7.16 0
 3 4 20 6.99 6.68 0
 3 5 -3 219.88 8.16 0
 3 5 -2 790.85 14.33 0
 3 5 -1 316.03 9.53 0
 3 5 0 157.58 7.29 0
 3 5 2 786.17 15.43 0
 3 5 6 224.64 10.18 0
 3 5 7 131.53 8.52 0
 3 5 8 87.24 7.45 0
 3 5 10 4.02 4.31 0
 3 5 11 299.44 13.42 0
 3 5 12 40.56 7.07 0
 3 5 14 57.83 8.59 0
 3 5 15 47.64 7.91 0
 3 5 16 49.81 8.44 0
 3 5 17 98.34 10.03 0
 3 5 18 61.37 10.2 0
 3 5 19 10.79 6.74 0
 3 6 3 57.41 5.7 0
 3 6 4 289.34 10.96 0
 3 6 5 232.26 10.67 0
 3 6 7 3.86 4.46 0
 3 6 8 5.5 4.24 0
 3 6 9 10.11 4.53 0
 3 6 11 489.29 17.18 0
 3 6 12 25.43 6.36 0
 3 6 13 39.43 7.28 0
 3 6 14 231.45 14.39 0
 3 6 15 4.73 5.73 0
 3 6 16 147.6 12.12 0
 3 6 17 -6.07 5.39 0
 3 6 18 100.21 11.47 0
 3 7 -3 73.64 7.17 0
 3 7 0 3.17 3.63 0
 3 7 1 382.05 13.26 0
 3 7 3 79.41 7.08 0
 3 7 4 30.77 5.84 0
 3 7 5 24.3 5.53 0
 3 7 6 177.45 10.69 0
 3 7 7 505.74 16.5 0
 3 7 8 48.1 7.59 0
 3 7 9 44.65 7.63 0
 3 7 11 54.57 8.46 0
 3 7 12 231.16 13.66 0
 3 7 13 236.15 14.38 0
 3 7 14 6.57 7.05 0
 3 7 15 23.78 7.46 0
 3 8 -3 77.41 7.32 0
 3 8 -2 98.72 8.46 0
 3 8 -1 4.8 4.17 0
 3 8 0 623.05 17.15 0
 3 8 1 8.02 4.42 0
 3 8 2 109.6 9.02 0
 3 8 3 84.88 7.87 0
 3 8 4 21.39 5.93 0
 3 8 5 106.08 9.43 0
 3 8 6 3 4.66 0
 3 8 7 31.06 7.03 0
 3 8 8 185.09 11.94 0
 3 8 9 85.12 10.26 0
 3 8 11 127.78 11.57 0
 3 8 12 119.46 10.88 0
 3 8 13 19.43 6.91 0
 3 8 14 64.6 10.23 0
 3 8 15 112.83 12.68 0
 3 8 16 30.22 8.76 0
 3 9 -2 17.25 5.48 0
 3 9 -1 1.14 4.29 0
 3 9 0 84.83 8.95 0
 3 9 1 0.03 4.26 0
 3 9 2 28.72 6.81 0
 3 9 3 -0.09 5.01 0
 3 9 4 162.29 11.54 0
 3 9 6 84.88 9.16 0
 3 9 7 203.7 12.89 0
 3 9 8 149.37 11.84 0
 3 9 9 -1.18 5.05 0
 3 9 10 7.7 6.2 0
 3 9 11 92.59 10.22 0
 3 9 13 3.62 6.88 0
 3 9 14 1.19 6.21 0
 3 10 -1 50.64 7.76 0
 3 10 0 105.13 10.45 0
 3 10 1 52.34 8.29 0
 3 10 2 156.39 11.88 0
 3 10 3 185.39 12.96 0
 3 10 4 69.73 9.21 0
 3 10 5 29.99 7.59 0
 3 10 6 55.83 8.62 0
 3 10 7 15.57 6.59 0
 3 10 8 31.67 7.91 0
 3 10 10 111.27 12.2 0
 3 10 11 41.28 8.59 0
 3 10 12 57.68 10.02 0
 3 11 -1 148.15 11.7 0
 3 11 0 165.3 12.18 0
 3 11 2 37.58 7.75 0
 3 11 3 16.53 7.58 0
 3 11 4 30.66 7.22 0
 3 11 5 11.24 6.49 0
 3 11 7 101.36 12.11 0
 3 11 8 19.9 7.39 0
 3 11 9 24.21 8.06 0
 3 12 1 96.98 12.02 0
 3 12 2 -3.15 5.8 0
 3 12 4 32.54 8.8 0
 3 12 5 21.55 7.61 0
 4 -1 0 46.98 1.59 0
 4 0 1 108.16 2.95 0
 4 1 0 44.29 1.69 0
 4 1 1 47.35 2.44 0
 4 1 2 413.09 7.22 0
 4 2 -1 1.42 0.93 0
 4 2 0 645.91 8.12 0
 4 2 4 3.13 2.13 0
 4 2 5 305.97 8.97 0
 4 3 4 872.05 14.86 0
 4 3 5 56.22 4.56 0
 4 3 9 557.6 15.36 0
 4 3 10 464.37 14.52 0
 4 3 19 87.43 11.3 0
 4 3 20 85.15 11.48 0
 4 4 -2 164.19 5.9 0
 4 4 -1 287.68 7.57 0
 4 4 0 9.43 2.76 0
 4 4 1 293.53 8.41 0
 4 4 2 166.82 6.79 0
 4 4 7 14.24 4.56 0
 4 4 8 62.8 6.08 0
 4 4 9 2.64 3.46 0
 4 4 10 20.12 5.58 0
 4 4 11 98.2 8.79 0
 4 4 14 54.56 8.56 0
 4 4 16 23.23 7.63 0
 4 4 17 51.11 9.04 0
 4 4 18 162.54 12.61 0
 4 4 19 113.93 13.05 0
 4 5 -1 66.25 4.68 0
 4 5 0 105.24 5.89 0
 4 5 1 59.45 4.78 0
 4 5 5 83.38 6.76 0
 4 5 7 99.86 7.96 0
 4 5 8 543.45 16.13 0
 4 5 9 167.09 10.07 0
 4 5 10 461.34 16.16 0
 4 5 11 371.96 14.75 0
 4 5 12 67.54 8.31 0
 4 5 14 104.16 10.2 0
 4 5 15 -1.55 5.62 0
 4 5 16 24.85 7.27 0
 4 6 2 22.7 4.54 0
 4 6 3 27.84 4.61 0
 4 6 4 67.4 6.28 0
 4 6 5 14.97 4.7 0
 4 6 6 6.29 4.07 0
 4 6 7 43.24 6.36 0
 4 6 8 101.12 8.6 0
 4 6 9 40.48 6.7 0
 4 6 10 1 4.52 0
 4 6 12 69.63 9.28 0
 4 6 13 156.7 12.25 0
 4 6 15 144.55 12.52 0
 4 6 17 89.96 10.78 0
 4 7 -2 289.49 11.01 0
 4 7 -1 224.7 9.91 0
 4 7 0 18.91 4.23 0
 4 7 2 294.72 11.59 0
 4 7 3 92.57 7.38 0
 4 7 4 2.4 4.03 0
 4 7 5 138.88 9.02 0
 4 7 6 115.46 8.54 0
 4 7 7 237.88 12.01 0
 4 7 8 112.36 9.07 0
 4 7 9 59.41 8.02 0
 4 7 10 104.47 9.54 0
 4 7 11 302.5 15.39 0
 4 7 13 30.8 8.18 0
 4 7 14 37.26 8.96 0
 4 7 15 90.39 10.82 0
 4 7 16 36.76 9.21 0
 4 8 -2 124.88 9.14 0
 4 8 -1 28.38 5.32 0
 4 8 0 92.42 7.66 0
 4 8 1 36.32 5.83 0
 4 8 2 132.88 9.01 0
 4 8 3 53.54 7.21 0
 4 8 4 138.48 9.56 0
 4 8 5 11.29 5.16 0
 4 8 6 16.08 5.43 0
 4 8 7 47.56 7.75 0
 4 8 8 11.03 6.2 0
 4 8 10 60.12 8.63 0
 4 8 11 98.43 10.84 0
 4 8 12 208.63 13.37 0
 4 8 13 95.66 10.25 0
 4 8 14 5.38 6.32 0
 4 8 15 20.75 8.78 0
 4 9 -1 263.09 12.9 0
 4 9 0 440.26 15.68 0
 4 9 1 275.02 13.03 0
 4 9 2 5.85 4.78 0
 4 9 3 102.99 9.78 0
 4 9 4 13.52 6.4 0
 4 9 5 306.36 14.87 0
 4 9 6 29.62 6.73 0
 4 9 7 66.03 8.65 0
 4 9 8 16.02 6.42 0
 4 9 9 125.84 11.05 0
 4 9 10 44.65 8.34 0
 4 10 -1 3.43 5.7 0
 4 10 0 97.53 9.25 0
 4 10 1 10.73 5.78 0
 4 10 2 38.26 7.81 0
 4 10 4 43.88 7.88 0
 4 10 5 35.32 8.02 0
 4 10 6 165.31 11.94 0
 4 10 7 176.66 12.94 0
 4 10 8 65.18 9.49 0
 4 10 9 89.61 10.7 0
 4 11 0 4.38 5.83 0
 4 11 1 36.11 8.02 0
 4 11 2 50.16 9 0
 4 11 3 34.31 7.67 0
 4 11 5 296.92 15.91 0
 4 11 6 143.64 12.65 0
 4 11 7 102.43 12.61 0
 5 1 4 358.38 8.25 0
 5 1 5 527.7 10.96 0
 5 2 5 400.59 9.98 0
 5 3 4 490.88 11.13 0
 5 3 5 208.57 7.85 0
 5 3 7 16.28 4.12 0
 5 3 8 17.5 3.9 0
 5 3 10 181.22 10.05 0
 5 3 11 57.52 7.51 0
 5 3 12 16.67 5.8 0
 5 3 13 86.45 8.46 0
 5 3 14 13.56 6.5 0
 5 3 15 320.65 15.78 0
 5 3 16 49.05 8.93 0
 5 3 17 6.87 6 0
 5 3 18 39.09 8.45 0
 5 4 6 114.72 7.21 0
 5 4 7 91.01 6.69 0
 5 4 8 193.99 9.81 0
 5 4 9 7.49 3.97 0
 5 4 10 159.62 9.85 0
 5 4 11 353.98 13.8 0
 5 4 12 3.6 4.44 0
 5 4 13 21.71 5.85 0
 5 4 14 141.38 11.23 0
 5 4 15 37.65 7.76 0
 5 4 16 56.12 9.26 0
 5 4 17 6.36 6.01 0
 5 4 18 103.23 12.15 0
 5 5 5 9.57 3.7 0
 5 5 6 49.5 5.75 0
 5 5 7 4.22 3.97 0
 5 5 8 198.93 10.1 0
 5 5 9 133.22 9.49 0
 5 5 10 11.52 4.87 0
 5 5 11 42.34 7.37 0
 5 5 12 181.04 11.64 0
 5 5 13 87.92 9.97 0
 5 5 14 49.98 8.76 0
 5 5 15 4.81 5.45 0
 5 5 16 41.75 8.32 0
 5 5 17 60.57 9.36 0
 5 6 5 276.27 10.99 0
 5 6 7 45.66 6.59 0
 5 6 8 20.09 5.13 0
 5 6 9 74.78 8.32 0
 5 6 10 49.82 7.37 0
 5 6 12 203.27 12.73 0
 5 6 13 158.72 11.96 0
 5 6 14 21.53 7.59 0
 5 6 15 58.35 8.94 0
 5 6 16 55.84 9.58 0
 5 7 5 4 3.45 0
 5 7 6 55.23 6.43 0
 5 7 7 65.71 7.66 0
 5 7 8 130.16 9.92 0
 5 7 9 -3.3 4.87 0
 5 7 10 133.11 10.6 0
 5 7 11 30.87 7.17 0
 5 7 12 161.71 11.99 0
 5 7 13 66.21 9.12 0
 5 7 15 7.73 6.61 0
 5 8 5 42.71 6.16 0
 5 8 7 101.86 9.52 0
 5 8 8 24.47 6.11 0
 5 8 9 23.47 6.25 0
 5 8 10 32.13 7.47 0
 5 8 11 16.87 6.35 0
 5 8 12 64.52 9.25 0
 5 8 13 7.02 6.5 0
 5 9 5 12.63 5.16 0
 5 9 6 178.71 11.43 0
 5 9 7 28.13 6.73 0
 5 9 8 15.9 6.28 0
 5 9 9 139.33 11.75 0
 5 9 11 118.46 10.9 0
 5 10 6 55.73 8.81 0
 5 10 8 7.53 5.78 0
 6 2 16 11.23 5.66 0
 6 2 17 9.32 5.37 0
 -1 -3 -1 52.96 1.7 0
 -1 -2 0 150.22 2.46 0
 -1 -1 -1 2725.73 12.74 0
 0 -8 -5 106.25 4.7 0
 0 -8 -4 409.21 7.65 0
 0 -8 -3 21.6 2.05 0
 0 -7 -4 -0.29 1.66 0
 0 -7 -3 113.62 4.01 0
 0 -7 -2 85.25 3.09 0
 0 -7 -1 206.03 3.68 0
 0 -6 -2 -0.62 1.11 0
 0 -6 -1 1342.27 10.14 0
 0 -6 0 684.73 6.19 0
 0 -5 -1 50.7 2.27 0
 0 -5 0 -0.28 0.67 0
 0 -5 1 46.8 1.76 0
 0 -4 -1 2101.51 12.08 0
 0 -4 0 266.98 3.99 0
 0 -4 1 2106.75 10.28 0
 0 -3 0 0.66 0.81 0
 0 -3 1 117.43 2.37 0
 0 4 -2 1580.27 9.82 0
 1 -9 -9 39.14 5.28 0
 1 -9 -8 46.25 5.53 0
 1 -8 -4 1.59 2.18 0
 1 -8 -3 165.81 6.27 0
 1 -8 -2 201.22 6.28 0
 1 -8 -1 262.46 6.73 0
 1 -8 0 302.41 6.92 0
 1 -8 1 273.18 6.4 0
 1 -8 2 199.84 5.45 0
 1 -7 -5 13.22 3.06 0
 1 -7 -4 16.32 3.01 0
 1 -7 -2 90.48 4.71 0
 1 -7 -1 15.07 2.58 0
 1 -7 0 126.33 4.76 0
 1 -7 1 20.75 2.54 0
 1 -7 2 99.8 4.27 0
 1 -7 3 209.27 6 0
 1 -6 -4 589.12 11.12 0
 1 -6 -3 149.14 5.76 0
 1 -6 -2 86.04 4.44 0
 1 -6 -1 200.02 6.2 0
 1 -6 0 77.62 4.03 0
 1 -6 1 199.61 5.7 0
 1 -6 2 91.86 4.21 0
 1 -6 3 147.32 5.18 0
 1 -6 4 589.29 10.29 0
 1 -5 -2 476.69 9.08 0
 1 -5 -1 4.32 2.06 0
 1 -5 0 10.44 2.2 0
 1 -5 1 6.54 1.96 0
 1 -5 2 474.42 8.47 0
 1 -5 3 80.17 3.88 0
 1 -5 4 632.69 10.39 0
 1 -4 -2 1354.67 14.15 0
 1 -4 -1 314.19 6.89 0
 1 -4 0 231.15 5.8 0
 1 -4 2 1366.86 13.5 0
 1 -4 3 1679.37 15.61 0
 1 -4 4 1120.76 13.38 0
 1 -3 -1 55.38 3.21 0
 1 -3 0 3.54 1.79 0
 1 -3 2 215.99 5.56 0
 1 -3 3 197.3 5.48 0
 1 -2 -1 6794.25 26.13 0
 1 -2 0 147.83 4.12 0
 1 -2 1 6741.72 25.8 0
 1 -2 2 4088.74 20.99 0
 1 -2 3 1475.31 13.67 0
 1 -2 4 2702.77 19.55 0
 1 -1 0 5698.01 21.7 0
 1 -1 1 2701.94 15.17 0
 1 -1 2 1753.87 13.17 0
 1 -1 3 204.67 5.06 0
 1 -1 4 423.31 8.01 0
 1 0 0 1.43 1.65 0
 1 0 1 2642.5 13.67 0
 1 0 3 20.4 2.13 0
 1 1 -1 2654.76 11.66 0
 1 1 0 5773.65 17.24 0
 1 1 1 2624.77 12.5 0
 1 1 2 1691.46 11.48 0
 2 -9 -12 44.15 7.15 0
 2 -9 -11 20.34 5.41 0
 2 -9 -10 126.75 9.06 0
 2 -9 -9 9.78 4.09 0
 2 -9 -8 91.48 7.28 0
 2 -9 -7 27.97 5.04 0
 2 -9 -5 293.59 10.54 0
 2 -9 -4 68.11 5.75 0
 2 -9 0 24.83 3.66 0
 2 -9 1 59.1 4.61 0
 2 -9 2 32.92 4.04 0
 2 -8 -9 23.15 4.97 0
 2 -8 -8 22.13 4.77 0
 2 -8 -7 44.73 5.35 0
 2 -8 -6 156.07 8.14 0
 2 -8 -5 53.83 5.49 0
 2 -8 -1 331.34 9.65 0
 2 -8 0 53.35 4.68 0
 2 -8 2 134.05 6.44 0
 2 -8 3 142.92 6.58 0
 2 -7 0 103.03 5.87 0
 2 -7 1 304.1 8.97 0
 2 -7 2 120.61 6.13 0
 2 -7 3 243.28 8.33 0
 2 -7 4 139.75 6.77 0
 2 -7 5 407.42 10.87 0
 2 -6 -4 138.25 7.25 0
 2 -6 -3 95.92 5.71 0
 2 -6 -2 211.49 7.91 0
 2 -6 -1 991.79 16.28 0
 2 -6 0 204.66 7.57 0
 2 -6 1 966.52 15.39 0
 2 -6 2 208.71 7.69 0
 2 -6 3 95.61 5.48 0
 2 -6 4 144.74 6.73 0
 2 -6 5 80.18 5.54 0
 2 -5 -4 636.66 13.33 0
 2 -5 -3 754.47 14.16 0
 2 -5 -2 243.85 8.1 0
 2 -5 -1 78.3 5.18 0
 2 -5 0 386.72 9.68 0
 2 -5 1 78.15 5.21 0
 2 -5 2 232.57 7.52 0
 2 -5 3 749.76 13.46 0
 2 -5 4 647.32 12.82 0
 2 -5 5 337.06 9.69 0
 2 -4 -3 1647.5 19.78 0
 2 -4 -1 425.61 9.95 0
 2 -4 0 68.44 4.79 0
 2 -4 3 1659.83 19.22 0
 2 -4 4 252.69 8.22 0
 2 -4 5 59.06 4.55 0
 2 -4 6 697.38 13.78 0
 2 -3 -2 68.21 4.29 0
 2 -3 -1 1151.18 15.26 0
 2 -3 0 1362.01 16.49 0
 2 -3 1 1177.33 15.41 0
 2 -3 2 63.99 4.09 0
 2 -3 3 1424.56 17.23 0
 2 -3 4 1234.66 16.66 0
 2 -3 5 93.07 5.23 0
 2 -3 6 227.27 7.93 0
 2 -2 -2 1046.35 14.21 0
 2 -2 0 4944.45 29.73 0
 2 -2 1 238.98 6.86 0
 2 -2 2 1032.33 13.75 0
 2 -2 3 317.79 8.1 0
 2 -2 4 137.18 6.02 0
 2 -2 5 117.29 5.54 0
 2 -2 6 56.38 4.44 0
 2 -1 -2 476.62 9.34 0
 2 -1 0 2.16 2.31 0
 2 -1 1 464.24 8.89 0
 2 -1 2 472 9.06 0
 2 -1 3 1756.94 17.78 0
 2 -1 4 767.33 12.58 0
 2 -1 5 395.18 9.37 0
 2 -1 6 1510.33 19.06 0
 2 0 -2 0.79 2.27 0
 2 0 -1 820.22 11.01 0
 2 0 0 5254.56 27.47 0
 2 0 1 785.51 10.66 0
 2 0 2 0.28 1.79 0
 2 0 3 24.94 2.94 0
 2 0 4 1015.77 13.76 0
 2 0 5 1073.43 14.95 0
 2 1 -2 474.74 8.36 0
 2 1 -1 479.06 7.95 0
 2 1 0 1.9 1.97 0
 2 1 1 451.66 7.87 0
 2 1 2 474.55 8.54 0
 2 1 3 1793.6 16.68 0
 2 1 4 773.39 11.69 0
 2 2 -1 253.04 5.59 0
 2 2 1 238.36 5.4 0
 2 2 2 1059.03 11.67 0
 2 2 3 329.07 7.45 0
 2 3 -3 1446.84 12.36 0
 2 3 -2 65.23 2.81 0
 2 3 -1 1176.76 10 0
 2 3 0 1360.72 10.84 0
 2 3 1 1184.83 10.62 0
 2 4 -4 256.37 5.1 0
 2 4 -3 1630.44 11.07 0
 2 4 -2 385.37 4.73 0
 2 4 -1 436.76 4.71 0
 2 5 -5 331.85 5.44 0
 2 5 -4 630.26 5.63 0
 3 -9 -15 81.88 9.76 0
 3 -9 -14 -2.92 4.45 0
 3 -9 -13 -2.43 4.29 0
 3 -9 -12 128.09 10.7 0
 3 -9 -11 87.03 9.13 0
 3 -9 -10 12.28 4.95 0
 3 -9 -9 8 4.88 0
 3 -9 -7 189.18 10.75 0
 3 -9 -6 86.41 7.68 0
 3 -9 -5 293.53 12.18 0
 3 -9 -3 -0.16 3.57 0
 3 -9 -2 25.52 4.68 0
 3 -9 -1 4.67 3.64 0
 3 -9 0 74.33 6.31 0
 3 -9 1 5.43 3.07 0
 3 -9 2 33.14 4.71 0
 3 -9 3 -0.43 2.73 0
 3 -9 4 155.58 8.27 0
 3 -9 5 276.21 10.75 0
 3 -8 -13 25.13 6.63 0
 3 -8 -12 131.27 10.19 0
 3 -8 -11 117.31 10.29 0
 3 -8 -10 52.11 7.97 0
 3 -8 -9 89.52 8.8 0
 3 -8 -8 171.68 10.05 0
 3 -8 -7 27.42 5.39 0
 3 -8 -6 5 3.88 0
 3 -8 -5 99.98 8.11 0
 3 -8 -4 23.76 5.34 0
 3 -8 -3 85.14 7.34 0
 3 -8 -2 101.51 7.24 0
 3 -8 -1 6.18 3.4 0
 3 -8 0 590.22 14.75 0
 3 -8 1 5.71 3.53 0
 3 -8 2 110.68 7.32 0
 3 -8 3 75.1 6.35 0
 3 -8 4 25.41 4.69 0
 3 -8 5 104.2 7.28 0
 3 -8 6 2.43 3.42 0
 3 -7 -10 68.28 8.45 0
 3 -7 -9 42.26 7.13 0
 3 -7 -8 38.35 6.09 0
 3 -7 -7 507.79 15.67 0
 3 -7 -6 165.01 9.11 0
 3 -7 -5 23.56 5.22 0
 3 -7 -4 27.9 5.19 0
 3 -7 -3 75.16 7.07 0
 3 -7 -2 199.67 9.19 0
 3 -7 -1 370.73 11.91 0
 3 -7 0 8.07 3.58 0
 3 -7 2 206.92 9.25 0
 3 -7 3 71.69 6.39 0
 3 -7 4 21.28 4.28 0
 3 -7 5 17.16 3.98 0
 3 -7 6 174.28 9.05 0
 3 -6 -8 10.24 4.82 0
 3 -6 -7 1.05 3.75 0
 3 -6 -6 91.76 7.52 0
 3 -6 -5 240.29 10.29 0
 3 -6 -4 281.38 10.9 0
 3 -6 5 232.79 9.76 0
 3 -6 7 4.34 3.97 0
 3 -5 7 124.08 7.62 0
 3 -4 -3 55.22 5.3 0
 3 -4 -1 23.75 4.28 0
 3 -4 0 67.45 5.59 0
 3 -4 1 28.06 4.15 0
 3 -4 2 298.68 9.88 0
 3 -4 3 68.05 5.28 0
 3 -4 8 58.93 6.28 0
 3 -3 -4 386.44 11.3 0
 3 -3 -2 169.39 7.41 0
 3 -3 -1 29.28 4.32 0
 3 -3 0 24.03 3.91 0
 3 -3 1 25.55 3.81 0
 3 -3 2 160.5 7.12 0
 3 -3 4 381.58 11.27 0
 3 -2 6 98.07 6.45 0
 3 -1 0 731.64 13.72 0
 3 0 -1 1463.22 18.38 0
 3 0 0 0.8 2.2 0
 3 0 1 1456.85 18.25 0
 3 0 6 28.71 3.8 0
 3 1 -2 1245.32 16.27 0
 3 1 -1 819.37 13.29 0
 3 1 0 696.15 12.23 0
 3 1 1 821.22 13.02 0
 3 1 2 1257.17 16.34 0
 3 1 6 916 16.22 0
 3 2 -2 478.73 9.69 0
 3 2 -1 895.07 12.99 0
 3 2 0 335.27 7.95 0
 3 2 1 841.84 12.5 0
 3 2 5 238.95 8.26 0
 3 3 -5 1965.12 19.89 0
 3 3 0 25.06 2.57 0
 3 4 -6 158 5.95 0
 3 4 -5 692.35 11.07 0
 3 4 -1 24.22 2.32 0
 3 4 0 71 3.42 0
 3 5 -7 124.92 5.03 0
 3 5 -3 214.63 4.61 0
 3 5 -2 764.58 8.13 0
 3 5 -1 315.08 5.26 0
 4 -10 -8 62.44 8.34 0
 4 -10 -7 170.6 11.17 0
 4 -10 -6 144.59 10.36 0
 4 -10 -5 38.75 6.87 0
 4 -10 -4 43.73 6.99 0
 4 -10 -3 18.14 4.98 0
 4 -9 -13 55.51 8.61 0
 4 -9 -12 3.05 5.15 0
 4 -9 -11 125.66 11.11 0
 4 -9 -9 117.85 10.73 0
 4 -9 -8 27.09 6.66 0
 4 -9 -7 88.27 9.23 0
 4 -9 -6 23.27 5.69 0
 4 -9 -5 299.91 13.3 0
 4 -9 -4 17.77 5.26 0
 4 -9 -3 110.78 9.11 0
 4 -9 -2 7.67 4.35 0
 4 -9 -1 274.74 11.91 0
 4 -9 0 404.54 14.31 0
 4 -9 1 261.02 11.74 0
 4 -9 2 6.18 3.88 0
 4 -9 4 12.5 4.43 0
 4 -9 5 298.07 12.56 0
 4 -9 6 41.77 6.74 0
 4 -8 -14 11.5 6.52 0
 4 -8 -13 102.48 11.63 0
 4 -8 -12 210.38 13.76 0
 4 -8 -11 88.02 9.63 0
 4 -8 -10 73.06 9.52 0
 4 -8 -9 103.18 10.17 0
 4 -8 -8 5.16 4.75 0
 4 -8 -7 54.94 8.35 0
 4 -8 -6 4.04 4.59 0
 4 -8 -5 18.22 5.41 0
 4 -8 -4 121.72 9.61 0
 4 -8 -3 65.08 7.34 0
 4 -8 -2 126.88 9.56 0
 4 -8 -1 32.5 5.8 0
 4 -8 0 101.77 8.33 0
 4 -8 1 38.32 6.22 0
 4 -8 2 119.17 8.92 0
 4 -8 3 68.26 7.29 0
 4 -8 5 16.1 4.9 0
 4 -8 7 47.56 7.22 0
 4 -7 -16 36.03 8.09 0
 4 -7 -15 99.12 12.17 0
 4 -7 -14 29.32 7.49 0
 4 -7 -13 28.91 7.11 0
 4 -7 -12 124.59 11.53 0
 4 -7 -11 292.19 14.78 0
 4 -7 -10 103.92 10.48 0
 4 -7 -9 72.42 9.35 0
 4 -7 -8 102.91 9.83 0
 4 -7 -7 240.86 12.26 0
 4 -7 -6 111.18 8.82 0
 4 -7 -5 141.07 9.6 0
 4 -7 -4 2.36 4.24 0
 4 -7 -3 80.29 8.32 0
 4 -7 -2 291.55 12.69 0
 4 -7 0 21.18 5.47 0
 4 -7 1 218.26 10.86 0
 4 -7 2 294.39 12.01 0
 4 -7 3 83.54 7.81 0
 4 -7 4 4.58 4.04 0
 4 -7 5 140.79 9.02 0
 4 -7 6 116.94 8.87 0
 4 -7 7 243.94 12.12 0
 4 -6 -12 85.8 10.32 0
 4 -6 -11 48.6 7.93 0
 4 -6 -10 5.69 5.24 0
 4 -6 -9 34.45 6.74 0
 4 -6 -8 110.23 9.08 0
 4 -6 -7 47.25 7.08 0
 4 -6 -6 4.42 4.21 0
 4 -6 -5 11.54 4.69 0
 4 -6 -4 76.52 8.13 0
 4 -6 -3 23.5 5.22 0
 4 -6 -2 25.93 5.4 0
 4 -6 -1 143.89 8.8 0
 4 -6 0 20.14 4.99 0
 4 -6 2 26.87 5.2 0
 4 -6 4 74.7 6.98 0
 4 -6 5 11.87 4.98 0
 4 -6 6 5.08 3.8 0
 4 -6 7 40.51 6.17 0
 4 -5 -10 475.15 17.43 0
 4 -5 -8 542.85 17.6 0
 4 -5 -7 90.01 8.16 0
 4 -5 -6 403.11 14.37 0
 4 -5 -5 100.88 7.87 0
 4 -5 -4 346.86 13.34 0
 4 -5 -3 68.11 6.79 0
 4 -5 -2 124.26 8.22 0
 4 -5 -1 62.48 7 0
 4 -5 0 106.98 7.97 0
 4 -5 1 62.17 6.56 0
 4 -5 2 142.01 8.47 0
 4 -5 3 63.78 7.11 0
 4 -5 5 85.37 7.7 0
 4 -5 6 392.42 13.95 0
 4 -5 7 96.4 8.6 0
 4 -4 -7 20.22 5.54 0
 4 -4 -6 59.77 7.07 0
 4 -4 -5 22.34 5.21 0
 4 -4 -1 282.65 11.46 0
 4 -4 0 9.98 3.82 0
 4 -4 3 65.3 6.05 0
 4 -4 4 84.71 6.91 0
 4 -4 5 25.73 5.13 0
 4 -4 6 55.91 6.72 0
 4 -4 7 17.75 4.77 0
 4 -4 8 70.84 6.94 0
 4 -3 -7 235.16 11.13 0
 4 -3 -5 51.47 6.59 0
 4 -3 -4 840.87 18.48 0
 4 -3 -3 348 12.08 0
 4 -3 4 860.28 18.8 0
 4 -3 7 253.95 11.44 0
 4 -3 8 539.67 16.13 0
 4 -2 -7 201.23 9.99 0
 4 -2 -6 379.66 13.01 0
 4 -2 -5 305.06 11.43 0
 4 -2 5 290.53 11.14 0
 4 -2 6 375.5 12.99 0
 4 -2 7 219.59 10.21 0
 4 -2 8 12.37 4.45 0
 4 -1 6 257.67 10.43 0
 4 -1 7 1649.04 26.15 0
 4 -1 8 215.7 10.29 0
 4 0 -1 118.56 6.73 0
 4 0 0 16.97 3.59 0
 4 0 1 108.59 6.47 0
 4 0 2 9.58 3.75 0
 4 0 7 48.93 5.27 0
 4 1 -2 414.12 11.57 0
 4 1 -1 53.2 5.22 0
 4 1 0 45.49 4.59 0
 4 1 1 45.43 4.63 0
 4 1 2 412.08 11.4 0
 4 1 3 2241.98 26.43 0
 4 1 7 1555.28 24.65 0
 4 2 -5 295.58 9.86 0
 4 2 -4 0.02 2.42 0
 4 2 -2 264.38 8.94 0
 4 2 -1 0.36 2.45 0
 4 2 0 641.16 13.22 0
 4 2 1 2.25 2.9 0
 4 2 3 360.69 10.53 0
 4 2 4 3.58 3.02 0
 4 3 -6 185.56 8.01 0
 4 3 -4 858.61 15.39 0
 4 3 -3 367.74 10.15 0
 4 3 -1 159.83 6.47 0
 4 3 0 1207.04 17.16 0
 4 3 1 161.77 6.87 0
 4 3 2 18.94 3.39 0
 4 3 3 359.41 10.14 0
 4 3 4 859.98 15.88 0
 4 4 -7 15.94 3.22 0
 4 4 -6 52.64 4.62 0
 4 4 -5 20.13 3.18 0
 4 4 -4 88.42 5.02 0
 4 4 -3 58.05 4.14 0
 4 4 -2 155.56 6.05 0
 4 4 -1 283.01 7.91 0
 4 4 0 12.36 2.54 0
 4 4 2 165.53 6.52 0
 4 4 3 54.49 4.54 0
 4 5 0 111.51 4.55 0
 4 5 1 65.69 3.85 0
 5 -10 -8 10.45 6.5 0
 5 -10 -7 23.11 6.7 0
 5 -10 -5 7.59 5.71 0
 5 -10 -3 100.22 9.47 0
 5 -10 -2 35.38 6.85 0
 5 -10 -1 86.53 9.03 0
 5 -10 0 41.58 7.1 0
 5 -9 -11 130.49 12.28 0
 5 -9 -10 61.12 9.15 0
 5 -9 -9 143.61 12.24 0
 5 -9 -8 19.55 7.11 0
 5 -9 -7 34.6 7.17 0
 5 -9 -6 191.05 12.89 0
 5 -9 -5 0.84 4.73 0
 5 -9 -4 22.05 6.77 0
 5 -9 -3 74.11 9.21 0
 5 -9 -2 35.91 7.24 0
 5 -9 -1 68.7 8.17 0
 5 -9 0 23.83 5.99 0
 5 -9 1 62.83 8.57 0
 5 -9 2 34.41 6.83 0
 5 -9 3 90.78 9.33 0
 5 -9 4 16.92 5.39 0
 5 -9 5 6.66 4.79 0
 5 -9 6 172.07 11.5 0
 5 -8 -13 1.08 6.25 0
 5 -8 -12 56.85 9.24 0
 5 -8 -11 20.72 7.55 0
 5 -8 -10 34.16 7.82 0
 5 -8 -9 28.99 8.22 0
 5 -8 -8 23.54 7.81 0
 5 -8 -7 119.22 11.27 0
 5 -8 -6 1.94 5.38 0
 5 -8 -5 39.4 7.55 0
 5 -8 -4 124.26 10.92 0
 5 -8 -3 142.47 10.98 0
 5 -8 -2 30.58 7.28 0
 5 -8 -1 201.23 11.74 0
 5 -8 1 196.2 12.02 0
 5 -8 2 44.44 7.78 0
 5 -8 3 133 9.94 0
 5 -8 4 132.31 10.75 0
 5 -8 5 48.16 7.35 0
 5 -8 6 14.94 5.42 0
 5 -8 7 106.89 10.27 0
 5 -7 -14 48.88 9.06 0
 5 -7 -12 147.56 12.5 0
 5 -7 -11 26.7 8.27 0
 5 -7 -10 140.9 11.83 0
 5 -7 -9 2.69 5.57 0
 5 -7 -4 101.89 9.37 0
 5 -7 -3 127.8 9.92 0
 5 -7 -2 216.22 12.18 0
 5 -7 -1 69.04 8.71 0
 5 -7 0 281.63 13.19 0
 5 -7 1 86.61 9.17 0
 5 -7 3 108.27 9.17 0
 5 -7 4 102.93 9.71 0
 5 -7 5 1.37 4.77 0
 5 -7 6 44.03 7.22 0
 5 -7 7 79.02 8.69 0
 5 -6 -15 58.05 10.16 0
 5 -6 -14 25.4 7.72 0
 5 -6 -13 147.2 12.13 0
 5 -6 -12 183.28 12.9 0
 5 -6 -11 53.23 9.47 0
 5 -6 -10 42.79 8.03 0
 5 -6 -8 20.5 6.44 0
 5 -6 -6 32.31 7.4 0
 5 -6 -4 110.79 9.47 0
 5 -6 -3 80.19 8.38 0
 5 -6 -2 119.4 10 0
 5 -6 -1 40.04 6.6 0
 5 -6 0 533.06 17.65 0
 5 -6 1 48.43 7 0
 5 -6 2 97.65 8.9 0
 5 -6 3 72.74 8.82 0
 5 -6 4 114.49 9.82 0
 5 -6 5 247.63 13.09 0
 5 -6 7 39.2 6.83 0
 5 -6 8 20.23 6.74 0
 5 -5 -16 44.01 9.11 0
 5 -5 -15 4.88 7.26 0
 5 -5 -14 47.78 9.47 0
 5 -5 -13 78.53 10.32 0
 5 -5 -12 187.86 13.97 0
 5 -5 -11 38.54 7.86 0
 5 -5 -10 16.01 6.5 0
 5 -5 -9 113.35 9.87 0
 5 -5 -8 204.01 12.19 0
 5 -5 -7 4.02 5.41 0
 5 -5 -6 43.44 7.32 0
 5 -5 -4 58.26 8.24 0
 5 -5 -3 178.46 11.56 0
 5 -5 -2 57.66 7.56 0
 5 -5 0 40.44 6.36 0
 5 -5 1 631.65 18.26 0
 5 -5 5 1.48 4.23 0
 5 -5 6 42.19 7.43 0
 5 -5 7 -0.08 4.83 0
 5 -5 8 203.34 12.33 0
 5 -5 9 134.17 10.44 0
 5 -4 -15 45.27 9.36 0
 5 -4 -14 142.22 11.88 0
 5 -4 -13 31.83 7.31 0
 5 -4 -12 2.97 5.55 0
 5 -4 -10 176.56 11.79 0
 5 -4 -9 7.78 4.94 0
 5 -4 -8 185.14 11.51 0
 5 -4 -6 103.59 8.84 0
 5 -4 -4 51.7 7.67 0
 5 -4 -3 33.23 6.15 0
 5 -4 -2 159.88 10.38 0
 5 -4 0 269.8 12.07 0
 5 -4 1 452.18 15.45 0
 5 -4 2 162.77 10.31 0
 5 -4 4 54.99 7.12 0
 5 -4 6 125.7 9.28 0
 5 -4 8 179.14 11.68 0
 5 -4 9 5.92 5.2 0
 5 -3 -13 98.18 10.58 0
 5 -3 -12 21.82 7.6 0
 5 -3 -11 58.17 8.37 0
 5 -3 -10 183.81 12.33 0
 5 -3 -9 10.81 5 0
 5 -3 -8 23.43 5.98 0
 5 -3 -7 20.3 5.54 0
 5 -3 -5 219.76 11.43 0
 5 -3 -3 239.55 11.99 0
 5 -3 -2 279.75 12.41 0
 5 -3 -1 203.23 10.59 0
 5 -3 0 103.64 7.71 0
 5 -3 1 180.67 10 0
 5 -3 2 282.6 12.02 0
 5 -3 3 241.89 11.29 0
 5 -3 4 491.72 16.27 0
 5 -3 5 223.5 11.91 0
 5 -3 6 73.51 8.33 0
 5 -3 8 10.56 5.61 0
 5 -3 9 11.94 5.41 0
 5 -2 -12 21.4 6.17 0
 5 -2 -11 3.81 6.04 0
 5 -2 -9 43.48 6.72 0
 5 -2 -8 55.94 7.46 0
 5 -2 -6 265.18 12.48 0
 5 -2 -5 404.76 15 0
 5 -2 -4 14.72 5.44 0
 5 -2 -3 499.88 15.91 0
 5 -2 -1 161.6 9.48 0
 5 -2 0 44.72 5.88 0
 5 -2 1 157.13 9.01 0
 5 -2 3 499.9 15.73 0
 5 -2 4 16 4.42 0
 5 -2 5 410.26 14.7 0
 5 -2 7 99.63 8.29 0
 5 -2 8 57.96 6.96 0
 5 -2 9 60.4 7.77 0
 5 -1 -11 0.13 4.54 0
 5 -1 -10 85.48 9.21 0
 5 -1 -9 44.5 7.31 0
 5 -1 -8 304.35 13.39 0
 5 -1 -7 50.01 6.55 0
 5 -1 -6 7.84 4.27 0
 5 -1 -5 514.26 15.85 0
 5 -1 -4 366.97 13.83 0
 5 -1 -3 42.68 5.92 0
 5 -1 -2 404.77 13.85 0
 5 -1 0 68.83 6.87 0
 5 -1 1 97.92 7.86 0
 5 -1 2 398.04 13.44 0
 5 -1 3 47.95 6.51 0
 5 -1 4 368.11 13.3 0
 5 -1 5 511.9 15.92 0
 5 -1 6 7.03 4.13 0
 5 -1 7 49.87 7.17 0
 5 0 -11 150.32 10.25 0
 5 0 -9 0.17 4.71 0
 5 0 -8 223.2 11.26 0
 5 0 -7 9.61 5.11 0
 5 0 -5 19.66 4.94 0
 5 0 -4 2.48 3.9 0
 5 0 -3 108.51 7.69 0
 5 0 -2 529.83 15.34 0
 5 0 0 2.99 3.38 0
 5 0 4 4.33 3.88 0
 5 0 5 17.66 4.65 0
 5 0 6 148.1 9.29 0
 5 0 7 13.74 5.03 0
 5 0 8 192.51 11.07 0
 5 1 -12 83.7 8.53 0
 5 1 -10 94.81 8.62 0
 5 1 -9 32.39 6.13 0
 5 1 -8 270.74 11.82 0
 5 1 -6 6.25 4.19 0
 5 1 -5 529.29 15.26 0
 5 1 -4 356.39 12.59 0
 5 1 -3 52.92 6.01 0
 5 1 -2 392.19 12.8 0
 5 1 -1 95.74 7.4 0
 5 1 0 61.29 5.9 0
 5 1 2 388.41 12.97 0
 5 1 4 368.51 13.12 0
 5 1 6 7.47 3.89 0
 5 1 7 55.02 6.75 0
 5 2 -12 18.17 5.36 0
 5 2 -11 -2.63 3.87 0
 5 2 -10 103.98 8.49 0
 5 2 -9 54.41 6.6 0
 5 2 -8 48.8 6.29 0
 5 2 -7 99.02 7.7 0
 5 2 -6 238.64 10.41 0
 5 2 -5 405.61 13.24 0
 5 2 -4 17.58 4.59 0
 5 2 3 492.99 14 0
 5 2 4 13.18 4.42 0
 5 2 5 383.09 12.74 0
 5 2 6 242.18 10.69 0
 5 3 -14 14.7 5.37 0
 5 3 -13 85.49 8.11 0
 5 3 -11 63.43 7.2 0
 5 3 -10 171.58 9.63 0
 5 3 -9 16.11 4.45 0
 5 3 -8 14.53 4.38 0
 5 3 -7 23.08 4.55 0
 5 3 -6 90.22 6.91 0
 5 3 4 485.76 13.77 0
 5 3 5 212.78 9.54 0
 6 -10 -1 1.47 5.13 0
 6 -10 0 -6.82 5.14 0
 6 -9 -5 -0.28 4.93 0
 6 -9 -3 20.59 6.72 0
 6 -9 -2 33.44 7.24 0
 6 -9 -1 10.08 6.58 0
 6 -9 1 4.19 5.37 0
 6 -9 2 28.77 7.76 0
 6 -9 3 12.28 6.79 0
 6 -9 4 76.19 9.87 0
 6 -9 5 5.67 4.75 0
 6 -9 6 121.69 11 0
 6 -8 -9 77.35 11.44 0
 6 -8 -8 104.33 12.38 0
 6 -8 -7 42.38 8.5 0
 6 -8 -6 56.43 9.72 0
 6 -8 -5 19.62 7.73 0
 6 -8 -4 22.53 6.7 0
 6 -8 -3 18.63 7.57 0
 6 -8 -2 100.38 11.07 0
 6 -8 -1 25.88 7.05 0
 6 -8 0 12.78 6.04 0
 6 -8 1 41.71 8.04 0
 6 -8 2 110.71 10.58 0
 6 -8 3 30.41 7.56 0
 6 -8 4 23.59 7.6 0
 6 -8 5 20.17 6.57 0
 6 -8 7 49.17 8.51 0
 6 -7 -11 64.85 9.98 0
 6 -7 -10 229.52 15.86 0
 6 -7 -9 104.74 12.62 0
 6 -7 -8 45.95 8.86 0
 6 -7 -7 9.53 6.6 0
 6 -7 -6 54.13 9.17 0
 6 -7 -3 42.52 8.64 0
 6 -7 -2 184.83 12.87 0
 6 -7 -1 109.67 10.38 0
 6 -7 0 -2.32 4.94 0
 6 -7 1 109.02 10.74 0
 6 -7 2 175.96 12.97 0
 6 -7 3 39.72 8.02 0
 6 -7 4 24.29 6.79 0
 6 -7 8 42.52 8.64 0
 6 -6 -13 17.93 7.73 0
 6 -6 -11 32.84 9.19 0
 6 -6 -10 143.43 12.52 0
 6 -6 -9 11.49 7.78 0
 6 -6 -8 14.62 7.04 0
 6 -6 -6 48.81 9.45 0
 6 -6 -5 74.97 9.61 0
 6 -6 -4 -1.33 5.46 0
 6 -6 -2 22.35 6.71 0
 6 -6 -1 19.53 6.26 0
 6 -6 0 477 18.13 0
 6 -6 1 22.07 6.48 0
 6 -6 2 23.87 6.81 0
 6 -6 3 240.43 14.37 0
 6 -6 4 -1.11 4.96 0
 6 -6 5 71.08 9.84 0
 6 -6 6 68.85 9.2 0
 6 -6 7 94.98 9.8 0
 6 -6 8 16.95 7.46 0
 6 -6 9 26.82 7.46 0
 6 -5 -14 62.11 10.46 0
 6 -5 -12 43.29 8.88 0
 6 -5 -11 10.86 6.68 0
 6 -5 -10 25.32 8.26 0
 6 -5 -9 105.98 11.25 0
 6 -5 -8 35.41 7.97 0
 6 -5 -7 119.49 11.09 0
 6 -5 -6 236.95 14.89 0
 6 -5 -5 24.92 6.96 0
 6 -5 -3 154.96 11.4 0
 6 -5 -2 72.89 9.06 0
 6 -5 -1 -1.41 4.61 0
 6 -5 0 230.36 12.92 0
 6 -5 1 1.56 5.21 0
 6 -5 2 62.78 8.53 0
 6 -5 3 140.89 10.59 0
 6 -5 4 148.64 11.93 0
 6 -5 5 28.58 6.9 0
 6 -5 7 126.59 10.63 0
 6 -5 8 38.46 8.07 0
 6 -5 9 100.17 10.77 0
 6 -4 -15 9.89 7.19 0
 6 -4 -14 66.61 10.16 0
 6 -4 -12 50.87 8.86 0
 6 -4 -11 4.98 6.54 0
 6 -4 -10 78.47 9.96 0
 6 -4 -9 66.78 10.09 0
 6 -4 -8 0.63 6.3 0
 6 -4 -6 225.33 13.85 0
 6 -4 -4 176.04 12.06 0
 6 -4 -3 20.48 6.48 0
 6 -4 -1 168.48 11.44 0
 6 -4 0 0.94 4.68 0
 6 -4 1 188.87 12.04 0
 6 -4 2 155.78 11.36 0
 6 -4 3 14.59 5.66 0
 6 -4 7 97.06 9.95 0
 6 -4 8 7.44 5.76 0
 6 -3 -15 11.99 6.88 0
 6 -3 -14 106.01 12.87 0
 6 -3 -13 64.74 10.54 0
 6 -3 -12 61.31 10.04 0
 6 -3 -11 3.63 6.01 0
 6 -3 -10 93.21 11.37 0
 6 -3 -9 259.39 14.6 0
 6 -3 -8 90.09 9.57 0
 6 -3 -7 58.2 8.47 0
 6 -3 -6 168.36 12.44 0
 6 -3 -5 58.06 8.35 0
 6 -3 -4 26.5 6.33 0
 6 -3 -3 99.65 9.33 0
 6 -3 -2 37.14 6.61 0
 6 -3 0 30.54 6.51 0
 6 -3 2 35.47 6.6 0
 6 -3 3 95.55 8.71 0
 6 -3 4 19.99 6.14 0
 6 -3 5 59.3 8.13 0
 6 -3 6 170.64 12.15 0
 6 -3 8 100.86 10.19 0
 6 -3 9 262.41 14.44 0
 6 -2 -15 14.16 7.01 0
 6 -2 -14 43.54 9.27 0
 6 -2 -13 50.85 9.49 0
 6 -2 -12 158.79 12.55 0
 6 -2 -11 71.71 9.45 0
 6 -2 -9 147.42 11.95 0
 6 -2 -8 0.2 4.74 0
 6 -2 -7 56.84 8.8 0
 6 -2 -6 98.18 9.46 0
 6 -2 -5 145.64 11.26 0
 6 -2 -4 107.92 9.98 0
 6 -2 -3 122.56 10.44 0
 6 -2 -2 19.64 6.21 0
 6 -2 0 41.66 7.02 0
 6 -2 1 32.58 6.34 0
 6 -2 2 21.67 5.86 0
 6 -2 3 117.8 9.26 0
 6 -2 5 145.45 11.11 0
 6 -2 6 90.87 8.98 0
 6 -2 8 6.41 5.53 0
 6 -1 -17 161.96 14.16 0
 6 -1 -16 166.51 13.13 0
 6 -1 -15 31.58 8.77 0
 6 -1 -14 55.84 9.49 0
 6 -1 -13 48.21 8.67 0
 6 -1 -12 6.63 6.3 0
 6 -1 -10 98.7 10.59 0
 6 -1 -9 73.59 8.87 0
 6 -1 -8 56.66 8.1 0
 6 -1 -7 66.93 8.85 0
 6 -1 -6 1.02 4.52 0
 6 -1 -5 25.2 6.12 0
 6 -1 -4 6.46 5.27 0
 6 -1 -3 3.51 4.53 0
 6 -1 -2 121.62 9.13 0
 6 -1 0 2.88 4.03 0
 6 -1 1 23.35 6.05 0
 6 -1 2 113.24 9.15 0
 6 -1 3 2.81 4.21 0
 6 -1 4 2.94 4.32 0
 6 -1 5 16.35 6.12 0
 6 -1 6 6.1 4.89 0
 6 -1 7 56.41 7.59 0
 6 -1 8 52.8 8.35 0
 6 -1 9 89.67 9.12 0
 6 0 -16 20.25 7.31 0
 6 0 -15 104.82 12.33 0
 6 0 -14 159.99 13.15 0
 6 0 -13 82.59 10.43 0
 6 0 -12 21.93 7.32 0
 6 0 -10 26.15 6.63 0
 6 0 -9 5.43 5.76 0
 6 0 -8 26.75 6.36 0
 6 0 -7 73.76 7.97 0
 6 0 -6 288.39 14.02 0
 6 0 -5 128.93 10.47 0
 6 0 -4 28.22 6.65 0
 6 0 -3 1.67 4.05 0
 6 0 -2 14.46 5.08 0
 6 0 -1 112.07 9.05 0
 6 0 0 35.7 6.39 0
 6 0 1 100.88 8.27 0
 6 0 2 7.44 4.38 0
 6 0 3 -1.13 4.08 0
 6 0 4 48.86 7.7 0
 6 0 5 139.87 10.07 0
 6 0 6 260.23 12.9 0
 6 0 8 18.47 5.84 0
 6 1 -17 160.83 13.11 0
 6 1 -16 177.13 13.49 0
 6 1 -15 19.39 6.96 0
 6 1 -14 71.3 9.36 0
 6 1 -13 51.07 7.91 0
 6 1 -12 -0.6 5.49 0
 6 1 -11 75.46 8.56 0
 6 1 -10 79.19 9.03 0
 6 1 -9 90.96 9.28 0
 6 1 -8 54.33 7.63 0
 6 1 -7 76.59 9.2 0
 6 1 -6 1.76 4.35 0
 6 1 -5 19.81 5.28 0
 6 1 -4 7.08 4.59 0
 6 1 -3 -2.92 4.02 0
 6 1 -2 109.31 8.36 0
 6 1 -1 15.84 4.73 0
 6 1 0 0.45 4.52 0
 6 1 1 14.16 5.08 0
 6 1 2 124.1 9.34 0
 6 1 3 6.89 4.38 0
 6 1 4 2.05 4 0
 6 1 5 23.7 5.47 0
 6 1 6 6.86 5.26 0
 6 1 7 56.95 7.49 0
 6 2 -17 -3.46 5.51 0
 6 2 -16 14.35 6.3 0
 6 2 -14 48.56 8.32 0
 6 2 -13 49.35 8.17 0
 6 2 -12 160.38 10.87 0
 6 2 -11 78.9 9.09 0
 6 2 -10 124.69 10.15 0
 6 2 -9 157.03 10.85 0
 6 2 -8 4.87 4.39 0
 6 2 -7 52.95 7.51 0
 6 2 -5 137.92 9.66 0
 6 2 -4 102.7 7.97 0
 6 2 -3 118.81 8.72 0
 6 2 -2 18.58 4.6 0
 6 2 -1 30.22 5.21 0
 6 2 0 38.78 5.81 0
 6 2 1 37.94 5.81 0
 6 2 2 22.65 5.41 0
 6 2 3 110.43 8.91 0
 6 2 4 94.79 8.48 0
 6 2 5 138.35 9.36 0
 6 2 6 104.2 8.61 0
 6 3 -11 8.95 4.18 0
 6 3 -9 270.53 12.51 0
 6 3 -8 102.5 8.05 0
 6 3 -7 48.89 6.25 0
 6 3 -6 163.71 9.37 0
 6 3 -5 48.15 6.21 0
 6 3 -4 18.72 4.52 0
 6 3 -3 97.49 7.69 0
 6 3 0 30.5 5.06 0
 6 3 1 129.3 8.19 0
 6 3 2 39.56 5.64 0
 6 3 3 111.68 7.84 0
 6 3 4 23.15 4.83 0
 6 3 5 48.29 6.74 0
 6 4 0 0.56 2.03 0
 6 4 3 12.49 3.46 0
 6 4 4 191.79 9.67 0
 7 -8 0 58.87 10.33 0
 7 -7 -6 -1.83 6.31 0
 7 -7 -4 55.08 9.23 0
 7 -7 -2 17.49 7.17 0
 7 -7 -1 17.01 7.19 0
 7 -7 1 32.49 8.79 0
 7 -7 2 18.49 7.57 0
 7 -7 6 8.95 6.63 0
 7 -6 -7 27.78 8.78 0
 7 -6 -6 10.5 7.46 0
 7 -6 -5 37.33 9.35 0
 7 -6 -4 34.06 8.2 0
 7 -6 -3 -1.07 5.64 0
 7 -6 -2 109.68 12.6 0
 7 -6 -1 51.12 8.56 0
 7 -6 0 263.97 15.27 0
 7 -6 1 60.89 9.63 0
 7 -6 2 121.02 12.48 0
 7 -6 3 6.68 6.76 0
 7 -6 4 17.07 7.78 0
 7 -6 6 9.77 6.91 0
 7 -6 7 20.3 8.14 0
 7 -5 -9 64.96 10.39 0
 7 -5 -8 52.61 9.66 0
 7 -5 -7 96.63 12.46 0
 7 -5 -6 84.19 11.52 0
 7 -5 -5 16.83 6.99 0
 7 -5 -4 6.72 6.22 0
 7 -5 -3 16.35 7.6 0
 7 -5 0 2.26 5.58 0
 7 -5 1 84.01 10.27 0
 7 -5 2 125.06 11.46 0
 7 -5 3 24.41 7.23 0
 7 -5 4 3.47 5.89 0
 7 -5 5 18.01 6.93 0
 7 -5 6 97.32 11.97 0
 7 -5 7 83.75 11.28 0
 7 -5 8 56.98 10.29 0
 7 -5 9 48.23 9.27 0
 7 -4 -11 16.3 7.63 0
 7 -4 -10 34.89 8.73 0
 7 -4 -9 13.87 7.18 0
 7 -4 -8 117.39 12.69 0
 7 -4 -7 17.18 7.24 0
 7 -4 -6 36.01 8.33 0
 7 -4 -5 70.37 10.69 0
 7 -4 -4 67.77 9.48 0
 7 -4 -3 37.9 8.13 0
 7 -4 -2 346.86 16.68 0
 7 -4 2 354.46 17.55 0
 7 -4 3 32.71 8.32 0
 7 -4 4 68.25 9.87 0
 7 -4 5 74.44 10.58 0
 7 -4 6 34.73 8.34 0
 7 -4 7 20.61 7.09 0
 7 -4 8 102.12 10.53 0
 7 -4 9 13.19 6.8 0
 7 -3 -12 11.69 7.99 0
 7 -3 -11 70.71 10.86 0
 7 -3 -10 7.36 6.53 0
 7 -3 -9 19.96 7.97 0
 7 -3 -8 36.44 9 0
 7 -3 -6 20.91 7.87 0
 7 -3 -4 4.78 5.96 0
 7 -3 -3 1.75 6.22 0
 7 -3 -1 39.09 7.6 0
 7 -3 0 12.57 5.91 0
 7 -3 1 39.06 7.65 0
 7 -3 2 131.97 11.05 0
 7 -3 3 6.56 5.54 0
 7 -3 4 14.11 6.52 0
 7 -3 6 18.83 7.56 0
 7 -3 9 10.94 6.89 0
 7 -2 -12 47.36 9.31 0
 7 -2 -11 7.55 6.52 0
 7 -2 -10 70.4 11.36 0
 7 -2 -9 21.89 7.38 0
 7 -2 -8 0.88 5.97 0
 7 -2 -7 20.65 6.79 0
 7 -2 -6 213.29 13.71 0
 7 -2 -5 12.43 6.84 0
 7 -2 -4 21.98 6.84 0
 7 -2 -3 41.7 8.46 0
 7 -2 -2 419.29 17.61 0
 7 -2 1 229.13 13.43 0
 7 -2 2 436.88 17.98 0
 7 -2 3 50.32 8.95 0
 7 -2 4 28.02 8.18 0
 7 -2 5 17.83 6.69 0
 7 -2 6 224.93 13.63 0
 7 -2 7 37.88 8.23 0
 7 -2 8 2.84 6.6 0
 7 -2 9 15.21 7.18 0
 7 -1 -13 16.06 7.6 0
 7 -1 -12 41.04 8.56 0
 7 -1 -11 113.54 11.27 0
 7 -1 -10 31.97 8.73 0
 7 -1 -9 2.89 5.99 0
 7 -1 -8 80.78 10.13 0
 7 -1 -7 52.43 8.82 0
 7 -1 -6 50.18 9.18 0
 7 -1 -4 36.23 7.42 0
 7 -1 -3 71.41 8.52 0
 7 -1 -2 128.91 10.62 0
 7 -1 -1 66.67 8.92 0
 7 -1 0 -0.81 4.72 0
 7 -1 1 58.12 8.36 0
 7 -1 2 134.18 10.57 0
 7 -1 3 63.65 8.8 0
 7 -1 4 34.85 7.92 0
 7 -1 5 153.25 11.93 0
 7 -1 6 35.07 7.32 0
 7 -1 7 59.8 9.26 0
 7 -1 8 70.9 10.71 0
 7 0 -14 13.73 6.72 0
 7 0 -13 150.91 12.65 0
 7 0 -12 9.81 6.6 0
 7 0 -11 47.25 9.79 0
 7 0 -10 14.92 6.71 0
 7 0 -9 2.43 5.75 0
 7 0 -8 96.7 10.01 0
 7 0 -7 5.45 5.62 0
 7 0 -5 499.51 19.12 0
 7 0 -4 94.62 10.56 0
 7 0 -3 87.5 9.01 0
 7 0 -2 4.3 5.01 0
 7 0 -1 108.41 9.47 0
 7 0 0 -3.53 4.28 0
 7 0 1 108.44 10.17 0
 7 0 2 2.21 5.9 0
 7 0 3 83.56 9.28 0
 7 0 5 504.41 19.14 0
 7 0 6 105.43 10.34 0
 7 0 7 1.88 5.44 0
 7 0 8 90.12 10.97 0
 7 1 -14 32.6 7.34 0
 7 1 -13 14.45 6.79 0
 7 1 -11 103.39 10.89 0
 7 1 -10 24.68 7.53 0
 7 1 -9 13.27 6.33 0
 7 1 -8 63.54 8.76 0
 7 1 -7 49.89 8.48 0
 7 1 -6 42.74 7.73 0
 7 1 -5 144.82 11.19 0
 7 1 -4 40.52 7.28 0
 7 1 -2 130.41 9.84 0
 7 1 -1 51.58 7.47 0
 7 1 0 4.45 4.99 0
 7 1 2 129.72 10.16 0
 7 1 3 87.68 8.95 0
 7 1 4 28.25 7.08 0
 7 1 5 149.2 11.36 0
 7 1 6 44.27 7.59 0
 7 2 -13 46.15 7.8 0
 7 2 -12 40.18 7.36 0
 7 2 -11 8.73 5.64 0
 7 2 -10 61.37 8.69 0
 7 2 -9 20.51 6.46 0
 7 2 -8 -0.17 4.88 0
 7 2 -7 30.1 6.63 0
 7 2 -6 218.45 12.5 0
 7 2 -5 11.81 4.94 0
 7 2 -4 17.06 5.69 0
 7 2 -3 43.38 7.05 0
 7 2 1 258.95 13.35 0
 7 2 2 415.41 15.92 0
 7 2 3 50.91 7.73 0
 7 2 4 17.42 6.39 0
 7 2 5 21.15 6.07 0
 7 3 -3 2.62 3.57 0
 7 3 -2 148.96 9.63 0
 7 3 -1 30.43 5.38 0
 7 3 0 14.4 4.61 0
 7 3 1 38.53 6.67 0
 7 3 2 150.75 9.64 0
 7 3 3 8.02 4.65 0
 7 3 4 10.69 4.97 0
 7 3 5 26.27 5.86 0
 8 -5 -1 0.31 7.65 0
 8 -5 0 8.83 6.84 0
 8 -5 1 -0.6 7.05 0
 8 -5 2 10.7 7.29 0
 8 -4 -5 53.11 10.47 0
 8 -4 -2 4.69 6.34 0
 8 -4 -1 114.94 13.19 0
 8 -4 1 121.17 12.66 0
 8 -4 2 4.7 6.82 0
 8 -4 3 156.7 13.01 0
 8 -4 4 16.47 7 0
 8 -4 5 32.28 9.31 0
 8 -3 -6 40.13 9.02 0
 8 -3 -4 63.85 9.77 0
 8 -3 -3 18.93 7.69 0
 8 -3 -2 56.18 9.66 0
 8 -3 0 5.08 6.26 0
 8 -3 1 29.25 8.59 0
 8 -3 3 21.65 7.6 0
 8 -3 4 74.04 11.36 0
 8 -3 6 33.8 8.78 0
 8 -3 7 18.17 8.03 0
 8 -2 -8 19.94 8.12 0
 8 -2 -7 191.49 14.08 0
 8 -2 -6 108.8 11.3 0
 8 -2 -4 121.26 11.8 0
 8 -2 -3 105.81 12.8 0
 8 -2 -2 42.5 8.65 0
 8 -2 -1 14.3 7.18 0
 8 -2 1 31.22 8.5 0
 8 -2 2 54.57 9.42 0
 8 -2 3 112.07 11.94 0
 8 -2 4 121.9 11.75 0
 8 -2 5 103.64 10.77 0
 8 -2 6 101.61 12.29 0
 8 -2 7 180.37 14.02 0
 8 -2 8 16.88 7.66 0
 8 -1 -9 83.65 11.05 0
 8 -1 -8 26.24 8.5 0
 8 -1 -7 85.66 11.37 0
 8 -1 -6 106.99 12.63 0
 8 -1 -5 18.22 7.71 0
 8 -1 -4 66.73 9.79 0
 8 -1 -3 16.03 6.67 0
 8 -1 -2 16.76 7.56 0
 8 -1 -1 30.71 7.44 0
 8 -1 0 147.8 12.85 0
 8 -1 1 38.07 8.79 0
 8 -1 2 20.54 7.55 0
 8 -1 4 72.3 10.29 0
 8 -1 6 107.33 11.3 0
 8 -1 8 31.71 8.23 0
 8 0 -9 50.55 8.85 0
 8 0 -8 20.82 8.11 0
 8 0 -7 27.35 7.53 0
 8 0 -6 506.62 20.49 0
 8 0 -5 133.26 12.12 0
 8 0 -4 252.74 14.53 0
 8 0 -3 72.85 10.04 0
 8 0 -2 8.29 5.9 0
 8 0 -1 330.58 16.8 0
 8 0 0 144.41 11.87 0
 8 0 1 323.77 16.33 0
 8 0 2 10.21 6.04 0
 8 0 3 66.09 10.03 0
 8 0 5 138.8 12.62 0
 8 0 6 474.23 20.13 0
 8 0 7 24.55 7.96 0
 8 1 -10 55.29 9.29 0
 8 1 -9 97.21 11.85 0
 8 1 -8 23.98 6.78 0
 8 1 -7 81.04 10 0
 8 1 -6 115.68 10.57 0
 8 1 -5 26.1 7.06 0
 8 1 -4 62.71 9.25 0
 8 1 -3 10.91 5.91 0
 8 1 -2 24.21 6.88 0
 8 1 -1 33.63 8.07 0
 8 1 0 134.03 11.33 0
 8 1 1 38.58 7.75 0
 8 1 2 16.18 6.58 0
 8 1 3 19.85 6.71 0
 8 1 4 78.11 9.74 0
 8 1 5 22.21 7.09 0
 8 1 6 122.25 11.97 0
 8 2 -7 195.52 12.45 0
 8 2 -6 114.89 10.27 0
 8 2 -5 98.5 9.39 0
 8 2 -4 118.64 10.54 0
 8 2 -1 27.15 6.96 0
 8 2 0 340.92 15.62 0
 8 2 1 24.04 6.52 0
 8 2 2 56.21 8.33 0
 8 2 3 112.35 10.46 0
 8 2 4 105.33 10.44 0
 8 2 5 87.51 10.93 0
 -2 -5 7 62.57 2.11 0
 -2 -5 8 213.53 3.2 0
 -2 -4 5 66.18 1.68 0
 -2 -3 9 511.81 4.42 0
 -2 -3 11 3.3 1.07 0
 -2 -3 12 19.61 2.17 0
 -2 -3 13 35 2.61 0
 -2 -2 8 298.35 3.93 0
 -2 -2 9 261.08 4.6 0
 -2 -2 10 202.99 4.63 0
 -2 -2 11 51.49 2.92 0
 -2 -2 12 141.71 4.79 0
 -2 -2 13 492.98 9.15 0
 -2 -2 14 43.11 3.54 0
 -2 -1 7 296.87 4.68 0
 -2 -1 8 56.89 2.68 0
 -2 -1 9 183.43 4.9 0
 -2 -1 10 166.67 5.06 0
 -2 -1 11 22.62 2.71 0
 -2 -1 13 20.49 3.05 0
 -2 -1 14 9.16 2.52 0
 -2 -1 15 112.59 5.89 0
 -2 0 7 134.29 4.33 0
 -2 0 8 8.21 1.8 0
 -2 0 9 61.34 3.85 0
 -2 0 10 497.25 9.84 0
 -2 0 11 219.23 6.96 0
 -2 0 12 121.17 5.84 0
 -2 0 13 309.84 9.06 0
 -2 0 14 104.02 6.12 0
 -2 0 16 199.95 8.89 0
 -2 0 17 2.53 3.7 0
 -2 0 18 85.71 6.74 0
 -2 1 7 297.72 7.38 0
 -2 1 8 55.19 3.96 0
 -2 1 10 168.55 6.57 0
 -2 1 11 13.74 3.44 0
 -2 1 12 543.24 12.55 0
 -2 1 15 136.36 7.84 0
 -2 1 16 9.14 3.91 0
 -2 1 17 217.51 9.9 0
 -2 1 18 157.25 8.98 0
 -2 1 19 22.04 5.13 0
 -2 2 9 256.25 8.53 0
 -2 2 10 217.14 8.51 0
 -2 2 11 56.69 5.12 0
 -2 2 14 37.34 5.57 0
 -2 2 15 141.66 8.69 0
 -2 2 16 137.15 8.59 0
 -2 2 17 137.11 9.02 0
 -2 2 18 39.07 6.46 0
 -2 2 19 115.15 8.98 0
 -2 2 20 5.1 4.22 0
 -2 3 12 19.37 4.49 0
 -2 3 13 37.97 5.53 0
 -2 3 14 74.81 6.69 0
 -2 3 15 32.67 5.56 0
 -2 3 16 84.68 7.65 0
 -2 3 17 25.81 6.18 0
 -2 3 18 20.89 5.71 0
 -2 3 19 204.37 11.82 0
 -2 3 20 149.58 10.65 0
 -2 3 21 72.31 9.18 0
 -2 4 11 5.17 3.68 0
 -2 4 12 27.76 5.15 0
 -2 4 13 57.97 7.16 0
 -2 4 14 46.92 6.45 0
 -2 4 15 225.92 11.47 0
 -2 4 16 194.91 11.52 0
 -2 4 17 82.81 9.03 0
 -2 4 18 68.05 8.25 0
 -2 4 19 78.6 9.32 0
 -2 4 20 7.18 5.68 0
 -1 -5 12 87.13 4.72 0
 -1 -5 13 46.21 3.98 0
 -1 -4 11 130.33 5.33 0
 -1 -4 12 322.22 8.32 0
 -1 -4 13 105.51 5.38 0
 -1 -4 14 272.85 8.36 0
 -1 -4 15 52.01 4.59 0
 -1 -3 9 673.78 9.81 0
 -1 -3 10 487.98 9.05 0
 -1 -3 11 32.9 3.39 0
 -1 -3 12 102.15 5.15 0
 -1 -3 13 374.85 9.45 0
 -1 -3 14 253.3 8.24 0
 -1 -3 17 31.35 4.34 0
 -1 -2 2 4196.09 12.77 0
 -1 -2 6 414.67 5.69 0
 -1 -2 7 1051.77 10.13 0
 -1 -2 8 1003.2 11.06 0
 -1 -2 9 176.69 5.26 0
 -1 -2 10 117.69 4.77 0
 -1 -2 11 459.47 9.53 0
 -1 -2 12 631.47 11.77 0
 -1 -2 13 488.21 10.99 0
 -1 -2 14 4.31 2.6 0
 -1 -2 17 3.99 2.98 0
 -1 -2 18 182.36 8.71 0
 -1 -1 5 1813.93 10.43 0
 -1 -1 6 2432.85 14.26 0
 -1 -1 7 291.74 5.81 0
 -1 -1 8 1011.01 11.53 0
 -1 -1 9 230.92 6.21 0
 -1 -1 10 978.79 13.47 0
 -1 -1 12 23.06 3.32 0
 -1 -1 13 43.17 4.52 0
 -1 -1 14 346.94 10.33 0
 -1 -1 16 198.77 8.79 0
 -1 -1 18 24.84 4.81 0
 -1 -1 19 55.45 6.65 0
 -1 0 3 19.3 1.5 0
 -1 0 4 -0.83 0.96 0
 -1 0 6 2231.95 15.51 0
 -1 0 7 297.88 6.39 0
 -1 0 8 42.89 3.13 0
 -1 0 10 288.83 7.91 0
 -1 0 11 112.36 5.78 0
 -1 0 12 2198.23 23.79 0
 -1 0 13 4.88 3.31 0
 -1 0 16 78.1 6.77 0
 -1 0 17 231.68 10.32 0
 -1 0 18 34.18 5.35 0
 -1 0 19 243.71 11.05 0
 -1 0 20 13.37 4.54 0
 -1 1 3 208.26 4.59 0
 -1 1 5 1872.95 15.54 0
 -1 1 6 2395.77 18.66 0
 -1 1 7 288.3 7.29 0
 -1 1 8 983.87 13.8 0
 -1 1 10 963.47 15.31 0
 -1 1 11 422.3 10.79 0
 -1 1 12 20.96 4.21 0
 -1 1 15 0.57 3.26 0
 -1 1 16 206.43 9.7 0
 -1 1 17 134.48 8.93 0
 -1 1 18 26.87 5.22 0
 -1 1 19 79.81 8.11 0
 -1 1 20 15.02 5.03 0
 -1 1 21 10.13 4.83 0
 -1 2 3 1443.74 14.67 0
 -1 2 4 2611.29 20.12 0
 -1 2 5 749.71 11.85 0
 -1 2 6 416.14 9.3 0
 -1 2 7 1056.95 15.01 0
 -1 2 9 165.52 7.25 0
 -1 2 10 112.42 6.61 0
 -1 2 11 444.12 11.93 0
 -1 2 14 0.73 3.5 0
 -1 2 16 32.81 5.57 0
 -1 2 17 8.22 4.52 0
 -1 2 18 188.89 11.27 0
 -1 2 19 17.17 5.43 0
 -1 2 20 42.13 7.39 0
 -1 2 21 40.42 6.83 0
 -1 2 22 73.97 9.31 0
 -1 3 4 816.8 13.56 0
 -1 3 5 197.69 7.02 0
 -1 3 6 306.53 8.93 0
 -1 3 7 202.95 7.69 0
 -1 3 8 1982.8 23.72 0
 -1 3 9 665.98 14.64 0
 -1 3 12 97.21 7.36 0
 -1 3 14 242.38 11.47 0
 -1 3 15 173.53 9.89 0
 -1 3 16 156.91 10.44 0
 -1 3 17 37.39 6.48 0
 -1 3 18 13.83 5.34 0
 -1 3 19 213.25 12.9 0
 -1 3 20 167.45 12.18 0
 -1 3 21 140.27 10.87 0
 -1 3 22 12.98 6.81 0
 -1 3 23 0.79 5.21 0
 -1 4 6 451.11 11.6 0
 -1 4 7 172.24 8.08 0
 -1 4 11 137.43 8.98 0
 -1 4 14 285.32 12.74 0
 -1 4 15 46.46 6.76 0
 -1 4 16 154.31 11.18 0
 -1 4 17 196.33 12.07 0
 -1 4 18 202.41 12.35 0
 -1 4 19 10.05 5.75 0
 -1 4 20 261.37 14.31 0
 -1 4 21 20.65 6.69 0
 -1 4 22 87.86 10.97 0
 -1 5 9 532.09 15.39 0
 -1 5 10 90.81 7.89 0
 -1 5 12 95.12 8.06 0
 -1 5 13 43.36 7.23 0
 -1 5 14 53.17 7.42 0
 -1 5 15 101.2 9.83 0
 -1 5 16 9.84 6.09 0
 -1 5 17 6.51 5.58 0
 -1 5 20 6.48 6.37 0
 -1 5 21 34.67 8.45 0
 -1 6 9 123.18 8.51 0
 -1 6 10 6.28 4.49 0
 -1 6 11 192.97 10.71 0
 -1 6 12 24.89 5.9 0
 -1 6 13 70.63 8.58 0
 -1 6 14 37.71 7.63 0
 -1 6 18 39.86 8.95 0
 -1 6 19 103.08 10.92 0
 -1 6 20 25.41 7.49 0
 -1 7 13 139.36 11.23 0
 -1 7 14 111.97 11.04 0
 -1 7 15 102.51 11.5 0
 -1 7 17 217.29 14.74 0
 0 -6 15 185.36 8.83 0
 0 -5 14 254.8 9.76 0
 0 -5 15 60.25 5.96 0
 0 -5 16 230.46 10 0
 0 -5 17 42.75 5.51 0
 0 -4 16 84.85 6.82 0
 0 -4 17 514.6 14.51 0
 0 -4 18 9.13 4.01 0
 0 -3 12 3.98 3.22 0
 0 -3 15 241.97 9.73 0
 0 -3 16 7.32 4.02 0
 0 -3 17 4.1 3.69 0
 0 -3 18 195.8 9.76 0
 0 -3 19 8.57 4.53 0
 0 -2 10 4.96 2.48 0
 0 -2 11 1147.23 17.13 0
 0 -2 12 22.42 3.87 0
 0 -2 17 64.69 6.1 0
 0 -2 18 447.6 14.51 0
 0 -2 19 342.03 13.24 0
 0 -2 20 35.89 6.36 0
 0 -1 0 -0.22 0.83 0
 0 -1 7 2284.5 18.55 0
 0 -1 8 57.74 4.01 0
 0 -1 9 52.96 4.01 0
 0 -1 10 116.79 5.69 0
 0 -1 11 28.84 3.94 0
 0 -1 12 1259.89 19.23 0
 0 -1 15 11.19 3.94 0
 0 -1 16 44.45 5.72 0
 0 -1 17 23.05 5.16 0
 0 -1 18 190.94 10.36 0
 0 -1 19 83.77 8.01 0
 0 -1 20 -0.74 3.91 0
 0 -1 21 44.03 7.05 0
 0 0 2 1329.11 7.57 0
 0 0 3 1.58 1.28 0
 0 0 4 5287.23 21.66 0
 0 0 5 1.89 1.58 0
 0 0 6 384.54 7.81 0
 0 0 7 -0.3 2.22 0
 0 0 8 115.77 5.33 0
 0 0 9 -0.7 2.01 0
 0 0 10 1050.44 16.08 0
 0 0 11 -1.87 2.4 0
 0 0 15 -1.97 3.08 0
 0 0 17 2.26 3.45 0
 0 0 19 3.54 4.21 0
 0 0 20 357.7 14.74 0
 0 0 22 298.37 13.92 0
 0 1 1 2358.54 11.08 0
 0 1 2 610.26 6.68 0
 0 1 3 2042.25 13.43 0
 0 1 4 4913.68 23.22 0
 0 1 5 409.48 7.65 0
 0 1 6 538.06 9.55 0
 0 1 7 2264.9 20.45 0
 0 1 8 57.12 4.18 0
 0 1 9 49.32 4.23 0
 0 1 10 116.48 6.39 0
 0 1 11 29.69 4.3 0
 0 1 14 3.36 3.68 0
 0 1 15 11.3 4.13 0
 0 1 16 43.8 5.91 0
 0 1 17 14.59 5.29 0
 0 1 18 201.49 11.26 0
 0 1 19 76.87 7.89 0
 0 1 20 2.49 4.41 0
 0 1 21 41.61 7.22 0
 0 1 22 123.83 10.53 0
 0 1 23 48.37 8.17 0
 0 2 1 5860.06 23.69 0
 0 2 2 222.35 5.24 0
 0 2 3 4968.72 25.05 0
 0 2 4 7508.05 32.93 0
 0 2 5 561.73 10.03 0
 0 2 6 3156.04 24.51 0
 0 2 7 1032.05 15.16 0
 0 2 8 11.38 2.84 0
 0 2 9 10.24 3.15 0
 0 2 10 8.29 3.37 0
 0 2 13 -2.37 3.06 0
 0 2 14 121.22 8.32 0
 0 2 15 111.08 8.78 0
 0 2 16 1080.83 23.18 0
 0 2 18 466.76 16.86 0
 0 2 19 328.54 14.54 0
 0 2 20 29.74 6.76 0
 0 2 21 32.58 7.73 0
 0 2 22 7.95 6.16 0
 0 2 23 58 9.35 0
 0 3 1 120.09 4.64 0
 0 3 2 683.45 10.56 0
 0 3 4 3447.23 25.81 0
 0 3 5 5.47 2.37 0
 0 3 6 60.38 4.21 0
 0 3 7 463.78 11.03 0
 0 3 8 24.23 3.62 0
 0 3 12 0.07 3.17 0
 0 3 13 241.19 10.89 0
 0 3 14 7.54 4.07 0
 0 3 16 8.22 5.09 0
 0 3 17 1.92 4.67 0
 0 3 18 197.02 11.86 0
 0 3 19 10.58 5.51 0
 0 3 20 165.49 12.51 0
 0 3 21 4.71 5.67 0
 0 3 22 75.73 9.74 0
 0 3 23 23.22 7.45 0
 0 4 2 1600.8 18.56 0
 0 4 3 3931.64 29.52 0
 0 4 4 378.54 10.11 0
 0 4 10 32.78 4.89 0
 0 4 11 221.66 10.06 0
 0 4 12 114.27 8.04 0
 0 4 13 222.56 11 0
 0 4 14 15.91 5.01 0
 0 4 15 648.23 19.45 0
 0 4 16 94.79 9.51 0
 0 4 17 494.79 18.3 0
 0 4 18 2.38 5.07 0
 0 4 19 108.9 11.05 0
 0 4 20 56.77 9.43 0
 0 4 21 11.2 6.29 0
 0 4 22 114.5 12.19 0
 0 5 5 361.67 11.06 0
 0 5 9 10.02 3.74 0
 0 5 10 4.13 3.66 0
 0 5 11 25.13 5.71 0
 0 5 14 245.54 13.05 0
 0 5 15 52.76 8.23 0
 0 5 16 240.06 13.53 0
 0 5 17 47.09 8.02 0
 0 5 18 298.22 16.26 0
 0 5 19 59.64 10.12 0
 0 5 20 359.79 18.46 0
 0 5 21 339.75 17.92 0
 0 6 7 2.26 3.07 0
 0 6 8 319.24 12.31 0
 0 6 10 62.32 7.14 0
 0 6 11 6.74 4.29 0
 0 6 12 87.74 9.28 0
 0 6 14 533.04 19.34 0
 0 6 16 -1.5 5.32 0
 0 6 17 394.58 18.38 0
 0 6 18 13.7 6.64 0
 0 6 19 2.84 6.67 0
 0 6 20 19.92 8.4 0
 0 7 7 138.83 9.07 0
 0 7 8 4.07 4.47 0
 0 7 9 42.15 6.48 0
 0 7 10 48.01 6.94 0
 0 7 11 269.26 13.17 0
 0 7 12 102.65 9.79 0
 0 7 13 7.29 5.61 0
 0 7 14 11.52 5.93 0
 0 7 15 4.07 5.52 0
 0 7 16 202.34 14.45 0
 0 7 17 7.57 6.88 0
 0 7 18 47.42 9.09 0
 0 7 19 -0.71 5.52 0
 0 8 10 8.24 5.55 0
 0 8 11 14.03 6.21 0
 0 8 12 20.57 7.68 0
 0 8 13 2.86 5.78 0
 0 8 14 435.14 18.93 0
 0 8 15 1.76 5.71 0
 0 8 18 138.98 13.87 0
 1 -6 17 59.89 7.38 0
 1 -5 16 8.2 4.35 0
 1 -5 17 -1.05 3.61 0
 1 -5 18 86.23 8 0
 1 -5 19 42.79 6.31 0
 1 -4 15 56.5 6.85 0
 1 -4 16 161.82 9.95 0
 1 -4 17 196.23 10.96 0
 1 -4 18 226.98 11.7 0
 1 -4 20 250.6 12.38 0
 1 -3 14 249 10.91 0
 1 -3 16 170.17 10.12 0
 1 -3 17 37.28 6.01 0
 1 -3 18 15.24 5.35 0
 1 -3 20 166.74 10.95 0
 1 -3 21 140.91 10.13 0
 1 -2 13 499.49 14.15 0
 1 -2 14 2.94 3.38 0
 1 -2 15 80.91 7.15 0
 1 -2 16 42.09 5.89 0
 1 -2 17 7.63 4.57 0
 1 -2 18 181.89 10.63 0
 1 -2 19 16.53 5.2 0
 1 -2 20 46.17 6.99 0
 1 -2 21 39.71 6.72 0
 1 -2 22 80.02 9.2 0
 1 -1 10 949.7 16.49 0
 1 -1 13 52.45 6.47 0
 1 -1 15 4.74 3.85 0
 1 -1 16 214.86 10.83 0
 1 -1 17 138.93 9.87 0
 1 -1 18 39.07 6.61 0
 1 -1 19 70.42 8.18 0
 1 -1 20 19.68 6.45 0
 1 -1 21 -2.53 4.35 0
 1 -1 22 67.62 8.6 0
 1 -1 23 21.46 6.51 0
 1 0 7 308.95 8.26 0
 1 0 8 40.88 4.26 0
 1 0 9 806.15 14.91 0
 1 0 10 309.16 9.84 0
 1 0 13 -0.18 2.97 0
 1 0 14 199.89 10.17 0
 1 0 15 156.57 9.9 0
 1 0 16 74.52 7.37 0
 1 0 17 223.8 11.84 0
 1 0 18 43.55 7.53 0
 1 0 19 264.52 13.06 0
 1 0 20 11.82 5.7 0
 1 0 22 33.95 7.02 0
 1 0 23 -0.44 5.53 0
 1 1 0 5594.14 15.58 0
 1 1 1 2653.72 13.39 0
 1 1 2 1800.83 12.79 0
 1 1 6 2451.62 21.85 0
 1 1 7 288.56 8.47 0
 1 1 8 1048.02 16.45 0
 1 1 9 243.7 8.59 0
 1 1 10 990.83 17.81 0
 1 1 13 37.88 5.48 0
 1 1 14 374.02 13.58 0
 1 1 15 3.36 3.96 0
 1 1 16 208.73 11.03 0
 1 1 17 133.96 9.56 0
 1 1 18 34.57 6.55 0
 1 1 20 14.33 5.88 0
 1 1 21 4.48 5.75 0
 1 1 22 77.31 10.12 0
 1 1 23 19.62 6.55 0
 1 2 -1 6718.74 18.98 0
 1 2 0 142.24 3.39 0
 1 2 1 6652.18 24.46 0
 1 2 2 3998.49 21.19 0
 1 2 3 1416.44 13.95 0
 1 2 4 2622.44 20.5 0
 1 2 6 427.09 9.94 0
 1 2 12 642.88 16.06 0
 1 2 14 4.81 4.52 0
 1 2 15 87.37 7.66 0
 1 2 16 47.76 7.26 0
 1 2 17 6.72 4.74 0
 1 2 18 184.54 12.21 0
 1 2 19 25.43 7.16 0
 1 2 20 38.16 7.78 0
 1 2 21 37.07 7.55 0
 1 2 22 65.51 9.1 0
 1 3 0 6.84 2.12 0
 1 3 1 58.39 3.49 0
 1 3 4 788.47 12.41 0
 1 3 5 203.36 6.97 0
 1 3 11 38.44 5.28 0
 1 3 12 94.1 7.62 0
 1 3 13 374.91 13.84 0
 1 3 14 246.68 11.97 0
 1 3 15 194.15 11.48 0
 1 3 16 163.26 11.06 0
 1 3 17 29.47 6.53 0
 1 3 18 7.7 5.75 0
 1 3 19 217.16 13.14 0
 1 3 21 126.24 11.42 0
 1 3 22 -0.05 5.44 0
 1 4 0 227.26 6.37 0
 1 4 1 312.74 7.6 0
 1 4 2 1414.34 16.85 0
 1 4 3 1651.9 18.87 0
 1 4 7 158.86 7.82 0
 1 4 10 16.87 4.13 0
 1 4 11 139.19 8.49 0
 1 4 12 317.73 12.41 0
 1 4 13 105.25 8.27 0
 1 4 14 274.25 12.66 0
 1 4 16 153.52 10.63 0
 1 4 17 194.09 12.26 0
 1 4 18 212.21 13.02 0
 1 4 19 7.03 6.17 0
 1 4 20 279.05 16 0
 1 4 22 103.78 12.74 0
 1 5 3 78.78 5.28 0
 1 5 4 631.9 13.83 0
 1 5 5 147.12 7.3 0
 1 5 10 87.79 8.02 0
 1 5 11 213.01 10.8 0
 1 5 12 87.36 8.2 0
 1 5 13 49.87 7.36 0
 1 5 14 52.52 7.19 0
 1 5 15 95.08 9.44 0
 1 5 16 5.61 5.23 0
 1 5 17 5.47 5.66 0
 1 5 18 94.23 11.45 0
 1 5 19 44.84 8.69 0
 1 5 20 9.92 6.79 0
 1 5 21 40.34 9.24 0
 1 6 3 144.6 7.67 0
 1 6 7 149.69 8.76 0
 1 6 8 121.82 8.42 0
 1 6 10 8.58 4.63 0
 1 6 11 206.45 11.98 0
 1 6 12 19.05 5.58 0
 1 6 14 46.3 7.65 0
 1 6 15 313.83 16.18 0
 1 6 16 286.66 15.32 0
 1 6 17 54.2 9.36 0
 1 6 18 49.29 9.45 0
 1 6 20 15.16 7.88 0
 1 7 4 21.44 4.66 0
 1 7 5 10.17 4.39 0
 1 7 6 70.03 6.94 0
 1 7 7 349.98 13.89 0
 1 7 8 128.19 8.94 0
 1 7 9 163.22 10.49 0
 1 7 10 186.09 11.25 0
 1 7 11 403.18 16.29 0
 1 7 12 48.51 7.87 0
 1 7 13 155.01 12.22 0
 1 7 14 112.88 11.73 0
 1 7 15 96.85 11.77 0
 1 7 16 23.91 7.7 0
 1 7 17 214.86 15.5 0
 1 7 18 45.34 9.2 0
 1 7 19 34.31 8.62 0
 1 8 7 11.75 4.97 0
 1 8 8 41.57 6.8 0
 1 8 9 152.93 11.38 0
 1 8 10 297.82 14.96 0
 1 8 12 48.15 8.14 0
 1 8 13 248.02 14.68 0
 1 8 14 21.72 7.76 0
 1 8 15 56.93 9.45 0
 1 8 16 11.83 7.12 0
 1 8 17 15.59 7.81 0
 1 9 10 19.46 6.85 0
 1 9 11 1.06 5.44 0
 1 9 12 114.71 11.9 0
 1 9 14 65.66 9.99 0
 1 9 15 167.18 14.16 0
 1 9 16 18.75 7.61 0
 2 -6 18 42.18 7.49 0
 2 -6 19 60.21 7.81 0
 2 -5 17 11.21 5.29 0
 2 -5 18 116.22 10.67 0
 2 -5 19 38.22 6.98 0
 2 -4 17 90.02 9.12 0
 2 -4 19 91.52 10.53 0
 2 -4 20 9.01 5.47 0
 2 -4 21 35.95 7.51 0
 2 -4 22 1.38 5.38 0
 2 -3 15 32.84 6.2 0
 2 -3 16 77.96 7.96 0
 2 -3 17 26.72 6.3 0
 2 -3 18 26.86 7.28 0
 2 -3 19 198.75 12.83 0
 2 -3 20 142.52 11.4 0
 2 -3 21 92.43 10.48 0
 2 -3 22 45.08 7.7 0
 2 -2 13 509.07 15.23 0
 2 -2 14 51.23 6.55 0
 2 -2 15 157.41 10.02 0
 2 -2 16 136.77 9.92 0
 2 -2 17 169.97 11.21 0
 2 -2 19 109.75 9.94 0
 2 -2 20 13.06 6.04 0
 2 -2 21 222.03 13.48 0
 2 -2 22 96.67 10.48 0
 2 -1 12 587.61 15.94 0
 2 -1 13 23.66 5.59 0
 2 -1 14 8.32 4.4 0
 2 -1 15 136.77 9.46 0
 2 -1 16 3.66 4.45 0
 2 -1 17 208.48 12.48 0
 2 -1 18 149.05 10.94 0
 2 -1 19 23.38 6.62 0
 2 -1 20 116.69 11.46 0
 2 -1 21 57.04 8.34 0
 2 -1 22 197.69 13.23 0
 2 -1 23 6.01 6.8 0
 2 0 14 103.13 8.19 0
 2 0 15 139.68 9.93 0
 2 0 16 223.42 12.16 0
 2 0 17 1.42 4.44 0
 2 0 18 71.22 9.43 0
 2 0 20 3.88 5.81 0
 2 0 21 14.13 6.47 0
 2 0 22 6.41 5.95 0
 2 0 23 146.13 12.57 0
 2 1 5 410.65 9.41 0
 2 1 6 1479.32 18.64 0
 2 1 11 16.6 4.03 0
 2 1 12 597.4 16.24 0
 2 1 13 18.32 4.72 0
 2 1 14 14.82 4.95 0
 2 1 15 113.67 8.97 0
 2 1 16 7.45 4.76 0
 2 1 17 204.76 12.01 0
 2 1 18 160.51 11.39 0
 2 1 19 31.48 7.13 0
 2 1 21 46.08 8.94 0
 2 1 22 201.62 13.99 0
 2 2 -1 240.68 4.12 0
 2 2 0 4806.82 20.74 0
 2 2 1 243.89 5.68 0
 2 2 2 1063.91 12.43 0
 2 2 3 330.3 7.96 0
 2 2 4 133.05 5.82 0
 2 2 5 115.73 5.43 0
 2 2 11 58.87 6.28 0
 2 2 12 145.44 8.54 0
 2 2 14 48.85 6.54 0
 2 2 15 175.74 11.24 0
 2 2 16 131.01 9.91 0
 2 2 17 142.24 10.57 0
 2 2 18 28.55 6.68 0
 2 2 19 104.69 10.87 0
 2 2 20 3.51 6.62 0
 2 2 21 189.54 14.07 0
 2 2 22 80.01 10.88 0
 2 3 -2 62.92 2.18 0
 2 3 -1 1152.9 10.12 0
 2 3 1 1164.37 12.68 0
 2 3 2 64.04 3.65 0
 2 3 3 1412.72 16.44 0
 2 3 7 568.5 13.36 0
 2 3 10 305 11.37 0
 2 3 11 4.49 3.7 0
 2 3 12 21.91 4.92 0
 2 3 14 64.94 7.09 0
 2 3 17 19.42 6.18 0
 2 3 18 24.43 7.68 0
 2 3 19 201.58 13.23 0
 2 3 21 67.61 10.52 0
 2 4 -1 442.74 7.61 0
 2 4 0 65.44 3.63 0
 2 4 1 435.04 8.93 0
 2 4 5 64.18 4.99 0
 2 4 6 705.19 14.97 0
 2 4 9 252.01 10.39 0
 2 4 10 97.65 7.62 0
 2 4 11 3.19 3.49 0
 2 4 12 18.87 4.76 0
 2 4 15 237.26 12.89 0
 2 4 16 217.9 12.55 0
 2 4 17 64.42 8.97 0
 2 4 19 123.36 11.36 0
 2 4 20 7.22 6.35 0
 2 4 21 43.27 8.97 0
 2 5 2 247.03 8.13 0
 2 5 3 761.52 14.46 0
 2 5 9 122.62 7.9 0
 2 5 10 357.03 13.68 0
 2 5 11 33.27 6.36 0
 2 5 12 213.81 11.44 0
 2 5 14 103.61 9.48 0
 2 5 15 15.13 6.17 0
 2 5 16 159.68 11.82 0
 2 5 17 6.84 5.81 0
 2 5 18 109.81 11.58 0
 2 5 19 22.97 8.26 0
 2 5 20 78.24 10.97 0
 2 6 1 982.26 16.2 0
 2 6 3 102.44 6.53 0
 2 6 6 199.19 9.77 0
 2 6 8 211.76 10.82 0
 2 6 9 413.3 14.57 0
 2 6 10 320.25 13.63 0
 2 6 11 60.15 7.38 0
 2 6 12 4.79 4.53 0
 2 6 13 172.16 11.4 0
 2 6 14 23.64 6.75 0
 2 6 15 7.94 5.41 0
 2 6 17 214.48 14.73 0
 2 6 18 35.42 8.19 0
 2 6 19 58.95 9.87 0
 2 7 4 146.81 8.62 0
 2 7 5 414.85 13.75 0
 2 7 6 437.41 14.78 0
 2 7 7 153.13 9.4 0
 2 7 10 13.15 5.28 0
 2 7 12 89.36 9.23 0
 2 7 13 114.88 10.22 0
 2 7 14 63.79 9.25 0
 2 7 15 72.38 10.49 0
 2 7 16 21.92 7.07 0
 2 7 17 27.79 8.35 0
 2 7 18 66.71 10.55 0
 2 8 4 107.89 8.24 0
 2 8 5 50.65 7.07 0
 2 8 6 137.79 9.66 0
 2 8 7 46.02 7.61 0
 2 8 8 21.42 5.73 0
 2 8 9 24.59 6.26 0
 2 8 10 40.83 7.51 0
 2 8 11 8.86 5.92 0
 2 8 12 171.04 12.25 0
 2 8 14 68.59 11.21 0
 2 8 15 114.07 12.34 0
 2 8 16 16.65 7.27 0
 2 8 17 303.09 18.3 0
 2 9 8 99.98 9.2 0
 2 9 9 14.03 5.77 0
 2 9 10 132.39 11.03 0
 2 9 11 13.95 6.3 0
 2 9 12 45.04 9.12 0
 2 9 13 43.29 8.59 0
 2 9 14 227.02 14.85 0
 2 9 15 2.05 6.19 0
 2 10 12 25.73 7.94 0
 2 10 13 8.86 8.36 0
 2 10 14 64.69 10.98 0
 3 -6 18 132.12 11.2 0
 3 -6 19 27.29 7.89 0
 3 -5 18 55.3 8.57 0
 3 -5 19 6.49 6.41 0
 3 -5 20 25.06 7.04 0
 3 -4 18 94.46 10.51 0
 3 -4 19 25.18 7.13 0
 3 -4 20 14.78 6.64 0
 3 -4 21 75.55 10.63 0
 3 -3 16 57.56 8.32 0
 3 -3 17 157.61 12.04 0
 3 -3 18 27.63 7.05 0
 3 -3 19 33.33 7.59 0
 3 -3 20 126.09 11.88 0
 3 -3 21 206.13 14.31 0
 3 -2 14 138.12 9.86 0
 3 -2 15 28.77 6.72 0
 3 -2 16 99.29 10.27 0
 3 -2 17 110.61 11.03 0
 3 -2 18 95.23 10.35 0
 3 -2 19 37.32 7.76 0
 3 -2 20 85.39 10.5 0
 3 -2 21 109.37 12.47 0
 3 -1 12 225.33 10.61 0
 3 -1 13 217.32 11.23 0
 3 -1 14 4.22 5.09 0
 3 -1 15 115.43 9.83 0
 3 -1 17 52.69 8.73 0
 3 -1 19 21.99 7.02 0
 3 -1 20 24.47 7.62 0
 3 -1 21 177.09 13.2 0
 3 0 11 63.83 6.58 0
 3 0 12 207.94 10.61 0
 3 0 13 4.57 4.54 0
 3 0 14 204.06 11.64 0
 3 0 15 53.08 7.59 0
 3 0 16 132.64 10.95 0
 3 0 17 334.22 15.71 0
 3 0 19 4.44 5.86 0
 3 0 20 70.89 9.84 0
 3 0 21 77.27 10.98 0
 3 1 6 895.79 16 0
 3 1 7 108.33 6.41 0
 3 1 11 148.3 9.2 0
 3 1 12 237.03 11.72 0
 3 1 14 9.45 5.55 0
 3 1 15 117 9.87 0
 3 1 16 85.11 10.07 0
 3 1 17 59.81 9.41 0
 3 1 18 16.67 6.45 0
 3 1 19 21.12 6.84 0
 3 1 20 20.24 7 0
 3 1 21 169.19 13.56 0
 3 2 -3 506.6 4.41 0
 3 2 -2 477.35 6.04 0
 3 2 -1 892.56 9.67 0
 3 2 0 342.72 6.85 0
 3 2 1 889.01 12 0
 3 2 2 481.78 9.71 0
 3 2 5 244.45 8.65 0
 3 2 9 334.67 12.27 0
 3 2 10 161.35 8.88 0
 3 2 11 244.63 11.7 0
 3 2 12 244.42 11.57 0
 3 2 13 109.26 9.36 0
 3 2 15 28.63 6.21 0
 3 2 16 105.12 10.17 0
 3 2 17 119.41 11.49 0
 3 2 18 84.48 11.03 0
 3 2 19 23.52 7.25 0
 3 2 20 79.84 10.44 0
 3 2 21 83.85 11.25 0
 3 3 -2 170.1 3.62 0
 3 3 -1 23.95 2.04 0
 3 3 0 27.33 2.54 0
 3 3 4 390.96 10.13 0
 3 3 5 2003.01 23.86 0
 3 3 6 145.22 7.31 0
 3 3 9 848.99 18.99 0
 3 3 12 26.67 5.37 0
 3 3 14 53.37 7.36 0
 3 3 15 42.6 7.81 0
 3 3 16 61.16 8.44 0
 3 3 17 152.74 12.09 0
 3 3 18 25.2 7.17 0
 3 3 19 37.49 8.2 0
 3 3 20 125.94 12.41 0
 3 3 21 196.85 15.11 0
 3 4 -2 292.74 5.29 0
 3 4 -1 25.68 2.41 0
 3 4 2 281.8 8 0
 3 4 3 68.69 4.91 0
 3 4 8 61.73 6.43 0
 3 4 9 225.58 10.91 0
 3 4 11 27.99 6 0
 3 4 13 257.16 12.81 0
 3 4 14 93.31 9.03 0
 3 4 16 192.98 13.26 0
 3 4 17 115.73 11.41 0
 3 4 18 99.05 10.51 0
 3 4 19 25.26 8.8 0
 3 4 20 9 6.66 0
 3 5 2 762.37 13.67 0
 3 5 3 213.4 8.23 0
 3 5 7 132.14 7.91 0
 3 5 8 78.37 7.26 0
 3 5 9 328.37 12.96 0
 3 5 10 2.28 4.12 0
 3 5 11 305.73 13.78 0
 3 5 13 185.32 12.09 0
 3 5 14 59.37 8.17 0
 3 5 15 54.97 8.29 0
 3 5 16 53.61 8.67 0
 3 5 17 86.43 10.42 0
 3 5 18 54.91 9.25 0
 3 5 19 1.37 6.1 0
 3 6 0 129.89 5.87 0
 3 6 1 359.26 9.84 0
 3 6 2 45.11 4.35 0
 3 6 6 83.99 7.29 0
 3 6 7 7.89 4.05 0
 3 6 8 7.06 4.21 0
 3 6 9 7.25 4.47 0
 3 6 10 48.78 7.37 0
 3 6 11 495.93 17.54 0
 3 6 12 33.18 6.98 0
 3 6 13 41.15 7.97 0
 3 6 14 234.31 13.59 0
 3 6 15 12.47 7.31 0
 3 6 16 133.58 12.32 0
 3 6 17 4.48 6.11 0
 3 6 18 110.88 11.74 0
 3 7 4 26.04 4.79 0
 3 7 6 169.3 10.02 0
 3 7 7 518.21 16.31 0
 3 7 8 54.87 7.7 0
 3 7 9 47.69 7.17 0
 3 7 10 64.26 8.4 0
 3 7 11 65.04 8.73 0
 3 7 12 234.55 14.22 0
 3 7 13 251.04 15.08 0
 3 7 14 11.51 6.42 0
 3 7 15 19.89 7.52 0
 3 7 17 6.57 7.22 0
 3 8 3 80.17 7.09 0
 3 8 6 5.97 4.75 0
 3 8 7 31.75 6.17 0
 3 8 10 51.04 8.45 0
 3 8 11 118.67 10.51 0
 3 8 12 117.99 11.57 0
 3 8 13 24.3 8.39 0
 3 8 14 73.11 11 0
 3 8 15 99.68 12.45 0
 3 8 16 35.48 8.94 0
 3 9 6 69.24 8.35 0
 3 9 7 198.86 12.26 0
 3 9 8 152.27 10.83 0
 3 9 9 -1.09 4.73 0
 3 9 10 13.63 6 0
 3 9 11 73.19 9.71 0
 3 9 12 130.5 12.34 0
 3 9 13 -1.01 6.06 0
 3 9 14 -1.39 5.96 0
 3 10 10 114.44 10.92 0
 3 10 11 27.56 7.81 0
 3 10 12 45.71 9.63 0
 3 10 13 1.57 6.38 0
 4 -6 18 34.13 8.63 0
 4 -5 18 81.63 10.83 0
 4 -4 17 61.95 9.38 0
 4 -4 18 139.08 12.51 0
 4 -4 19 100.71 12.37 0
 4 -3 16 14.07 6.27 0
 4 -3 18 21.96 7.83 0
 4 -3 20 87.66 11.88 0
 4 -2 14 161.04 11.05 0
 4 -2 15 311.37 15.22 0
 4 -2 16 106.89 11.26 0
 4 -2 17 12.63 6.37 0
 4 -2 18 25.12 7.43 0
 4 -2 19 20.15 7.85 0
 4 -2 20 86.95 11.47 0
 4 -1 13 340.68 14.71 0
 4 -1 14 42.6 7.99 0
 4 -1 15 160.27 11.5 0
 4 -1 16 161.07 12.74 0
 4 -1 17 25.39 7.23 0
 4 -1 18 19.61 7.71 0
 4 -1 19 153.84 12.7 0
 4 -1 20 5.45 7.38 0
 4 0 10 653.8 17.88 0
 4 0 11 348.6 14.21 0
 4 0 12 9.28 4.51 0
 4 0 13 100.45 9.1 0
 4 0 14 85.2 9.97 0
 4 0 15 48.46 7.95 0
 4 0 16 356.93 16.82 0
 4 0 17 -1.7 5.29 0
 4 0 19 25.21 7.8 0
 4 0 20 9.91 7.29 0
 4 1 10 6.35 4.34 0
 4 1 11 194.61 10.74 0
 4 1 12 46.03 6.94 0
 4 1 13 320.38 14.57 0
 4 1 14 47.35 7.61 0
 4 1 15 160.04 11.81 0
 4 1 16 154.09 11.88 0
 4 1 17 24.56 7.39 0
 4 1 18 19.4 7.34 0
 4 1 19 141 12.36 0
 4 1 20 -1.42 5.79 0
 4 2 -4 4.16 0.76 0
 4 2 -3 363.84 5.6 0
 4 2 -2 260.81 5.68 0
 4 2 2 258.9 7.97 0
 4 2 3 354.08 9.97 0
 4 2 4 4.53 3.18 0
 4 2 8 14.58 4.32 0
 4 2 9 169.16 9.85 0
 4 2 10 14.99 4.89 0
 4 2 11 120.02 9.59 0
 4 2 13 15.15 5.35 0
 4 2 14 181.63 12.41 0
 4 2 16 93.61 9.91 0
 4 2 17 4.36 6.63 0
 4 2 18 26.3 8.3 0
 4 2 19 31.05 8.53 0
 4 2 20 88.26 12.01 0
 4 3 -3 357.23 3.88 0
 4 3 -2 21.17 1.88 0
 4 3 0 1211.59 14.3 0
 4 3 1 160.74 6.04 0
 4 3 2 17.38 2.86 0
 4 3 7 256.07 10.83 0
 4 3 9 555.41 16.54 0
 4 3 10 459.03 15.66 0
 4 3 12 254.3 13.36 0
 4 3 14 339.65 15.56 0
 4 3 16 19.52 6.74 0
 4 3 18 30.09 7.93 0
 4 3 19 87.77 10.77 0
 4 4 0 8.65 2.02 0
 4 4 1 282.88 7.92 0
 4 4 2 158.98 6.57 0
 4 4 3 60.04 4.78 0
 4 4 6 55.53 6.1 0
 4 4 7 12.33 4.79 0
 4 4 9 2.71 3.9 0
 4 4 10 11.84 5.5 0
 4 4 11 90.31 8.71 0
 4 4 12 124.13 9.61 0
 4 4 13 209.15 12.4 0
 4 4 15 54.4 8.44 0
 4 4 16 27.19 7.97 0
 4 4 17 54.28 9.24 0
 4 4 18 162.58 13 0
 4 4 19 106.89 12.6 0
 4 5 1 63.08 4.36 0
 4 5 2 117.25 6.12 0
 4 5 3 61.21 5.17 0
 4 5 5 85.21 6.33 0
 4 5 6 392.23 12.79 0
 4 5 7 105.24 7.56 0
 4 5 8 579.17 16.81 0
 4 5 9 160.34 10.37 0
 4 5 10 431.31 15.86 0
 4 5 11 385.43 15.41 0
 4 5 14 82.16 9.32 0
 4 5 15 8.86 6.1 0
 4 5 16 28.25 7.55 0
 4 6 4 67.74 5.7 0
 4 6 5 12.87 3.93 0
 4 6 6 4.3 4.16 0
 4 6 7 44.44 6.27 0
 4 6 9 34.68 6.3 0
 4 6 10 2.23 4.5 0
 4 6 11 52.23 7.68 0
 4 6 12 80.49 8.62 0
 4 6 13 154.09 12.42 0
 4 6 14 35.42 7.88 0
 4 6 16 53.31 9.95 0
 4 6 17 72.95 10.42 0
 4 7 4 0.66 2.76 0
 4 7 5 148.05 9.09 0
 4 7 6 110.76 8.52 0
 4 7 7 244.78 11.81 0
 4 7 8 107.09 8.78 0
 4 7 9 57.93 8.11 0
 4 7 10 109.21 9.66 0
 4 7 11 304.67 15.39 0
 4 7 12 121.73 11.65 0
 4 7 15 79.26 10.98 0
 4 7 16 46.56 9.33 0
 4 8 5 12.26 4.25 0
 4 8 6 7.67 4.4 0
 4 8 7 45.65 7.06 0
 4 8 9 111.6 10.47 0
 4 8 10 59.15 9.08 0
 4 8 11 82.92 10.13 0
 4 8 12 193.14 13.57 0
 4 8 13 107.13 12.67 0
 4 8 14 11.83 6.77 0
 4 8 15 16.08 7.38 0
 4 9 7 86.55 8.14 0
 4 9 8 22.67 6.03 0
 4 9 9 117.2 10.43 0
 4 9 10 44.31 7.97 0
 4 9 11 142.49 12.52 0
 4 9 12 0.88 5.81 0
 4 9 13 51.44 9.32 0
 4 10 10 34.1 7.76 0
 4 10 11 20.31 6.74 0
 5 -4 17 21.56 8.08 0
 5 -3 17 5.18 6.31 0
 5 -3 18 38.97 8.93 0
 5 -2 14 145.36 11.52 0
 5 -2 15 65.54 10.08 0
 5 -2 17 474.37 21.12 0
 5 -2 18 43.84 9.13 0
 5 -1 12 79.83 9.52 0
 5 -1 13 58.02 8.69 0
 5 -1 14 270.67 14.98 0
 5 -1 16 138.12 12.97 0
 5 -1 17 1.33 5.97 0
 5 0 10 8.31 4.76 0
 5 0 11 156.16 11.11 0
 5 0 12 -2.37 4.62 0
 5 0 13 252.94 14.55 0
 5 0 14 4.2 5.93 0
 5 0 15 -0.59 5.38 0
 5 0 16 106.14 10.95 0
 5 0 17 261.04 15.78 0
 5 0 18 0.86 6.19 0
 5 0 19 49.65 10.24 0
 5 1 6 4.04 3.92 0
 5 1 7 45.39 6.01 0
 5 1 8 299.8 12.62 0
 5 1 9 46.2 7.54 0
 5 1 11 -0.2 4.38 0
 5 1 12 86.1 8.91 0
 5 1 14 256.52 15.03 0
 5 1 16 150.98 13.34 0
 5 1 17 4.44 6.63 0
 5 1 18 91.59 12.39 0
 5 2 -1 148.46 5.55 0
 5 2 0 42.56 3.66 0
 5 2 1 152.29 6.63 0
 5 2 2 184.88 7.62 0
 5 2 6 260.52 10.96 0
 5 2 7 103.25 7.82 0
 5 2 8 65.94 7.53 0
 5 2 9 61.24 7.89 0
 5 2 10 116.15 9.24 0
 5 2 11 5.1 4.97 0
 5 2 12 35.04 6.88 0
 5 2 13 27.51 7.29 0
 5 2 14 152.27 11.81 0
 5 2 15 58.76 9.96 0
 5 2 16 13.51 7.23 0
 5 2 17 503.55 20.85 0
 5 2 18 30.16 8.19 0
 5 3 1 194.16 7.17 0
 5 3 2 284.63 9.18 0
 5 3 6 82.33 7.17 0
 5 3 7 13.31 4.42 0
 5 3 8 20.66 5.21 0
 5 3 9 8.37 4.72 0
 5 3 10 163.83 11.07 0
 5 3 11 57.46 7.94 0
 5 3 12 14.04 5.67 0
 5 3 13 76.31 9.38 0
 5 3 14 27.07 8.12 0
 5 3 15 330.54 16.49 0
 5 3 17 3.45 5.88 0
 5 4 2 151.64 6.75 0
 5 4 5 -1.2 2.89 0
 5 4 6 102.93 7.63 0
 5 4 7 105.67 8.24 0
 5 4 9 5.39 4.62 0
 5 4 10 164.81 11.19 0
 5 4 12 -2.66 4.71 0
 5 4 13 17.73 6.37 0
 5 4 14 141.31 11.67 0
 5 4 15 34.22 8.46 0
 5 4 16 54.22 9.68 0
 5 4 17 13.08 6.91 0
 5 5 4 63.58 5.23 0
 5 5 5 6.19 3.78 0
 5 5 7 1.04 3.66 0
 5 5 8 192.12 10.81 0
 5 5 9 123.88 9.86 0
 5 5 10 11.1 5.18 0
 5 5 11 32.22 6.67 0
 5 5 12 185.38 12.54 0
 5 5 13 71.13 9.79 0
 5 5 14 64.21 9.11 0
 5 5 16 50.71 8.85 0
 5 6 6 35.27 5.41 0
 5 6 7 38.88 6.05 0
 5 6 8 25 6.23 0
 5 6 9 63.3 7.83 0
 5 6 10 39.22 7.19 0
 5 6 11 55.19 8.1 0
 5 6 13 159.7 12.81 0
 5 6 14 32.42 7.57 0
 5 6 15 67.64 9.93 0
 5 6 16 70.08 10.61 0
 5 7 8 127.69 9.55 0
 5 7 9 -5.46 4.35 0
 5 7 10 137.82 10.54 0
 5 7 12 149.81 12.36 0
 5 7 13 57.28 9.27 0
 5 7 14 45.01 8.49 0
 5 8 9 26.36 6.21 0
 5 8 10 37.12 7.03 0
 5 8 11 25.06 7.07 0
 5 8 12 56.7 8.77 0
 5 8 13 8.61 6.19 0
 6 -3 15 14.57 7.55 0
 6 -2 13 62.09 9.96 0
 6 -2 14 55.66 9.82 0
 6 -2 15 23.45 7.86 0
 6 -2 16 3.92 6.77 0
 6 -1 11 55.71 8.65 0
 6 -1 12 -2.96 5.38 0
 6 -1 13 56.27 10.12 0
 6 -1 14 68.4 10.71 0
 6 -1 15 20.63 7.57 0
 6 0 9 3.79 4.97 0
 6 0 10 31.94 7.05 0
 6 0 11 32.54 7.3 0
 6 0 12 31.36 7.5 0
 6 0 13 88.14 9.94 0
 6 0 14 149.62 12.41 0
 6 0 15 98.04 11.58 0
 6 0 16 22.62 7.85 0
 6 1 4 9.91 4.32 0
 6 1 5 23.29 5.07 0
 6 1 6 4.38 4.02 0
 6 1 7 63.34 8.14 0
 6 1 8 66.27 8 0
 6 1 9 67.03 8.66 0
 6 1 11 75.12 9.95 0
 6 1 12 0.02 4.94 0
 6 1 13 51.26 8.9 0
 6 1 14 61.97 9.95 0
 6 1 15 26.98 8.49 0
 6 2 3 119.11 7 0
 6 2 4 106.01 7.49 0
 6 2 5 145.4 8.49 0
 6 2 6 84.55 7.78 0
 6 2 7 56.61 7.35 0
 6 2 8 3.33 4.52 0
 6 2 10 133.12 10.41 0
 6 2 11 74.09 10.17 0
 6 2 12 142.43 11.85 0
 6 2 13 42.37 8.59 0
 6 2 14 58.47 9.65 0
 6 2 15 28.72 8.55 0
 6 2 16 15.96 7.3 0
 6 3 6 158.69 9.17 0
 6 3 7 75.28 7.95 0
 6 3 8 95 8.41 0
 6 3 10 106.06 10.21 0
 6 3 11 4.55 6.16 0
 6 3 12 77.04 9.8 0
 6 3 13 48.35 8.32 0
 6 3 14 109.25 10.79 0
 6 3 15 11.36 7.28 0
 6 4 6 234.89 10.87 0
 6 4 7 118.83 8.99 0
 6 4 8 6.54 5.21 0
 6 4 9 75.97 8.86 0
 6 4 10 63.03 8.75 0
 6 4 11 7.71 5.26 0
 6 4 12 47.62 7.85 0
 6 4 13 158.22 12.57 0
 6 4 14 79.2 10.22 0
 6 5 8 42.65 6.49 0
 6 5 10 28.51 6.83 0
 6 5 11 20.51 6.67 0
 6 5 12 55.96 8.64 0
 6 5 13 222.27 14.21 0
 6 5 14 51.14 9.43 0
 6 6 10 166.05 11.43 0
 6 6 11 32.14 7.27 0
 6 6 12 165.79 12.53 0
 6 6 13 27.8 7.32 0
 6 7 12 99.43 10.32 0
 7 -2 12 42.76 8.9 0
 7 -1 10 30.33 8.13 0
 7 -1 11 101.64 11.53 0
 7 -1 12 50.45 9.68 0
 7 0 6 115.8 9.51 0
 7 0 7 13.15 5.7 0
 7 0 8 92.23 9.71 0
 7 0 9 5.94 5.4 0
 7 0 10 13.51 6.61 0
 7 0 12 2.95 6.15 0
 7 0 13 144.69 13.26 0
 7 0 14 4.51 7 0
 7 1 5 149.6 9.43 0
 7 1 6 53.95 7.17 0
 7 1 7 60.61 7.89 0
 7 1 9 8.12 5.92 0
 7 1 10 29.69 7.34 0
 7 1 11 107.52 10.97 0
 7 1 12 49.06 8.98 0
 7 1 13 12.49 7.25 0
 7 1 14 22.8 7.59 0
 7 2 7 33.14 6.12 0
 7 2 8 4.41 5.4 0
 7 2 9 20.96 7.21 0
 7 2 10 75.85 10.14 0
 7 2 11 10.9 6.22 0
 7 2 12 64.04 9.44 0
 7 2 13 33.6 8.13 0
 7 3 8 31.56 6.07 0
 7 3 9 16.39 5.47 0
 7 3 10 20.31 6.35 0
 7 3 11 59.9 8.83 0
 7 3 12 9.83 6.17 0
 7 3 13 104.4 11.85 0
 7 4 10 27.53 6.36 0
 7 4 11 14.36 5.53 0
 7 4 12 71.65 9.44 0
 8 -1 7 82.74 10.08 0
 8 -1 9 104.29 11 0
 8 -1 10 53.35 8.82 0
 8 0 8 28.13 7.14 0
 8 0 9 60.1 8.94 0
 8 0 10 112.95 11.73 0
 8 1 10 71.93 10.33 0
 -1 -4 -5 295.3 4.52 0
 -1 -4 -4 1158.75 8.3 0
 -1 -4 -3 1673.48 10.2 0
 0 -5 -12 0.6 1.17 0
 0 -5 -11 17.1 1.76 0
 0 -5 -10 8.33 1.09 0
 0 -4 -14 14.33 3.1 0
 0 -4 -13 204.31 6.88 0
 0 -4 -12 108.25 4.95 0
 0 -4 -11 229.95 6.25 0
 0 -4 -10 33.3 2.65 0
 0 -4 -9 55.22 2.83 0
 0 -4 -8 873.38 8.23 0
 0 -4 -7 1241.26 7.65 0
 0 -3 -19 10.88 4.88 0
 0 -3 -18 203.83 9.8 0
 0 -2 -20 23.38 5.29 0
 0 -1 -23 56.11 8.89 0
 0 -1 -22 115.37 10.23 0
 0 0 -23 1.32 5.23 0
 0 1 -23 60.79 9.98 0
 0 6 0 717.43 9.06 0
 0 7 -1 211.78 6.03 0
 0 7 1 205.66 3.99 0
 0 9 -17 24.77 8.04 0
 0 10 -15 1.58 5.89 0
 0 10 -14 66.23 9.31 0
 0 10 -13 28.37 7.03 0
 0 10 -12 73.62 9.05 0
 0 10 -11 3.87 3.99 0
 1 -5 -12 87.36 3.87 0
 1 -5 -11 200.02 4.93 0
 1 -5 -10 85.97 3.02 0
 1 -5 -9 515.57 5.67 0
 1 -4 -14 266.05 8.52 0
 1 -4 -13 105.45 5.43 0
 1 -4 -12 315.9 8.19 0
 1 -4 -11 125.97 5.14 0
 1 -4 -10 11.46 2.12 0
 1 -4 -9 345.96 6.94 0
 1 -4 -8 249.11 5.38 0
 1 -4 -7 163.5 3.94 0
 1 -4 -6 444.46 5.57 0
 1 -3 -19 211.16 10.48 0
 1 -3 -16 158.29 8.4 0
 1 -3 -12 100.91 5.73 0
 1 -3 -11 38.36 3.98 0
 1 -3 -10 469.63 9.79 0
 1 -3 -9 684.48 10.84 0
 1 -3 -8 1912.35 16.43 0
 1 -3 -7 211.76 5.27 0
 1 -3 -6 309.39 5.75 0
 1 -3 -5 197.62 4.41 0
 1 -3 -4 784.06 7.61 0
 1 -3 -3 199.94 4.02 0
 1 -2 -21 34.96 6.83 0
 1 -2 -20 31.64 6.55 0
 1 -2 -18 190.42 10.61 0
 1 -2 -17 8.47 4.48 0
 1 -2 -16 39.51 5.6 0
 1 -2 -15 76.14 6.7 0
 1 -2 -12 629.08 13.61 0
 1 -2 -11 467.36 11.16 0
 1 -2 -10 116.41 5.65 0
 1 -2 -9 179.79 6.3 0
 1 -2 -8 946.88 12.8 0
 1 -2 -7 1028.12 12.37 0
 1 -2 -6 428.42 7.58 0
 1 -2 -5 726.95 8.78 0
 1 -2 -4 2626.03 15.28 0
 1 -2 -3 1446.88 10.58 0
 1 -2 -2 4002.33 17.09 0
 1 -1 -23 22.36 6.8 0
 1 -1 -21 1.01 5.04 0
 1 -1 -20 20.31 5.89 0
 1 -1 -18 32.95 6.17 0
 1 -1 -17 144.69 9.93 0
 1 -1 -16 201.51 10.43 0
 1 -1 -15 4.81 3.64 0
 1 -1 -7 303.16 7.58 0
 1 -1 -6 2492.89 19.24 0
 1 -1 -5 1835.83 15.15 0
 1 -1 -4 423.78 6.87 0
 1 -1 -3 213.54 4.76 0
 1 -1 -2 1761.5 11.77 0
 1 -1 -1 2701.6 14.29 0
 1 0 -23 -3.42 4.84 0
 1 0 -22 27.05 6.88 0
 1 0 -21 37.84 7.5 0
 1 0 -20 14.97 6.35 0
 1 0 -19 260.74 13.4 0
 1 0 -17 240.73 11.79 0
 1 0 -5 4131.63 24.06 0
 1 0 -4 1.21 1.77 0
 1 0 -3 20.1 2.56 0
 1 0 -2 435.73 6.48 0
 1 0 -1 2696.91 14.52 0
 1 1 -23 20.14 7.13 0
 1 1 -21 -3.08 5.62 0
 1 1 -20 23.91 6.81 0
 1 1 -19 67.37 8.7 0
 1 1 -2 1762.32 13.48 0
 1 1 -1 2644.8 15.19 0
 1 1 0 5679.99 21.13 0
 1 1 1 2675.41 14.41 0
 1 2 -23 123.64 11.83 0
 1 2 -22 66.97 10.09 0
 1 2 -21 30.16 8.23 0
 1 2 -20 29.69 7.24 0
 1 2 -19 16.72 6.77 0
 1 2 -3 1471.09 14.48 0
 1 2 -2 4122.33 22.16 0
 1 2 -1 6742.66 25.99 0
 1 2 0 139.43 3.8 0
 1 2 1 6775.63 22.9 0
 1 2 2 4040.14 18 0
 1 3 -22 6.02 6.63 0
 1 3 -20 161.3 13.42 0
 1 3 -19 205.93 13.19 0
 1 3 -3 191.13 6.25 0
 1 3 -2 222.51 6.08 0
 1 3 -1 52.71 3.29 0
 1 3 0 4.19 1.57 0
 1 3 1 52.85 2.6 0
 1 3 2 227.89 4.51 0
 1 4 -21 27.19 8.36 0
 1 4 -20 278.41 16.37 0
 1 4 -19 10.61 6.41 0
 1 4 -3 1649.19 17.4 0
 1 4 -2 1402.02 15.07 0
 1 4 -1 332.77 7.04 0
 1 4 1 330 5.82 0
 1 4 2 1411.56 10.73 0
 1 5 -20 8.41 8.3 0
 1 5 -19 38.14 8.62 0
 1 5 -1 5.9 1.81 0
 1 5 0 9.5 1.69 0
 1 5 1 8.54 1.47 0
 1 5 2 497.42 6.53 0
 1 6 -19 84.2 12.03 0
 1 6 -18 51.42 9.4 0
 1 6 -17 66.62 9.58 0
 1 6 -5 1097.85 18.05 0
 1 6 -3 151.36 6.47 0
 1 6 -2 88.91 4.63 0
 1 6 1 194.22 4.88 0
 1 6 2 86.94 2.87 0
 1 7 -19 42.59 9.56 0
 1 7 -18 37.73 8.53 0
 1 7 -17 204.53 14.22 0
 1 7 -16 26.44 7.63 0
 1 7 -15 91.29 11.32 0
 1 7 -8 127.83 8.31 0
 1 7 -7 354.66 12.05 0
 1 7 -4 16.21 3.45 0
 1 7 -3 206.34 7.71 0
 1 7 -2 104.72 5.12 0
 1 7 0 131.02 4.69 0
 1 7 2 93.69 2.63 0
 1 8 -18 2.53 7.31 0
 1 8 -17 14.76 8.12 0
 1 8 -16 16.93 7.17 0
 1 8 -15 53.75 8.64 0
 1 8 -14 7.81 6.72 0
 1 8 -12 29.2 6.36 0
 1 8 -11 189.5 11.31 0
 1 8 -10 304.72 13.36 0
 1 8 -9 138.8 9.57 0
 1 8 -8 41.89 6.36 0
 1 8 -7 10.23 4.45 0
 1 8 -6 81.14 6.6 0
 1 8 -3 155.97 6.7 0
 1 9 -16 20.72 7.97 0
 1 9 -15 156.33 12.53 0
 1 9 -14 49.21 9.13 0
 1 9 -13 18.24 7.18 0
 1 9 -12 116.05 10.86 0
 1 9 -11 1.97 5.63 0
 1 9 -10 16.9 5.14 0
 1 9 -9 40.16 6.78 0
 1 9 -8 49.78 6.74 0
 1 9 -7 270.23 11.09 0
 1 10 -15 1.08 6.25 0
 1 10 -14 239.11 14.79 0
 1 10 -13 54.81 8.71 0
 1 10 -12 98.74 10.14 0
 1 10 -11 0.54 4.23 0
 2 -5 -12 191.6 6.46 0
 2 -5 -11 32.55 3.22 0
 2 -5 -10 334.96 7.59 0
 2 -5 -9 115.54 4.59 0
 2 -5 -8 204.94 5.63 0
 2 -4 -16 207.44 9.01 0
 2 -4 -13 53.17 4.89 0
 2 -4 -12 24.39 3.73 0
 2 -4 -11 -0.35 2.54 0
 2 -4 -10 100.14 5.23 0
 2 -4 -9 243.38 7.17 0
 2 -4 -8 365.79 8.24 0
 2 -4 -7 561.49 9.84 0
 2 -4 -6 704.95 10.58 0
 2 -4 -5 57.04 3.53 0
 2 -3 -18 18.8 5.11 0
 2 -3 -17 33.35 5.31 0
 2 -3 -16 75.88 6.94 0
 2 -3 -15 26.88 4.92 0
 2 -3 -12 22.64 4.14 0
 2 -3 -11 1.54 2.45 0
 2 -3 -10 283.42 8.54 0
 2 -3 -9 521.05 11 0
 2 -3 -8 319.6 8.42 0
 2 -3 -7 596.61 10.72 0
 2 -3 -6 221.04 6.59 0
 2 -3 -5 97.15 4.37 0
 2 -3 -4 1200.22 13.93 0
 2 -3 -3 1457.12 15.37 0
 2 -2 -21 205.89 12.14 0
 2 -2 -20 13.45 5.38 0
 2 -2 -19 115.59 9.02 0
 2 -2 -18 31.07 5.86 0
 2 -2 -17 155.19 9.89 0
 2 -2 -16 137.51 8.69 0
 2 -2 -15 167.86 9.38 0
 2 -2 -10 210.25 8 0
 2 -2 -9 266.83 8.42 0
 2 -2 -8 300.73 8.58 0
 2 -2 -7 35.48 3.95 0
 2 -2 -6 56.7 3.79 0
 2 -2 -5 125.69 5.34 0
 2 -2 -4 133.58 5.2 0
 2 -2 -3 326.56 7.52 0
 2 -2 -2 1056.47 13.25 0
 2 -2 -1 247.93 6.79 0
 2 -1 -21 55.55 8.65 0
 2 -1 -20 122.81 10.62 0
 2 -1 -19 32.24 6.54 0
 2 -1 -18 165.26 10.72 0
 2 -1 -15 127.57 8.38 0
 2 -1 -14 16.33 4.61 0
 2 -1 -10 172.21 7.67 0
 2 -1 -9 198.54 8.03 0
 2 -1 -8 48.58 4.85 0
 2 -1 -7 291.93 8.56 0
 2 -1 -6 1504.84 17.6 0
 2 -1 -5 399.59 8.85 0
 2 -1 -4 789.12 12.2 0
 2 -1 -3 1776.05 17.4 0
 2 -1 -2 486.27 9.08 0
 2 -1 -1 466.81 9.07 0
 2 -1 0 1.81 2.11 0
 2 0 -23 150.78 12.51 0
 2 0 -22 14.29 6.59 0
 2 0 -21 17.17 6.78 0
 2 0 -20 1.71 5.44 0
 2 0 -19 64.59 8.73 0
 2 0 -17 -0.05 4.69 0
 2 0 -16 220.26 12.09 0
 2 0 -15 141.19 9.31 0
 2 0 -14 105.11 8.68 0
 2 0 -13 324.02 12.34 0
 2 0 -9 57.45 4.89 0
 2 0 -8 9.29 3.3 0
 2 0 -7 140.18 6.37 0
 2 0 -6 263.84 7.95 0
 2 0 -5 1046.95 14.7 0
 2 0 -4 1010.86 13.95 0
 2 0 -3 26.1 2.9 0
 2 0 -2 0.58 2.19 0
 2 0 -1 797.11 11.49 0
 2 0 0 5268.68 29.32 0
 2 0 1 807.22 11.94 0
 2 1 -21 51.6 8.64 0
 2 1 -20 127.14 11.84 0
 2 1 -19 28.92 7.36 0
 2 1 -17 207.72 12.74 0
 2 1 -16 2.08 5.56 0
 2 1 -15 111.26 8.75 0
 2 1 -14 6.1 4.92 0
 2 1 -13 21.9 4.96 0
 2 1 -8 55.89 4.86 0
 2 1 -7 327.09 9.62 0
 2 1 -6 1483.96 19.21 0
 2 1 -5 396.47 9.68 0
 2 1 -3 1778.66 18.18 0
 2 1 -2 484.9 9.79 0
 2 1 1 471.52 9.25 0
 2 1 2 469.3 9.33 0
 2 2 -22 81.82 10.56 0
 2 2 -21 206.27 14.91 0
 2 2 -20 10.03 6.16 0
 2 2 -19 118.03 10.89 0
 2 2 -18 30.43 7.2 0
 2 2 -17 171.47 11.57 0
 2 2 -16 129.5 10.11 0
 2 2 -15 163.82 11.19 0
 2 2 -14 41.17 6.56 0
 2 2 -13 504.53 15.98 0
 2 2 -12 157.99 9.19 0
 2 2 -11 59.75 6.18 0
 2 2 -5 114.39 5.82 0
 2 2 -4 125.67 5.75 0
 2 2 -3 314.73 8.3 0
 2 2 -1 247.8 7.28 0
 2 2 0 4910.28 28.49 0
 2 2 1 239.42 6.65 0
 2 2 2 1074.7 13.69 0
 2 3 -22 32.89 9.27 0
 2 3 -21 73.23 10.26 0
 2 3 -20 149.64 13.41 0
 2 3 -19 202.4 14.27 0
 2 3 -18 28.35 8.03 0
 2 3 -17 30.4 7.95 0
 2 3 -16 77.08 9.32 0
 2 3 -15 31.86 6.37 0
 2 3 -14 70.03 8.74 0
 2 3 -13 45.22 6.66 0
 2 3 -12 26.44 5.26 0
 2 3 -11 5.43 3.86 0
 2 3 -10 289.21 11.3 0
 2 3 -7 584.93 13.78 0
 2 3 -3 1433.78 17.95 0
 2 3 -2 65.72 4.16 0
 2 3 -1 1167.35 14.84 0
 2 3 0 1405.01 15.88 0
 2 3 1 1173.39 14.22 0
 2 3 3 1446.48 15.88 0
 2 4 -20 8.45 7.95 0
 2 4 -19 75.58 11.49 0
 2 4 -18 65.95 10.16 0
 2 4 -17 67.18 9.57 0
 2 4 -16 200.03 12.55 0
 2 4 -15 239.03 13.33 0
 2 4 -14 46.67 7.14 0
 2 4 -13 55.37 7.78 0
 2 4 -12 29 6.06 0
 2 4 -11 3.79 4.66 0
 2 4 -10 98.56 7.38 0
 2 4 -5 59.59 5.29 0
 2 4 -4 246.92 8.34 0
 2 4 0 62.45 4.09 0
 2 4 2 379.04 8.26 0
 2 4 3 1677.73 16.84 0
 2 5 -20 56.22 9.82 0
 2 5 -19 35.59 8.71 0
 2 5 -16 168.7 13.02 0
 2 5 -15 17 6.09 0
 2 5 -14 105.66 10.39 0
 2 5 -13 172.73 11.4 0
 2 5 -12 202.62 11.84 0
 2 5 -11 20.01 5.81 0
 2 5 -10 362.63 13.47 0
 2 5 -9 112.8 8.4 0
 2 5 -8 204.61 10.03 0
 2 5 -5 339.85 10.76 0
 2 5 -4 623.55 13.63 0
 2 5 -3 748.93 14.21 0
 2 5 -2 237.23 8.01 0
 2 6 -19 69.76 10.65 0
 2 6 -18 52.16 9.41 0
 2 6 -17 211.08 15.02 0
 2 6 -16 30.81 7.49 0
 2 6 -15 8.52 6.05 0
 2 6 -13 184.54 12.2 0
 2 6 -12 -2.45 4.35 0
 2 6 -11 64.38 7.72 0
 2 6 -10 329.99 13.91 0
 2 6 -9 411.6 14.36 0
 2 6 -8 206.2 10.18 0
 2 6 -7 114.94 7.97 0
 2 6 -2 213.92 7.78 0
 2 6 -1 959.85 14.99 0
 2 6 0 190.56 6.62 0
 2 6 1 1003.62 13.8 0
 2 7 -18 54.97 9.51 0
 2 7 -17 35.11 8.51 0
 2 7 -16 26.27 8.29 0
 2 7 -15 66.89 9.41 0
 2 7 -14 58.8 8.8 0
 2 7 -13 115.31 10.88 0
 2 7 -12 96.24 9.74 0
 2 7 -11 170.51 10.74 0
 2 7 -10 21.29 6.35 0
 2 7 -9 58.89 7.49 0
 2 7 -8 68.26 8.12 0
 2 7 -7 134.89 8.46 0
 2 7 -6 431.6 13.34 0
 2 7 -3 248.28 9.23 0
 2 7 -2 127.55 6.53 0
 2 7 -1 317.65 9.13 0
 2 7 0 98 5.09 0
 2 7 1 309.73 7.84 0
 2 8 -17 292.25 16.9 0
 2 8 -16 16.76 7.96 0
 2 8 -15 105.56 12.28 0
 2 8 -14 68.45 9.33 0
 2 8 -13 153.72 11.61 0
 2 8 -12 160.8 11.81 0
 2 8 -11 5.99 6.02 0
 2 8 -10 40.31 6.84 0
 2 8 -9 21.22 5.5 0
 2 8 -8 21.04 5.73 0
 2 8 -7 46.22 6.05 0
 2 8 -6 149.33 8.52 0
 2 8 -5 58.57 5.96 0
 2 9 -15 -6.27 5.13 0
 2 9 -14 248.21 14.46 0
 2 9 -13 41.58 7.81 0
 2 9 -12 62.05 9.05 0
 2 9 -11 17.29 6.2 0
 2 9 -10 128.81 10.51 0
 2 9 -9 4.08 5.24 0
 2 9 -8 93.43 7.86 0
 2 9 -7 20.9 4.84 0
 2 10 -14 64.98 9.34 0
 2 10 -13 9.77 6.34 0
 2 10 -12 25.36 6.45 0
 2 10 -11 118.91 10.12 0
 3 -5 -11 284.77 9 0
 3 -5 -10 6.96 2.81 0
 3 -5 -9 327.03 9.32 0
 3 -5 -8 85.34 5.29 0
 3 -4 -15 201.41 9.57 0
 3 -4 -14 93.16 6.8 0
 3 -4 -13 263.92 10.04 0
 3 -4 -10 142.34 7.33 0
 3 -4 -9 215.89 8.35 0
 3 -4 -8 53.79 4.89 0
 3 -4 -7 270.6 8.81 0
 3 -4 -6 146.71 6.55 0
 3 -4 -5 726.72 13.9 0
 3 -3 -18 23.18 5.97 0
 3 -3 -17 152.94 9.64 0
 3 -3 -16 49.33 6.67 0
 3 -3 -15 48.46 6.59 0
 3 -3 -14 55.6 6.34 0
 3 -3 -13 57.16 6.03 0
 3 -3 -8 590.15 13.41 0
 3 -3 -7 229.14 8.5 0
 3 -3 -6 135.33 6.77 0
 3 -3 -5 1988.6 22.82 0
 3 -3 -4 385.57 10.29 0
 3 -3 -3 619.36 12.83 0
 3 -2 -20 88.33 9.2 0
 3 -2 -19 35.11 7.04 0
 3 -2 -17 135.33 10.04 0
 3 -2 -16 111.15 9.3 0
 3 -2 -15 27.12 6.02 0
 3 -2 -14 130.72 8.57 0
 3 -2 -13 89.36 7.75 0
 3 -2 -12 256.8 10.88 0
 3 -2 -8 236.04 9.2 0
 3 -2 -7 144.24 6.95 0
 3 -2 -6 107.68 6.52 0
 3 -2 -5 235.29 8.33 0
 3 -2 -4 193.64 7.69 0
 3 -2 -3 516.48 11.68 0
 3 -2 -2 467 11.39 0
 3 -2 -1 860.2 15.36 0
 3 -1 -22 60.19 9.43 0
 3 -1 -21 187.19 12.91 0
 3 -1 -20 24.52 6.75 0
 3 -1 -19 28.4 7.28 0
 3 -1 -18 17.68 5.8 0
 3 -1 -17 56.93 8.18 0
 3 -1 -16 71.87 8.58 0
 3 -1 -15 105.17 8.76 0
 3 -1 -14 4.96 4.46 0
 3 -1 -13 208.67 10.26 0
 3 -1 -12 235.09 10.72 0
 3 -1 -8 720.19 15.64 0
 3 -1 -7 113.7 6.65 0
 3 -1 -6 887.51 16.22 0
 3 -1 -5 657.23 13.77 0
 3 -1 -4 55.5 4.49 0
 3 -1 -3 41.43 4.13 0
 3 -1 -2 1280.84 18.32 0
 3 -1 -1 859.5 15.09 0
 3 -1 0 713.81 13.89 0
 3 0 -22 139.48 12.5 0
 3 0 -21 80.15 10.72 0
 3 0 -18 65.09 8.45 0
 3 0 -17 311.31 15 0
 3 0 -16 132.16 9.86 0
 3 0 -15 61.1 7.8 0
 3 0 -13 -0.78 3.75 0
 3 0 -12 196.68 10.1 0
 3 0 -11 55.53 6.84 0
 3 0 -7 3.88 2.93 0
 3 0 -6 24.56 4.06 0
 3 0 -5 238.34 8.65 0
 3 0 -4 1828.05 22.41 0
 3 0 -3 -1.48 2.2 0
 3 0 -2 1076.48 16.9 0
 3 0 -1 1449.91 19.28 0
 3 0 0 -1.88 2.14 0
 3 1 -22 87.2 11.52 0
 3 1 -21 190.06 14.01 0
 3 1 -20 25.59 7.36 0
 3 1 -19 36.62 8.35 0
 3 1 -18 17.69 7.32 0
 3 1 -16 91.06 9.79 0
 3 1 -15 105.81 9.99 0
 3 1 -13 217.25 11.67 0
 3 1 -12 224.22 11.01 0
 3 1 -11 154.44 9.04 0
 3 1 -10 565.51 15.57 0
 3 1 -2 1278.44 18.58 0
 3 1 -1 836.5 14.88 0
 3 1 0 704.98 13.79 0
 3 1 1 834.53 14.91 0
 3 1 2 1270.38 18.68 0
 3 2 -21 104.4 11.94 0
 3 2 -20 102.48 12.24 0
 3 2 -19 36.68 8.09 0
 3 2 -18 89.14 10.05 0
 3 2 -17 128.48 11.9 0
 3 2 -16 100.68 9.41 0
 3 2 -15 21.47 5.92 0
 3 2 -14 137.57 10.07 0
 3 2 -12 237.37 12.2 0
 3 2 -10 145.12 8.72 0
 3 2 -9 315.37 11.76 0
 3 3 -20 111.9 11.7 0
 3 3 -19 35.4 8.24 0
 3 3 -18 22.3 7.58 0
 3 3 -17 163.07 12.85 0
 3 3 -16 46.24 8.09 0
 3 3 -15 51.27 7.69 0
 3 3 -14 52.42 7.66 0
 3 3 -13 42.46 6.56 0
 3 3 -12 26.54 6.34 0
 3 3 -11 36.57 6.1 0
 3 3 -10 15.99 4.65 0
 3 3 -9 864.11 19.59 0
 3 3 -8 565.95 15.7 0
 3 3 -4 381.76 11.48 0
 3 3 -3 637.39 14.11 0
 3 3 3 645.71 13.76 0
 3 4 -20 15.04 8.01 0
 3 4 -19 21.95 7.58 0
 3 4 -18 98.71 10.91 0
 3 4 -17 103.18 11.48 0
 3 4 -16 188.85 12.73 0
 3 4 -15 192.92 12.59 0
 3 4 -14 90.09 9.2 0
 3 4 -13 284.54 13.7 0
 3 4 -12 -0.05 4.05 0
 3 4 -9 217.01 10.98 0
 3 4 -8 61.05 6.42 0
 3 4 -7 274.43 10.97 0
 3 4 -3 68.24 5.69 0
 3 4 -2 302.57 9.83 0
 3 4 -1 28.01 4.12 0
 3 4 0 71.51 5.11 0
 3 4 1 27.59 3.93 0
 3 4 2 304.04 9.4 0
 3 4 3 62.68 5.09 0
 3 5 -19 -5.8 5.37 0
 3 5 -18 47.75 10.05 0
 3 5 -17 93.8 11.08 0
 3 5 -16 51.1 9.6 0
 3 5 -15 53.2 8.78 0
 3 5 -14 52.69 8.22 0
 3 5 -13 181.82 12.29 0
 3 5 -11 301.67 13.68 0
 3 5 -10 4.36 4.18 0
 3 5 -9 337.99 13.58 0
 3 5 -8 83.98 7.79 0
 3 5 -7 132.45 8.91 0
 3 5 -6 208.25 10.08 0
 3 5 -2 774.23 16.09 0
 3 5 -1 309.44 9.95 0
 3 5 0 152.11 7.23 0
 3 5 1 316.69 9.82 0
 3 5 2 781.29 14.84 0
 3 5 3 220.16 8.15 0
 3 6 -18 115.95 13.8 0
 3 6 -17 4.29 6.25 0
 3 6 -16 142.25 13.2 0
 3 6 -15 4.88 6.19 0
 3 6 -13 44.46 8.24 0
 3 6 -12 26.38 7.01 0
 3 6 -11 479.64 17.54 0
 3 6 -9 5.02 4.51 0
 3 6 -8 5.16 5.07 0
 3 6 -7 1.23 4.04 0
 3 6 -6 90.22 7.91 0
 3 6 -5 240.17 10.69 0
 3 6 -1 337.92 10.79 0
 3 6 1 357.56 10.27 0
 3 6 2 41.36 4.46 0
 3 6 3 50.38 4.51 0
 3 7 -17 14.42 7.53 0
 3 7 -16 31.06 8.16 0
 3 7 -15 13.17 7.48 0
 3 7 -14 6.41 6.96 0
 3 7 -12 214.72 13.5 0
 3 7 -11 69.37 8.55 0
 3 7 -10 57.8 8.06 0
 3 7 -9 33.99 6.29 0
 3 7 -8 44.79 6.97 0
 3 7 -6 159.08 9.78 0
 3 7 -5 18.02 4.49 0
 3 7 -4 32.19 5.1 0
 3 7 0 4.33 2.87 0
 3 7 1 373.88 10.48 0
 3 8 -16 24.56 8.3 0
 3 8 -14 77.16 11.06 0
 3 8 -12 135.41 11.73 0
 3 8 -11 123.62 10.4 0
 3 8 -10 58.98 8.13 0
 3 8 -9 77.16 9.14 0
 3 8 -8 184.36 11.21 0
 3 8 -7 26.07 6.1 0
 3 8 -6 11.69 4.53 0
 3 8 -5 95.8 7.94 0
 3 8 -4 23.54 4.58 0
 3 9 -15 80.56 10.56 0
 3 9 -14 2 5.86 0
 3 9 -13 2.17 6.04 0
 3 9 -12 133.53 11.13 0
 3 9 -10 12.19 5.84 0
 3 9 -9 1.7 4.34 0
 3 9 -8 171.29 10.97 0
 3 9 -7 209.61 11.28 0
 3 10 -13 10.06 7.14 0
 3 10 -11 30.51 6.31 0
 4 -5 -12 63.62 6.24 0
 4 -5 -11 379.39 12.21 0
 4 -5 -10 441.12 13 0
 4 -4 -15 47.42 6.36 0
 4 -4 -14 49.48 6.46 0
 4 -4 -13 213.18 10.26 0
 4 -4 -12 115.68 8.13 0
 4 -4 -11 93.94 7.09 0
 4 -4 -10 13.02 4.15 0
 4 -4 -9 0.72 3.31 0
 4 -3 -17 21.36 6.27 0
 4 -3 -16 14.4 5.65 0
 4 -3 -15 87.56 7.95 0
 4 -3 -13 188.73 10.52 0
 4 -3 -11 15.84 4.99 0
 4 -3 -10 481.82 14.6 0
 4 -3 -9 574.77 15.58 0
 4 -2 -19 31.69 7.53 0
 4 -2 -18 16.58 5.88 0
 4 -2 -17 12.86 5.44 0
 4 -2 -16 100.05 9.24 0
 4 -2 -15 328.81 14.49 0
 4 -2 -14 196.09 10.88 0
 4 -2 -13 13.15 4.88 0
 4 -2 -12 100.34 8.05 0
 4 -2 -11 121.01 8.74 0
 4 -2 -10 15.31 4.63 0
 4 -2 -8 13.64 4.18 0
 4 -1 -21 14.78 6.09 0
 4 -1 -20 4.91 5.32 0
 4 -1 -19 138.53 12.04 0
 4 -1 -18 23.68 6.76 0
 4 -1 -17 17.62 6.1 0
 4 -1 -16 147.41 10.65 0
 4 -1 -15 152.73 10.66 0
 4 -1 -14 38.34 7.45 0
 4 -1 -13 338.98 14.19 0
 4 -1 -12 45.57 6.59 0
 4 -1 -10 4.55 3.93 0
 4 -1 -9 694.84 17.91 0
 4 0 -21 18.31 6.71 0
 4 0 -19 24.55 7.78 0
 4 0 -18 118.38 10.71 0
 4 0 -17 7.44 5.9 0
 4 0 -16 355.31 16.29 0
 4 0 -15 41.08 7.39 0
 4 0 -12 9.31 5.45 0
 4 0 -11 362.69 14.38 0
 4 0 -10 656.12 17.96 0
 4 0 -9 463.3 15.14 0
 4 0 -7 54.31 6.12 0
 4 1 -20 4.14 6.29 0
 4 1 -18 24.7 7.84 0
 4 1 -17 24.86 7.93 0
 4 1 -16 142.02 11.69 0
 4 1 -15 158.99 11.95 0
 4 1 -14 50.4 8.38 0
 4 1 -13 324.23 14.45 0
 4 1 -12 44.99 7.02 0
 4 1 -10 4.22 4.4 0
 4 1 -9 680.51 18.53 0
 4 1 -6 272.38 11.44 0
 4 2 -20 82.88 10.97 0
 4 2 -19 38.8 9.63 0
 4 2 -18 36.3 8.19 0
 4 2 -17 14.15 6.92 0
 4 2 -16 94.58 11.57 0
 4 2 -15 323.32 16.27 0
 4 2 -14 172.6 11.59 0
 4 2 -13 19.39 6.21 0
 4 2 -12 80.04 8.31 0
 4 2 -10 8.35 4.72 0
 4 2 -9 165.29 10.31 0
 4 2 -8 16.05 4.89 0
 4 2 -7 215.3 10.55 0
 4 2 -5 303.55 11.86 0
 4 3 -19 70.75 11.29 0
 4 3 -18 22.79 7.58 0
 4 3 -17 31.66 8.24 0
 4 3 -16 14.29 7.7 0
 4 3 -15 85.56 11.08 0
 4 3 -14 321.31 15.95 0
 4 3 -12 248.74 13.4 0
 4 3 -11 25.04 6.59 0
 4 3 -10 438.79 16.08 0
 4 3 -9 538.62 17.1 0
 4 3 -8 561.77 17.17 0
 4 3 -7 260.26 11.82 0
 4 3 -6 204.91 10.37 0
 4 3 -5 59.72 6.39 0
 4 3 -4 855.06 19.08 0
 4 4 -19 107.26 12.42 0
 4 4 -17 56.16 9.7 0
 4 4 -16 21.43 7.32 0
 4 4 -15 55.4 9.07 0
 4 4 -13 212.59 13.64 0
 4 4 -12 113.24 10.01 0
 4 4 -11 88.13 8.9 0
 4 4 -10 15.56 5.55 0
 4 4 -9 -1.14 4.02 0
 4 4 -8 69.47 7.51 0
 4 4 -7 15.72 4.93 0
 4 4 -6 65.55 7.19 0
 4 4 -5 22.36 4.98 0
 4 4 -3 59.82 7.26 0
 4 5 -16 32.1 8.57 0
 4 5 -15 11.21 6.86 0
 4 5 -13 27.06 7.02 0
 4 5 -12 59.99 9.08 0
 4 5 -11 382.55 16.34 0
 4 5 -10 453.39 17.07 0
 4 5 -9 152.72 11.19 0
 4 5 -8 566.66 18.07 0
 4 5 -5 90.38 7.59 0
 4 5 -3 66.17 7.02 0
 4 5 -2 141.78 8.51 0
 4 5 -1 66.2 6.83 0
 4 6 -16 53.69 9.5 0
 4 6 -15 139.18 12.06 0
 4 6 -13 161.34 13.31 0
 4 6 -12 68.54 9.24 0
 4 6 -10 3.22 4.96 0
 4 6 -9 40.44 7.36 0
 4 6 -8 103.09 9.64 0
 4 6 -7 43.06 7.23 0
 4 6 -5 15.41 5.6 0
 4 6 -4 68.71 7.77 0
 4 6 -3 29.01 5.33 0
 4 6 -2 18.9 4.81 0
 4 6 -1 136.63 8.26 0
 4 6 0 22.04 4.55 0
 4 7 -16 28.73 8.07 0
 4 7 -15 98.11 11.79 0
 4 7 -14 19.91 7.56 0
 4 7 -13 30.84 7.95 0
 4 7 -11 307.19 15.47 0
 4 7 -10 113.67 10.47 0
 4 7 -9 54.08 8.85 0
 4 7 -8 119.94 9.7 0
 4 7 -7 232.62 12.35 0
 4 7 -5 148.82 9.72 0
 4 7 -4 4.8 4.17 0
 4 7 -3 84.73 7.92 0
 4 7 -2 290.51 11.94 0
 4 7 -1 214.37 10.44 0
 4 8 -15 12.17 7.05 0
 4 8 -14 11.42 6.72 0
 4 8 -13 104.69 12.67 0
 4 8 -12 190.67 13.6 0
 4 8 -9 112.62 11.07 0
 4 8 -8 2.93 4.97 0
 4 8 -7 39.4 6.91 0
 4 8 -6 7.3 4.7 0
 4 8 -5 25.02 5.63 0
 4 8 -4 122.66 8.69 0
 4 9 -13 49.26 8.77 0
 4 9 -11 129.78 12.14 0
 4 9 -10 50.16 9.25 0
 4 9 -9 105.44 9.89 0
 4 9 -8 24.06 6.7 0
 4 9 -7 86.14 8.75 0
 5 -5 -11 37.19 5.87 0
 5 -5 -10 15.24 5.12 0
 5 -4 -14 151.19 10.45 0
 5 -4 -12 -0.26 4.58 0
 5 -4 -11 368.74 14.28 0
 5 -4 -10 177.22 10.79 0
 5 -4 -9 10.92 4.95 0
 5 -4 -8 173.04 10.57 0
 5 -4 -7 98.37 8.84 0
 5 -3 -17 1.76 4.71 0
 5 -3 -16 60.06 7.95 0
 5 -3 -15 341.26 15.24 0
 5 -3 -14 23.68 6.05 0
 5 -3 -13 86.55 8.61 0
 5 -3 -12 26.98 6.19 0
 5 -3 -11 55.3 7.84 0
 5 -3 -10 165.63 10.18 0
 5 -3 -8 15.85 5.04 0
 5 -3 -7 12.16 4.68 0
 5 -3 -5 225.59 11.69 0
 5 -3 -4 497.84 16.23 0
 5 -2 -19 19.29 6.71 0
 5 -2 -18 44.09 7.44 0
 5 -2 -16 14.23 6.14 0
 5 -2 -15 61.77 8.89 0
 5 -2 -14 143.25 11.02 0
 5 -2 -13 19.75 6.69 0
 5 -2 -12 24.54 6.67 0
 5 -2 -11 0.43 4.53 0
 5 -2 -10 103.78 9.67 0
 5 -2 -6 255.8 11.98 0
 5 -2 -5 395.73 14.6 0
 5 -2 -4 18.72 5.33 0
 5 -2 -3 475.68 15.79 0
 5 -1 -19 25.91 7.11 0
 5 -1 -18 75.83 9.99 0
 5 -1 -17 4.81 5.82 0
 5 -1 -16 148.66 12 0
 5 -1 -15 207.96 13.15 0
 5 -1 -13 60.07 8.83 0
 5 -1 -12 75.42 9.3 0
 5 -1 -11 -3.8 5.24 0
 5 -1 -10 73.8 8.28 0
 5 -1 -9 36.71 6.85 0
 5 -1 -8 305.37 13.71 0
 5 -1 -7 48.32 6.77 0
 5 -1 -6 1.79 3.97 0
 5 -1 -5 500.74 16.13 0
 5 -1 -4 379.68 14.21 0
 5 -1 -1 91.08 7.62 0
 5 0 -18 6.06 6.68 0
 5 0 -17 257.66 15.73 0
 5 0 -16 90.24 11.4 0
 5 0 -15 0.29 5.66 0
 5 0 -14 -1.77 5.65 0
 5 0 -13 282.64 14.41 0
 5 0 -12 -2.49 4.55 0
 5 0 -11 152 10.81 0
 5 0 -10 8.98 5.4 0
 5 0 -9 3.07 4.66 0
 5 0 -8 205.3 11.63 0
 5 0 -7 14.29 5.26 0
 5 0 -6 152.58 10.26 0
 5 0 -5 19.18 5 0
 5 0 -4 -1.35 3.79 0
 5 0 -3 111.52 8.47 0
 5 0 -2 510.11 16.38 0
 5 0 0 -1.55 3.87 0
 5 1 -19 8.21 8.12 0
 5 1 -18 71.85 11.05 0
 5 1 -17 -5.23 5.48 0
 5 1 -16 142.44 12.49 0
 5 1 -15 202.97 14.23 0
 5 1 -14 267.82 15.04 0
 5 1 -13 49.19 8.51 0
 5 1 -12 78.62 9.73 0
 5 1 -11 5.83 5.47 0
 5 1 -10 70.71 9.17 0
 5 1 -8 297.73 13.64 0
 5 1 -7 57.45 7.48 0
 5 1 -6 7.87 4.55 0
 5 1 -5 534.05 16.93 0
 5 1 -4 351.99 13.8 0
 5 1 -3 41 6.19 0
 5 1 -1 106.29 8.02 0
 5 1 0 66.1 7.57 0
 5 2 -18 36.7 9.7 0
 5 2 -17 493.23 21.56 0
 5 2 -16 10.22 7.58 0
 5 2 -15 68.61 10.98 0
 5 2 -14 143.6 12.03 0
 5 2 -13 17.05 7.78 0
 5 2 -12 21.31 6.7 0
 5 2 -11 -2.59 5.12 0
 5 2 -10 115.93 10.22 0
 5 2 -6 246.51 12.44 0
 5 2 -5 402.18 15.26 0
 5 2 -4 17.28 5.34 0
 5 2 -3 489.4 16.4 0
 5 2 -2 187.35 10.45 0
 5 2 -1 146.38 9.93 0
 5 2 0 44.31 6.52 0
 5 2 1 156.95 10.14 0
 5 3 -18 49.58 10.6 0
 5 3 -17 1.71 6.8 0
 5 3 -16 46.3 9.5 0
 5 3 -15 329.57 18.07 0
 5 3 -14 18.88 7.26 0
 5 3 -12 18.69 6.77 0
 5 3 -10 186.97 12.17 0
 5 3 -9 12.16 6.17 0
 5 3 -8 10.46 5.1 0
 5 3 -7 13.89 5.45 0
 5 3 -6 82.48 8.82 0
 5 3 -5 228.84 11.84 0
 5 3 -2 299.48 12.91 0
 5 3 -1 190.68 10.85 0
 5 3 2 268.42 12.37 0
 5 4 -17 13.53 7.4 0
 5 4 -15 45.88 9.13 0
 5 4 -13 20.86 6.96 0
 5 4 -12 6.6 6.68 0
 5 4 -10 158.35 12.67 0
 5 4 -9 1.78 5.17 0
 5 4 -8 187.61 12.74 0
 5 4 -7 92.64 9.8 0
 5 4 -6 119.68 10.5 0
 5 4 -5 2.41 4.5 0
 5 4 -4 52.69 7.3 0
 5 4 -3 24.67 5.78 0
 5 4 -2 160.61 10.24 0
 5 4 -1 455.76 15.76 0
 5 4 0 262.56 12.49 0
 5 4 1 470.34 15.79 0
 5 4 2 163.84 10.04 0
 5 5 -16 26.17 8.44 0
 5 5 -13 71.24 10.59 0
 5 5 -12 185.79 14.2 0
 5 5 -11 33.82 8.02 0
 5 5 -10 12.23 6.79 0
 5 5 -9 123.5 10.84 0
 5 5 -7 3.43 5.01 0
 5 5 -5 2.47 4.93 0
 5 5 -4 57.44 8.28 0
 5 5 -1 643.78 18.93 0
 5 5 0 40.76 7.28 0
 5 5 1 645.51 18.58 0
 5 5 2 61.83 7.48 0
 5 6 -15 50 9.98 0
 5 6 -13 160.69 13.74 0
 5 6 -11 40.53 8.41 0
 5 6 -10 36.3 7.82 0
 5 6 -9 58.45 8.97 0
 5 6 -8 17.72 6.3 0
 5 6 -7 33.66 7.12 0
 5 6 -6 32.08 6.64 0
 5 6 -5 248.73 13.67 0
 5 6 -4 95.35 8.72 0
 5 6 -3 74.98 7.95 0
 5 6 -2 93.62 9.13 0
 5 6 0 551.38 17.25 0
 5 6 1 40.48 6.57 0
 5 6 2 108.36 8.45 0
 5 7 -14 33.37 8.7 0
 5 7 -12 170.6 13.3 0
 5 7 -11 46.21 9.17 0
 5 7 -9 4.46 6.08 0
 5 7 -8 131.13 11.08 0
 5 7 -7 78.5 9.77 0
 5 7 -6 52.3 8.11 0
 5 7 -5 -0.59 5.54 0
 5 7 -4 102.35 9.57 0
 5 7 -3 120.68 10.09 0
 5 7 -2 193.85 11.6 0
 5 7 -1 82.53 8.34 0
 5 7 0 275.18 12.79 0
 5 7 1 68.04 6.94 0
 5 8 -13 4.37 6.8 0
 5 8 -12 55.44 10.37 0
 5 8 -11 15.94 7.8 0
 5 8 -9 15.89 6.6 0
 5 8 -8 31.42 7.92 0
 5 8 -7 106.92 11.16 0
 5 8 -6 12.5 5.93 0
 5 8 -5 39.09 7.49 0
 5 8 -4 124.31 10.07 0
 5 8 -3 119.21 9.44 0
 5 9 -9 166.87 13.2 0
 5 9 -8 21.51 6.62 0
 6 -4 -13 166.37 11.7 0
 6 -4 -11 3.79 5.22 0
 6 -4 -10 66 9.05 0
 6 -3 -15 5.02 5.66 0
 6 -3 -14 99.6 10.51 0
 6 -3 -13 41.78 7.95 0
 6 -3 -12 55.8 9.09 0
 6 -3 -11 3.37 6.02 0
 6 -3 -10 101.48 10.16 0
 6 -3 -9 258.19 14.23 0
 6 -3 -8 97.15 9.44 0
 6 -3 -7 71.53 8.87 0
 6 -2 -17 0.7 5.54 0
 6 -2 -16 9.59 6.18 0
 6 -2 -15 27.29 7.95 0
 6 -2 -14 46.77 8.33 0
 6 -2 -13 52.23 9.36 0
 6 -2 -12 173.06 12.98 0
 6 -2 -11 82.7 10.16 0
 6 -2 -10 138.14 10.99 0
 6 -2 -8 2.13 5.08 0
 6 -2 -7 47.43 7.68 0
 6 -2 -6 93.24 10 0
 6 -2 -5 136.03 11.16 0
 6 -1 -17 194.35 13.7 0
 6 -1 -16 163.03 13.15 0
 6 -1 -15 33.26 8.93 0
 6 -1 -14 56.53 8.92 0
 6 -1 -13 42.8 8.97 0
 6 -1 -12 4.69 7.18 0
 6 -1 -11 68.13 9.71 0
 6 -1 -9 72.73 9.68 0
 6 -1 -8 70.23 8.99 0
 6 -1 -7 65.56 8.72 0
 6 -1 -5 19.49 6.75 0
 6 -1 -4 1.31 4.67 0
 6 -1 -3 1.3 5.8 0
 6 0 -17 43.38 8.62 0
 6 0 -16 9.55 6.64 0
 6 0 -14 143.27 12.69 0
 6 0 -12 22.68 7.67 0
 6 0 -11 32.06 8.27 0
 6 0 -10 24.41 7.61 0
 6 0 -9 11.92 6.01 0
 6 0 -8 19.85 6.36 0
 6 0 -6 299.31 15.17 0
 6 0 -5 143.68 10.74 0
 6 0 -4 49.24 8.63 0
 6 0 -3 7.76 5.1 0
 6 0 -2 9.55 5.06 0
 6 0 -1 97.95 9.04 0
 6 1 -17 163.22 14.69 0
 6 1 -16 160.1 14.33 0
 6 1 -15 29.76 8.16 0
 6 1 -13 46.48 8.83 0
 6 1 -12 2.96 6.15 0
 6 1 -11 57.51 8.73 0
 6 1 -10 95.64 10.36 0
 6 1 -9 91.82 11.17 0
 6 1 -8 59.71 8.81 0
 6 1 -7 67.66 8.94 0
 6 1 -6 0.95 4.84 0
 6 1 -5 20.3 6.08 0
 6 1 -4 8.01 5.2 0
 6 1 -3 0.73 5.79 0
 6 1 -2 113.33 10.45 0
 6 1 -1 18.02 6.45 0
 6 2 -16 10.86 7.42 0
 6 2 -15 21.72 7.98 0
 6 2 -14 45.88 10.1 0
 6 2 -13 57.3 9.82 0
 6 2 -12 169.46 13.28 0
 6 2 -11 86.77 10.81 0
 6 2 -10 139.68 11.84 0
 6 2 -9 134.97 12.44 0
 6 2 -8 -3.34 4.99 0
 6 2 -7 51.73 7.98 0
 6 2 -6 86.45 9.18 0
 6 2 -5 143.36 10.96 0
 6 2 -4 102.24 10.2 0
 6 2 -3 115.59 10.81 0
 6 2 -2 27.82 6.68 0
 6 2 -1 28.21 6.6 0
 6 2 0 38.18 7.93 0
 6 3 -16 56.21 10.42 0
 6 3 -15 3.68 6.85 0
 6 3 -13 49.62 9.58 0
 6 3 -11 11.84 7.35 0
 6 3 -10 99.18 11.25 0
 6 3 -8 104.45 10.42 0
 6 3 -7 64.85 9.83 0
 6 3 -6 168.67 12.9 0
 6 3 -4 15.55 5.96 0
 6 3 -3 114.36 10.02 0
 6 3 -1 114.51 10.09 0
 6 3 0 29.33 6.44 0
 6 4 -15 -2.47 7.23 0
 6 4 -14 78.65 11.22 0
 6 4 -13 153.16 14.24 0
 6 4 -12 50.54 9.49 0
 6 4 -10 67.5 9.96 0
 6 4 -9 54.73 10.1 0
 6 4 -8 5.66 5.95 0
 6 4 -7 101.98 10.16 0
 6 4 -6 235.94 14.24 0
 6 4 -5 115.95 10.75 0
 6 4 -4 189.23 13.24 0
 6 4 -3 10.23 5.86 0
 6 4 -2 158.19 11.5 0
 6 4 -1 187.36 12.01 0
 6 4 0 14.77 6.27 0
 6 5 -13 219.42 15.64 0
 6 5 -12 48.84 9.34 0
 6 5 -10 22.22 7.55 0
 6 5 -9 108.54 13.02 0
 6 5 -8 48.43 8.79 0
 6 5 -7 136.27 12.68 0
 6 5 -6 226.61 14.84 0
 6 5 -5 23.75 7.04 0
 6 5 -4 139.17 11.87 0
 6 5 -2 68.37 8.98 0
 6 5 -1 -1.1 4.85 0
 6 5 0 232.57 13.86 0
 6 5 1 -1.59 4.74 0
 6 6 -12 196.62 15.46 0
 6 6 -11 37.38 9.49 0
 6 6 -10 170.51 14.35 0
 6 6 -9 11.8 7.21 0
 6 6 -8 20.54 7.4 0
 6 6 -4 -3.27 5.12 0
 6 6 -3 240.76 14.51 0
 6 6 -2 27.66 7.3 0
 6 6 -1 22.87 7.45 0
 6 6 0 485.81 18.43 0
 6 7 -11 60.04 10.44 0
 6 7 -10 242.3 16.42 0
 6 7 -9 91.86 11.92 0
 6 7 -8 42.37 9.08 0
 6 7 -6 49.91 8.66 0
 6 7 -5 49.23 8.86 0
 6 7 -4 21.47 6.87 0
 6 7 -3 35.77 8.45 0
 6 7 -2 194.75 13.34 0
 6 7 -1 107.11 10.41 0
 6 7 0 3.85 4.42 0
 6 8 -9 58.29 9.87 0
 6 8 -8 112.17 11.86 0
 6 8 -7 43.11 9.29 0
 6 8 -6 54.27 9.63 0
 6 8 -5 13.88 6.4 0
 6 8 -4 21.81 7.17 0
 7 -3 -14 100.57 11.68 0
 7 -3 -12 2.25 5.88 0
 7 -3 -11 77.78 10.45 0
 7 -3 -10 14.24 7.41 0
 7 -3 -9 18.31 8.1 0
 7 -2 -14 118.56 12.63 0
 7 -2 -13 41.63 8.6 0
 7 -2 -12 55.56 9.43 0
 7 -2 -11 9.92 6.77 0
 7 -2 -10 62.32 9.79 0
 7 -2 -9 19.35 7.58 0
 7 -2 -8 1.95 6.24 0
 7 -2 -7 18.04 7.62 0
 7 -1 -14 33.37 8.64 0
 7 -1 -11 102.96 12.31 0
 7 -1 -10 36.43 8.78 0
 7 -1 -9 0.16 7.25 0
 7 -1 -7 47.32 8.96 0
 7 -1 -6 33.91 9.17 0
 7 -1 -5 153.72 13.78 0
 7 0 -13 157.78 14.29 0
 7 0 -12 10.28 7.22 0
 7 0 -11 41.14 8.95 0
 7 0 -10 9.5 6.99 0
 7 0 -9 3.84 7.79 0
 7 0 -8 78.6 10.82 0
 7 0 -7 8.96 6.95 0
 7 0 -6 112.69 13.21 0
 7 0 -5 480.88 20.81 0
 7 0 -3 88.85 10.76 0
 7 1 -13 18.14 7.69 0
 7 1 -12 44.54 9.4 0
 7 1 -11 107.91 13.13 0
 7 1 -10 19.09 7.72 0
 7 1 -9 12.94 6.75 0
 7 1 -8 70.9 10.74 0
 7 1 -7 46.75 9.2 0
 7 1 -5 142.86 12.55 0
 7 1 -3 71.37 10.88 0
 7 1 -2 131.31 12.09 0
 7 2 -13 48.74 10.39 0
 7 2 -12 46.9 9.63 0
 7 2 -11 18.25 7.9 0
 7 2 -10 70.98 10.8 0
 7 2 -8 3.3 6.41 0
 7 2 -6 212.58 15.27 0
 7 2 -5 13.02 6.88 0
 7 2 -2 444.71 20.01 0
 7 3 -12 5.11 7.18 0
 7 3 -10 7.75 7.37 0
 7 3 -9 13.04 6.95 0
 7 3 -8 44.76 10.01 0
 7 3 -7 108.35 11.99 0
 7 3 -6 22.44 7.76 0
 7 3 -5 26.03 7.84 0
 7 3 -4 20.92 7.44 0
 7 3 -3 0.46 7.25 0
 7 3 -2 132.64 12.1 0
 7 3 -1 40.14 8.86 0
 7 4 -11 18.79 8.02 0
 7 4 -10 39.19 9.35 0
 7 4 -9 5.84 7.73 0
 7 4 -7 23.93 9 0
 7 4 -6 27.5 8.58 0
 7 4 -5 79.1 11.36 0
 7 4 -4 64.36 10.93 0
 7 4 -3 29.05 8.02 0
 7 4 -2 368.06 18.91 0
 7 5 -10 23.07 8.58 0
 7 5 -9 47.51 10.07 0
 7 5 -8 46.06 9.84 0
 7 5 -7 73.78 11.68 0
 7 5 -6 100.97 12.48 0
 7 5 -5 21.99 8.01 0
 7 5 -4 7.95 7.32 0
 7 5 -3 22.56 7.79 0
 7 5 -2 118.51 12.71 0
 7 5 -1 99.78 11.03 0
 7 6 -9 163.07 15.16 0
 7 6 -8 19.05 7.88 0
 7 6 -6 12.45 8.29 0
 7 6 -5 32.63 9.51 0
 7 6 -3 1.4 6.08 0
 7 6 -2 108.61 11.54 0
 7 7 -7 28.59 9.21 0
 7 7 -4 43.64 8.96 0
 7 7 -3 42.55 9.41 0
 7 7 -2 15.71 6.85 0
 7 8 -4 182.1 14.44 0
 8 -1 -9 94.64 13.05 0
 8 -1 -8 23.57 9.18 0
 8 0 -9 49.8 11.31 0
 8 0 -8 22.51 8.49 0
 8 0 -6 474.45 22.18 0
 8 1 -9 92.46 13.82 0
 8 1 -8 25.54 8.9 0
 8 1 -7 77.32 11.8 0
 8 1 -5 28.29 10.12 0
 8 2 -8 9.49 7.84 0
 8 2 -7 193.95 16.57 0
 8 2 -6 116.72 14.14 0
 8 2 -4 123.09 14.41 0
 8 3 -7 27.62 9.93 0
 8 3 -6 48.02 10.6 0
 8 3 -5 116.11 13.21 0
 8 4 -6 30.26 10.25 0
 -4 2 20 95.87 9.92 0
 -3 -3 6 133.96 2.75 0
 -3 -3 8 567.73 5.7 0
 -3 -3 9 810.37 7.45 0
 -3 -3 10 11.52 1.49 0
 -3 -3 11 32.34 2.27 0
 -3 -2 12 226.81 6.94 0
 -3 -2 13 101.75 5.23 0
 -3 -2 14 114.55 5.76 0
 -3 -1 15 99.73 6.49 0
 -3 -1 16 73.5 5.85 0
 -3 -1 17 53.8 5.77 0
 -3 0 17 314.24 12.37 0
 -3 0 18 71.43 7.15 0
 -3 0 19 -2.93 3.51 0
 -3 1 18 14.22 5.07 0
 -3 1 19 29.08 6.43 0
 -3 1 20 23.58 5.95 0
 -3 2 19 46.61 7.49 0
 -3 2 20 86.19 10.13 0
 -3 3 20 124.69 11.46 0
 -3 3 21 211.73 13.89 0
 -3 4 20 15.99 7.7 0
 -3 4 21 54.23 8.96 0
 -2 -3 8 318.12 4.3 0
 -2 -3 9 524.06 6.58 0
 -2 -3 10 293.05 5.74 0
 -2 -3 11 2.18 1.49 0
 -2 -3 12 18.89 2.53 0
 -2 -3 13 42.81 3.54 0
 -2 -3 14 79.05 4.6 0
 -2 -2 3 314.72 4.44 0
 -2 -2 9 250.43 5.84 0
 -2 -2 10 201.02 5.94 0
 -2 -2 11 51 3.74 0
 -2 -2 13 512.32 11.13 0
 -2 -2 14 46.4 4.56 0
 -2 -2 16 131.44 7.07 0
 -2 -2 17 143.2 7.71 0
 -2 -1 15 127.61 7.41 0
 -2 -1 16 9.09 3.91 0
 -2 -1 17 198.54 9.69 0
 -2 -1 18 152.27 8.99 0
 -2 -1 19 36.41 5.88 0
 -2 0 16 216.95 10.35 0
 -2 0 17 0.3 3.52 0
 -2 0 18 72.2 7.23 0
 -2 0 19 73.22 7.39 0
 -2 0 20 1.6 3.96 0
 -2 0 21 6.82 4.79 0
 -2 1 16 3.94 4.52 0
 -2 1 17 205.82 11.2 0
 -2 1 18 153.16 9.97 0
 -2 1 19 32.3 6.25 0
 -2 1 20 123.5 9.75 0
 -2 1 21 57.57 7.98 0
 -2 1 22 216.08 12.75 0
 -2 2 17 155.39 9.98 0
 -2 2 18 35.47 6.56 0
 -2 2 19 111.61 10.01 0
 -2 2 20 11.77 5.72 0
 -2 2 22 93.44 11.03 0
 -2 2 23 11.69 6.18 0
 -2 3 18 30.53 7.07 0
 -2 3 19 215.35 13.69 0
 -2 3 20 153.2 12.47 0
 -2 3 21 76.54 10.04 0
 -2 3 22 34.04 8.31 0
 -2 4 19 70.94 10.07 0
 -2 4 20 3.21 6.13 0
 -2 4 21 40.87 8.59 0
 -2 5 19 31.04 7.71 0
 -1 -4 12 323.99 7.8 0
 -1 -4 13 98.74 4.96 0
 -1 -4 14 275.24 8.28 0
 -1 -3 7 199.23 4.1 0
 -1 -3 8 1912.5 13.91 0
 -1 -3 9 647.3 9.16 0
 -1 -3 10 468.7 8.66 0
 -1 -3 11 35.35 3.36 0
 -1 -3 12 103.04 5.22 0
 -1 -3 13 373.33 9.6 0
 -1 -3 14 242 8.34 0
 -1 -3 17 41.77 5.2 0
 -1 -2 7 1044.29 10.26 0
 -1 -2 8 943.02 10.86 0
 -1 -2 9 182.5 5.54 0
 -1 -2 10 118.85 5.03 0
 -1 -2 12 663.83 12.65 0
 -1 -2 13 506.75 11.71 0
 -1 -2 17 6.52 3.96 0
 -1 -2 18 182.68 9.77 0
 -1 -1 0 5841.59 16.63 0
 -1 -1 9 234.6 6.68 0
 -1 -1 10 1003.01 14.61 0
 -1 -1 11 443.7 10.42 0
 -1 -1 12 17.61 3.49 0
 -1 -1 15 8.25 3.5 0
 -1 -1 16 215.94 9.7 0
 -1 -1 18 27.54 5.36 0
 -1 -1 19 59.26 7.19 0
 -1 -1 20 21.11 5.89 0
 -1 -1 21 2.82 4.33 0
 -1 0 15 159.12 8.59 0
 -1 0 16 76.15 7.28 0
 -1 0 17 233.55 11.02 0
 -1 0 18 35.64 6.54 0
 -1 0 19 258.97 12.34 0
 -1 0 20 15.11 6.05 0
 -1 0 21 50.27 7.5 0
 -1 1 14 356 12.55 0
 -1 1 15 7.62 4.54 0
 -1 1 16 217.11 11.01 0
 -1 1 17 135.6 9.2 0
 -1 1 18 30.5 6.75 0
 -1 1 19 73.16 9.02 0
 -1 1 20 18.17 5.89 0
 -1 1 22 65.25 8.92 0
 -1 1 23 16.84 6.07 0
 -1 2 15 82.23 7.99 0
 -1 2 16 36.8 6.57 0
 -1 2 17 8.97 4.88 0
 -1 2 18 187.68 11.9 0
 -1 2 19 13.35 6.27 0
 -1 2 20 38.63 7.64 0
 -1 2 22 80.3 10.98 0
 -1 2 23 116.55 11.32 0
 -1 3 17 33.24 6.48 0
 -1 3 18 10.65 5.4 0
 -1 3 19 192.06 13.22 0
 -1 3 20 169.14 12.88 0
 -1 3 21 143.82 11.92 0
 -1 3 22 12.2 7.98 0
 -1 4 17 184.95 12.12 0
 -1 4 18 234.7 13.9 0
 -1 4 19 20.18 8.03 0
 -1 4 20 264.23 15.32 0
 -1 4 21 23.22 7.66 0
 -1 4 22 84.93 12.28 0
 -1 5 17 4.24 5.19 0
 -1 5 18 78.03 10.98 0
 -1 5 19 31.41 7.6 0
 -1 5 20 15.03 7.18 0
 -1 5 21 37.11 8.78 0
 -1 6 18 41.53 8.29 0
 -1 6 19 92.42 12.57 0
 -1 6 20 21.52 7.82 0
 -1 7 18 45.51 9.22 0
 -1 7 19 30.12 8.35 0
 0 -4 11 231.32 7.93 0
 0 -4 12 100.03 5.75 0
 0 -4 13 207.27 8.25 0
 0 -4 16 86.44 6.86 0
 0 -3 7 479.4 8.63 0
 0 -3 8 26.69 3.08 0
 0 -3 9 928.38 13.5 0
 0 -3 10 0.52 2.04 0
 0 -3 11 35.23 4.17 0
 0 -3 12 2.77 2.93 0
 0 -3 16 8.07 3.92 0
 0 -3 17 6.86 3.96 0
 0 -3 19 7.66 4.61 0
 0 -2 4 7412.22 24.96 0
 0 -2 5 556.47 7.64 0
 0 -2 6 3075.67 19.12 0
 0 -2 7 1020.85 12.28 0
 0 -2 8 7.7 2.22 0
 0 -2 9 10.71 2.54 0
 0 -2 10 6.27 2.54 0
 0 -2 11 1153.25 17.21 0
 0 -2 12 20.74 3.76 0
 0 -2 15 115.35 7.89 0
 0 -2 16 1052.91 21.24 0
 0 -2 17 58.54 6.61 0
 0 -2 18 466.86 15.69 0
 0 -2 19 343.22 14.06 0
 0 -2 20 25.17 5.7 0
 0 -2 21 32.93 6.42 0
 0 -1 2 608.58 4.97 0
 0 -1 3 2040.22 10.67 0
 0 -1 4 4747.11 18.9 0
 0 -1 5 403.16 6.52 0
 0 -1 6 541.46 8.48 0
 0 -1 7 2225.32 18.2 0
 0 -1 8 61.19 3.81 0
 0 -1 9 44.67 3.79 0
 0 -1 10 113.33 5.76 0
 0 -1 11 27.46 3.87 0
 0 -1 14 2.52 3.03 0
 0 -1 15 16.86 4.46 0
 0 -1 16 50.4 6.25 0
 0 -1 17 19.01 5.17 0
 0 -1 18 208.49 11.59 0
 0 -1 19 88.68 9.08 0
 0 -1 20 1.4 4.47 0
 0 -1 21 31.03 7.16 0
 0 -1 22 113.52 10.75 0
 0 0 5 -0.97 1.31 0
 0 0 6 379.84 7.73 0
 0 0 7 -0.71 1.85 0
 0 0 8 117.6 5.17 0
 0 0 9 -3.73 1.71 0
 0 0 10 1062.72 16.79 0
 0 0 11 1.89 2.91 0
 0 0 13 5.17 3.41 0
 0 0 14 125.44 7.75 0
 0 0 15 -1.41 3.2 0
 0 0 16 320.36 12.93 0
 0 0 17 3.33 4.4 0
 0 0 18 240.06 12.64 0
 0 0 19 -6.13 4.09 0
 0 0 21 6.95 5.58 0
 0 0 22 301.04 15.55 0
 0 0 24 -1.95 5.17 0
 0 1 13 573.29 15.11 0
 0 1 14 7.82 3.99 0
 0 1 15 13.55 5.13 0
 0 1 16 55.08 7.42 0
 0 1 19 96.52 9.23 0
 0 1 20 3.37 5.32 0
 0 1 21 38.71 8.15 0
 0 1 22 124.7 11.92 0
 0 1 23 53.16 9.27 0
 0 2 -3 5050.39 17.67 0
 0 2 12 16.93 4.46 0
 0 2 13 1.85 3.33 0
 0 2 15 127.11 9.28 0
 0 2 16 1067.53 24.22 0
 0 2 17 52.35 7.38 0
 0 2 18 472.7 17.65 0
 0 2 19 330.83 16.04 0
 0 2 20 30.12 7.84 0
 0 2 21 38.93 7.99 0
 0 2 22 8.26 6.07 0
 0 2 23 45.33 9.45 0
 0 3 13 239.12 11.29 0
 0 3 14 12.59 4.52 0
 0 3 15 210.9 11.62 0
 0 3 16 9.66 5.53 0
 0 3 17 2.45 4.71 0
 0 3 18 185.67 12.11 0
 0 3 19 7.82 6.4 0
 0 3 20 153.22 12.79 0
 0 3 21 14.58 6.83 0
 0 4 14 14.51 4.87 0
 0 4 15 676.67 20.23 0
 0 4 16 92.26 9.76 0
 0 4 18 5.07 5.38 0
 0 4 19 105.45 11.56 0
 0 4 20 44.45 9.32 0
 0 4 21 17.56 7.33 0
 0 4 22 123.11 13.38 0
 0 5 15 62.12 8.62 0
 0 5 16 220.15 12.91 0
 0 5 17 49.72 8.37 0
 0 5 18 283.95 16.22 0
 0 5 19 57.3 9.31 0
 0 5 20 354.08 18.28 0
 0 5 21 317.41 18.64 0
 0 6 15 175.54 11.97 0
 0 6 16 -0.72 5.34 0
 0 6 17 405.53 18.64 0
 0 6 18 24.29 7.5 0
 0 6 19 5.82 6.51 0
 0 6 20 16.51 7.64 0
 0 7 15 2.75 5.42 0
 0 7 17 5.99 6.84 0
 0 7 19 7.65 7.36 0
 0 8 15 12.52 6.8 0
 0 8 16 111.81 13.26 0
 0 8 18 141.97 13.67 0
 0 9 14 37.51 7.94 0
 0 9 16 51.23 9.97 0
 0 10 13 25.05 7.28 0
 0 11 12 1.19 5.74 0
 0 12 10 61.82 9.01 0
 1 -4 14 257.96 11.24 0
 1 -4 16 149.63 9.88 0
 1 -4 17 193.28 10.92 0
 1 -3 8 1931.27 21.97 0
 1 -3 9 671.16 13.94 0
 1 -3 14 236.44 10.46 0
 1 -3 15 181.01 10.16 0
 1 -3 16 152.85 9.87 0
 1 -3 17 44.17 7.05 0
 1 -3 18 9.09 4.66 0
 1 -3 19 210.44 12.35 0
 1 -3 20 169.73 12.03 0
 1 -3 21 133.24 11.2 0
 1 -2 7 1034.42 15.02 0
 1 -2 8 973.32 15.42 0
 1 -2 10 121.16 6.47 0
 1 -2 13 473.4 13.73 0
 1 -2 14 7.54 4.42 0
 1 -2 15 76.44 6.87 0
 1 -2 16 35.59 5.96 0
 1 -2 17 3.82 4.41 0
 1 -2 18 193.57 11.58 0
 1 -2 19 6.73 5.09 0
 1 -2 21 42.28 7.6 0
 1 -2 22 63.41 9.44 0
 1 -1 3 221.47 5.54 0
 1 -1 4 418.42 7.92 0
 1 -1 5 1833.49 17.08 0
 1 -1 6 2413.39 20.89 0
 1 -1 7 290.07 8.04 0
 1 -1 8 1026.33 15.54 0
 1 -1 9 243.61 8.45 0
 1 -1 10 954.27 16.78 0
 1 -1 14 358.4 12.74 0
 1 -1 15 7.47 4.11 0
 1 -1 18 31.92 7.42 0
 1 -1 20 13.52 6.93 0
 1 -1 21 0.9 5.22 0
 1 -1 22 55.83 8.84 0
 1 -1 23 26.03 7.02 0
 1 0 1 2687.57 14.69 0
 1 0 2 450.4 6.67 0
 1 0 3 14.67 2.2 0
 1 0 4 -1.09 1.46 0
 1 0 5 4239.76 25.44 0
 1 0 8 40.33 4.37 0
 1 0 9 809.23 14.84 0
 1 0 13 4.47 4.19 0
 1 0 14 181.57 10.02 0
 1 0 15 167.21 9.77 0
 1 0 16 74.9 7.51 0
 1 0 17 250.78 13.06 0
 1 0 18 36.76 6.9 0
 1 0 19 270.97 14.66 0
 1 0 20 19.94 7.29 0
 1 0 22 39.51 8.34 0
 1 0 23 -0.34 5.33 0
 1 1 1 2711.47 13.56 0
 1 1 2 1731.18 12.44 0
 1 1 3 211.36 5.33 0
 1 1 4 420.53 7.89 0
 1 1 5 1863.37 17.46 0
 1 1 6 2467.4 21.64 0
 1 1 7 298.26 8.39 0
 1 1 14 354.67 13.46 0
 1 1 15 -0.47 3.48 0
 1 1 16 213.83 11.94 0
 1 1 17 123.78 9.63 0
 1 1 18 37.95 7.38 0
 1 1 19 62 9.38 0
 1 1 21 11.31 6.6 0
 1 1 22 66.2 9.66 0
 1 1 23 14.96 6.95 0
 1 2 1 6628.32 22.38 0
 1 2 2 4114.07 20.47 0
 1 2 3 1456.37 13.69 0
 1 2 4 2744.42 20.57 0
 1 2 5 766.84 12.06 0
 1 2 6 436.18 9.81 0
 1 2 7 1063.34 15.95 0
 1 2 8 988.61 16.48 0
 1 2 12 632.53 16.34 0
 1 2 13 503.44 15.45 0
 1 2 14 -1.14 3.58 0
 1 2 15 77.66 8 0
 1 2 16 38.32 6.9 0
 1 2 17 5.7 4.76 0
 1 2 18 170.04 11.62 0
 1 2 19 18.16 6.43 0
 1 2 20 47.1 9.08 0
 1 2 22 57.26 10.17 0
 1 2 23 115.9 13.57 0
 1 3 7 197.75 7.46 0
 1 3 13 377.23 13.66 0
 1 3 14 244.56 12.26 0
 1 3 15 166.68 11.16 0
 1 3 18 14.67 5.99 0
 1 3 20 174.47 13.22 0
 1 3 21 133.92 12.03 0
 1 4 10 18.05 4.01 0
 1 4 11 132.78 8.41 0
 1 4 12 336.41 13.14 0
 1 4 13 101.85 8.99 0
 1 4 14 290.7 13.57 0
 1 4 15 57.39 7.65 0
 1 4 16 151.63 11.01 0
 1 4 17 170.13 12.06 0
 1 4 18 230.1 14.16 0
 1 4 19 9.97 6.44 0
 1 4 21 33.25 8.71 0
 1 5 10 91.59 7.66 0
 1 5 11 216.22 10.99 0
 1 5 13 48.33 6.93 0
 1 5 14 44.96 7 0
 1 5 16 7.48 6.49 0
 1 5 17 -2.71 4.9 0
 1 5 18 98.26 11.95 0
 1 5 20 11.11 7.06 0
 1 5 21 31.56 8.85 0
 1 6 -4 580.92 5.99 0
 1 6 11 198.28 11.09 0
 1 6 12 20.36 5.45 0
 1 6 13 66.96 8.19 0
 1 6 14 46.68 7.45 0
 1 6 15 305.85 15.77 0
 1 6 16 276.74 15.8 0
 1 6 17 74.78 10.37 0
 1 6 18 51.89 9.68 0
 1 6 19 78.04 11.27 0
 1 6 20 18.06 8.17 0
 1 7 11 371.3 15.04 0
 1 7 12 36.87 6.78 0
 1 7 13 144.01 11.22 0
 1 7 14 114.47 11.15 0
 1 7 16 29.51 7.55 0
 1 7 17 205.61 14.28 0
 1 7 18 46.04 9.32 0
 1 7 19 26.37 8.28 0
 1 8 11 208.79 12.05 0
 1 8 12 32.07 7.7 0
 1 8 13 235.88 13.63 0
 1 8 14 19.31 6.49 0
 1 8 15 60.16 10.11 0
 1 8 16 16.5 7.75 0
 1 8 17 8.22 6.81 0
 1 9 10 23.17 6.76 0
 1 9 11 -2.19 4.46 0
 1 9 12 99.94 10.88 0
 1 9 13 8.8 5.73 0
 1 9 15 151.61 13.51 0
 1 9 16 26 7.8 0
 1 10 9 23.38 6.03 0
 1 10 10 163.27 12.02 0
 1 10 11 -0.46 5.76 0
 1 10 12 101.91 10.43 0
 1 10 13 55.55 9.75 0
 1 10 14 248.81 15.5 0
 1 11 6 173.96 10.29 0
 1 11 7 35.11 6.76 0
 1 11 8 74.3 9.15 0
 1 11 9 214.04 12.92 0
 1 11 10 8.6 5.85 0
 1 11 11 2.49 4.82 0
 1 11 12 64.71 9.35 0
 1 12 10 97.04 10.29 0
 2 -3 11 4.42 4.41 0
 2 -3 12 25.18 5.58 0
 2 -3 13 30.39 5.57 0
 2 -3 15 32.34 6.97 0
 2 -3 16 81.9 9.01 0
 2 -3 17 21.15 6.16 0
 2 -3 18 25.27 6.71 0
 2 -3 19 219.05 14.03 0
 2 -3 21 67.92 10.5 0
 2 -2 6 55.74 4.73 0
 2 -2 7 26.87 4.07 0
 2 -2 8 306.09 10.67 0
 2 -2 11 62.37 6.59 0
 2 -2 12 160.97 9.46 0
 2 -2 13 504.17 16.06 0
 2 -2 14 43.67 6.79 0
 2 -2 17 139.86 11.55 0
 2 -2 18 30.47 7.29 0
 2 -2 19 106.74 11.29 0
 2 -2 20 16.76 7.17 0
 2 -2 21 201.62 14.75 0
 2 -2 22 97.76 11.84 0
 2 -2 23 24.07 8.93 0
 2 -1 4 790.22 13.55 0
 2 -1 7 302.01 9.67 0
 2 -1 11 18.51 4.33 0
 2 -1 12 577.76 16.43 0
 2 -1 13 19.92 5.44 0
 2 -1 14 11.74 4.71 0
 2 -1 15 120.23 9.56 0
 2 -1 16 3.66 4.67 0
 2 -1 17 198.28 12.61 0
 2 -1 18 166.94 12.57 0
 2 -1 19 25.39 7.16 0
 2 -1 20 123.2 11.48 0
 2 -1 22 205.37 14.86 0
 2 0 2 0.49 2.03 0
 2 0 3 27.79 3.3 0
 2 0 4 1008.26 14.45 0
 2 0 5 1058.69 15.82 0
 2 0 8 7.54 3.56 0
 2 0 12 128.06 8.29 0
 2 0 13 328.34 13.33 0
 2 0 14 107.41 8.51 0
 2 0 15 129.65 9.61 0
 2 0 16 216.17 12.68 0
 2 0 17 6.04 5.38 0
 2 0 19 74.33 9.53 0
 2 0 20 2.1 6.46 0
 2 0 21 15.23 6.73 0
 2 0 22 7.54 7.46 0
 2 1 2 469.78 8.92 0
 2 1 3 1826.1 17.91 0
 2 1 4 787.45 12.57 0
 2 1 5 401.58 9.82 0
 2 1 7 316.32 9.54 0
 2 1 8 56.06 5.46 0
 2 1 11 19.66 4.16 0
 2 1 12 588.88 16.35 0
 2 1 13 19.65 5.34 0
 2 1 14 15.85 4.92 0
 2 1 15 124.14 9.43 0
 2 1 16 3.49 4.63 0
 2 1 17 188.54 12.86 0
 2 1 18 145.35 12.3 0
 2 1 19 32.91 7.8 0
 2 1 20 120.76 12.59 0
 2 1 21 53.56 9.39 0
 2 1 22 188.11 15.34 0
 2 2 0 4853.82 23.2 0
 2 2 1 245.81 5.96 0
 2 2 2 1052.23 12.61 0
 2 2 4 137.75 5.9 0
 2 2 5 111.84 5.44 0
 2 2 6 50.01 4.61 0
 2 2 7 27.35 3.93 0
 2 2 10 208.6 9.27 0
 2 2 11 59.97 6.49 0
 2 2 12 140.6 8.86 0
 2 2 13 506.87 16.08 0
 2 2 14 40.33 6.3 0
 2 2 16 123.75 10.61 0
 2 2 17 156.78 11.96 0
 2 2 18 35.56 7.84 0
 2 2 19 104.34 11.93 0
 2 2 20 9.22 6.67 0
 2 2 21 196.24 15.27 0
 2 2 22 84.87 11.95 0
 2 3 -1 1173.06 9.83 0
 2 3 1 1163.32 12.17 0
 2 3 2 66.28 3.6 0
 2 3 3 1458.46 16.17 0
 2 3 4 1247.66 16.11 0
 2 3 5 97.81 5.56 0
 2 3 6 226.43 8.06 0
 2 3 9 522.28 14.25 0
 2 3 11 7.89 3.91 0
 2 3 12 22.04 5.03 0
 2 3 14 83.57 8.16 0
 2 3 15 39.65 6.94 0
 2 3 16 81.36 9.95 0
 2 3 17 27.22 7.07 0
 2 3 18 15.26 6.44 0
 2 3 19 186.16 13.83 0
 2 3 20 160.08 14.24 0
 2 3 21 82.78 11.73 0
 2 4 -1 432.82 5.95 0
 2 4 1 432.37 7.85 0
 2 4 3 1650.17 17.92 0
 2 4 4 259.24 7.87 0
 2 4 5 63.82 4.77 0
 2 4 6 684.93 14.21 0
 2 4 9 254.18 10.62 0
 2 4 10 96.3 7.47 0
 2 4 11 2.33 3.43 0
 2 4 12 31.32 5.79 0
 2 4 14 39.97 7 0
 2 4 15 235.63 13.64 0
 2 4 17 69.87 10.04 0
 2 4 18 62.92 8.98 0
 2 4 19 99.79 12.56 0
 2 4 20 6.42 6.99 0
 2 4 21 48.31 9.78 0
 2 5 -2 231.47 3.36 0
 2 5 -1 78.9 2.9 0
 2 5 1 73.22 3.82 0
 2 5 2 245.24 7.01 0
 2 5 3 765.52 13 0
 2 5 4 653.45 12.97 0
 2 5 8 203.71 9.61 0
 2 5 9 118.44 7.76 0
 2 5 11 36.23 6.09 0
 2 5 12 197.42 11.07 0
 2 5 13 181.33 11.74 0
 2 5 15 13.09 5.52 0
 2 5 17 8.89 6.3 0
 2 5 18 93.41 11.95 0
 2 5 19 42.3 9.07 0
 2 5 20 61.43 10.27 0
 2 6 -2 205.91 3.57 0
 2 6 -1 993.61 10.17 0
 2 6 2 208.02 6.82 0
 2 6 3 111.36 5.77 0
 2 6 4 140.43 6.71 0
 2 6 6 194.14 8.57 0
 2 6 7 112.97 7.48 0
 2 6 8 213.04 9.91 0
 2 6 9 426.36 14.23 0
 2 6 10 307.79 12.97 0
 2 6 12 7.56 4.73 0
 2 6 13 188.8 11.97 0
 2 6 14 19.34 7.19 0
 2 6 15 7.35 5.68 0
 2 6 16 29.42 8.23 0
 2 6 17 199.83 13.86 0
 2 6 18 47.64 9.84 0
 2 6 19 63.21 10.22 0
 2 7 -1 311.55 6.17 0
 2 7 0 107.84 4.37 0
 2 7 2 124.36 5.86 0
 2 7 5 407.39 12.05 0
 2 7 6 411.49 12.89 0
 2 7 7 150.81 8.54 0
 2 7 8 54.13 6.87 0
 2 7 9 76.75 7.93 0
 2 7 10 13.17 5.08 0
 2 7 11 166.42 11.21 0
 2 7 12 89.3 10.02 0
 2 7 13 122.51 10.9 0
 2 7 15 59.59 9.71 0
 2 7 16 21.24 7.34 0
 2 7 17 38.96 8.99 0
 2 7 18 55.83 9.9 0
 2 8 4 105.58 6.62 0
 2 8 5 55.61 5.69 0
 2 8 6 147.61 8.25 0
 2 8 7 44.43 6.47 0
 2 8 8 23.37 5.09 0
 2 8 9 18.01 5.26 0
 2 8 10 37.59 6.91 0
 2 8 11 12.44 6.06 0
 2 8 12 162.33 11.77 0
 2 8 14 70.68 9.92 0
 2 8 15 108.65 11.9 0
 2 8 16 13.22 6.77 0
 2 8 17 267.31 17.21 0
 2 9 3 6.34 2.24 0
 2 9 4 70.09 5.84 0
 2 9 5 282.79 10.84 0
 2 9 6 33.87 5.37 0
 2 9 7 21.27 5.26 0
 2 9 8 101.92 8.22 0
 2 9 9 16.7 5.56 0
 2 9 10 138.09 10.88 0
 2 9 11 17.88 6.65 0
 2 9 12 42.02 8.64 0
 2 9 13 49.78 8.71 0
 2 9 14 238.25 14.56 0
 2 9 15 -3.6 5.55 0
 2 10 6 19.83 4.43 0
 2 10 7 115.04 8.88 0
 2 10 8 24.09 5.28 0
 2 10 9 39.66 6.8 0
 2 10 10 25.75 6.52 0
 2 10 12 16.58 6.17 0
 2 10 13 11.48 6.25 0
 2 10 14 59.68 9.53 0
 2 11 9 7.33 4.9 0
 2 11 10 91.26 9.68 0
 2 11 11 52.92 8.32 0
 2 11 12 4.11 5.68 0
 3 -2 9 298.6 12.02 0
 3 -2 10 155.07 10 0
 3 -2 11 220.46 11.78 0
 3 -2 13 89.64 8.67 0
 3 -2 14 129.71 10.15 0
 3 -2 15 27.98 6.78 0
 3 -2 16 111.6 10.41 0
 3 -2 17 136.68 12.63 0
 3 -2 18 90.61 10.87 0
 3 -2 19 28.9 8.1 0
 3 -1 9 678.87 17.63 0
 3 -1 10 532.2 16.23 0
 3 -1 11 132.91 9.11 0
 3 -1 12 237.15 12.42 0
 3 -1 13 208.25 11.98 0
 3 -1 14 12.07 5.05 0
 3 -1 16 95.66 10.38 0
 3 -1 18 15.04 6.82 0
 3 -1 19 25.59 7.72 0
 3 -1 20 15.32 7.42 0
 3 -1 21 169.36 14.53 0
 3 0 4 1914.27 23.74 0
 3 0 5 239.07 9.27 0
 3 0 9 8 3.45 0
 3 0 10 36.91 5.54 0
 3 0 13 3.75 4.45 0
 3 0 14 202.77 11.92 0
 3 0 16 123.8 10.61 0
 3 0 17 304.95 16.55 0
 3 0 18 76.46 11.33 0
 3 0 19 5.18 7.12 0
 3 0 20 61.73 10.96 0
 3 0 21 80.85 12.11 0
 3 1 2 1282.41 17.97 0
 3 1 4 58.93 5.3 0
 3 1 5 635.79 14.07 0
 3 1 10 540.39 15.86 0
 3 1 11 147.75 9.59 0
 3 1 13 210.78 12.12 0
 3 1 15 103.84 10.48 0
 3 1 16 80.38 9.56 0
 3 1 19 29.96 8.51 0
 3 1 20 16.45 7.48 0
 3 1 21 184.67 14.76 0
 3 2 1 879.49 13.69 0
 3 2 3 503.27 11.52 0
 3 2 4 177.39 7.34 0
 3 2 5 244.81 8.82 0
 3 2 8 225.92 10.12 0
 3 2 9 304.23 12.1 0
 3 2 10 149.07 9.01 0
 3 2 12 232.28 11.78 0
 3 2 13 97.09 9.4 0
 3 2 14 123.77 9.98 0
 3 2 16 114.37 11.45 0
 3 2 18 89.99 11.89 0
 3 2 21 75.38 11.18 0
 3 3 0 25.34 3.11 0
 3 3 1 25.06 3.1 0
 3 3 2 173.87 6.46 0
 3 3 3 659.5 12.88 0
 3 3 5 1953.1 23.98 0
 3 3 8 563.73 15.22 0
 3 3 9 839.56 19.6 0
 3 3 10 15.29 5.09 0
 3 3 11 35.06 6.55 0
 3 3 12 22.09 5.58 0
 3 3 14 57.5 8.05 0
 3 3 15 54.23 8.46 0
 3 3 16 56.71 9.46 0
 3 3 18 32.28 8.37 0
 3 3 19 33.45 8.62 0
 3 3 20 128.38 13.21 0
 3 3 21 215.05 16.74 0
 3 4 1 26.02 3 0
 3 4 2 303.91 8.34 0
 3 4 3 65.02 4.86 0
 3 4 4 206.79 7.93 0
 3 4 7 284.65 10.87 0
 3 4 8 61.55 6.19 0
 3 4 9 224.97 10.77 0
 3 4 10 139.68 9.43 0
 3 4 11 30.94 5.87 0
 3 4 12 3.88 4.24 0
 3 4 13 258.72 13.34 0
 3 4 14 90.54 10.47 0
 3 4 15 178.45 12.79 0
 3 4 16 187.37 13.72 0
 3 4 18 102.65 12.84 0
 3 4 19 18.03 7.66 0
 3 5 2 768.85 13.19 0
 3 5 3 220.16 7.78 0
 3 5 7 123.72 7.56 0
 3 5 8 76.47 6.97 0
 3 5 9 340.19 13.27 0
 3 5 10 1.04 4.21 0
 3 5 12 46.3 7.22 0
 3 5 13 171.45 11.3 0
 3 5 14 48.24 7.99 0
 3 5 15 50.24 9.14 0
 3 5 16 46.02 8.96 0
 3 5 18 59.11 10.31 0
 3 5 19 7.39 7.4 0
 3 6 -1 347.99 6.24 0
 3 6 0 134.11 4.85 0
 3 6 2 44.26 3.76 0
 3 6 3 48.78 4.67 0
 3 6 6 90.47 6.53 0
 3 6 7 2.21 3.27 0
 3 6 8 9.42 4.13 0
 3 6 9 3.58 4.15 0
 3 6 10 57.88 7.44 0
 3 6 11 474.73 17.19 0
 3 6 13 36.09 7.11 0
 3 6 14 220.48 14.17 0
 3 6 16 153.66 13.52 0
 3 6 18 112.61 12.07 0
 3 7 2 197.13 7.22 0
 3 7 6 169.14 8.63 0
 3 7 7 507.22 15.17 0
 3 7 8 47.32 6.46 0
 3 7 9 48.49 6.72 0
 3 7 10 56.67 7.87 0
 3 7 11 58.98 7.7 0
 3 7 12 239.1 13.92 0
 3 7 13 225.99 13.94 0
 3 7 14 6.91 6.01 0
 3 7 15 10.78 6.27 0
 3 7 16 40.34 8.59 0
 3 7 17 -2.41 6.26 0
 3 8 4 19.34 4.08 0
 3 8 5 102.35 6.76 0
 3 8 6 1.77 3.09 0
 3 8 7 25.73 5.51 0
 3 8 8 163.25 10.1 0
 3 8 9 75.11 8.77 0
 3 8 10 53.44 8.12 0
 3 8 11 124.03 10.06 0
 3 8 13 20.54 6.84 0
 3 8 14 81.75 10.39 0
 3 8 15 103.53 11.99 0
 3 9 7 196.62 10.5 0
 3 9 8 162.56 10.26 0
 3 9 10 10.39 5.57 0
 3 9 11 97.4 10.01 0
 3 9 12 129.04 11.36 0
 3 9 14 3.44 5.77 0
 3 10 9 71.44 8.2 0
 3 10 10 105.52 9.67 0
 3 10 11 33.61 7.02 0
 3 10 12 43.36 8.69 0
 3 10 13 -5.03 5.23 0
 4 -1 9 661.63 19.63 0
 4 -1 10 5.15 4.87 0
 4 -1 12 46.31 7.5 0
 4 -1 14 52.42 9.29 0
 4 -1 16 137.32 13.23 0
 4 -1 17 22.76 8.33 0
 4 -1 18 26.53 8.24 0
 4 -1 19 143.47 13.94 0
 4 -1 20 4.44 8.78 0
 4 0 7 46.69 6.4 0
 4 0 8 23.77 6.12 0
 4 0 10 614.77 19.08 0
 4 0 11 337.97 14.91 0
 4 0 12 1.95 5.49 0
 4 0 14 83.69 9.4 0
 4 0 15 48.5 8.79 0
 4 0 16 342.5 18.1 0
 4 0 18 118.43 12.76 0
 4 0 20 14.15 8.5 0
 4 1 7 1611.23 27.73 0
 4 1 8 214.13 11.44 0
 4 1 9 707.68 19.78 0
 4 1 10 -0.96 4.54 0
 4 1 11 186.89 11.84 0
 4 1 12 40.6 7.39 0
 4 1 13 333.94 15.8 0
 4 1 14 52.13 8.32 0
 4 1 15 153.57 11.9 0
 4 1 16 163.09 13.96 0
 4 1 17 20.96 7.97 0
 4 1 18 32.2 9.3 0
 4 1 19 144.77 14.89 0
 4 1 20 12.94 8.96 0
 4 2 6 367.16 12.91 0
 4 2 8 13.52 5.32 0
 4 2 9 164.77 10.31 0
 4 2 10 6.71 5.16 0
 4 2 11 112.04 9.3 0
 4 2 15 323.73 16.43 0
 4 2 16 112.08 12.77 0
 4 2 17 7.69 6.38 0
 4 2 18 20.71 8.39 0
 4 2 20 96.74 13.83 0
 4 3 6 183.52 9.43 0
 4 3 7 254.05 11.25 0
 4 3 8 527.81 16.08 0
 4 3 9 565 17.36 0
 4 3 10 455.07 16.34 0
 4 3 11 22.27 5.88 0
 4 3 12 260.5 14.3 0
 4 3 13 177.99 12.72 0
 4 3 14 328.69 16.16 0
 4 3 15 84.16 10.39 0
 4 3 16 21.41 7.6 0
 4 3 18 28.28 8.86 0
 4 3 19 92.33 12.21 0
 4 4 5 22.87 4.45 0
 4 4 6 56.74 6.04 0
 4 4 7 17.46 4.67 0
 4 4 8 62.7 6.79 0
 4 4 9 1.73 4 0
 4 4 10 9.57 5.64 0
 4 4 11 81.7 8.99 0
 4 4 12 127.34 10.45 0
 4 4 14 52.18 9.76 0
 4 4 15 48.2 8.81 0
 4 4 16 19.02 7.88 0
 4 4 17 56.31 10.84 0
 4 4 18 161.5 14.5 0
 4 4 19 114.08 14.06 0
 4 5 5 77.51 6.93 0
 4 5 9 146.09 9.78 0
 4 5 10 450.42 16.87 0
 4 5 11 399.24 16.9 0
 4 5 12 65.12 9.23 0
 4 5 13 29.9 8.21 0
 4 5 14 88.79 10.11 0
 4 5 15 12.18 7.56 0
 4 5 16 23.63 7.81 0
 4 5 17 77.16 11.07 0
 4 5 18 107.53 13 0
 4 6 2 26.34 3.95 0
 4 6 4 65.21 5.97 0
 4 6 5 17.11 4.23 0
 4 6 6 3.86 3.49 0
 4 6 7 36.3 6.17 0
 4 6 8 113.12 9.14 0
 4 6 9 33.72 6.7 0
 4 6 10 -1.38 4.48 0
 4 6 11 50.78 7.72 0
 4 6 12 71.31 9.26 0
 4 6 13 153.38 12.85 0
 4 6 14 33.85 8.06 0
 4 6 15 139.49 13.51 0
 4 6 16 45.7 9.31 0
 4 6 17 78.09 11.22 0
 4 7 4 2.48 3.2 0
 4 7 5 139.1 8 0
 4 7 7 231.67 11.47 0
 4 7 8 111.14 9.1 0
 4 7 9 64.53 8.01 0
 4 7 10 105.4 10.14 0
 4 7 12 127.96 11.7 0
 4 7 13 24.78 7.19 0
 4 7 15 94.78 11.63 0
 4 7 16 37.07 9.68 0
 4 8 6 14.43 4.12 0
 4 8 7 46.78 6.51 0
 4 8 8 7.29 4.46 0
 4 8 9 112.63 9.57 0
 4 8 10 61.14 8.14 0
 4 8 11 98.56 10.48 0
 4 8 12 203.27 13.73 0
 4 8 13 116.06 11.12 0
 4 8 14 1.94 6.16 0
 4 8 15 22.26 7.74 0
 4 9 9 120.02 9.32 0
 4 9 10 44.37 7.9 0
 4 9 11 132.9 11.41 0
 4 9 12 4.33 5.62 0
 4 9 13 56.34 9.62 0
 5 0 14 -2.68 6.25 0
 5 0 15 -3.21 5.76 0
 5 0 16 90.03 12.47 0
 5 0 17 245.39 17.95 0
 5 0 18 -2.05 7.35 0
 5 1 9 42.8 7.56 0
 5 1 10 76.15 9.2 0
 5 1 11 -0.57 5.31 0
 5 1 12 71.16 10.16 0
 5 1 13 60.3 9.56 0
 5 1 14 232.88 15.27 0
 5 1 16 143.41 13.47 0
 5 1 17 -2.18 7.05 0
 5 2 7 104.72 8.88 0
 5 2 9 54.29 8 0
 5 2 10 100.99 9.76 0
 5 2 11 2.95 5.42 0
 5 2 12 23.78 7.85 0
 5 2 13 21.45 6.99 0
 5 2 14 151.94 13 0
 5 2 15 56.46 10.08 0
 5 2 16 18.29 8.35 0
 5 2 17 520.89 24.24 0
 5 3 6 75.92 7.49 0
 5 3 7 10.29 5.03 0
 5 3 8 16.1 5.73 0
 5 3 9 8.57 5.23 0
 5 3 10 158.57 11.66 0
 5 3 11 60.59 9.65 0
 5 3 12 13.51 6.58 0
 5 3 13 88.46 11.73 0
 5 3 15 331.49 19.29 0
 5 3 16 46.81 10.21 0
 5 3 17 4.95 7.56 0
 5 3 18 57.33 11.57 0
 5 4 5 -0.23 3.69 0
 5 4 6 99.72 8.83 0
 5 4 7 95.05 9.37 0
 5 4 8 202.28 11.82 0
 5 4 9 12.5 5.75 0
 5 4 10 171.25 12.09 0
 5 4 11 342.89 16.53 0
 5 4 12 0.41 5.78 0
 5 4 14 143.82 13.89 0
 5 4 15 35.51 9.88 0
 5 4 16 53.45 10.33 0
 5 4 17 8.42 8.38 0
 5 5 5 7.65 4.21 0
 5 5 6 43.01 6.62 0
 5 5 7 5.24 4.69 0
 5 5 8 214.99 12.54 0
 5 5 9 126.52 10.17 0
 5 5 10 9.26 5.67 0
 5 5 11 44.93 9.08 0
 5 5 12 163.09 12.82 0
 5 5 13 80.06 10.44 0
 5 5 14 55.34 9.56 0
 5 5 15 1.54 6.6 0
 5 5 16 46.62 10.77 0
 5 6 4 98.71 7.47 0
 5 6 5 255.59 11.58 0
 5 6 6 34.7 6.24 0
 5 6 7 50.14 7.34 0
 5 6 8 21.06 5.8 0
 5 6 9 63.55 8.38 0
 5 6 10 34.81 7.26 0
 5 6 11 46.65 8.98 0
 5 6 13 157.53 12.67 0
 5 6 14 27.31 8.29 0
 5 6 15 45.99 9.79 0
 5 7 7 77.32 8.37 0
 5 7 8 111.46 9.85 0
 5 7 11 33.97 7.88 0
 5 7 12 150.8 12.68 0
 5 7 13 62.7 10.24 0
 5 7 14 43.11 8.82 0
 5 8 9 19.72 5.78 0
 5 8 11 28.06 7.72 0
 5 8 12 61.93 9.62 0
 5 8 13 4.34 6.23 0
 6 3 12 56.12 10.73 0
 6 3 13 59.12 10.35 0
 6 3 14 88.24 12.1 0
 6 4 11 7.95 7.73 0
 6 4 12 58.61 9.96 0
 6 4 13 153.04 14.44 0
 6 4 14 69.76 11.15 0
 6 4 15 6.84 7.21 0
 6 5 9 117.18 11.85 0
 6 5 10 26.67 7.88 0
 6 5 11 14.17 7.74 0
 6 5 12 40.23 9.15 0
 6 5 14 46.19 9.84 0
 6 6 9 20.55 6.37 0
 6 6 10 161.57 13.14 0
 6 6 11 24.33 8.37 0
 6 6 12 177.58 13.64 0
 6 7 9 99.92 10.12 0
 6 7 10 234.28 14.56 0
 6 7 11 88.6 11.34 0
 6 7 12 100.13 12.05 0
 -5 2 -2 178.34 4.31 0
 -5 3 -2 280.85 6.9 0
 -5 3 -1 197.5 4.94 0
 -5 4 -3 29.22 3.98 0
 -5 4 -2 160.05 6.58 0
 -5 4 -1 458.78 9.56 0
 -5 4 0 254.87 6.66 0
 -5 5 -2 46.58 5.59 0
 -5 5 -1 644.31 13.35 0
 -5 5 0 41.1 4.7 0
 -5 5 1 653.42 12.27 0
 -5 6 -5 247.72 11.28 0
 -5 6 -4 111.66 8.19 0
 -5 6 -3 66.81 6.72 0
 -5 7 -7 68.27 8.92 0
 -5 7 -6 47.13 7.69 0
 -5 7 -5 0.81 4.41 0
 -5 7 -4 96.9 8.47 0
 -5 7 -3 121.14 9.02 0
 -5 7 -1 76.15 7.05 0
 -5 7 1 78.84 6.99 0
 -5 8 -9 15.11 7.78 0
 -5 8 -8 22.39 7.11 0
 -5 8 -7 119.86 11.34 0
 -5 8 -4 116.19 9.85 0
 -5 8 -3 130.59 10.03 0
 -5 8 -2 35.82 6.41 0
 -5 8 -1 193.78 11.1 0
 -5 8 0 72.48 8.55 0
 -5 9 -11 131.74 14.09 0
 -5 9 -10 70.02 10.08 0
 -5 9 -9 153.25 13.2 0
 -5 9 -8 15.5 6.86 0
 -5 9 -7 41.55 9.02 0
 -5 9 -6 177.3 12.8 0
 -5 9 -5 1.43 5.58 0
 -5 9 -2 37.6 7.37 0
 -5 10 -8 11.25 7.52 0
 -4 0 -1 113.41 2.4 0
 -4 1 -1 46.23 1.88 0
 -4 2 -1 -0.32 1.34 0
 -4 3 -1 158.18 5.63 0
 -4 3 0 1187.63 13.27 0
 -4 3 1 159.87 4.85 0
 -4 3 2 21.59 2.35 0
 -4 4 -2 156.17 7.08 0
 -4 4 0 12.45 3.17 0
 -4 4 1 288.05 7.99 0
 -4 4 2 161.8 6.1 0
 -4 4 3 63.34 4.28 0
 -4 4 4 94.44 4.76 0
 -4 5 -2 124.54 7.53 0
 -4 5 -1 65.47 6.13 0
 -4 5 0 102.51 6.36 0
 -4 5 1 65.47 5.38 0
 -4 5 2 137.47 6.96 0
 -4 5 3 72.13 5.48 0
 -4 5 4 371.14 10.34 0
 -4 5 5 86.93 5.85 0
 -4 6 -3 28.55 5.83 0
 -4 6 -2 25.96 5.58 0
 -4 7 -5 135 10.4 0
 -4 7 -4 3.52 4.64 0
 -4 7 -2 282.73 12.78 0
 -4 7 -1 207.56 10.68 0
 -4 7 0 22.65 5.26 0
 -4 7 3 76.55 7.56 0
 -4 7 4 1.66 3.47 0
 -4 7 5 149.26 9.31 0
 -4 7 6 101.48 8.11 0
 -4 8 -7 49.58 9.27 0
 -4 8 -6 7.79 5.89 0
 -4 8 -5 24.44 7.41 0
 -4 8 -4 122.74 10.94 0
 -4 8 -3 64.33 8.44 0
 -4 8 -2 117.66 9.73 0
 -4 8 -1 39.96 6.88 0
 -4 8 1 28.01 5.86 0
 -4 8 2 134.51 10.17 0
 -4 8 3 77.27 8.4 0
 -4 8 4 127.98 9.36 0
 -4 8 5 13.4 5.56 0
 -4 8 6 8.51 5.03 0
 -4 9 -9 117.06 13.59 0
 -4 9 -8 16.77 8.47 0
 -4 9 -6 26.74 8.09 0
 -4 9 -5 317.13 16.19 0
 -4 9 -2 13.44 6.51 0
 -4 9 -1 268.88 14.51 0
 -4 9 0 426.66 17.24 0
 -4 9 1 243.79 13.59 0
 -4 9 2 9.9 5.82 0
 -4 9 3 114.51 10.61 0
 -4 9 4 14.31 6.76 0
 -4 9 5 291.63 14.33 0
 -4 9 6 29.89 6.9 0
 -4 10 -11 29.36 10.32 0
 -4 10 -9 79.69 12.3 0
 -4 10 -8 55.18 11.44 0
 -4 10 -7 164.18 14.51 0
 -4 10 -6 156.88 13.37 0
 -4 10 -5 38.26 9.81 0
 -4 10 -4 42.44 9.5 0
 -4 10 -2 28.39 8.25 0
 -4 10 -1 2.27 7.01 0
 -4 10 1 9.5 7.49 0
 -4 10 2 35.43 8.32 0
 -4 10 3 16.63 7.16 0
 -4 10 4 39.69 8.15 0
 -4 10 5 38.91 8.18 0
 -4 10 6 149.85 11.93 0
 -4 11 -7 102.64 13.67 0
 -4 11 -5 303.25 17.45 0
 -4 11 -4 133.17 13.77 0
 -4 11 -3 39.66 8.99 0
 -4 11 -2 45.17 8.84 0
 -4 11 -1 22.97 7.85 0
 -4 11 0 8.01 7.25 0
 -4 11 1 24.74 8.22 0
 -4 11 2 39.31 9.67 0
 -4 11 3 15.27 7.18 0
 -4 11 4 116.32 12.3 0
 -4 11 5 288.38 16.31 0
 -4 12 0 63.17 11.47 0
 -4 12 1 75.8 11.58 0
 -4 12 2 8.33 7.62 0
 -3 0 -1 1443.85 9.66 0
 -3 1 0 693.76 5.65 0
 -3 2 0 334.61 6.04 0
 -3 2 2 463.41 6.3 0
 -3 3 0 23.29 2.91 0
 -3 3 1 27.72 3.05 0
 -3 3 2 161.4 5.37 0
 -3 3 3 628.47 10.16 0
 -3 3 4 398.29 8.27 0
 -3 4 -1 31.81 4.02 0
 -3 4 0 66.22 4.7 0
 -3 4 1 34.81 4.28 0
 -3 4 2 298.84 8.49 0
 -3 4 4 199.54 7.32 0
 -3 4 5 686.08 13.04 0
 -3 5 -2 768.34 16.12 0
 -3 5 -1 327.71 10.8 0
 -3 5 0 142.79 7.36 0
 -3 5 1 312.76 10.25 0
 -3 5 2 788.57 15.55 0
 -3 5 3 224.92 8.9 0
 -3 5 4 455.44 12.07 0
 -3 5 6 221.55 9.07 0
 -3 6 -3 53.72 6.23 0
 -3 6 7 3.81 3.89 0
 -3 7 -3 87.89 8.37 0
 -3 7 -1 356.46 13.83 0
 -3 7 0 7.34 5.36 0
 -3 7 1 369.32 14 0
 -3 7 2 191.72 10.73 0
 -3 7 3 74.84 8 0
 -3 7 5 19.79 5.3 0
 -3 7 6 156.04 9.58 0
 -3 7 7 493.87 16.04 0
 -3 8 -6 -0.09 5.11 0
 -3 8 -5 98.39 9.69 0
 -3 8 -4 22.49 6.5 0
 -3 8 -1 10.69 5.7 0
 -3 8 0 622.13 19.32 0
 -3 8 1 7.15 5.3 0
 -3 8 4 23.92 6.38 0
 -3 8 5 103.7 9.7 0
 -3 8 6 7.02 5.6 0
 -3 8 7 26.65 6.72 0
 -3 9 -7 177.91 13.55 0
 -3 9 -6 75.43 10.67 0
 -3 9 -4 159.22 12.63 0
 -3 9 -2 25.89 7.4 0
 -3 9 -1 -2.69 5.17 0
 -3 9 0 76.87 10.09 0
 -3 9 1 5.71 5.81 0
 -3 9 2 17.65 6.46 0
 -3 9 3 1.86 5.56 0
 -3 9 4 152.32 12.08 0
 -3 9 5 270.79 14.94 0
 -3 9 6 73.7 9.92 0
 -3 9 7 189.4 13.06 0
 -3 10 -11 24.88 9.05 0
 -3 10 -10 94.61 13.39 0
 -3 10 -9 70.09 11.04 0
 -3 10 -8 27.83 8.85 0
 -3 10 -7 10.54 7.45 0
 -3 10 -6 42.19 9.36 0
 -3 10 -5 34.77 10.08 0
 -3 10 -4 71.84 10.82 0
 -3 10 -3 191.15 13.82 0
 -3 10 -2 162.4 13.1 0
 -3 10 -1 44.64 8.64 0
 -3 10 0 106.44 12.96 0
 -3 10 1 49.43 8.88 0
 -3 10 3 172.79 13.51 0
 -3 10 4 79.07 10.56 0
 -3 10 5 24.3 8.59 0
 -3 10 7 8.56 6.61 0
 -3 10 8 33.74 8.63 0
 -3 11 -9 18.96 9.56 0
 -3 11 -8 17.51 8.46 0
 -3 11 -7 120.6 14.71 0
 -3 11 -6 28.15 9.22 0
 -3 11 -4 29.87 9.97 0
 -3 11 -3 17.86 8.19 0
 -3 11 -2 38.13 9.24 0
 -3 11 -1 144.81 13.97 0
 -3 11 0 142.72 14.03 0
 -3 11 1 136.04 13.16 0
 -3 11 2 52.08 9.91 0
 -3 11 3 22.51 8.72 0
 -3 11 4 32.88 9.06 0
 -3 11 5 0.36 6.85 0
 -3 11 6 26.6 8.99 0
 -3 11 7 123.32 12.58 0
 -3 12 -5 24.71 10.58 0
 -3 12 -4 30.66 10.44 0
 -3 12 -3 93.41 12.7 0
 -3 12 -2 4.8 8.93 0
 -3 12 -1 87.8 12.71 0
 -3 12 0 6.18 7.54 0
 -3 12 1 89.7 12.51 0
 -3 12 2 -6.54 6.6 0
 -3 12 3 117.75 13.61 0
 -3 12 4 19.84 8.39 0
 -3 12 5 16.7 8.44 0
 -3 12 6 130.82 14.2 0
 -2 -1 0 2.66 1.2 0
 -2 2 1 252.71 5.62 0
 -2 2 2 1051.37 10.71 0
 -2 3 0 1321.18 15.21 0
 -2 3 1 1202.53 14.48 0
 -2 3 2 64.41 4.17 0
 -2 3 3 1459.73 16.23 0
 -2 3 4 1210.58 15.41 0
 -2 3 5 96.55 5.26 0
 -2 4 0 61.39 4.88 0
 -2 4 1 448.43 10.58 0
 -2 4 3 1674.8 20.29 0
 -2 4 4 248.94 8.35 0
 -2 4 5 62.21 5.22 0
 -2 4 6 707.78 14.36 0
 -2 5 -1 75.73 6.4 0
 -2 5 0 397.41 11.5 0
 -2 5 1 70.44 5.96 0
 -2 5 2 242.74 9.44 0
 -2 5 3 755.71 15.98 0
 -2 5 4 636.59 14.65 0
 -2 5 5 347.23 11.63 0
 -2 6 6 202.38 10.11 0
 -2 6 7 104.25 7.88 0
 -2 6 8 207.95 11.26 0
 -2 7 -3 257.81 12.64 0
 -2 7 -2 124.61 9.84 0
 -2 7 -1 325.64 13.49 0
 -2 7 0 96.48 8.99 0
 -2 7 1 311.6 12.77 0
 -2 7 2 132.09 8.9 0
 -2 7 4 144.61 9.64 0
 -2 7 5 409.05 14.83 0
 -2 7 6 436.02 15.67 0
 -2 7 7 150.21 10.62 0
 -2 7 8 71.44 7.89 0
 -2 8 -5 54.58 8.92 0
 -2 8 -4 98.8 10.18 0
 -2 8 -3 146.95 10.7 0
 -2 8 -2 143.26 11.19 0
 -2 8 0 43.31 7.7 0
 -2 8 3 142.35 11.12 0
 -2 8 4 100.01 9.88 0
 -2 8 5 56.86 7.94 0
 -2 8 6 146.39 11.39 0
 -2 8 7 52.99 8.14 0
 -2 8 8 15.71 5.92 0
 -2 9 -7 25.95 8.47 0
 -2 9 -6 32.48 8.15 0
 -2 9 -4 73.92 9.96 0
 -2 9 -3 7.79 6.03 0
 -2 9 -2 38.27 8.91 0
 -2 9 -1 53.35 8.47 0
 -2 9 0 37.05 8.44 0
 -2 9 1 59.87 8.97 0
 -2 9 2 43.15 8.11 0
 -2 9 3 8.96 6.03 0
 -2 9 4 77.87 9.67 0
 -2 9 6 35.58 7.86 0
 -2 9 7 18.27 6.81 0
 -2 10 -10 33.12 9.95 0
 -2 10 -9 44.09 10.36 0
 -2 10 -8 33.03 10.27 0
 -2 10 -7 107.42 14.08 0
 -2 10 -6 29.77 9.05 0
 -2 10 -5 37.52 9.08 0
 -2 10 -4 13.99 7.77 0
 -2 10 -3 64.01 11.02 0
 -2 10 -1 82.44 11.53 0
 -2 10 0 7.6 6.71 0
 -2 10 1 89.47 10.37 0
 -2 10 2 190.73 14.62 0
 -2 10 3 91.47 11.15 0
 -2 10 4 23.92 8.51 0
 -2 10 5 30.16 8.2 0
 -2 10 6 24.04 7.68 0
 -2 10 7 120.88 13.19 0
 -2 10 8 35.38 8.79 0
 -2 11 -11 36.79 10.75 0
 -2 11 -10 79.14 12.89 0
 -2 11 -9 1.45 8.12 0
 -2 11 -7 19.56 9.53 0
 -2 11 -6 11.14 9.11 0
 -2 11 -4 50.06 10.45 0
 -2 11 -3 28.06 10.12 0
 -2 11 -2 8.67 7.7 0
 -2 11 -1 37.67 9.29 0
 -2 11 0 10.19 7.68 0
 -2 11 1 43.61 9.74 0
 -2 11 2 18.13 8.11 0
 -2 11 3 24.03 9.2 0
 -2 11 4 55.26 11.18 0
 -2 11 5 31.24 9.25 0
 -2 11 6 -3.1 7.07 0
 -2 11 7 15.95 8.42 0
 -2 11 8 129.32 13.6 0
 -2 12 -7 40.45 11.11 0
 -2 12 -6 9.1 8.8 0
 -2 12 -5 27.21 9.77 0
 -2 12 -4 59.05 11.82 0
 -2 12 -3 6.35 9.23 0
 -2 12 -2 103.8 13.57 0
 -2 12 -1 21.57 10.73 0
 -2 12 1 23.99 9.2 0
 -2 12 3 11.66 8.15 0
 -2 12 4 57.64 10.89 0
 -2 12 5 20.37 9.07 0
 -2 12 6 26.06 9.33 0
 -2 12 7 34.31 10.46 0
 -2 12 8 4.34 9.31 0
 -1 -1 -1 2667.85 13.85 0
 -1 -1 0 5817.1 18.4 0
 -1 1 1 2669.58 11.78 0
 -1 1 2 1747.04 10.84 0
 -1 2 1 6727.6 27.11 0
 -1 2 2 4073.65 21.85 0
 -1 2 3 1456.45 14.1 0
 -1 2 4 2583.35 19.61 0
 -1 3 0 4.68 2.68 0
 -1 3 2 224.82 7.07 0
 -1 3 3 188.91 6.71 0
 -1 3 4 792.1 13.06 0
 -1 3 5 196.9 7.15 0
 -1 4 0 231.67 8.31 0
 -1 4 1 328.81 9.73 0
 -1 4 2 1375.73 18.25 0
 -1 4 3 1644.22 20.4 0
 -1 4 4 1168.69 17.93 0
 -1 4 5 288.82 9.74 0
 -1 4 6 461.15 12.05 0
 -1 5 0 10.82 3.51 0
 -1 5 2 470.86 12.53 0
 -1 5 3 79.01 6.54 0
 -1 6 6 266.61 11.71 0
 -1 6 7 128.44 9.35 0
 -1 6 8 102.7 8.81 0
 -1 7 -3 208.76 11.53 0
 -1 7 -1 24.36 6.32 0
 -1 7 0 136.41 9.15 0
 -1 7 1 20.58 5.34 0
 -1 7 2 91.48 8.54 0
 -1 7 4 22.57 5.69 0
 -1 7 5 19.2 5.44 0
 -1 7 6 53.57 7.87 0
 -1 7 7 361.28 14.81 0
 -1 7 8 126.13 10.34 0
 -1 8 -5 369.79 16.48 0
 -1 8 -4 1.45 5.7 0
 -1 8 -3 185.39 11.49 0
 -1 8 -2 231.21 13.44 0
 -1 8 -1 269.22 13.79 0
 -1 8 0 322.54 14.51 0
 -1 8 1 275.83 13.56 0
 -1 8 2 205.68 12.6 0
 -1 8 3 168.04 11.54 0
 -1 8 4 0.86 4.55 0
 -1 8 5 370.14 15.93 0
 -1 8 6 67.01 9.56 0
 -1 8 7 9.31 6.48 0
 -1 8 8 42.69 7.75 0
 -1 9 -7 266.29 16.29 0
 -1 9 -6 39.39 8.37 0
 -1 9 -5 245.76 15.31 0
 -1 9 -4 230.82 14.31 0
 -1 9 -3 81.56 9.91 0
 -1 9 -2 93.25 10.94 0
 -1 9 -1 68.07 9.21 0
 -1 9 1 79.31 9.53 0
 -1 9 2 81.77 10.31 0
 -1 9 3 71.16 10.2 0
 -1 9 6 38.2 8.02 0
 -1 9 7 264.72 15.28 0
 -1 9 9 31.36 8.16 0
 -1 10 -9 23.9 9.74 0
 -1 10 -8 262.24 17.81 0
 -1 10 -7 91.4 12.54 0
 -1 10 -6 9.18 8.32 0
 -1 10 -5 24.78 8.29 0
 -1 10 -4 23.4 9.11 0
 -1 10 -3 71.04 10.54 0
 -1 10 -2 137.48 12.46 0
 -1 10 -1 3.87 6.35 0
 -1 10 0 4.89 6.98 0
 -1 10 1 13.12 7.7 0
 -1 10 2 144.38 12.5 0
 -1 10 3 66.68 11.18 0
 -1 10 4 21.52 7.9 0
 -1 10 5 22.09 8.76 0
 -1 10 6 11.35 7.07 0
 -1 10 7 112.4 13.93 0
 -1 10 9 23.45 10.35 0
 -1 11 -11 7.32 9.04 0
 -1 11 -8 71.47 12.63 0
 -1 11 -7 35.67 10.47 0
 -1 11 -6 175.84 16.38 0
 -1 11 -5 17.32 9.75 0
 -1 11 -4 172.23 14.93 0
 -1 11 -3 -0.08 7.16 0
 -1 11 0 12.8 9.36 0
 -1 11 1 60.27 11.78 0
 -1 11 2 35.39 10.65 0
 -1 11 3 -1.01 6.89 0
 -1 11 4 174.86 14.42 0
 -1 11 5 11.7 7.94 0
 -1 11 6 193.87 16.6 0
 -1 11 7 42.64 10.15 0
 -1 11 8 87.81 12.11 0
 -1 12 -8 48.19 11.38 0
 -1 12 -7 -2.46 7.97 0
 -1 12 -6 13.1 9.13 0
 -1 12 -5 105.37 14.01 0
 -1 12 -4 45.45 10.71 0
 -1 12 -1 14.91 8.95 0
 -1 12 0 31.52 10.57 0
 -1 12 2 66.67 12.49 0
 -1 12 3 190.73 16.63 0
 -1 12 4 44.22 10.8 0
 -1 12 5 80.8 12.65 0
 -1 12 8 63.22 12.73 0
 0 -1 -1 2358.01 11.99 0
 0 1 0 -0.01 1.14 0
 0 1 1 2321.22 12.03 0
 0 1 2 633.26 7.39 0
 0 2 0 9769.14 32.6 0
 0 2 1 5820.27 25.91 0
 0 2 2 227.44 5.86 0
 0 2 3 4866.43 26.67 0
 0 2 4 7450.81 34.7 0
 0 3 0 -0.02 2.45 0
 0 3 1 126.43 5.45 0
 0 3 2 689.42 11.95 0
 0 3 3 3623.41 27 0
 0 3 4 3499.18 27.84 0
 0 3 5 8.27 3.87 0
 0 4 -1 2075.64 23.02 0
 0 4 1 2059.75 22.64 0
 0 4 2 1646.74 20.61 0
 0 4 3 4027.99 32.69 0
 0 4 5 629.98 14.32 0
 0 4 6 343.75 10.95 0
 0 5 0 -3 2.51 0
 0 5 1 47.23 5.73 0
 0 5 2 34.04 4.7 0
 0 5 3 125.35 7.22 0
 0 5 4 124.89 7.68 0
 0 6 5 520.62 15.89 0
 0 6 6 87.66 8.09 0
 0 6 7 -1.46 3.74 0
 0 6 8 308.26 13.6 0
 0 7 -4 -1.66 3.67 0
 0 7 -3 115.95 8.75 0
 0 7 -2 88.77 8.09 0
 0 7 -1 206.47 10.83 0
 0 7 0 -0.4 3.77 0
 0 7 1 220.99 11.07 0
 0 7 2 86.48 7.85 0
 0 7 3 124.96 9.56 0
 0 7 4 -2.91 3.69 0
 0 7 5 669.24 19.24 0
 0 7 6 24.39 6.04 0
 0 7 7 132.52 10.63 0
 0 7 8 6.5 4.89 0
 0 8 -6 324.6 15.1 0
 0 8 -5 112.66 9.9 0
 0 8 -4 406.86 16.44 0
 0 8 -3 21.97 6.47 0
 0 8 -2 361.09 15.32 0
 0 8 0 9.43 5.82 0
 0 8 2 365.33 15.76 0
 0 8 3 20.64 6.3 0
 0 8 4 431.91 16.82 0
 0 8 5 101.53 9.57 0
 0 8 7 171.13 11.77 0
 0 8 9 73.69 9.8 0
 0 9 -8 32.73 8.72 0
 0 9 -7 29.61 7.51 0
 0 9 -6 34.65 8.02 0
 0 9 -5 68.52 9.65 0
 0 9 -4 -0.63 6.16 0
 0 9 -2 55.12 8.93 0
 0 9 -1 115.36 10.48 0
 0 9 0 -2.48 5.32 0
 0 9 2 63.78 9.66 0
 0 9 3 48.13 8.6 0
 0 9 4 -4 4.89 0
 0 9 5 77.81 9.79 0
 0 9 7 30.14 8.03 0
 0 9 8 39.72 8.41 0
 0 9 9 359.19 18.83 0
 0 10 -11 -1.63 7.69 0
 0 10 -10 175.3 15.89 0
 0 10 -8 25.71 9.08 0
 0 10 -7 214.04 16.09 0
 0 10 -6 31.84 8.67 0
 0 10 -5 11.11 6.95 0
 0 10 -3 98.22 12.25 0
 0 10 -1 30.6 7.88 0
 0 10 2 1015.77 28.69 0
 0 10 3 98.15 11.42 0
 0 10 4 77.78 11.36 0
 0 10 5 17.46 7.66 0
 0 10 6 35.93 9.79 0
 0 10 7 199.99 14.84 0
 0 10 9 39.18 10.41 0
 0 11 -12 -4.06 8.1 0
 0 11 -11 -5.28 7.67 0
 0 11 -10 14.82 9.39 0
 0 11 -9 45.07 11.19 0
 0 11 -8 107.18 15.27 0
 0 11 -7 28.74 9.99 0
 0 11 -5 -3.4 8.49 0
 0 11 -3 350.03 19.8 0
 0 11 -2 4.15 7.69 0
 0 11 -1 11.25 9.14 0
 0 11 0 -8.45 6.98 0
 0 11 2 7.97 7.96 0
 0 11 3 372.94 20.67 0
 0 11 5 -3.98 7.67 0
 0 11 6 162.4 14.52 0
 0 11 7 27.48 9.05 0
 0 11 8 119.71 13.93 0
 0 12 -8 11.35 9.19 0
 0 12 -7 9.56 8.89 0
 0 12 -6 2.17 8.9 0
 0 12 -5 12.5 9.03 0
 0 12 -4 19.62 8.93 0
 0 12 -2 80.94 13.74 0
 0 12 -1 158.47 14.91 0
 0 12 1 144.63 15.58 0
 0 12 3 7.41 8.4 0
 0 12 4 16.57 9.65 0
 0 12 5 8.08 10.01 0
 0 12 6 -4.71 9.38 0
 1 -1 -2 1800.59 10.93 0
 1 -1 -1 2788.75 12.14 0
 1 1 1 2700.47 14.1 0
 1 2 -1 6830.38 27.97 0
 1 2 0 144.02 4.8 0
 1 2 1 6925.08 29.37 0
 1 2 2 4104.92 23.98 0
 1 2 3 1480.4 15.33 0
 1 3 -1 54.86 4.74 0
 1 3 0 4.54 2.67 0
 1 3 1 51.13 4.12 0
 1 3 2 225.51 7.6 0
 1 3 4 794.35 14.13 0
 1 3 5 199.15 7.68 0
 1 4 -2 1361.94 18.67 0
 1 4 -1 329.71 9.68 0
 1 4 0 246.38 8.41 0
 1 4 2 1397.85 19.24 0
 1 4 3 1733.85 22.16 0
 1 4 4 1157.26 18.9 0
 1 4 5 297.71 10.11 0
 1 4 6 433.13 12.58 0
 1 5 -1 2.74 3.36 0
 1 5 0 10.94 3.77 0
 1 5 1 7.14 3.33 0
 1 5 2 482.49 12.97 0
 1 5 3 76.47 6.31 0
 1 5 7 766.14 18.31 0
 1 6 4 552.36 15.91 0
 1 6 5 1075.6 22.48 0
 1 6 6 269.6 12.1 0
 1 6 7 126.3 8.75 0
 1 7 -5 17 5.54 0
 1 7 -4 24.11 5.87 0
 1 7 -3 203.44 11.46 0
 1 7 -2 105.27 9.25 0
 1 7 0 132.03 9.01 0
 1 7 1 19.02 5.45 0
 1 7 2 96.47 8.12 0
 1 7 3 209.68 11.8 0
 1 7 4 19.29 5.56 0
 1 7 6 59.2 8.29 0
 1 7 7 337.85 15.05 0
 1 8 -5 397.85 16.39 0
 1 8 -4 5.46 5.34 0
 1 8 -3 170.68 12 0
 1 8 -2 197.25 11.96 0
 1 8 -1 256.56 13.61 0
 1 8 0 304.99 14.46 0
 1 8 1 268.58 13.51 0
 1 8 3 170.02 11.28 0
 1 8 5 387.54 16.45 0
 1 8 7 14.69 6.02 0
 1 8 8 46.39 8.48 0
 1 9 -8 50.37 9.65 0
 1 9 -7 263.7 15.91 0
 1 9 -6 45.53 9 0
 1 9 -5 228.71 14.7 0
 1 9 -4 234.85 14.54 0
 1 9 -3 73.67 9.55 0
 1 9 -2 92.39 10.82 0
 1 9 0 186.71 12.73 0
 1 9 1 69.56 9.99 0
 1 9 2 100.63 10.35 0
 1 9 3 72.74 10.43 0
 1 9 5 241.46 14.72 0
 1 9 6 38.17 8.78 0
 1 9 7 263.79 15.39 0
 1 9 8 46.65 9.59 0
 1 10 -14 256.2 17.73 0
 1 10 -13 65.7 11.82 0
 1 10 -12 88.08 12.79 0
 1 10 -11 9.9 8.22 0
 1 10 -10 163.04 15.36 0
 1 10 -9 28.08 9.41 0
 1 10 -8 235.74 16.73 0
 1 10 -7 94.92 12.29 0
 1 10 -6 14.87 8.17 0
 1 10 -4 19.23 7.86 0
 1 10 -3 74.56 10.56 0
 1 10 -1 7.46 7.48 0
 1 10 0 1.72 6.85 0
 1 10 1 1.68 6.33 0
 1 10 4 32 9.74 0
 1 10 5 24.65 8.01 0
 1 10 6 11.32 6.97 0
 1 10 7 87.71 12.39 0
 1 11 -11 3.27 8.64 0
 1 11 -10 1.88 9.63 0
 1 11 -9 209.17 16.7 0
 1 11 -8 80.81 12.79 0
 1 11 -7 27.03 10.15 0
 1 11 -6 184.16 16.15 0
 1 11 -5 18.56 8.4 0
 1 11 -4 145.46 13.84 0
 1 11 -3 4.19 8.81 0
 1 11 -1 61.12 11.13 0
 1 11 1 52.75 10.95 0
 1 11 2 39.15 10 0
 1 11 3 1.23 7.17 0
 1 11 4 160.89 15.31 0
 1 11 5 17.27 9.19 0
 1 11 6 169.01 16.37 0
 1 11 7 35.35 11.05 0
 1 12 -7 -3.7 8.02 0
 1 12 -6 9 8.61 0
 1 12 -4 29.44 9.53 0
 1 12 -3 212.57 17.38 0
 1 12 -2 57.29 12.65 0
 1 12 -1 15.82 8.98 0
 1 12 0 21.89 10.27 0
 1 12 1 19.9 9.45 0
 1 12 2 82.9 13.07 0
 1 12 3 205.35 17.59 0
 1 12 5 99.61 14.13 0
 1 12 6 13.36 8.81 0
 1 12 8 53.91 11.86 0
 2 -1 -3 1813.76 11.18 0
 2 1 -2 461.06 5.35 0
 2 1 -1 464.11 5.16 0
 2 2 -2 1014.68 11.15 0
 2 2 -1 245.6 5.8 0
 2 2 0 4758.49 23.94 0
 2 2 2 1049.91 12.79 0
 2 3 -2 67.09 4.6 0
 2 3 -1 1193.42 14.95 0
 2 3 0 1335.21 15.77 0
 2 3 1 1156.7 15.23 0
 2 3 2 66.96 4.92 0
 2 3 3 1418.92 18.09 0
 2 3 4 1217.92 17.47 0
 2 4 -3 1658.94 20.81 0
 2 4 -2 393.68 10.37 0
 2 4 -1 435.13 10.84 0
 2 4 1 432.35 11 0
 2 4 2 382.27 10.76 0
 2 4 4 262.38 9.65 0
 2 4 5 60.88 5.57 0
 2 5 -3 736.29 16.11 0
 2 5 -2 251.34 9.74 0
 2 5 -1 70.57 6.29 0
 2 5 1 75.61 6.55 0
 2 6 -5 80.85 7.34 0
 2 6 4 139.17 9.13 0
 2 6 6 196.08 10.93 0
 2 7 -7 143.05 10.34 0
 2 7 -6 411.15 15.62 0
 2 7 -5 408.4 15.8 0
 2 7 -4 156.2 10.1 0
 2 7 -3 237.81 12.2 0
 2 7 -2 119.05 9.44 0
 2 7 -1 297.55 13.26 0
 2 7 1 320.07 13.27 0
 2 7 2 130.69 9.93 0
 2 7 3 261.58 12.96 0
 2 7 5 417.55 15.97 0
 2 7 6 423.75 16.06 0
 2 7 7 154.25 10.74 0
 2 8 -8 20.95 7.4 0
 2 8 -7 50.26 8.14 0
 2 8 -6 144.31 11.57 0
 2 8 -5 49.59 8.66 0
 2 8 -3 153.26 10.85 0
 2 8 -2 128.96 10.83 0
 2 8 -1 338.82 14.77 0
 2 8 0 51.05 7.86 0
 2 8 1 349.63 15.88 0
 2 8 2 134.49 10.94 0
 2 8 3 150.5 11.01 0
 2 8 4 103.36 9.69 0
 2 8 5 60.08 8.71 0
 2 8 6 150.95 12.34 0
 2 8 7 38.48 7.78 0
 2 9 -12 47.03 10.02 0
 2 9 -11 23.19 8.07 0
 2 9 -10 128.29 13.12 0
 2 9 -8 105.51 13.04 0
 2 9 -7 15.82 7.8 0
 2 9 -6 30.96 7.84 0
 2 9 -5 275.99 15.91 0
 2 9 -4 70.52 10.2 0
 2 9 -2 34.44 8.02 0
 2 9 0 36.63 7.61 0
 2 9 1 70.66 9.79 0
 2 9 2 31.9 8.09 0
 2 9 3 12.93 6.54 0
 2 9 4 74.42 10.77 0
 2 9 5 283.95 15.8 0
 2 9 6 31.57 9.45 0
 2 9 7 15.02 7.05 0
 2 10 -14 72.92 12.09 0
 2 10 -13 -3.3 7.98 0
 2 10 -12 36.67 10.11 0
 2 10 -11 109.27 13.44 0
 2 10 -10 32.59 9.99 0
 2 10 -9 43.89 9.94 0
 2 10 -8 32.24 9.14 0
 2 10 -7 97.59 11.8 0
 2 10 -6 37.09 9.22 0
 2 10 -5 27.12 9.32 0
 2 10 -4 15.65 7.35 0
 2 10 -2 162.09 14.08 0
 2 10 0 -1.5 6.19 0
 2 10 1 105.69 13.19 0
 2 10 2 182.48 15.02 0
 2 10 3 90.57 12.17 0
 2 10 4 15.8 7.82 0
 2 10 6 30.93 8.67 0
 2 10 7 115.54 13.07 0
 2 11 -11 48.45 10.79 0
 2 11 -10 79.22 12.6 0
 2 11 -9 0.68 8.24 0
 2 11 -8 136 15.98 0
 2 11 -7 25.27 9.09 0
 2 11 -6 5.27 7.88 0
 2 11 -5 31.64 9.56 0
 2 11 -4 53.77 11.07 0
 2 11 -3 35.24 9.42 0
 2 11 -2 18.03 9.64 0
 2 11 -1 43.68 10.08 0
 2 11 0 2.38 7.07 0
 2 11 1 39.88 10.8 0
 2 11 2 22.07 8.99 0
 2 11 3 41.9 10.63 0
 2 11 4 56.69 11.2 0
 2 11 5 44.87 10.58 0
 2 11 6 12.46 8.13 0
 2 11 7 21.04 9 0
 2 12 -7 35.46 11.09 0
 2 12 -6 22.22 9.73 0
 2 12 -5 33.06 10 0
 2 12 -4 71.59 12.08 0
 2 12 -3 0.99 8.17 0
 2 12 -2 75.6 12.69 0
 2 12 -1 16.86 8.93 0
 2 12 0 80.05 13.7 0
 2 12 1 22.88 9.4 0
 2 12 2 94.29 13.8 0
 2 12 3 9.64 8.95 0
 2 12 5 24.41 9.44 0
 2 12 6 20.18 10.65 0
 3 -1 -4 57.66 1.96 0
 3 0 -5 234.36 4.33 0
 3 1 -3 47.05 1.67 0
 3 2 -3 524.13 7.97 0
 3 3 -4 376.07 8.75 0
 3 3 -3 630.5 11 0
 3 3 -2 161.77 5.74 0
 3 3 -1 28.75 3.19 0
 3 3 0 27.22 3.43 0
 3 3 1 23.89 3.18 0
 3 3 2 167.17 6.37 0
 3 4 -5 687.16 14.05 0
 3 4 -4 196.31 7.63 0
 3 4 -3 58.01 5.09 0
 3 4 -2 290.93 8.89 0
 3 4 -1 29.8 3.87 0
 3 4 0 69.44 5.39 0
 3 4 1 23.06 3.79 0
 3 4 2 284.39 9.28 0
 3 4 3 65.71 6.04 0
 3 5 -2 806.71 16.54 0
 3 5 -1 317.46 10.62 0
 3 5 0 152.93 8.2 0
 3 6 -7 1.74 4.96 0
 3 6 -6 80.42 7.39 0
 3 6 -4 280.32 11.48 0
 3 6 -3 46.02 6.09 0
 3 6 3 62.72 7.11 0
 3 6 4 293.03 12.4 0
 3 6 5 257.45 12.04 0
 3 7 -8 53.25 8.06 0
 3 7 -7 501.02 16.96 0
 3 7 -6 159.71 10.7 0
 3 7 -5 20.79 6.46 0
 3 7 -4 30.54 6.24 0
 3 7 -3 73.5 8.03 0
 3 7 0 2.68 5.21 0
 3 7 2 208.87 11.77 0
 3 7 3 83.84 8.85 0
 3 7 4 24.67 6.42 0
 3 7 5 27.81 7.11 0
 3 7 6 176.89 11.75 0
 3 8 -11 127.34 11.76 0
 3 8 -9 74.81 10.48 0
 3 8 -8 178.06 12.42 0
 3 8 -7 29.56 7.48 0
 3 8 -6 3.67 5.42 0
 3 8 -5 99.96 9.37 0
 3 8 -4 28.95 6.5 0
 3 8 -3 76.93 9.6 0
 3 8 -2 111.41 10.21 0
 3 8 0 592.42 19.62 0
 3 8 2 99.36 9.39 0
 3 8 4 20.18 6.61 0
 3 8 5 96.77 10.38 0
 3 8 6 7.51 5.86 0
 3 9 -14 -0.35 6.68 0
 3 9 -12 124.67 12.91 0
 3 9 -11 75.72 11.42 0
 3 9 -9 0.21 6.37 0
 3 9 -8 153.71 12.78 0
 3 9 -7 202.44 14.44 0
 3 9 -6 74.19 10.44 0
 3 9 -5 269.95 15.57 0
 3 9 -4 147.21 11.5 0
 3 9 -3 2.83 5.8 0
 3 9 -2 25.06 7.17 0
 3 9 -1 7.19 5.83 0
 3 9 0 78.89 10.24 0
 3 9 1 2.14 6.8 0
 3 9 2 22.9 7.2 0
 3 9 4 143.14 12.7 0
 3 9 6 65.45 9.67 0
 3 10 -13 -0.45 7.13 0
 3 10 -12 50.99 10.38 0
 3 10 -10 123.93 13.59 0
 3 10 -9 66.65 11.64 0
 3 10 -7 23.26 8.27 0
 3 10 -6 43.04 9.72 0
 3 10 -4 76.6 10.64 0
 3 10 -2 162.7 14.24 0
 3 10 0 96.45 11.68 0
 3 10 1 56.71 9.81 0
 3 10 3 158.23 13.34 0
 3 10 4 68.22 10.7 0
 3 10 5 24.59 8.3 0
 3 10 6 44.92 9.77 0
 3 11 -10 56.43 10.26 0
 3 11 -9 12.44 9.28 0
 3 11 -8 21.43 9.5 0
 3 11 -6 24.05 8.65 0
 3 11 -5 3.12 7.49 0
 3 11 -4 25.36 9.18 0
 3 11 -2 47.69 10.24 0
 3 11 0 137.39 14.53 0
 3 11 1 149.5 13.75 0
 3 11 2 28.44 9.24 0
 3 11 3 14.32 9.44 0
 3 11 4 40.46 10.77 0
 3 11 5 9 7.91 0
 3 11 6 41.78 9.82 0
 3 12 -5 22.28 10.13 0
 3 12 -4 28.14 9.26 0
 3 12 -3 103.71 13.73 0
 3 12 -2 -1.13 7.56 0
 3 12 -1 102.53 14.46 0
 3 12 0 1.9 7.67 0
 3 12 1 97.78 13.93 0
 3 12 2 5.22 8.11 0
 3 12 3 92.21 14.58 0
 3 12 4 30.73 9.98 0
 4 1 -6 264.65 3.81 0
 4 2 -6 366.47 6.88 0
 4 2 -4 3.88 1.06 0
 4 2 -3 361.21 4.91 0
 4 3 -6 204.29 6.55 0
 4 3 -5 52.9 3.66 0
 4 3 -4 840.06 11.65 0
 4 3 -3 368.57 7.74 0
 4 4 -8 68.57 5.47 0
 4 4 -7 17.9 3.49 0
 4 4 -6 48.14 4.62 0
 4 4 -2 161.09 6.66 0
 4 4 -1 296.67 8.77 0
 4 4 0 14.39 3.54 0
 4 5 -9 144.11 8.37 0
 4 5 -3 67.91 5.79 0
 4 5 -2 138.8 7.19 0
 4 5 -1 59 5.43 0
 4 6 -11 53.54 7.37 0
 4 6 -10 2.66 3.79 0
 4 6 -9 40.66 6.48 0
 4 6 -7 48.23 6.11 0
 4 6 -6 5.3 4.42 0
 4 6 -5 18.11 4.97 0
 4 6 -4 72.02 6.87 0
 4 6 -3 36.23 5.3 0
 4 6 -2 22.94 4.73 0
 4 6 -1 135.1 8.56 0
 4 6 0 23.22 4.69 0
 4 6 1 139.01 8.67 0
 4 6 2 30.42 5.76 0
 4 6 3 31.97 5.59 0
 4 7 -14 26.4 6.99 0
 4 7 -13 24.62 5.91 0
 4 7 -12 147.59 11.05 0
 4 7 -11 290.36 14.03 0
 4 7 -10 110.07 9.67 0
 4 7 -9 56.4 7.78 0
 4 7 -8 111.45 9.54 0
 4 7 -7 247.06 12.27 0
 4 7 -5 154.77 10 0
 4 7 -4 -1.48 3.87 0
 4 7 -3 87.18 8.08 0
 4 7 -2 286.65 12.69 0
 4 7 0 23.26 5.65 0
 4 7 1 224.29 11.53 0
 4 7 2 252.42 12.58 0
 4 7 3 85.32 8.97 0
 4 7 4 3 4.78 0
 4 8 -11 98.79 11.68 0
 4 8 -10 76.77 10.04 0
 4 8 -8 11.17 5.7 0
 4 8 -6 15.01 5.58 0
 4 8 -5 19.38 5.84 0
 4 8 -4 135.38 10.41 0
 4 8 -3 60.76 8.46 0
 4 8 -2 126.41 10.63 0
 4 8 -1 32.75 6.57 0
 4 8 0 107.62 10.24 0
 4 8 1 38.19 7.54 0
 4 8 2 127.21 10.46 0
 4 8 3 57.58 9.31 0
 4 9 -12 7.33 7.26 0
 4 9 -10 51.03 9.41 0
 4 9 -8 13.45 7.51 0
 4 9 -7 85.63 10.27 0
 4 9 -6 23.34 6.91 0
 4 9 -5 319.47 15.83 0
 4 9 -4 18.54 7.53 0
 4 9 -3 109.12 11.14 0
 4 9 -2 2.19 5.71 0
 4 9 0 419.23 18.18 0
 4 9 1 277.97 15.56 0
 4 9 2 16.36 7.37 0
 4 9 3 108.25 11.66 0
 4 9 4 16.54 7.94 0
 4 10 -11 22.58 8.22 0
 4 10 -9 67.29 10.5 0
 4 10 -8 69.14 10.76 0
 4 10 -7 192.51 14.22 0
 4 10 -6 161.15 13.6 0
 4 10 -5 19.44 8.37 0
 4 10 -4 36.19 8.2 0
 4 10 -3 8.9 7.83 0
 4 10 -1 19.26 7.43 0
 4 10 0 97.81 12.34 0
 4 10 1 6.05 7.27 0
 4 10 3 8.55 6.52 0
 4 10 4 32.97 8.48 0
 4 11 -8 17.91 7.82 0
 4 11 -7 117.2 13.21 0
 4 11 -6 140.54 13.84 0
 4 11 -5 280.2 17.42 0
 4 11 -4 113.1 13.5 0
 4 11 -3 22.2 8.22 0
 4 11 -1 29.91 8.71 0
 4 11 0 12.17 7.72 0
 4 11 1 26.7 8.54 0
 4 11 2 56.44 11.28 0
 4 11 3 33.28 8.88 0
 5 6 0 531.5 14.07 0
 5 7 -1 71.86 6.86 0
 5 7 0 279.43 11.78 0
 5 7 1 80.59 7.6 0
 5 8 -1 207.15 11.31 0
 5 8 0 68.5 8.39 0
 5 8 1 192.14 11.24 0
 5 9 -2 28.22 6.57 0
 5 9 -1 73.99 9.11 0
 5 9 0 24.03 6.11 0
 5 9 1 60.15 8.48 0
 5 9 2 42.55 8.44 0
 5 10 -2 40.52 8.5 0
 5 10 0 34.91 8.13 0
 5 10 2 41.98 8.47 0
 5 11 1 4.98 7.01 0
 -5 2 -19 11.82 7.66 0
 -4 -3 -11 22.08 3.64 0
 -4 -2 -14 160.47 9.34 0
 -4 -1 -15 146.96 10.3 0
 -4 0 -19 27.57 7.64 0
 -4 0 -18 111.9 11.17 0
 -4 0 -17 -4.04 5.24 0
 -4 0 -16 347.28 16.72 0
 -4 1 -20 3.39 7.16 0
 -4 1 -19 137.44 13.03 0
 -4 1 -18 22.12 8.27 0
 -4 1 -17 19.58 7.62 0
 -4 2 -20 78.69 12.45 0
 -4 2 -18 17.77 8.13 0
 -4 3 -20 86.81 13 0
 -4 3 -19 86.29 12.06 0
 -3 -3 -13 47.3 5.29 0
 -3 -3 -12 21.52 3.65 0
 -3 -3 -11 27.67 3.6 0
 -3 -3 -10 12.8 2.81 0
 -3 -3 -9 826.27 12.57 0
 -3 -3 -8 575.02 9.96 0
 -3 -2 -17 122.1 9.51 0
 -3 -2 -15 31.67 5.98 0
 -3 -2 -12 229.2 9.52 0
 -3 -2 -11 226.62 9.23 0
 -3 -1 -19 20.57 6.26 0
 -3 -1 -18 7.77 5.72 0
 -3 -1 -17 57.73 8.7 0
 -3 -1 -16 94.34 9.44 0
 -3 -1 -15 115.46 9.03 0
 -3 -1 -14 7.56 4.72 0
 -3 0 -20 65.81 10.63 0
 -3 0 -19 -6.23 6.14 0
 -3 0 -18 68.3 10.05 0
 -3 0 -17 321.61 15.89 0
 -3 0 -16 137.91 11.1 0
 -3 0 -15 51.61 7.94 0
 -3 1 -21 178.83 15.08 0
 -3 1 -20 24.42 9.2 0
 -3 1 -19 23.93 8.18 0
 -3 1 -18 19.21 7.38 0
 -3 1 -17 57.01 9.04 0
 -3 1 -16 92.65 10.91 0
 -3 2 -22 59.95 12.04 0
 -3 2 -21 82.25 12.32 0
 -3 2 -20 76.14 12.06 0
 -3 2 -18 82.13 11.16 0
 -3 3 -21 182.75 16.72 0
 -3 3 -20 150.46 15.5 0
 -3 3 -19 42.97 10.31 0
 -3 3 -18 18.06 8.15 0
 -3 3 -17 151.71 13.88 0
 -3 4 -20 5.91 8.64 0
 -3 4 -19 11.9 9.07 0
 -3 4 -18 89.59 13.61 0
 -3 5 -19 10.51 8.63 0
 -3 6 -19 27.94 11.8 0
 -3 6 -18 112.13 15.23 0
 -2 -4 -14 54.05 4.98 0
 -2 -4 -13 58.15 4.61 0
 -2 -4 -12 24.1 3.34 0
 -2 -4 -11 3.36 1.88 0
 -2 -4 -10 93.99 4.01 0
 -2 -4 -9 234.28 5.16 0
 -2 -4 -8 372.13 4.82 0
 -2 -3 -16 84.85 7.57 0
 -2 -3 -13 33.07 5.01 0
 -2 -3 -12 25.94 4.17 0
 -2 -3 -11 0.85 2.21 0
 -2 -3 -9 519.13 9.99 0
 -2 -3 -8 330.84 7.31 0
 -2 -3 -7 594.71 8.35 0
 -2 -3 -6 222.66 4.35 0
 -2 -2 -20 8.82 5.47 0
 -2 -2 -19 120.24 10.5 0
 -2 -2 -18 39.67 6.89 0
 -2 -2 -17 132.89 10.16 0
 -2 -2 -16 149.93 10.08 0
 -2 -2 -10 207.8 8.26 0
 -2 -2 -9 262.38 8.41 0
 -2 -2 -8 317.69 8.65 0
 -2 -2 -3 315.08 5.25 0
 -2 -1 -21 45.95 9.16 0
 -2 -1 -20 115.69 11.59 0
 -2 -1 -19 38.54 7.51 0
 -2 -1 -18 155.52 12.08 0
 -2 -1 -16 5.59 4.95 0
 -2 -1 -15 139.76 10.02 0
 -2 -1 -14 14.61 5.18 0
 -2 0 -22 1.67 6.21 0
 -2 0 -19 65.39 9.4 0
 -2 0 -17 3.16 5.44 0
 -2 0 -16 226.42 13.64 0
 -2 0 -15 143.84 11.33 0
 -2 0 -14 93.02 8.82 0
 -2 0 -13 307.4 13.18 0
 -2 1 -23 3.45 6.8 0
 -2 1 -22 214.22 16.37 0
 -2 1 -20 113.4 14.14 0
 -2 1 -17 207.17 13.72 0
 -2 1 -15 118.52 10.26 0
 -2 1 -14 13.41 5.6 0
 -2 2 -22 96.61 13.86 0
 -2 2 -21 202.63 16.89 0
 -2 2 -20 12.61 9.01 0
 -2 2 -19 120.95 14.28 0
 -2 2 -18 32.1 8.32 0
 -2 2 -16 145.5 12 0
 -2 2 -15 176.57 12.82 0
 -2 3 -22 45.72 11.14 0
 -2 3 -21 82.78 12.56 0
 -2 3 -19 219.47 17.22 0
 -2 3 -18 19.22 9.34 0
 -2 3 -17 21.71 8.21 0
 -2 4 -21 57.02 12.65 0
 -2 4 -20 6.76 9.74 0
 -2 4 -18 70.66 11.52 0
 -2 4 -17 76.41 11.95 0
 -2 4 -16 206.85 16.09 0
 -2 5 -18 110.55 13.77 0
 -2 6 -19 92.53 15.95 0
 -2 6 -18 41.87 10.5 0
 -2 6 -17 226.98 17.42 0
 -2 7 -18 60.65 11.95 0
 -2 8 -16 6.92 9.06 0
 -1 -5 -13 45.52 4.42 0
 -1 -5 -12 91.8 5.14 0
 -1 -4 -17 170.66 9.93 0
 -1 -4 -16 156.07 9.08 0
 -1 -4 -13 90.16 6.21 0
 -1 -4 -12 314.53 9.85 0
 -1 -4 -11 125.61 6.19 0
 -1 -4 -10 14.64 2.88 0
 -1 -4 -9 329.9 7.88 0
 -1 -4 -8 241.1 6.08 0
 -1 -3 -18 10.02 4.94 0
 -1 -3 -17 30.62 6.24 0
 -1 -3 -16 166.7 9.87 0
 -1 -3 -15 176.95 9.97 0
 -1 -3 -12 96.11 6.68 0
 -1 -3 -10 427.27 10.42 0
 -1 -3 -8 1884.02 17.86 0
 -1 -3 -7 202.85 5.49 0
 -1 -3 -5 190.44 3.73 0
 -1 -2 -21 44.03 8.52 0
 -1 -2 -20 43.01 8.31 0
 -1 -2 -19 10.16 5.82 0
 -1 -2 -18 184.39 12.07 0
 -1 -2 -17 11.14 5.98 0
 -1 -2 -16 42.66 7.53 0
 -1 -2 -15 72.75 8.02 0
 -1 -2 -12 602.26 15.36 0
 -1 -2 -11 465.54 12.65 0
 -1 -2 -10 119.32 6.81 0
 -1 -2 -9 183.77 7.2 0
 -1 -2 -8 983.32 14.53 0
 -1 -2 -7 1029.08 13.51 0
 -1 -2 -6 426.06 7.91 0
 -1 -2 -5 733.22 8.71 0
 -1 -2 -4 2617.72 13.02 0
 -1 -1 -23 10.31 6.98 0
 -1 -1 -22 62.01 9.72 0
 -1 -1 -21 5.77 7.32 0
 -1 -1 -20 23.74 7.81 0
 -1 -1 -19 78.53 9.92 0
 -1 -1 -18 31.36 7.22 0
 -1 -1 -17 125.37 10.5 0
 -1 -1 -16 195.76 12.14 0
 -1 -1 -15 1.18 5 0
 -1 -1 -14 376.37 14.62 0
 -1 -1 -11 420.84 13.05 0
 -1 -1 -10 969.54 17.93 0
 -1 -1 -9 238.56 8.98 0
 -1 -1 1 2651.75 15.15 0
 -1 0 -23 -1.08 7.24 0
 -1 0 -22 38.14 9.34 0
 -1 0 -21 41.11 9.36 0
 -1 0 -20 11.29 7.53 0
 -1 0 -19 258.68 15.89 0
 -1 0 -17 236.8 14.42 0
 -1 0 -14 180.56 11.16 0
 -1 0 -11 118.44 8.29 0
 -1 0 0 0.92 2.03 0
 -1 1 -23 24.82 9.02 0
 -1 1 -22 76.46 12.8 0
 -1 1 -21 10.53 7.44 0
 -1 1 -20 21.81 9.15 0
 -1 1 -19 50.57 9.28 0
 -1 1 -18 40.85 8.93 0
 -1 1 -16 219.79 13.83 0
 -1 1 -15 3.79 5.14 0
 -1 1 -14 357.26 15.63 0
 -1 1 -13 48.45 7.17 0
 -1 2 -23 121.21 14.92 0
 -1 2 -22 56.48 12.11 0
 -1 2 -21 45.28 10.19 0
 -1 2 -20 37.35 10.79 0
 -1 2 -19 10.58 7.64 0
 -1 2 -18 199.54 15.48 0
 -1 2 -17 10.04 6.62 0
 -1 2 -16 42.79 8.92 0
 -1 3 -22 -0.8 7.56 0
 -1 3 -21 150.4 15.84 0
 -1 3 -20 162.37 15.37 0
 -1 3 -18 6.83 6.76 0
 -1 3 -17 32.71 9.34 0
 -1 3 -16 162.6 12.92 0
 -1 3 -14 250.33 14.93 0
 -1 4 -22 101.5 15.75 0
 -1 4 -21 23.15 10.41 0
 -1 4 -19 19.32 8.38 0
 -1 4 -14 258.06 14.88 0
 -1 5 -21 42.15 11.08 0
 -1 5 -20 16.85 9.61 0
 -1 5 -19 34.65 10.01 0
 -1 5 -18 73.64 12.83 0
 -1 5 -17 6.69 7.14 0
 -1 5 -15 97.86 12.22 0
 -1 6 -20 19.55 10.5 0
 -1 6 -19 81.59 14.43 0
 -1 6 -16 267.83 17.54 0
 -1 6 -14 42.64 9.46 0
 -1 7 -19 24.19 10.85 0
 -1 7 -18 55.56 11.61 0
 -1 7 -16 21.88 9.21 0
 -1 7 -15 81.31 11.92 0
 -1 7 -14 94.92 12.8 0
 -1 8 -18 12.41 10.06 0
 -1 8 -17 17.77 10 0
 -1 8 -16 22.22 9.34 0
 -1 8 -15 65.26 12.64 0
 -1 8 -14 12.65 8.49 0
 -1 9 -16 10.83 9.25 0
 -1 9 -15 170.59 15.93 0
 -1 9 -13 5.92 8.4 0
 -1 10 -15 3.93 8.29 0
 -1 10 -13 48.69 11.84 0
 -1 10 -12 96.36 13.79 0
 -1 11 -13 60.1 11.32 0
 -1 11 -12 54.43 10.89 0
 -1 11 -11 7.94 7.53 0
 0 -5 -17 53.46 7.08 0
 0 -5 -16 241.45 11.44 0
 0 -5 -15 48.73 6.06 0
 0 -5 -12 0.68 2.5 0
 0 -5 -11 17.4 3.5 0
 0 -5 -10 6.77 2.68 0
 0 -4 -19 115.51 10.19 0
 0 -4 -18 11.01 5.47 0
 0 -4 -17 500.43 17.35 0
 0 -4 -16 88.32 8.73 0
 0 -4 -15 634.56 17.9 0
 0 -4 -12 99.46 7.38 0
 0 -4 -11 218.73 9.21 0
 0 -4 -10 34.88 4.71 0
 0 -4 -9 52.57 4.55 0
 0 -4 -8 868.22 14.01 0
 0 -4 -7 1231.04 15.17 0
 0 -3 -21 8.88 5.83 0
 0 -3 -20 158.37 12.89 0
 0 -3 -19 10 5.58 0
 0 -3 -18 191.17 11.91 0
 0 -3 -17 -0.38 4.48 0
 0 -3 -16 10.09 4.87 0
 0 -3 -15 230.65 11.39 0
 0 -3 -14 8.56 4.46 0
 0 -3 -12 2.24 3.29 0
 0 -3 -10 -0.45 2.7 0
 0 -3 -9 922.13 15.99 0
 0 -3 -8 21.45 3.27 0
 0 -3 -7 481.29 10.1 0
 0 -3 -6 59.19 3.96 0
 0 -3 -5 5.75 2.08 0
 0 -2 -23 49.54 10.06 0
 0 -2 -20 22.68 7.05 0
 0 -2 -19 340.44 16.84 0
 0 -2 -18 453.7 17.92 0
 0 -2 -17 49.34 8.14 0
 0 -2 -16 1076.13 25.23 0
 0 -2 -15 110.92 8.8 0
 0 -2 -14 124.84 8.68 0
 0 -2 -12 16.41 4.81 0
 0 -2 -11 1123.85 20.22 0
 0 -2 -10 5.02 3.36 0
 0 -2 -9 12.61 3.31 0
 0 -2 -8 11.68 3.36 0
 0 -2 -7 990.98 14.38 0
 0 -2 -6 3066.66 22.74 0
 0 -2 -5 569.95 9.09 0
 0 -2 -4 7323.12 28.09 0
 0 -2 -3 4770.36 19.91 0
 0 -1 -23 62.96 11.21 0
 0 -1 -22 125.05 13.45 0
 0 -1 -21 48 10.34 0
 0 -1 -20 -1.65 6.19 0
 0 -1 -18 208.13 13.52 0
 0 -1 -17 16.17 6.98 0
 0 -1 -16 46.87 7.49 0
 0 -1 -15 5.64 4.98 0
 0 -1 -14 12.8 4.77 0
 0 -1 -11 25.89 4.78 0
 0 -1 -8 58.6 4.98 0
 0 -1 -7 2215.59 22.3 0
 0 -1 -6 544.52 10.43 0
 0 -1 -5 419.49 8.17 0
 0 -1 -4 4868.57 23.86 0
 0 -1 -3 2074.76 13.16 0
 0 -1 -2 607.97 5.82 0
 0 0 -21 8.59 7.39 0
 0 0 -20 345.39 18.19 0
 0 0 -19 -0.82 5.76 0
 0 0 -18 236.28 15.06 0
 0 0 -16 316.88 15.87 0
 0 0 -15 -0.84 4.72 0
 0 0 -14 124.36 9.57 0
 0 0 -11 0.45 3.44 0
 0 0 -10 1075.91 20.3 0
 0 0 -9 1.09 2.8 0
 0 0 -8 117.52 6.49 0
 0 0 -7 -1.87 2.44 0
 0 0 -5 1.03 2.3 0
 0 0 -4 5325 26.83 0
 0 0 -2 1306.01 9.36 0
 0 1 -22 135.73 15.69 0
 0 1 -20 4.21 7.36 0
 0 1 -18 192.95 14.7 0
 0 1 -16 54.07 8.72 0
 0 1 -15 10.29 5.55 0
 0 1 -14 6.94 4.82 0
 0 1 -13 590.11 18.46 0
 0 1 -10 119.94 7.76 0
 0 1 -9 50.93 5.26 0
 0 1 -7 2280.29 25.41 0
 0 1 3 2070.71 13.44 0
 0 2 -23 50.2 10.85 0
 0 2 -22 6.12 9.33 0
 0 2 -21 32.32 10.47 0
 0 2 -20 19.02 8.11 0
 0 2 -19 360.09 19.38 0
 0 2 -18 471.75 20.97 0
 0 2 -17 53.33 9.27 0
 0 2 -16 1109.8 29.2 0
 0 2 -14 127.89 11.34 0
 0 2 -12 18.9 5.03 0
 0 3 -22 77.79 13.28 0
 0 3 -21 7.51 8.15 0
 0 3 -20 152.49 14.76 0
 0 3 -18 187.56 15.62 0
 0 3 -17 5.43 6.41 0
 0 3 -16 8.99 6.48 0
 0 3 -15 243.03 14.39 0
 0 3 -13 218.54 13.16 0
 0 3 -12 -2.53 3.6 0
 0 3 -11 42.06 6.55 0
 0 4 -22 114.4 16.02 0
 0 4 -21 9.18 8.87 0
 0 4 -18 8.54 7.82 0
 0 4 -16 93.93 12.19 0
 0 4 -14 13.22 5.63 0
 0 4 -13 203.87 12.94 0
 0 4 -12 100.98 9.77 0
 0 4 -11 231.09 12.28 0
 0 5 -21 326.39 21.74 0
 0 5 -18 311.7 20.02 0
 0 5 -17 51.61 10.83 0
 0 5 -16 238.64 16.54 0
 0 5 -15 67.09 10.54 0
 0 5 -14 255.76 15.41 0
 0 5 -13 93.31 11.03 0
 0 5 -12 1.34 5.16 0
 0 5 -11 26.46 6.55 0
 0 6 -20 17.75 9.74 0
 0 6 -19 2.33 8.34 0
 0 6 -18 25.56 9.41 0
 0 6 -17 371.96 20.52 0
 0 6 -16 -1.81 6.29 0
 0 6 -15 170.38 15.07 0
 0 6 -14 546.29 22.64 0
 0 6 -11 8.34 6.33 0
 0 7 -18 51.05 11.83 0
 0 7 -17 15.37 8.61 0
 0 7 -16 199.74 16.35 0
 0 7 -13 8.7 6.78 0
 0 7 -12 96.33 11.08 0
 0 7 -11 293.54 15.97 0
 0 8 -18 140.52 17.2 0
 0 8 -17 130.62 17.14 0
 0 8 -14 456.75 22.44 0
 0 8 -13 -0.66 6.65 0
 0 8 -12 6.6 6.57 0
 0 8 -11 17.29 7.34 0
 0 8 -10 6.74 6.21 0
 0 9 -16 46.28 12.25 0
 0 9 -15 50.02 12.19 0
 0 9 -13 67.43 11.61 0
 0 9 -12 41.55 9.52 0
 0 9 -10 227.85 14.68 0
 0 9 -9 380.41 18 0
 0 10 -15 -1.87 7.3 0
 0 10 -12 83.03 11.43 0
 0 10 -11 -2.15 5.7 0
 0 10 -10 171.9 14.03 0
 0 10 -8 21.69 6.38 0
 0 11 -13 18.21 8.25 0
 0 11 -12 10.41 7.57 0
 1 -5 -19 49.23 8.11 0
 1 -5 -18 91.79 10.14 0
 1 -5 -17 1.85 4.47 0
 1 -5 -16 0.72 4.02 0
 1 -5 -15 92.24 8.53 0
 1 -5 -14 40.4 6.33 0
 1 -4 -19 10.78 6.15 0
 1 -4 -17 170.54 12.04 0
 1 -4 -16 145.76 11.36 0
 1 -4 -15 45.81 7.9 0
 1 -4 -14 272.86 13.24 0
 1 -4 -13 92.36 7.98 0
 1 -4 -9 327.49 11.06 0
 1 -4 -8 239.57 9.19 0
 1 -3 -22 0.74 5.96 0
 1 -3 -21 140.81 13.74 0
 1 -3 -20 175.96 14.21 0
 1 -3 -19 199.56 14.01 0
 1 -3 -18 8.27 6 0
 1 -3 -17 35.09 8.15 0
 1 -3 -16 149.35 10.9 0
 1 -3 -15 182.09 12.09 0
 1 -3 -14 255.74 12.92 0
 1 -3 -13 386.68 14.78 0
 1 -3 -10 472.89 13.77 0
 1 -3 -9 683.07 15.81 0
 1 -3 -8 1932.15 24.64 0
 1 -3 -5 184.56 6.78 0
 1 -2 -23 107.59 12.96 0
 1 -2 -22 65.67 11.47 0
 1 -2 -21 46.28 9.38 0
 1 -2 -20 39.7 9.71 0
 1 -2 -19 13.95 6.95 0
 1 -2 -17 4.51 5.35 0
 1 -2 -16 42.8 7.54 0
 1 -2 -15 67.28 9.01 0
 1 -2 -14 4.25 4.88 0
 1 -2 -13 500.37 16.59 0
 1 -2 -10 118.1 7.72 0
 1 -2 -9 169.56 8.47 0
 1 -2 -8 942.74 17.19 0
 1 -2 -7 1046.49 17.07 0
 1 -2 -6 433.71 10.51 0
 1 -2 -5 751.96 13.19 0
 1 -2 -4 2645.3 22.35 0
 1 -2 -3 1448.64 15.69 0
 1 -1 -23 13.6 8.21 0
 1 -1 -21 6.83 7 0
 1 -1 -20 26.15 9.16 0
 1 -1 -19 73.96 10.36 0
 1 -1 -18 40.85 8.6 0
 1 -1 -17 136.05 12.16 0
 1 -1 -16 211.01 13.35 0
 1 -1 -15 2.43 4.88 0
 1 -1 -14 356.07 15.15 0
 1 -1 -13 44.96 6.5 0
 1 -1 -10 993.07 19.78 0
 1 -1 -9 246.67 9.98 0
 1 -1 -7 295 9.68 0
 1 -1 -6 2392.81 23.79 0
 1 -1 -5 1836.17 19.28 0
 1 -1 -4 445.8 9.19 0
 1 -1 -3 217.01 6.18 0
 1 -1 -2 1803.82 15.21 0
 1 0 -23 1.78 8.02 0
 1 0 -22 44.01 10.89 0
 1 0 -21 43.73 9.72 0
 1 0 -20 21.25 8.14 0
 1 0 -19 246.28 16.57 0
 1 0 -18 42.95 8.78 0
 1 0 -17 248.61 15.3 0
 1 0 -15 160.62 11.32 0
 1 0 -14 191.05 11.63 0
 1 0 -13 1.41 4.41 0
 1 0 -10 302.43 11.6 0
 1 0 -9 771.83 17.03 0
 1 0 -8 44.74 5.3 0
 1 0 -7 294.51 9.41 0
 1 0 -5 4082.78 29.17 0
 1 0 -2 455.99 7.68 0
 1 0 -1 2789.58 16.25 0
 1 1 -23 11.56 8.12 0
 1 1 -22 76.46 12.23 0
 1 1 -21 2.82 7.32 0
 1 1 -20 15.2 8.94 0
 1 1 -19 59.79 10.22 0
 1 1 -18 41.83 8.83 0
 1 1 -17 132.27 12.86 0
 1 1 -16 221.2 14.02 0
 1 1 -14 372.67 16.36 0
 1 1 -13 49.04 7.23 0
 1 1 -12 26.22 5.36 0
 1 1 -7 285.81 9.58 0
 1 1 -6 2475.79 25.62 0
 1 1 -4 442.1 9.38 0
 1 1 -3 208.84 5.94 0
 1 1 -2 1777.15 14.39 0
 1 1 -1 2649.5 14.81 0
 1 1 0 5715.21 18.29 0
 1 2 -21 36.81 10.47 0
 1 2 -20 40.14 11 0
 1 2 -19 12.92 7.72 0
 1 2 -18 191.22 14.36 0
 1 2 -17 8.86 6.76 0
 1 2 -16 42.59 8.29 0
 1 2 -15 74.71 9.51 0
 1 2 -14 3.74 5.35 0
 1 2 -13 487.48 17.81 0
 1 2 -12 657.68 19.5 0
 1 2 -6 431.45 11.38 0
 1 2 -4 2648.71 23.48 0
 1 2 -3 1460.43 15.59 0
 1 2 -2 3963.78 22.54 0
 1 2 -1 6762.14 25.09 0
 1 2 0 147.54 3.21 0
 1 3 -22 5.61 8.47 0
 1 3 -21 133.13 14.5 0
 1 3 -20 177.01 16.6 0
 1 3 -19 219.69 17.07 0
 1 3 -18 11.21 8.31 0
 1 3 -17 40.72 8.64 0
 1 3 -16 162.35 13.17 0
 1 3 -15 179.16 13.86 0
 1 3 -14 262.27 14.48 0
 1 3 -13 365.54 16.22 0
 1 3 -11 48.48 7.19 0
 1 3 -8 1946.79 27.77 0
 1 3 -5 187.32 7.69 0
 1 3 -4 792.14 13.77 0
 1 3 -3 194.23 6.83 0
 1 3 -2 222.52 6.2 0
 1 3 -1 49.02 3.06 0
 1 3 0 5.53 1.45 0
 1 4 -21 25.06 10.33 0
 1 4 -19 20.65 9.43 0
 1 4 -17 167.33 13.55 0
 1 4 -16 155.65 13.66 0
 1 4 -15 53.28 9.61 0
 1 4 -13 92.73 9.68 0
 1 4 -11 137.76 10 0
 1 4 -10 16.51 5.02 0
 1 4 -7 156.63 8.82 0
 1 4 -4 1118.42 17.4 0
 1 4 -3 1699.19 19.81 0
 1 5 -21 36.68 11.26 0
 1 5 -20 10.48 9.06 0
 1 5 -19 51.98 12.07 0
 1 5 -18 81.96 13.34 0
 1 5 -17 6.49 7.37 0
 1 5 -16 -0.03 6.04 0
 1 5 -15 106.51 12.01 0
 1 5 -12 103.35 9.86 0
 1 5 -11 210.7 12.93 0
 1 5 -10 98.05 9.54 0
 1 5 -6 179.01 9.12 0
 1 5 -5 157.29 8.04 0
 1 6 -18 48.01 10.91 0
 1 6 -17 73.09 11.25 0
 1 6 -16 253.86 17.7 0
 1 6 -14 55.25 9.61 0
 1 6 -12 13.65 6.76 0
 1 6 -11 193.69 12.86 0
 1 6 -10 2.77 4.75 0
 1 6 -9 118.02 10.17 0
 1 6 -8 107.25 8.55 0
 1 6 -6 251.6 10.89 0
 1 6 -5 1102.82 20.88 0
 1 7 -19 30.66 10.48 0
 1 7 -18 48.68 11.38 0
 1 7 -17 194.59 16.2 0
 1 7 -16 22.75 8.98 0
 1 7 -15 86.62 12.95 0
 1 7 -14 118.68 12.15 0
 1 7 -13 147.59 12.53 0
 1 7 -12 40.54 9.21 0
 1 7 -11 403.89 17.69 0
 1 7 -10 173.67 12.53 0
 1 7 -9 165.74 11.41 0
 1 7 -8 120.29 9.68 0
 1 7 -7 341.47 13.88 0
 1 7 -5 15.5 4.31 0
 1 7 -4 20.88 4.56 0
 1 8 -18 11.22 9.53 0
 1 8 -16 19.21 8.27 0
 1 8 -14 15.24 8.42 0
 1 8 -13 254.18 16.33 0
 1 8 -12 33.25 8.33 0
 1 8 -11 207.24 14.16 0
 1 8 -10 299.61 15.63 0
 1 8 -9 145.55 11.31 0
 1 8 -8 58.57 8.23 0
 1 8 -7 6.8 4.32 0
 1 8 -6 83.07 7.94 0
 1 8 -3 155.96 8.19 0
 1 8 -2 216.85 8.6 0
 1 9 -17 8.62 10.01 0
 1 9 -16 23.67 8.85 0
 1 9 -14 55.44 11.14 0
 1 9 -13 17.21 7.98 0
 1 9 -12 116.59 12.83 0
 1 9 -11 0.47 5.69 0
 1 9 -10 19.71 6.87 0
 1 9 -9 34.69 7.8 0
 1 9 -8 54.85 7.9 0
 1 9 -7 278.64 13.14 0
 1 9 -6 30.41 5.44 0
 1 10 -15 1.38 7.09 0
 1 10 -14 240.98 17.44 0
 1 10 -13 60.82 10.27 0
 1 10 -11 2.74 5.4 0
 2 -5 -20 58.81 9.43 0
 2 -5 -18 104.25 10.81 0
 2 -5 -17 10.24 6.41 0
 2 -5 -16 167.37 12.2 0
 2 -5 -15 8.93 5.51 0
 2 -5 -14 95.26 9.73 0
 2 -4 -22 -2.26 5.41 0
 2 -4 -21 45.11 8.92 0
 2 -4 -19 117.03 12.4 0
 2 -4 -18 76.23 10.03 0
 2 -4 -17 68.89 9.58 0
 2 -4 -16 213.91 13.88 0
 2 -4 -15 221.17 13.26 0
 2 -4 -14 44.79 7.39 0
 2 -4 -13 53.82 7.52 0
 2 -4 -12 32.71 6.2 0
 2 -4 -11 1.39 3.82 0
 2 -3 -22 51.26 11.1 0
 2 -3 -21 88.64 12.93 0
 2 -3 -20 160.42 14.76 0
 2 -3 -19 219.95 16 0
 2 -3 -18 30.42 8.03 0
 2 -3 -17 19.34 7.65 0
 2 -3 -16 75.26 9.78 0
 2 -3 -15 37.43 7.71 0
 2 -3 -13 46.94 8.18 0
 2 -3 -11 1.75 3.9 0
 2 -3 -6 227.26 9.15 0
 2 -2 -22 95.99 13.45 0
 2 -2 -20 4.17 7.05 0
 2 -2 -19 119.77 13.39 0
 2 -2 -18 45.55 9.37 0
 2 -2 -16 127.91 11.36 0
 2 -2 -15 155.15 11.67 0
 2 -2 -14 47.95 7.98 0
 2 -2 -13 499.93 17.75 0
 2 -2 -6 53.7 5.21 0
 2 -2 -5 119.75 6.61 0
 2 -2 -4 138.2 6.7 0
 2 -1 -22 217.27 16.83 0
 2 -1 -20 121.66 14.86 0
 2 -1 -19 36.6 10.42 0
 2 -1 -17 209.05 14.91 0
 2 -1 -16 10.11 6.13 0
 2 -1 -15 137.72 11.57 0
 2 -1 -13 26.73 6.27 0
 2 -1 -12 610.26 18.55 0
 2 -1 -9 192.15 9.72 0
 2 -1 -8 46.43 5.78 0
 2 -1 -6 1489.53 22.08 0
 2 -1 -4 785.32 15.04 0
 2 -1 -3 1722.81 20.22 0
 2 0 -22 7.6 7.98 0
 2 0 -21 12.37 7.95 0
 2 0 -20 3.43 8.09 0
 2 0 -18 63.69 9.87 0
 2 0 -17 4.79 6.25 0
 2 0 -16 207.98 14.12 0
 2 0 -15 130.4 11.71 0
 2 0 -14 99.05 9.55 0
 2 0 -13 328.54 15.33 0
 2 0 -12 129.43 9.94 0
 2 0 -5 1085.53 17.62 0
 2 0 -4 1004.65 16.12 0
 2 0 -2 3.18 2.71 0
 2 1 -22 204.66 16.65 0
 2 1 -19 28.54 8.78 0
 2 1 -18 174.03 15.06 0
 2 1 -17 202.23 15 0
 2 1 -16 2.04 5.76 0
 2 1 -15 127.11 11.76 0
 2 1 -14 9.52 5.64 0
 2 1 -12 578.01 18.88 0
 2 1 -6 1455.86 21.35 0
 2 1 -5 391.57 10.58 0
 2 1 -4 765.43 13.85 0
 2 1 -3 1771.35 19.32 0
 2 2 -22 103.04 14.97 0
 2 2 -21 196.91 16.6 0
 2 2 -20 8.98 8.19 0
 2 2 -17 148.83 13.69 0
 2 2 -16 135.32 12.01 0
 2 2 -15 155.63 12.12 0
 2 2 -13 496.94 18.57 0
 2 2 -12 166.84 11.55 0
 2 2 -11 61.18 7.23 0
 2 2 -8 316.99 11.75 0
 2 2 -5 121.26 6.4 0
 2 2 -4 126.96 6.28 0
 2 2 -2 1031.74 13.65 0
 2 2 0 4745.12 23.38 0
 2 3 -21 93.3 14.65 0
 2 3 -18 21.49 8.24 0
 2 3 -17 22.17 8.05 0
 2 3 -16 82.18 11.45 0
 2 3 -14 63.82 9.44 0
 2 3 -13 29.09 6.98 0
 2 3 -12 23.3 6.52 0
 2 3 -11 0.81 4.63 0
 2 3 -7 576.66 15.05 0
 2 3 -3 1408.9 17.59 0
 2 3 -2 60.95 3.79 0
 2 3 -1 1144.34 12.77 0
 2 3 0 1374.96 12.45 0
 2 4 -21 30.19 9.83 0
 2 4 -19 106.42 13.48 0
 2 4 -15 248 16 0
 2 4 -14 44.31 8.18 0
 2 4 -13 57.73 8.64 0
 2 4 -12 22.83 6.56 0
 2 4 -11 -1.52 4.77 0
 2 4 -10 88.53 8.88 0
 2 4 -7 561.28 15.65 0
 2 4 -6 711.46 16.21 0
 2 4 -5 57.01 5.5 0
 2 4 0 66.64 2.98 0
 2 5 -20 44.12 11.16 0
 2 5 -18 123.33 14.28 0
 2 5 -16 166.5 15.38 0
 2 5 -15 7.08 6.65 0
 2 5 -14 101.49 11.35 0
 2 5 -13 164.71 12.76 0
 2 5 -12 215.04 13.79 0
 2 5 -11 33.24 7.21 0
 2 5 -10 360.68 15.18 0
 2 5 -9 127.4 9.36 0
 2 5 -6 300.22 11.49 0
 2 5 -1 70.69 3.76 0
 2 5 0 394.11 6.64 0
 2 6 -20 23.76 11.21 0
 2 6 -19 70.3 12.2 0
 2 6 -18 50.21 11.76 0
 2 6 -17 213.52 16.31 0
 2 6 -15 15.91 8.25 0
 2 6 -14 25.9 7.67 0
 2 6 -12 1.39 5.48 0
 2 6 -10 326.55 14.76 0
 2 6 -9 397.78 15.82 0
 2 6 -8 211.94 11.52 0
 2 6 -6 201.54 9.94 0
 2 6 -5 84.48 6.9 0
 2 6 -4 145.04 7.64 0
 2 6 -3 99.97 5.85 0
 2 6 -2 212.63 7.19 0
 2 6 0 194.04 4.93 0
 2 7 -19 26.2 10.06 0
 2 7 -16 17.24 9.85 0
 2 7 -15 84.39 12.2 0
 2 7 -14 70.32 11.14 0
 2 7 -13 126.49 12.18 0
 2 7 -12 89.12 10.66 0
 2 7 -11 153.04 12.62 0
 2 7 -10 12.66 5.76 0
 2 7 -9 66.35 8.17 0
 2 7 -7 153.66 9.79 0
 2 7 -5 409.57 13.06 0
 2 7 -4 137.95 7.4 0
 2 7 -3 241.44 8.8 0
 2 8 -17 283.73 19.54 0
 2 8 -16 18.04 8.41 0
 2 8 -15 123.15 14.64 0
 2 8 -14 58.77 11.22 0
 2 8 -12 153.57 13.34 0
 2 8 -11 11.47 6.74 0
 2 8 -10 36.84 7.87 0
 2 8 -9 20.83 5.71 0
 2 8 -8 23.36 6.05 0
 2 8 -7 59.71 7.34 0
 2 8 -6 160.39 9.13 0
 2 9 -15 -0.63 6.64 0
 2 9 -14 237.29 16.99 0
 2 9 -13 46.12 9.56 0
 2 9 -12 47.54 9.23 0
 2 9 -11 27.56 7.17 0
 3 -4 -21 72.75 12.14 0
 3 -4 -19 15.28 7.9 0
 3 -4 -18 97.11 11.66 0
 3 -4 -17 93.82 11.7 0
 3 -4 -15 192.77 13.18 0
 3 -4 -13 271.62 14.72 0
 3 -4 -12 1.38 5.03 0
 3 -3 -21 206.82 16.98 0
 3 -3 -20 136.36 15.31 0
 3 -3 -19 43.42 9.47 0
 3 -3 -18 17.79 9 0
 3 -3 -17 167.36 14.56 0
 3 -3 -16 44.47 8.81 0
 3 -3 -15 47.64 8.88 0
 3 -3 -14 58.59 9.66 0
 3 -3 -13 56.06 8.35 0
 3 -3 -12 14.91 5.83 0
 3 -3 -11 38.15 6.88 0
 3 -3 -10 7.3 5.43 0
 3 -3 -9 851.11 21.13 0
 3 -2 -21 84.02 12.87 0
 3 -2 -19 42.62 9.97 0
 3 -2 -18 83.26 12.51 0
 3 -2 -17 135.22 13.59 0
 3 -2 -16 111.01 11.47 0
 3 -2 -15 24.54 7.23 0
 3 -2 -14 111.1 10.74 0
 3 -2 -13 103.14 11.14 0
 3 -2 -11 250.72 13.15 0
 3 -2 -6 97.99 7.26 0
 3 -1 -21 203.88 17.67 0
 3 -1 -20 29.9 9.51 0
 3 -1 -19 18.14 8.34 0
 3 -1 -18 12.62 7.83 0
 3 -1 -17 65.5 11.31 0
 3 -1 -16 86 11.61 0
 3 -1 -14 9.56 6.19 0
 3 -1 -13 191.44 12.97 0
 3 -1 -12 240.72 13.99 0
 3 -1 -10 591.48 18.9 0
 3 0 -21 78.1 12.96 0
 3 0 -20 68.23 11.99 0
 3 0 -18 60.55 11.15 0
 3 0 -14 201.56 14.1 0
 3 0 -13 -4.79 4.63 0
 3 0 -12 191.48 12.12 0
 3 0 -11 49.49 7.49 0
 3 0 -7 3.29 3.6 0
 3 0 -6 22.87 4.72 0
 3 1 -21 178.74 16.24 0
 3 1 -20 23.73 9.31 0
 3 1 -19 25.38 9.13 0
 3 1 -17 57.67 10.27 0
 3 1 -16 93.29 11.98 0
 3 1 -15 100.07 10.61 0
 3 1 -14 4.82 5.7 0
 3 1 -13 222.28 13.68 0
 3 1 -11 153.5 10.3 0
 3 1 -10 564.21 18.2 0
 3 1 -6 890.41 19.14 0
 3 2 -21 99.29 15.26 0
 3 2 -19 40.42 10.25 0
 3 2 -17 110.89 13.83 0
 3 2 -16 113.04 13.32 0
 3 2 -14 138.4 12.29 0
 3 2 -13 102.41 9.98 0
 3 2 -12 241.41 13.35 0
 3 2 -11 239.46 12.71 0
 3 2 -10 153.69 10.81 0
 3 2 -6 114.42 7.76 0
 3 2 -5 228.55 9.75 0
 3 2 -1 872.03 13.93 0
 3 3 -21 199.05 18.32 0
 3 3 -20 130.99 15.81 0
 3 3 -18 22.21 8.44 0
 3 3 -17 154.39 13.83 0
 3 3 -16 55.53 9.86 0
 3 3 -15 44.85 9.58 0
 3 3 -12 25.77 6.5 0
 3 3 -11 25.27 6.17 0
 3 3 -10 15.6 5.54 0
 3 3 -6 133.47 8.3 0
 3 3 -5 1937.48 25.99 0
 3 4 -20 9.43 9.22 0
 3 4 -17 94.54 12.68 0
 3 4 -16 190.95 15.5 0
 3 4 -15 199.47 15.2 0
 3 4 -13 287.34 15.94 0
 3 4 -12 -2.7 4.7 0
 3 4 -11 30.87 6.72 0
 3 4 -10 152.03 10.38 0
 3 4 -9 207.8 11.32 0
 3 4 -6 153.9 8.87 0
 3 4 -5 682.57 15.84 0
 3 4 -4 192.06 8.38 0
 3 4 -3 64.48 5.23 0
 3 5 -19 9.17 8.6 0
 3 5 -18 65.09 11.46 0
 3 5 -16 51.32 10.16 0
 3 5 -15 48.46 9.77 0
 3 5 -14 46.49 10.04 0
 3 5 -12 55.32 9.47 0
 3 5 -11 300.5 15.11 0
 3 5 -10 3.47 4.86 0
 3 5 -9 357.97 15.05 0
 3 5 -8 78.49 7.52 0
 3 5 -4 447.49 12.13 0
 3 5 -3 230.12 8.31 0
 3 5 -2 782.31 13.58 0
 3 5 0 152.59 4.76 0
 3 6 -15 3.65 8.32 0
 3 6 -14 220.24 15.57 0
 3 6 -13 36.24 8.23 0
 3 6 -11 458.47 18.65 0
 3 6 -9 6.62 4.94 0
 3 6 -8 0.19 3.99 0
 3 6 -4 291.7 10.1 0
 3 6 -2 49.64 3.96 0
 3 6 -1 342.99 7.72 0
 3 7 -18 38.77 10.89 0
 3 7 -17 13 8.73 0
 3 7 -16 31.1 9.98 0
 3 7 -15 19.84 9.04 0
 3 7 -13 215.72 14.55 0
 3 7 -11 60.5 9.34 0
 3 7 -10 57.49 8.02 0
 3 7 -9 39.68 6.81 0
 3 7 -8 45.67 6.91 0
 3 7 -7 545.88 16.64 0
 3 8 -17 41.6 10.2 0
 3 8 -16 34.59 9.47 0
 3 8 -15 107.59 12.89 0
 3 8 -14 72.59 10.64 0
 3 8 -13 17.45 7.91 0
 3 8 -12 116.49 11.31 0
 3 8 -11 132.97 11.27 0
 3 8 -10 68.93 8.8 0
 4 -3 -20 86.59 12.42 0
 4 -3 -19 86.57 13.05 0
 4 -3 -18 31.59 9.88 0
 4 -3 -17 23.13 8.45 0
 4 -3 -16 26.59 8.15 0
 4 -3 -15 72.71 11.22 0
 4 -3 -14 323.15 17.11 0
 4 -3 -13 190.61 14.45 0
 4 -3 -12 253.08 15.46 0
 4 -2 -20 101.84 13.69 0
 4 -2 -19 35.35 9.99 0
 4 -2 -18 36.19 9.72 0
 4 -2 -17 17.2 8.15 0
 4 -2 -16 99.95 12.97 0
 4 -2 -15 317.01 18.01 0
 4 -2 -13 15.99 7.29 0
 4 -2 -12 89.89 10.6 0
 4 -2 -11 117.39 11.09 0
 4 -2 -10 14.34 5.47 0
 4 -2 -9 173.09 11.58 0
 4 -1 -20 4.11 8.12 0
 4 -1 -19 134.29 16.44 0
 4 -1 -18 25.98 9.25 0
 4 -1 -17 28.54 9.58 0
 4 -1 -16 145.41 14.68 0
 4 -1 -15 161.96 14.58 0
 4 -1 -14 48.37 9.23 0
 4 -1 -13 340.27 17.31 0
 4 -1 -11 177.86 12.56 0
 4 -1 -10 3.95 5.02 0
 4 -1 -9 696.58 21.17 0
 4 -1 -8 217.04 11.64 0
 4 -1 -7 1614.6 29.56 0
 4 -1 -6 292.48 12.77 0
 4 0 -20 14.64 8.76 0
 4 0 -19 22.75 9.43 0
 4 0 -18 106.46 15.65 0
 4 0 -16 340.97 18.89 0
 4 0 -15 38.11 9.02 0
 4 0 -13 96.35 10.42 0
 4 0 -12 4.02 6.14 0
 4 1 -20 -2 6.94 0
 4 1 -19 134.68 15.93 0
 4 1 -18 24.79 10.14 0
 4 1 -17 17.12 8.65 0
 4 1 -15 165.5 15.21 0
 4 1 -14 47.79 9.71 0
 4 1 -13 321.46 17.18 0
 4 1 -12 51.72 8.78 0
 4 1 -10 -0.83 4.84 0
 4 1 -7 1631.85 29.77 0
 4 1 -4 583.07 15.94 0
 4 2 -20 84.28 14.62 0
 4 2 -19 25.85 10.12 0
 4 2 -18 29.18 9.54 0
 4 2 -17 9.26 8.54 0
 4 2 -16 93.72 12.24 0
 4 2 -15 320.55 18.76 0
 4 2 -14 148.21 14.12 0
 4 2 -13 15.89 7.43 0
 4 2 -10 7.44 5.47 0
 4 2 -8 18.07 5.56 0
 4 2 -7 212.94 11.28 0
 4 2 -3 364.36 11.75 0
 4 3 -19 79.35 12.73 0
 4 3 -17 24.79 9.34 0
 4 3 -15 81.67 12.18 0
 4 3 -14 325.93 17.92 0
 4 3 -13 188.61 14.09 0
 4 3 -12 237.7 15.21 0
 4 3 -11 15.78 6.2 0
 4 3 -10 446.93 17.99 0
 4 3 -8 560.92 18.14 0
 4 3 -7 257.04 12.33 0
 4 3 -4 840.42 18.38 0
 4 3 -3 349.23 11.2 0
 4 4 -18 152.09 16.1 0
 4 4 -17 49.3 10.86 0
 4 4 -16 11.57 7.73 0
 4 4 -15 63.12 10.97 0
 4 4 -14 47.93 10.49 0
 4 4 -13 202.69 14.89 0
 4 4 -11 83.16 9.59 0
 4 4 -10 11.2 6.68 0
 4 4 -9 1.78 5.13 0
 4 4 -8 63.86 7.94 0
 4 4 -7 17.99 5.75 0
 4 4 -4 90.86 6.96 0
 4 4 -3 56.01 5.4 0
 4 4 -2 165.34 7.47 0
 4 5 -17 73.76 13.17 0
 4 5 -16 32.33 9.2 0
 4 5 -15 5.75 8.51 0
 4 5 -14 86.29 11.63 0
 4 5 -12 72.32 10 0
 4 5 -11 381.93 17.79 0
 4 5 -10 461.18 17.87 0
 4 5 -9 161.74 10.96 0
 4 5 -8 565.2 18.19 0
 4 5 -7 95.46 8.12 0
 4 5 -4 369.67 12.21 0
 4 5 -3 63.69 5.37 0
 4 5 -2 135.91 6.48 0
 4 6 -18 27.07 9.41 0
 4 6 -17 100.35 13.71 0
 4 6 -15 130.67 13.05 0
 4 6 -14 31.94 8.84 0
 4 6 -13 141.51 13.51 0
 4 6 -12 65.74 10.16 0
 4 6 -11 62.63 8.95 0
 4 6 -10 1.72 5.05 0
 4 6 -8 103.15 9.37 0
 4 6 -7 48.31 6.51 0
 4 6 -6 5.62 3.66 0
 4 7 -16 29.47 9.85 0
 4 7 -15 106.46 12.9 0
 4 7 -14 24.87 8.61 0
 4 7 -13 24.36 8.46 0
 4 7 -11 302.31 15.58 0
 4 7 -10 116.83 10.41 0
 5 -2 -18 37.49 10.5 0
 5 -2 -17 512.08 24.32 0
 5 -2 -16 16.39 8.92 0
 5 -1 -18 96.44 13.58 0
 5 -1 -17 4.68 9.41 0
 5 -1 -16 144.33 15.14 0
 5 -1 -15 204.42 15.88 0
 5 -1 -14 248.37 16.36 0
 5 -1 -13 48.8 9.17 0
 5 -1 -11 -1.1 7.18 0
 5 0 -18 3.95 8.92 0
 5 0 -17 235.31 18.4 0
 5 0 -16 99.6 13.94 0
 5 0 -15 -3.34 7.27 0
 5 0 -14 -6.46 6.08 0
 5 0 -12 3.22 5.7 0
 5 0 -11 140.51 11.77 0
 5 0 -10 0.54 4.95 0
 5 0 -9 -0.49 5.82 0
 5 0 -8 222.46 13.6 0
 5 1 -17 -4.77 6.97 0
 5 1 -16 151.67 16.91 0
 5 1 -13 70.88 11.22 0
 5 1 -11 1.62 5.69 0
 5 1 -10 73.52 9.59 0
 5 1 -9 36.02 8.01 0
 5 1 -8 274.54 14.15 0
 5 1 -7 58.04 8.04 0
 5 2 -18 46.02 11.58 0
 5 2 -17 467.26 24.52 0
 5 2 -16 14.51 8.63 0
 5 2 -15 65.9 11.7 0
 5 2 -13 30.81 8.72 0
 5 2 -12 18.01 7.54 0
 5 2 -10 114.36 11.64 0
 5 2 -9 47.83 8.57 0
 5 2 -8 60.98 8.8 0
 5 2 -7 91.85 9.61 0
 5 3 -18 52.78 11.47 0
 5 3 -17 0.53 9.45 0
 5 3 -15 338.18 20.42 0
 5 3 -14 14.61 8.58 0
 5 3 -13 86.43 11.74 0
 5 3 -12 23.09 8.43 0
 5 3 -11 67.62 9.91 0
 5 3 -10 176.72 12.81 0
 5 3 -9 16.15 6.91 0
 5 3 -8 13.88 5.84 0
 5 3 -7 23.68 6.1 0
 5 3 -6 81.84 8.33 0
 5 3 -5 215.16 11.34 0
 5 4 -17 17.06 9.35 0
 5 4 -15 42.3 9.77 0
 5 4 -14 137.77 13.54 0
 5 4 -13 23.28 8.26 0
 5 4 -12 3.62 7.04 0
 5 4 -11 387.58 18.94 0
 5 4 -9 14.95 6.1 0
 5 4 -8 189 12.66 0
 5 4 -7 100.19 9.59 0
 5 4 -6 116.55 8.74 0
 5 4 -5 1.18 3.64 0
 5 5 -17 56.07 12.01 0
 5 5 -16 45.48 10.4 0
 5 5 -15 7.96 7.68 0
 5 5 -14 56.67 10.56 0
 5 5 -13 79.74 11.4 0
 5 5 -12 170.33 14.34 0
 5 5 -11 39.45 9.21 0
 5 5 -10 15.1 7.12 0
 5 5 -9 121.04 10.98 0
 5 5 -8 193.84 12.5 0
 5 5 -7 3.72 4.9 0
 5 5 -6 41.94 6.21 0
 5 5 -5 3.69 3.38 0
 5 6 -16 52.97 11.14 0
 5 6 -15 56.42 11.79 0
 5 6 -14 28.67 9.75 0
 5 6 -13 170.87 14.22 0
 5 6 -12 199.22 14.93 0
 5 6 -10 48.83 7.96 0
 5 7 -15 9.51 7.65 0
 6 0 -15 117.34 14.37 0
 6 1 -16 164.79 16.77 0
 6 1 -14 62.19 11.2 0
 6 1 -12 4.04 7.61 0
 6 2 -15 22.63 9.97 0
 6 2 -14 50.68 10.36 0
 6 2 -13 49.15 10.89 0
 6 2 -12 162.51 14.35 0
 6 2 -11 75.39 10.78 0
 6 2 -10 132.88 13.31 0
 6 3 -16 48.85 10.78 0
 6 3 -15 9.75 7.78 0
 6 3 -13 61.61 10.72 0
 6 3 -12 45.32 10.41 0
 6 3 -11 5.21 7.53 0
 6 3 -9 252.29 15.53 0
 6 4 -15 3.58 6.75 0
 6 4 -13 159.79 14.86 0
 6 4 -12 54.56 10.64 0
 6 4 -11 11.76 7.3 0
 6 4 -9 61.76 9.12 0
 6 5 -15 43.62 10.56 0
 6 5 -14 66.56 12.14 0
 6 5 -13 233.22 16.09 0
 6 5 -12 40.4 9.33 0
 6 5 -10 36.33 7.23 0
 -5 7 1 73.83 7.27 0
 -5 8 0 68.66 8.09 0
 -5 8 1 202.1 11.28 0
 -4 3 3 360.78 6.55 0
 -4 3 4 831.27 7.33 0
 -4 4 3 62.16 4.05 0
 -4 4 4 92.51 4.26 0
 -4 4 5 20.64 2.54 0
 -4 5 5 90.24 4.93 0
 -4 5 6 377.36 8.49 0
 -4 6 5 17.99 4.05 0
 -4 6 6 9.59 3.12 0
 -4 7 2 270.76 11.54 0
 -4 7 4 6.86 4.03 0
 -4 8 1 25.04 5.85 0
 -4 8 2 119.61 8.83 0
 -4 8 3 62.06 7.39 0
 -4 8 4 131.22 9.25 0
 -4 8 5 14.59 5.09 0
 -4 9 0 408.55 17.21 0
 -4 9 1 276.75 14.33 0
 -4 9 2 9.83 6.27 0
 -4 9 3 105.14 9.52 0
 -4 9 4 15.33 5.55 0
 -4 10 -2 35.26 8.44 0
 -4 10 -1 14.21 7.13 0
 -4 10 0 98.35 11.65 0
 -4 10 1 5.45 6.02 0
 -4 10 2 30.87 7.17 0
 -4 10 3 13.35 6.19 0
 -4 11 -3 24.19 8.61 0
 -4 11 -2 59.87 10.2 0
 -4 11 0 21.7 7.98 0
 -4 11 1 29.42 7.98 0
 -4 11 2 51.68 9.35 0
 -4 12 0 58.43 10.44 0
 -3 0 2 1059.15 7.92 0
 -3 1 2 1285.25 8.39 0
 -3 2 3 503.65 5.8 0
 -3 3 3 613.66 9.15 0
 -3 3 4 388.88 6.93 0
 -3 3 5 1921.39 14 0
 -3 3 6 142.15 3.9 0
 -3 4 3 60.14 4.43 0
 -3 4 4 208.35 6.68 0
 -3 4 5 685.39 11.27 0
 -3 4 6 155.95 5.62 0
 -3 4 7 274.25 7.08 0
 -3 5 3 210.66 8.28 0
 -3 5 6 225.35 8.09 0
 -3 5 8 85.89 5.31 0
 -3 5 9 334.62 9.26 0
 -3 6 5 233.38 9.66 0
 -3 6 6 84.6 6.25 0
 -3 6 7 7.06 3.68 0
 -3 6 8 6.28 3.87 0
 -3 7 2 198.83 10.07 0
 -3 7 3 88.4 7.95 0
 -3 7 4 30.63 5.48 0
 -3 7 5 26.82 5.18 0
 -3 7 6 154.2 9.03 0
 -3 7 9 44.56 5.67 0
 -3 7 10 52.48 6.11 0
 -3 8 1 8.61 5.06 0
 -3 8 2 99.31 9.39 0
 -3 8 3 72.03 7.66 0
 -3 8 4 27.04 5.96 0
 -3 8 5 96.31 8.63 0
 -3 8 6 9.5 5.47 0
 -3 8 7 34.23 6.14 0
 -3 8 8 185.13 10.6 0
 -3 8 9 87.71 8.24 0
 -3 8 10 66.19 8.09 0
 -3 9 0 88.18 9.46 0
 -3 9 1 6.94 6.3 0
 -3 9 2 17.64 6.78 0
 -3 9 3 -0.73 4.97 0
 -3 9 4 145.71 11.28 0
 -3 9 5 287.61 13.84 0
 -3 9 6 78.91 9.76 0
 -3 9 7 183.41 11.68 0
 -3 9 8 155.46 11.01 0
 -3 9 9 6.9 5.32 0
 -3 10 -1 46.22 8.83 0
 -3 10 0 94.15 10.59 0
 -3 10 1 52.28 9.99 0
 -3 10 2 161.08 12.28 0
 -3 10 3 183.09 13.05 0
 -3 10 5 26.02 7.18 0
 -3 10 6 52.46 9.02 0
 -3 10 7 14.17 6.3 0
 -3 11 -4 28.25 10.26 0
 -3 11 -3 16 8.12 0
 -3 11 -2 39.9 10.04 0
 -3 11 -1 140.92 13.62 0
 -3 11 1 153.53 13.81 0
 -3 11 2 46.25 10.31 0
 -3 11 3 15.05 7.32 0
 -3 11 4 17.92 8.25 0
 -3 11 6 31.31 8.61 0
 -3 11 7 122.23 12.26 0
 -3 12 -4 23.77 9.62 0
 -3 12 -2 -0.09 7.7 0
 -3 12 -1 91.71 13.34 0
 -3 12 0 0.07 6.91 0
 -3 12 1 91.47 12.28 0
 -3 12 2 -4.93 6.45 0
 -3 12 3 119.9 14.45 0
 -3 12 4 21.24 9.06 0
 -3 12 5 11.2 7.6 0
 -2 0 1 820.31 6.91 0
 -2 2 3 314.11 5.33 0
 -2 2 4 126.66 3.49 0
 -2 2 5 111.19 3.4 0
 -2 3 3 1436.98 14.59 0
 -2 3 4 1208.82 13.35 0
 -2 3 5 93.77 4.31 0
 -2 3 6 224.16 6.25 0
 -2 3 7 591.96 10.06 0
 -2 4 3 1687.35 19.11 0
 -2 4 5 62.38 4.71 0
 -2 4 8 357.27 9.63 0
 -2 5 3 757.91 15.23 0
 -2 5 4 625.11 13.62 0
 -2 5 5 351.52 10.6 0
 -2 5 8 213.8 8.79 0
 -2 5 9 117.85 7.23 0
 -2 7 1 309.07 13.07 0
 -2 7 2 125.98 9.13 0
 -2 7 3 233.47 11.35 0
 -2 7 7 138.62 9.31 0
 -2 7 9 52.55 7.07 0
 -2 7 10 14.8 5.15 0
 -2 8 0 46.94 7.39 0
 -2 8 1 342.47 14.47 0
 -2 8 2 139.34 10.77 0
 -2 8 3 143.7 9.87 0
 -2 8 4 95.99 9.36 0
 -2 8 5 55 7.86 0
 -2 8 6 156.04 10.63 0
 -2 8 7 47.34 7.06 0
 -2 8 9 25.3 6.13 0
 -2 8 10 44.67 7.1 0
 -2 8 11 4.4 4.88 0
 -2 8 12 168.59 11.05 0
 -2 9 -1 72.11 9.7 0
 -2 9 0 28.32 7.27 0
 -2 9 1 76.75 9.77 0
 -2 9 2 35.52 8.18 0
 -2 9 3 2.64 6.23 0
 -2 9 4 75.9 9.93 0
 -2 9 5 276.28 14.25 0
 -2 9 6 31.13 7.31 0
 -2 9 7 17.41 6.81 0
 -2 9 8 94.78 10.37 0
 -2 9 9 13.66 6.25 0
 -2 9 10 149.88 11.72 0
 -2 9 11 18.32 6.28 0
 -2 9 12 54.17 8.94 0
 -2 10 -1 93.1 11.32 0
 -2 10 0 -1.33 5.55 0
 -2 10 2 189.3 14.05 0
 -2 10 3 85.19 10.84 0
 -2 10 4 10.9 6.53 0
 -2 10 5 28.2 7.67 0
 -2 10 6 23.87 7.65 0
 -2 10 7 102.45 11.03 0
 -2 10 8 30.91 7.7 0
 -2 10 9 35.23 8.17 0
 -2 10 10 35.16 8.98 0
 -2 10 11 109.92 11.18 0
 -2 10 12 24.53 7.44 0
 -2 11 -4 44.17 11.32 0
 -2 11 -3 38.09 9.58 0
 -2 11 -2 15.32 8.52 0
 -2 11 -1 41.91 9.66 0
 -2 11 1 40.36 9.89 0
 -2 11 3 25.97 8.36 0
 -2 11 4 60.28 11.11 0
 -2 11 5 43.96 9.21 0
 -2 11 8 136.35 13.36 0
 -2 11 9 -2.32 6.16 0
 -2 12 -7 35.06 10.9 0
 -2 12 -6 6.2 9.28 0
 -2 12 -5 20.03 9.46 0
 -2 12 -4 50.09 10.66 0
 -2 12 -3 -1.97 7.46 0
 -2 12 -2 83.51 13.26 0
 -2 12 -1 15.15 8.26 0
 -2 12 0 85.82 13.52 0
 -2 12 1 26.09 9.55 0
 -2 12 2 83.1 11.95 0
 -2 12 3 14.06 8.26 0
 -2 12 4 64.34 11.79 0
 -2 12 5 28.89 10.26 0
 -2 12 6 18.48 8.26 0
 -2 12 7 40.89 10.75 0
 -2 12 8 2.68 7.05 0
 -2 12 9 7.79 7.46 0
 -1 -1 0 5747.24 20.65 0
 -1 1 3 210.1 3.56 0
 -1 2 2 4055.69 20.13 0
 -1 2 3 1441.25 12.59 0
 -1 2 4 2640.48 17.68 0
 -1 2 5 730.87 10.18 0
 -1 3 2 234.8 6.66 0
 -1 3 4 781.33 11.92 0
 -1 3 5 189.88 6.53 0
 -1 3 6 307.99 8.42 0
 -1 3 7 199.3 7.12 0
 -1 4 2 1354.16 17.99 0
 -1 4 3 1645.66 19.48 0
 -1 4 4 1172.57 16.93 0
 -1 4 6 453.9 11.14 0
 -1 4 7 172.48 7.62 0
 -1 4 8 249.05 9.04 0
 -1 4 9 345.97 10.7 0
 -1 5 2 493.95 12.71 0
 -1 5 3 73.59 5.44 0
 -1 5 4 644.92 14.55 0
 -1 5 6 182.07 8.3 0
 -1 5 7 831.94 17.43 0
 -1 6 8 102.78 7.88 0
 -1 6 9 118.32 8.81 0
 -1 6 10 9.56 5.37 0
 -1 7 1 24.97 5.53 0
 -1 7 2 102.2 8.67 0
 -1 7 3 202.8 11.08 0
 -1 7 4 25.55 5.65 0
 -1 7 5 16.81 5.19 0
 -1 7 6 67.49 8.29 0
 -1 7 7 345.44 14.14 0
 -1 7 8 124.82 9.59 0
 -1 7 9 169.53 10.93 0
 -1 7 10 163.68 10.43 0
 -1 7 11 384.62 15.45 0
 -1 8 1 270.77 13.3 0
 -1 8 2 214.43 11.85 0
 -1 8 3 159.38 11.38 0
 -1 8 4 4.94 5.4 0
 -1 8 6 64.96 8.75 0
 -1 8 7 4.23 5.08 0
 -1 8 8 42.95 8.07 0
 -1 8 9 147 10.7 0
 -1 8 10 293.59 15.02 0
 -1 8 11 200.57 12.47 0
 -1 8 12 39.73 7.82 0
 -1 9 -2 93.13 11.22 0
 -1 9 0 204.36 13.41 0
 -1 9 2 87.71 10.56 0
 -1 9 6 51.46 9.18 0
 -1 9 7 269.71 15.36 0
 -1 9 8 44.23 9.07 0
 -1 9 9 49.93 8.92 0
 -1 9 10 16.51 6.78 0
 -1 9 11 1.8 5.6 0
 -1 10 -3 65.56 10.03 0
 -1 10 -2 134.54 13.69 0
 -1 10 -1 12.51 7.26 0
 -1 10 0 3.28 6.14 0
 -1 10 1 10.34 7.02 0
 -1 10 2 153.13 13.7 0
 -1 10 3 79.19 10.88 0
 -1 10 4 26.04 8.57 0
 -1 10 5 31.17 8.41 0
 -1 10 6 18.54 7.91 0
 -1 10 8 245.01 15.9 0
 -1 10 9 24.45 8.05 0
 -1 10 10 146.83 12.51 0
 -1 10 11 -0.75 6.04 0
 -1 10 12 89.75 11.24 0
 -1 11 -5 15.26 8.48 0
 -1 11 -4 157.85 14.05 0
 -1 11 -3 0.02 7.32 0
 -1 11 -2 25.58 9.84 0
 -1 11 -1 53.44 10.3 0
 -1 11 0 5.29 8.4 0
 -1 11 2 39.08 10.48 0
 -1 11 3 4.6 8.59 0
 -1 11 4 162.89 14.74 0
 -1 11 5 8.04 7.49 0
 -1 11 6 193.76 15.92 0
 -1 11 7 39.17 9.72 0
 -1 11 8 91.41 12.83 0
 -1 11 9 214.55 15.85 0
 -1 11 10 8.4 7.22 0
 -1 11 11 15.15 8.56 0
 -1 12 -8 49.97 13.72 0
 -1 12 -7 0.32 8.14 0
 -1 12 -6 6.78 10.13 0
 -1 12 -5 87.05 13.09 0
 -1 12 -4 34.29 10.05 0
 -1 12 -2 76.61 13.14 0
 -1 12 -1 9.77 9.13 0
 -1 12 0 17.63 9.11 0
 -1 12 1 18.44 9.14 0
 -1 12 2 68.8 12.77 0
 -1 12 4 49.37 11.44 0
 -1 12 5 76.23 12.92 0
 -1 12 6 10.13 9.98 0
 -1 12 7 -3.41 7.22 0
 -1 12 8 63.11 11.28 0
 -1 12 9 19.95 10.15 0
 0 -1 -1 2386.91 11.85 0
 0 1 1 2345.11 11.83 0
 0 1 2 637.41 7.16 0
 0 1 3 2049.41 13.89 0
 0 2 1 5821.21 25.75 0
 0 2 3 4906.89 25.89 0
 0 2 4 7442.21 33.82 0
 0 2 5 581.25 10.5 0
 0 2 6 3180.18 25.14 0
 0 3 1 122.28 5.56 0
 0 3 2 707.76 11.73 0
 0 3 3 3692.36 27.05 0
 0 3 4 3534.95 27.23 0
 0 3 5 5.38 3.61 0
 0 4 1 2120.03 22.97 0
 0 4 2 1605.52 19.92 0
 0 4 3 4026.04 32.28 0
 0 4 4 374.54 10.69 0
 0 4 5 626.38 13.75 0
 0 4 6 360.33 11.05 0
 0 4 7 1271.64 20.72 0
 0 4 8 838.57 17.13 0
 0 5 1 51.82 5.28 0
 0 5 3 126.18 7.32 0
 0 5 4 119.54 7.11 0
 0 5 9 8.12 4.09 0
 0 5 10 7.38 4.48 0
 0 6 6 79.35 7.93 0
 0 6 7 2.39 4.12 0
 0 6 8 319.19 13.05 0
 0 6 9 24.88 5.95 0
 0 6 10 68.2 8.03 0
 0 6 11 6.36 5.44 0
 0 7 -1 218.98 11.18 0
 0 7 0 4.99 4.27 0
 0 7 1 210.53 10.85 0
 0 7 2 81.47 8.35 0
 0 7 3 108.83 8.95 0
 0 7 4 -1.8 4.25 0
 0 7 5 681.42 19.24 0
 0 7 6 25.09 6.1 0
 0 7 7 138.99 9.86 0
 0 7 8 5.72 5.07 0
 0 7 9 40.29 7.71 0
 0 7 10 34.78 6.94 0
 0 7 11 272.94 13.7 0
 0 8 -2 374.09 15.65 0
 0 8 -1 336.89 14.77 0
 0 8 0 16 5.99 0
 0 8 1 364.62 15.69 0
 0 8 2 359.74 15.09 0
 0 8 3 22.88 6.15 0
 0 8 4 423.78 16.55 0
 0 8 5 101.06 9.54 0
 0 8 6 322.32 15 0
 0 8 7 173.86 12.14 0
 0 8 8 161.84 12.41 0
 0 8 9 67.77 9.95 0
 0 8 11 15.29 7.41 0
 0 8 12 8.89 6.85 0
 0 9 -3 51.64 8.56 0
 0 9 1 127.76 11 0
 0 9 2 57.01 8.77 0
 0 9 4 -0.85 5.93 0
 0 9 6 34.47 8.19 0
 0 9 7 29.78 8.92 0
 0 9 8 42.11 8.78 0
 0 9 9 385.52 18.06 0
 0 9 10 226.88 14.62 0
 0 9 11 127.35 12.82 0
 0 10 -5 8.49 7.5 0
 0 10 -4 92.73 11.89 0
 0 10 -3 81.39 11.61 0
 0 10 -1 26.47 8.03 0
 0 10 1 26.24 8.93 0
 0 10 2 995.77 29.03 0
 0 10 3 87.07 11.1 0
 0 10 4 100.92 11.61 0
 0 10 5 10.17 7.94 0
 0 10 6 25.17 8 0
 0 10 8 25.82 8.4 0
 0 10 9 34.45 9.97 0
 0 10 10 182.84 14.4 0
 0 10 11 0.24 8.47 0
 0 10 12 78.65 11.39 0
 0 11 -7 28.27 9.46 0
 0 11 -6 160.86 15.69 0
 0 11 -5 4.6 7.88 0
 0 11 -3 353.36 20.12 0
 0 11 -1 13.48 8.04 0
 0 11 0 -2.04 7.88 0
 0 11 1 16.85 9.05 0
 0 11 2 1.18 7.22 0
 0 11 3 357.34 19.42 0
 0 11 4 61.66 11.02 0
 0 11 5 -0.36 7.24 0
 0 11 6 152.45 15.3 0
 0 11 7 36.73 11.05 0
 0 11 8 96.75 12.81 0
 0 11 9 25.03 9.1 0
 0 11 10 16.45 10.13 0
 0 11 11 0.09 7.12 0
 0 11 12 4.25 8.74 0
 0 12 -7 2.42 8.28 0
 0 12 -5 18.18 10.21 0
 0 12 -4 11.09 8.79 0
 0 12 -3 19.46 9.17 0
 0 12 -2 80.73 13.25 0
 0 12 2 96.46 13.39 0
 0 12 4 9.26 9.26 0
 0 12 5 24.67 9.93 0
 0 12 6 -2.59 8.13 0
 0 12 7 3.39 8.38 0
 0 12 8 6.42 9.08 0
 0 12 9 321.91 20.8 0
 1 -1 -4 440.45 5.92 0
 1 1 -1 2635.19 13.15 0
 1 1 0 5616.26 20.54 0
 1 1 1 2665.2 15.81 0
 1 1 2 1790.48 14.47 0
 1 2 -1 6828.83 29.05 0
 1 2 1 6901.96 31.33 0
 1 2 2 4175.69 25.54 0
 1 2 3 1420.57 15.98 0
 1 2 4 2691.41 23.18 0
 1 2 5 749.19 13.27 0
 1 3 -1 54.53 5 0
 1 3 0 7.35 2.82 0
 1 3 1 54.49 4.57 0
 1 3 2 229.58 8.24 0
 1 3 3 188.53 7.19 0
 1 3 4 784.17 14.44 0
 1 3 6 298 9.69 0
 1 3 7 207.57 8.65 0
 1 4 -1 315.76 9.77 0
 1 4 0 247.8 8.56 0
 1 4 1 333.67 9.85 0
 1 4 2 1415.65 20.19 0
 1 4 3 1693.79 22.4 0
 1 4 4 1099.74 18.76 0
 1 4 5 311.49 10.52 0
 1 4 6 451.5 13.09 0
 1 5 -1 5.17 3.17 0
 1 5 0 11 3.81 0
 1 5 1 9.05 4.25 0
 1 5 3 80.1 6.43 0
 1 5 8 1220.2 24.04 0
 1 5 9 531.77 16.47 0
 1 5 10 82.45 7.86 0
 1 6 5 1083.68 22.93 0
 1 6 7 143.18 9.63 0
 1 6 8 120.34 9.76 0
 1 6 9 122.94 10.43 0
 1 6 10 5.95 6.14 0
 1 7 -2 107.57 8.63 0
 1 7 -1 22.24 6.25 0
 1 7 0 139.32 9.86 0
 1 7 1 22.66 5.61 0
 1 7 2 104.68 8.81 0
 1 7 3 223.46 11.81 0
 1 7 4 15.74 5.42 0
 1 7 6 59.96 8.7 0
 1 7 8 134.83 10.99 0
 1 7 9 172.07 12.17 0
 1 7 11 391.28 17.09 0
 1 8 -4 4.98 5.08 0
 1 8 -3 179.4 11.61 0
 1 8 -1 274.33 13.75 0
 1 8 1 265.25 13.91 0
 1 8 2 213.99 12.99 0
 1 8 3 171.62 11.46 0
 1 8 4 8.64 6.38 0
 1 8 5 389.89 17.01 0
 1 8 6 73.3 9.55 0
 1 8 7 14.46 6.34 0
 1 8 8 40.39 8.55 0
 1 8 9 142.94 11.35 0
 1 8 10 313.91 16.65 0
 1 8 11 209.25 14.73 0
 1 8 12 46.41 8.99 0
 1 9 -6 46.58 8.87 0
 1 9 -5 231.81 14.91 0
 1 9 -4 222.41 14.21 0
 1 9 -3 62.46 9.13 0
 1 9 -2 85.05 10.59 0
 1 9 -1 81.41 10.57 0
 1 9 0 182.84 13.63 0
 1 9 2 88.39 10.69 0
 1 9 3 81.72 10.25 0
 1 9 4 227.78 14.99 0
 1 9 5 260.84 15.12 0
 1 9 6 40.32 8.57 0
 1 9 7 276.78 16.33 0
 1 9 8 35.6 8.5 0
 1 9 9 40.21 9.9 0
 1 9 10 17.33 7.65 0
 1 9 11 -2.09 8.05 0
 1 10 -8 237.28 16.14 0
 1 10 -7 84.86 12.3 0
 1 10 -6 11.94 7.55 0
 1 10 -5 25.14 8.18 0
 1 10 -4 27.02 8.04 0
 1 10 -3 65.09 11.23 0
 1 10 -2 139.71 12.62 0
 1 10 0 2.98 6.41 0
 1 10 1 7.56 7.01 0
 1 10 2 143.74 13.91 0
 1 10 3 61.78 10.52 0
 1 10 4 32.42 8.75 0
 1 10 5 33.45 8.8 0
 1 10 6 9.07 7.44 0
 1 10 7 85.15 11.91 0
 1 10 8 247.74 17.79 0
 1 10 9 33.11 9.54 0
 1 10 11 -1.51 7.46 0
 1 10 12 99.55 14.19 0
 1 11 -12 60.04 12.17 0
 1 11 -11 1.19 9.39 0
 1 11 -10 19.12 10.3 0
 1 11 -9 195.14 17.07 0
 1 11 -8 86.06 12.85 0
 1 11 -7 28.93 10.21 0
 1 11 -6 163.76 14.51 0
 1 11 -5 8.3 8.01 0
 1 11 -4 174.45 15.86 0
 1 11 -3 0.7 7.06 0
 1 11 -2 35.49 9.84 0
 1 11 -1 49 10.35 0
 1 11 0 8.15 8.53 0
 1 11 1 57.71 11 0
 1 11 2 30.78 9.31 0
 1 11 4 165.77 15.74 0
 1 11 6 155.51 15.27 0
 1 11 7 37.34 10.33 0
 1 11 8 82.14 13.04 0
 1 11 9 209.1 17.79 0
 1 11 10 17.3 10.51 0
 1 11 11 6.56 9.07 0
 1 12 -8 46.7 11.45 0
 1 12 -7 -3.97 8.25 0
 1 12 -6 16.3 9.15 0
 1 12 -5 71.52 13.38 0
 1 12 -4 48.59 11.38 0
 1 12 -3 229.76 17.54 0
 1 12 -2 64.26 12.25 0
 1 12 -1 16.08 9.75 0
 1 12 0 24.31 10.9 0
 1 12 1 20.23 9.5 0
 1 12 2 58.14 12.03 0
 1 12 3 213.72 17.63 0
 1 12 4 36.69 11.72 0
 1 12 6 19.53 9.23 0
 1 12 7 -6.83 8.08 0
 1 12 8 57.02 13.57 0
 2 -1 -6 1523.23 9.78 0
 2 0 -6 276.77 4.33 0
 2 1 -3 1720.25 11.18 0
 2 1 0 3.58 1.77 0
 2 1 1 467.84 8.35 0
 2 2 -2 1039.51 12.12 0
 2 2 -1 252.28 6.5 0
 2 2 0 4901.64 27.95 0
 2 2 2 1067.84 14.98 0
 2 2 4 132.77 6.65 0
 2 3 -3 1462.06 17.4 0
 2 3 -2 64.18 4.75 0
 2 3 -1 1205.44 16.24 0
 2 3 0 1398.95 17.85 0
 2 3 1 1194.58 17 0
 2 3 2 73.24 5.11 0
 2 3 3 1431.29 19.93 0
 2 3 4 1219.4 19.07 0
 2 3 5 100.73 6.38 0
 2 3 6 220.52 9.48 0
 2 4 -3 1614.71 21 0
 2 4 -2 397.26 10.76 0
 2 4 1 435.49 12.02 0
 2 4 2 384.9 11.47 0
 2 4 3 1669.43 23.84 0
 2 5 -2 248.12 10.17 0
 2 5 6 315.33 12.63 0
 2 5 7 64.35 7.31 0
 2 5 8 217.78 11.34 0
 2 5 9 122.07 10.02 0
 2 6 -5 85.19 7.35 0
 2 6 -4 142.05 9.1 0
 2 6 2 203.27 10.91 0
 2 6 4 143.12 10.15 0
 2 6 5 85.57 8.57 0
 2 6 9 414.7 16.72 0
 2 6 10 312.32 14.94 0
 2 7 -5 404.55 15.23 0
 2 7 -4 151.52 10.18 0
 2 7 -3 256.75 12.31 0
 2 7 -2 133.23 9.47 0
 2 7 -1 311.42 13.93 0
 2 7 0 94.76 8.45 0
 2 7 1 309.66 14.4 0
 2 7 2 131.44 9.69 0
 2 7 3 265.08 13.6 0
 2 7 5 400.48 16.24 0
 2 7 6 439.58 17.79 0
 2 7 7 141.76 10.63 0
 2 7 10 18.17 7.58 0
 2 8 -7 41.57 8.41 0
 2 8 -6 150.11 11.54 0
 2 8 -5 57.15 8.19 0
 2 8 -4 97.24 10.4 0
 2 8 -3 131.06 10.83 0
 2 8 -2 134.28 10.35 0
 2 8 -1 349.54 15.65 0
 2 8 0 48.15 7.87 0
 2 8 1 336.68 15.52 0
 2 8 2 138.51 11.44 0
 2 8 3 139.87 11.45 0
 2 8 4 93.22 9.73 0
 2 8 5 46.65 8.61 0
 2 8 6 140.67 12.18 0
 2 8 7 53.49 8.98 0
 2 8 8 21.73 7.83 0
 2 8 9 17.81 7.27 0
 2 8 10 46.04 9.16 0
 2 8 11 7.5 7.03 0
 2 9 -10 120.32 12.82 0
 2 9 -9 7.25 6.49 0
 2 9 -8 99.63 12.3 0
 2 9 -7 12.96 6.67 0
 2 9 -6 37.26 8.13 0
 2 9 -4 70.23 9.92 0
 2 9 -2 38.73 8.23 0
 2 9 -1 65.83 9.49 0
 2 9 0 29.56 8.32 0
 2 9 2 35.54 8.48 0
 2 9 4 80.39 11.21 0
 2 9 5 280.86 16.83 0
 2 9 6 35.8 9.23 0
 2 9 7 24.53 8.23 0
 2 9 8 101.61 11.74 0
 2 9 9 13.37 7.85 0
 2 9 10 141.1 13.52 0
 2 9 11 13.92 8.67 0
 2 10 -14 61.93 11.49 0
 2 10 -13 3.02 7.2 0
 2 10 -12 27.86 10.06 0
 2 10 -10 21.48 9.72 0
 2 10 -9 36.23 9.92 0
 2 10 -7 99.35 12.94 0
 2 10 -6 27.68 8.56 0
 2 10 -5 30.91 8.74 0
 2 10 -3 97.21 12.71 0
 2 10 -1 98.94 11.6 0
 2 10 1 89.85 11.74 0
 2 10 2 175.18 14.63 0
 2 10 4 13.37 8.3 0
 2 10 7 117.16 12.85 0
 2 10 8 23.5 8.87 0
 2 10 9 49.42 10.94 0
 2 10 10 34.27 9.78 0
 2 10 11 81.62 12.77 0
 2 11 -11 56.74 11.87 0
 2 11 -10 64.92 12.16 0
 2 11 -9 3.02 8.48 0
 2 11 -8 129.47 14.6 0
 2 11 -7 22.71 8.74 0
 2 11 -6 3.79 8.62 0
 2 11 -5 32.52 10.29 0
 2 11 -4 46.66 10.17 0
 2 11 -3 24.44 9.15 0
 2 11 -2 6.67 7.95 0
 2 11 -1 32.32 10.45 0
 2 11 2 9.17 9.66 0
 2 11 3 26.83 9.46 0
 2 11 4 52.31 11.67 0
 2 11 5 46.02 11.54 0
 2 11 6 -4.42 7.22 0
 2 11 7 37.43 10.7 0
 2 11 8 134.03 16.52 0
 2 11 9 0.31 9.47 0
 2 11 11 52.91 12.44 0
 2 12 -6 18.59 9.56 0
 2 12 -5 25.76 11.24 0
 2 12 -3 5.02 8.01 0
 2 12 -1 20.55 9.61 0
 2 12 1 21.9 9.63 0
 2 12 2 91.49 15.24 0
 2 12 3 2.29 7.79 0
 2 12 4 54.88 12.8 0
 2 12 5 32.49 10.91 0
 2 12 6 15.62 10.33 0
 3 1 -7 109.47 2.82 0
 3 1 -6 880.88 6.83 0
 3 1 -5 654.9 5.84 0
 3 1 -4 54.92 2.06 0
 3 2 -7 140 4.8 0
 3 2 -6 104.78 4.14 0
 3 2 -5 237.97 5.91 0
 3 2 -2 465.59 8.88 0
 3 2 -1 861.91 12.48 0
 3 2 0 334.03 8.36 0
 3 2 1 853.51 13.77 0
 3 2 2 480.02 11.04 0
 3 3 -7 241.38 7.53 0
 3 3 -6 141.03 5.87 0
 3 3 -5 1953.88 20.05 0
 3 3 -4 391.9 9.37 0
 3 3 -3 621.25 11.9 0
 3 3 -1 26.97 3.76 0
 3 3 0 27.38 4.1 0
 3 3 2 179.18 8.14 0
 3 3 3 623.31 14.39 0
 3 3 4 389.11 11.92 0
 3 4 -6 152.34 7.38 0
 3 4 -5 692.54 14.37 0
 3 4 -3 58.39 5.69 0
 3 4 -2 308.98 9.99 0
 3 4 -1 28.06 4.88 0
 3 4 0 68.7 5.82 0
 3 4 1 30.21 4.86 0
 3 4 6 146.32 9.26 0
 3 5 4 450.26 15.48 0
 3 5 6 232.72 12.14 0
 3 6 -9 2.07 4.54 0
 3 6 -8 4.24 5.01 0
 3 6 -7 0.38 3.7 0
 3 6 -6 89.31 8.23 0
 3 6 -5 245.18 11.61 0
 3 6 -4 304.63 12.84 0
 3 6 -3 46.18 6.49 0
 3 6 -2 51.69 6.75 0
 3 6 -1 350.71 13.78 0
 3 6 0 134.43 9.12 0
 3 6 1 347.68 14 0
 3 6 3 63.27 7.84 0
 3 6 5 236.17 12.35 0
 3 6 6 94.94 9.97 0
 3 6 8 5.94 5.29 0
 3 7 -11 70.59 8.4 0
 3 7 -10 51.79 8.19 0
 3 7 -9 51.23 7.56 0
 3 7 -8 52.34 7.49 0
 3 7 -7 523.43 17.58 0
 3 7 -6 168.3 11.27 0
 3 7 -5 17.82 5.54 0
 3 7 -4 25.91 6.6 0
 3 7 -2 194.68 12.01 0
 3 7 -1 365.06 15.51 0
 3 7 0 6.54 5.17 0
 3 7 1 375.23 16.09 0
 3 7 2 215.11 12.66 0
 3 7 3 79.68 9.42 0
 3 7 4 19.96 6.05 0
 3 7 5 27.05 7 0
 3 7 6 167.85 12.63 0
 3 7 7 521.97 20.01 0
 3 7 9 54.75 9.94 0
 3 8 -15 108.23 10.9 0
 3 8 -14 74.25 9.25 0
 3 8 -12 137.88 12.04 0
 3 8 -11 115.73 11.48 0
 3 8 -10 64.97 9.58 0
 3 8 -8 173.87 12.19 0
 3 8 -7 32.74 7.67 0
 3 8 -6 -0.1 6.01 0
 3 8 -5 107.41 10.27 0
 3 8 -4 29.13 6.98 0
 3 8 -2 115.34 10.62 0
 3 8 -1 7.94 5.73 0
 3 8 0 612.04 21.13 0
 3 8 1 5.13 6.66 0
 3 8 2 105.35 11.5 0
 3 8 3 84.44 10.44 0
 3 8 6 -1.09 5.94 0
 3 8 7 30.65 8.2 0
 3 8 8 162.64 13.6 0
 3 8 9 70.9 10.22 0
 3 8 10 67.86 10.75 0
 3 9 -14 14.05 7.83 0
 3 9 -13 -4.6 5.77 0
 3 9 -11 76.66 10.32 0
 3 9 -10 9.35 6.44 0
 3 9 -9 6.87 6.6 0
 3 9 -8 167.11 13.6 0
 3 9 -7 192.97 14.11 0
 3 9 -6 68.34 9.65 0
 3 9 -5 259.36 14.98 0
 3 9 -4 157.6 12.47 0
 3 9 -3 5.19 6.42 0
 3 9 -2 25.46 8.89 0
 3 9 -1 0.01 5.99 0
 3 9 1 -2.68 5.82 0
 3 9 2 23.42 8 0
 3 9 3 -2.28 7.1 0
 3 9 4 145.69 13.66 0
 3 9 5 276.72 16.5 0
 3 9 7 179.91 15.46 0
 3 9 9 4.64 7.81 0
 3 9 10 18.55 8.86 0
 3 10 -13 1.35 7.07 0
 3 10 -12 50.76 10.13 0
 3 10 -11 36.27 9.33 0
 3 10 -10 129.8 13.2 0
 3 10 -9 66.97 10.84 0
 3 10 -8 29.54 9.47 0
 3 10 -7 16.67 7.78 0
 3 10 -6 38.84 10.3 0
 3 10 -5 30.4 9.4 0
 3 10 -4 82.78 11.61 0
 3 10 -3 175.81 14.74 0
 3 10 -2 139.63 13.84 0
 3 10 -1 47.56 11.12 0
 3 10 0 98.6 12.44 0
 3 10 1 47.2 10.01 0
 3 10 2 155.28 15.06 0
 3 10 3 174.79 14.58 0
 3 10 5 31.89 10.06 0
 3 10 6 49.96 10.71 0
 3 10 7 15.86 9.11 0
 3 10 8 31.36 10.7 0
 3 11 -10 64.87 12.07 0
 3 11 -8 19.6 9.7 0
 3 11 -6 20.62 9.27 0
 3 11 -5 17.23 8.47 0
 3 11 -3 8.73 8.56 0
 3 11 -2 42.51 10.97 0
 3 11 0 141.55 15.84 0
 3 11 1 126.11 15.07 0
 3 11 3 26.19 10.3 0
 3 11 5 -0.95 8.06 0
 3 11 6 33.92 11.08 0
 3 11 7 101.56 14.22 0
 3 11 9 18.77 11.05 0
 3 12 -4 31.84 10.75 0
 3 12 -1 90.39 14.81 0
 3 12 1 105.23 15.58 0
 3 12 2 -8.38 9 0
 4 2 -7 209.32 4.14 0
 4 2 -6 367.92 5.92 0
 4 2 -5 297.68 5.87 0
 4 2 -4 2.23 1.57 0
 4 2 -3 351.33 7.6 0
 4 3 -7 232.39 6.74 0
 4 3 -6 194.1 6.36 0
 4 3 -3 369.18 9.49 0
 4 3 -2 24.94 3.68 0
 4 3 0 1157.2 18.25 0
 4 3 1 172.54 8.23 0
 4 4 -6 59.02 5.03 0
 4 4 -5 21.04 3.74 0
 4 4 -4 86.19 5.97 0
 4 4 -2 160.95 7.7 0
 4 4 3 53.92 6.97 0
 4 5 0 110.37 7.95 0
 4 5 1 56.54 6.52 0
 4 5 3 64.08 7.46 0
 4 5 4 366.26 14.25 0
 4 5 5 87.75 9.02 0
 4 6 -10 -1.32 3.02 0
 4 6 -9 34.81 5.74 0
 4 6 -8 115.37 8.5 0
 4 6 -7 46.82 6.63 0
 4 6 -6 5.04 3.94 0
 4 6 -5 15.96 4.93 0
 4 6 -4 63.8 6.79 0
 4 6 -3 25.53 5.97 0
 4 6 -2 25.56 6.19 0
 4 6 -1 138.71 9.68 0
 4 6 0 19.47 5.63 0
 4 6 1 139.07 9.75 0
 4 6 2 18.83 5.84 0
 4 6 3 24.44 6.27 0
 4 6 5 19.47 6.85 0
 4 6 6 3.17 5.45 0
 4 7 -10 124.87 8.95 0
 4 7 -9 49.82 7.57 0
 4 7 -8 111.19 9.22 0
 4 7 -7 242 12.15 0
 4 7 -6 100.32 8.62 0
 4 7 -5 149.06 10.65 0
 4 7 -4 0.78 5.56 0
 4 7 -3 85.25 8.65 0
 4 7 -2 271.09 13.82 0
 4 7 -1 222.34 12.24 0
 4 7 1 229.15 13.62 0
 4 7 2 273.25 14.18 0
 4 7 3 94.47 9.98 0
 4 7 4 7.2 6.72 0
 4 7 5 156.14 12.32 0
 4 7 6 113.7 10.88 0
 4 7 7 249.43 16 0
 4 8 -10 73.16 8.98 0
 4 8 -9 110.96 10.13 0
 4 8 -8 1.84 5.88 0
 4 8 -7 50.13 8.02 0
 4 8 -5 19.6 6.31 0
 4 8 -4 129.81 10.6 0
 4 8 -2 128.91 11.66 0
 4 8 -1 37.1 8.18 0
 4 8 0 106.17 10.47 0
 4 8 1 33.21 8.72 0
 4 8 2 137 11.82 0
 4 8 3 60.09 10.02 0
 4 8 4 127.63 12.27 0
 4 8 7 43.06 9.42 0
 4 8 8 3.39 7.43 0
 4 9 -11 105.28 10.64 0
 4 9 -10 42.37 8.07 0
 4 9 -9 110.27 11.01 0
 4 9 -6 28.7 8.07 0
 4 9 -5 304.68 16.07 0
 4 9 -4 19.57 7.48 0
 4 9 -3 114.19 11.76 0
 4 9 -2 12.62 6.98 0
 4 9 0 390.42 19.23 0
 4 9 2 7.09 7.12 0
 4 9 3 111.6 13.34 0
 4 9 5 307.36 18.38 0
 4 9 6 28.74 9.37 0
 4 9 8 13 8.49 0
 4 10 -10 16.83 7.33 0
 4 10 -9 70.99 11.1 0
 4 10 -8 50.49 10.53 0
 4 10 -7 181.1 14.67 0
 4 10 -6 174.61 14.39 0
 4 10 -4 33.83 9.07 0
 4 10 -2 42.8 9.49 0
 4 10 -1 11.24 8.05 0
 4 10 0 88.02 11.98 0
 4 10 1 18.71 8.3 0
 4 10 2 35.37 10.3 0
 4 10 3 16.57 9.67 0
 4 10 5 34.96 10.38 0
 4 10 7 158 14.9 0
 4 10 8 58.26 12.71 0
 4 11 -8 21.1 8.4 0
 4 11 -7 126.95 13.27 0
 4 11 -6 131.27 14.41 0
 4 11 -5 273.6 18.29 0
 4 11 -4 130.21 14.01 0
 4 11 -3 27.36 9.47 0
 4 11 -2 38.19 10.96 0
 4 11 -1 33.43 10.31 0
 4 11 0 15.81 8.83 0
 4 11 1 26.83 9.59 0
 4 11 2 39.49 11.01 0
 4 11 3 28.89 10.27 0
 4 11 4 115 15.56 0
 4 11 5 281.24 19.58 0
 5 4 -3 29.21 4.27 0
 5 5 -4 55.07 5.72 0
 5 5 -3 169.83 8.97 0
 5 5 -2 45.72 6.18 0
 5 5 -1 643.54 16.92 0
 5 5 0 45.53 6.52 0
 5 5 1 649.98 17.84 0
 5 6 -5 250.24 10.99 0
 5 6 -4 108.97 8.37 0
 5 6 -3 68.39 7.67 0
 5 6 -2 105.77 8.81 0
 5 6 -1 40.88 6.55 0
 5 6 0 529.19 17.1 0
 5 6 1 40.96 7.17 0
 5 6 2 96.7 9.97 0
 5 6 3 71.47 8.97 0
 5 7 -5 6.67 4.66 0
 5 7 -3 117.15 10.04 0
 5 7 -2 192.4 12.21 0
 5 7 -1 90.16 10.25 0
 5 7 0 268.31 14.37 0
 5 7 1 68.23 9.27 0
 5 7 2 196.85 12.53 0
 5 7 4 92.7 11.41 0
 5 8 -6 16.77 5.8 0
 5 8 -4 126.05 10.86 0
 5 8 -3 126.54 11.47 0
 5 8 -2 44.95 9.04 0
 5 8 -1 200.93 13.96 0
 5 8 0 78.91 10.67 0
 5 8 2 30.49 8.97 0
 5 8 3 126.07 12.64 0
 5 8 4 127.9 11.95 0
 5 8 5 47.67 9.6 0
 5 9 -6 166.26 12.09 0
 5 9 -4 17.32 6.76 0
 5 9 -2 30.29 8.28 0
 5 9 -1 64.43 9.95 0
 5 9 0 22.29 7.87 0
 5 9 1 71.18 10.59 0
 5 9 3 77.65 11.4 0
 5 9 4 23.8 8.43 0
 5 9 5 14.23 8.33 0
 5 10 -6 40.28 8.61 0
 5 10 -5 10.94 7.25 0
 5 10 -3 68.34 10.36 0
 5 10 -2 46.5 10.21 0
 5 10 1 100.31 12.66 0
 5 10 2 41.26 9.56 0
 5 10 3 88.09 12.4 0
 6 7 -1 113.96 9.3 0
 6 8 -1 32.15 7.03 0
 6 9 -1 5.04 5.96 0
 6 9 0 0.31 6.97 0
 6 9 1 7.79 7.01 0
 -1 -3 2 233.31 3.31 0
 -1 -1 0 5788.34 18.74 0
 0 -6 6 88.15 2.3 0
 0 -6 6 84.84 2.21 0
 0 -5 6 -0.23 0.58 0
 0 -5 7 33.19 1.29 0
 0 -4 5 601.59 5.79 0
 0 -4 6 349.55 4.39 0
 0 -4 7 1262.22 8.72 0
 0 -4 8 845.78 7.81 0
 0 -4 9 49.82 2.37 0
 0 -3 5 5.91 0.99 0
 0 -3 6 55.32 2.14 0
 0 -3 7 452.99 6.14 0
 0 -3 8 23.23 2 0
 0 -3 9 919.14 10.52 0
 0 -2 4 7272.22 18.13 0
 0 -2 5 567 6.13 0
 0 -2 6 3099.55 15.99 0
 0 -2 7 1002.11 10.34 0
 0 -2 8 10.85 1.84 0
 0 -2 9 8.17 1.9 0
 0 -1 3 2046.86 9.26 0
 0 -1 4 4794.7 17.1 0
 0 -1 5 408.71 6.01 0
 0 -1 6 536.8 7.75 0
 0 -1 7 2243.83 17.34 0
 0 -1 8 56.5 3.75 0
 0 -1 9 52.65 3.6 0
 0 0 2 1310.35 7.39 0
 0 0 3 1.06 1.2 0
 0 0 4 5248.7 21.62 0
 0 0 5 3.01 1.98 0
 0 0 6 380.6 7.66 0
 0 0 7 -2.89 1.75 0
 0 0 8 112.14 5.05 0
 1 -8 6 71.85 4.13 0
 1 -7 6 52.96 3.64 0
 1 -7 7 338.98 7.56 0
 1 -7 8 122.23 4.48 0
 1 -6 6 264.97 6.89 0
 1 -6 7 133.91 4.95 0
 1 -6 8 117.95 4.64 0
 1 -6 9 115.14 4.46 0
 1 -6 10 6.92 1.77 0
 1 -5 6 188.82 5.67 0
 1 -5 7 830.92 11.47 0
 1 -5 8 1272.06 14.12 0
 1 -5 9 519.47 9.27 0
 1 -5 10 92.03 4.4 0
 1 -5 11 202.32 6.23 0
 1 -5 12 84.16 4.47 0
 1 -5 13 46.2 3.64 0
 1 -4 6 441.26 8.2 0
 1 -4 7 167.16 5.44 0
 1 -4 8 243.55 6.55 0
 1 -4 9 336.84 7.87 0
 1 -4 10 13.4 2.67 0
 1 -4 11 126.92 5.44 0
 1 -4 12 315.72 8.57 0
 1 -4 13 94.02 5.25 0
 1 -3 5 185.2 5.13 0
 1 -3 7 209.2 5.97 0
 1 -3 8 1955.88 18.11 0
 1 -3 9 684 11.38 0
 1 -3 10 479.54 10.13 0
 1 -3 11 45.41 4.32 0
 1 -3 12 102.18 5.77 0
 1 -3 13 361.05 10.11 0
 1 -2 4 2601.88 17.38 0
 1 -2 5 743.86 10.05 0
 1 -2 6 435.55 8.28 0
 1 -2 7 1039.35 12.91 0
 1 -2 8 986.57 13.51 0
 1 -2 9 174.14 6.42 0
 1 -2 10 113.86 5.65 0
 1 -2 11 458.8 10.81 0
 1 -2 12 635.98 13.51 0
 1 -2 13 464.75 12.24 0
 1 -2 15 71.33 6.4 0
 1 -1 3 203.85 4.98 0
 1 -1 5 1900.03 15.87 0
 1 -1 6 2487.79 19.37 0
 1 -1 8 1011.99 14.36 0
 1 -1 9 238.1 7.52 0
 1 -1 10 951.94 15.44 0
 1 -1 11 427 11.05 0
 1 -1 12 19.52 3.89 0
 1 0 1 2774.58 14.43 0
 1 0 4 -0.64 2.1 0
 1 0 5 4130.51 24.37 0
 1 0 6 2310.15 19.76 0
 1 0 7 294.05 7.97 0
 1 0 8 40.13 4.18 0
 1 0 9 783.55 13.94 0
 1 0 10 283.84 9.28 0
 1 0 11 114.53 6.88 0
 1 0 14 192.12 9.63 0
 1 1 0 5650.28 18.59 0
 1 1 1 2673.65 14.53 0
 1 1 2 1690.87 12.75 0
 1 1 4 447.17 8.22 0
 1 1 5 1829.23 17.44 0
 1 1 6 2384.2 21.24 0
 1 1 7 298.18 8.45 0
 1 1 8 1019.22 16 0
 1 1 9 236.26 8.53 0
 1 1 10 1019.44 17.94 0
 1 2 -6 427.86 5.12 0
 1 2 -1 6788.73 18.45 0
 1 2 0 153.49 3.64 0
 1 2 1 6663.98 24.76 0
 1 2 2 3990.44 21.49 0
 1 2 3 1458.73 14.34 0
 1 2 4 2629.57 20.79 0
 1 2 5 737.46 12.1 0
 1 2 7 1037.35 16.16 0
 1 2 9 179.22 7.92 0
 1 3 -1 49.75 2.27 0
 1 3 0 5.35 1.46 0
 1 3 1 56.61 3.3 0
 1 3 2 231.14 6.1 0
 1 3 3 189.01 6.08 0
 1 3 5 196.11 7.16 0
 1 3 6 309.23 9.04 0
 2 -7 7 144.31 6.52 0
 2 -7 8 62.79 4.99 0
 2 -7 9 61.39 4.78 0
 2 -7 10 21.78 3.51 0
 2 -6 6 199.55 7.73 0
 2 -6 7 115.55 5.93 0
 2 -6 8 194.78 7.52 0
 2 -6 9 405.38 10.5 0
 2 -6 10 315.27 9.35 0
 2 -6 11 54.95 4.7 0
 2 -5 6 299.88 8.98 0
 2 -5 7 59.1 4.72 0
 2 -5 8 203.69 7.6 0
 2 -5 9 129.66 6.34 0
 2 -5 11 32.42 4.07 0
 2 -5 15 17.06 3.87 0
 2 -4 6 696.6 12.81 0
 2 -4 8 360.33 9.8 0
 2 -4 9 252.62 8.58 0
 2 -4 10 104.98 6.13 0
 2 -4 11 -1.14 2.96 0
 2 -4 14 53.91 5.27 0
 2 -4 15 234.13 9.77 0
 2 -4 16 211.4 9.59 0
 2 -4 17 64.8 6.4 0
 2 -3 5 94.72 5.02 0
 2 -3 6 226.15 7.61 0
 2 -3 7 591.79 12.12 0
 2 -3 8 333.84 9.37 0
 2 -3 9 559.76 12.35 0
 2 -3 10 289.86 9.57 0
 2 -3 14 71.72 5.93 0
 2 -3 15 28.98 5 0
 2 -3 16 91.02 7.53 0
 2 -3 17 27.77 5.43 0
 2 -3 18 16.83 4.58 0
 2 -2 4 126.16 5.44 0
 2 -2 5 118.99 5.54 0
 2 -2 6 53.47 4.32 0
 2 -2 7 27.81 3.51 0
 2 -2 8 317.49 9.37 0
 2 -2 9 267.16 8.79 0
 2 -2 10 210.1 8.35 0
 2 -2 14 35.22 5.27 0
 2 -2 15 136.83 8.83 0
 2 -2 16 148.66 9.38 0
 2 -2 17 161.57 9.45 0
 2 -2 18 32.81 6.04 0
 2 -1 4 797.98 12.33 0
 2 -1 5 400.72 9.27 0
 2 -1 6 1539.69 18.72 0
 2 -1 7 322.74 9 0
 2 -1 9 185.98 7.57 0
 2 -1 10 171.36 8.1 0
 2 -1 13 22.9 4.84 0
 2 -1 14 10.91 3.92 0
 2 -1 16 8.29 4.41 0
 2 -1 17 215.82 11.19 0
 2 0 2 0.74 1.75 0
 2 0 3 25.86 3.11 0
 2 0 4 1040.14 14.37 0
 2 0 5 1048.82 15.06 0
 2 0 7 138.63 6.33 0
 2 0 8 10.44 2.85 0
 2 0 9 61.13 5.41 0
 2 0 12 122.2 7.5 0
 2 0 13 336.19 12.52 0
 2 0 15 139.05 9.42 0
 2 0 16 220.89 11.61 0
 2 1 0 2.68 2.08 0
 2 1 1 464.78 8.35 0
 2 1 2 477.14 8.98 0
 2 1 4 759.94 12.25 0
 2 1 5 402.17 9.69 0
 2 1 6 1492.19 18.91 0
 2 1 8 57.76 4.9 0
 2 1 9 189.47 8.16 0
 2 1 12 603.77 16.04 0
 2 1 16 1.15 4.14 0
 2 2 -1 237 5.5 0
 2 2 0 5003.82 25.29 0
 2 2 1 250.11 6.52 0
 2 2 2 1013.67 13.11 0
 2 2 3 320.8 8.24 0
 2 2 5 116.02 5.56 0
 2 2 11 65.16 6.29 0
 2 2 12 143.03 8.64 0
 2 2 15 152.41 10.41 0
 2 3 -5 90.81 2.27 0
 2 3 -4 1191.47 8.56 0
 2 3 -3 1464.22 10.54 0
 2 3 -2 64.72 2.75 0
 2 3 -1 1172.79 11.59 0
 2 3 0 1348.14 13.46 0
 2 3 1 1202.44 13.77 0
 2 3 2 68.46 4.24 0
 2 3 3 1449.46 17.24 0
 2 3 7 594.15 13.77 0
 2 3 10 300.33 11.79 0
 2 3 11 1.78 3.6 0
 2 3 12 19.69 4.99 0
 2 3 13 43.83 6.65 0
 2 3 14 79.25 7.76 0
 2 4 -3 1641.32 10.67 0
 2 4 -2 402.08 6.36 0
 2 4 -1 438.07 7.44 0
 2 4 0 69.53 3.66 0
 2 4 1 436.7 8.82 0
 2 4 4 267.71 8.55 0
 2 4 6 695.41 15.08 0
 2 4 9 249.18 10.55 0
 2 4 10 96.04 7.54 0
 2 4 11 4.88 4.23 0
 2 4 12 26.57 5.43 0
 2 5 2 235.42 7.55 0
 2 5 3 738.48 13.93 0
 2 5 4 627 13.57 0
 3 -9 6 70.72 6.44 0
 3 -9 7 185.87 9.14 0
 3 -8 6 5.08 3.74 0
 3 -8 7 34.76 5.21 0
 3 -8 9 87.42 6.73 0
 3 -7 6 168.35 8.69 0
 3 -7 7 509.65 13.79 0
 3 -7 8 44.43 5.38 0
 3 -7 9 52.07 6.17 0
 3 -7 10 66.47 6.27 0
 3 -7 11 58.51 5.83 0
 3 -6 7 1.57 3.57 0
 3 -6 8 5.33 3.38 0
 3 -6 9 9.39 3.77 0
 3 -6 10 60.16 6.11 0
 3 -6 11 483.78 13.72 0
 3 -6 12 32.8 5.03 0
 3 -6 13 44.42 5.45 0
 3 -5 9 357.49 11.96 0
 3 -5 10 5.58 3.61 0
 3 -5 11 300.98 11 0
 3 -5 12 53.72 5.94 0
 3 -5 13 198.38 9.77 0
 3 -5 15 51.27 6.19 0
 3 -4 10 153 8.49 0
 3 -4 11 28.27 4.97 0
 3 -4 12 0.69 3.58 0
 3 -4 13 278.65 11.51 0
 3 -4 14 101.2 7.49 0
 3 -4 16 200.17 10.41 0
 3 -4 17 102.34 8.34 0
 3 -3 5 1950.66 24.31 0
 3 -3 10 12.15 3.93 0
 3 -3 11 30.72 5.08 0
 3 -3 12 17.97 4.58 0
 3 -3 14 46.07 6.64 0
 3 -3 15 50.49 7.13 0
 3 -3 16 49.97 7.05 0
 3 -3 17 148.86 10.14 0
 3 -3 18 19.52 5.91 0
 3 -3 19 33.13 6.23 0
 3 -2 4 178.31 7.48 0
 3 -2 5 222.88 8.37 0
 3 -2 6 114.8 6.44 0
 3 -2 7 140.55 7.59 0
 3 -2 10 139.42 8.11 0
 3 -2 12 238.58 10.76 0
 3 -2 13 101.99 8.19 0
 3 -2 14 123.63 9.17 0
 3 -2 15 24.4 5.52 0
 3 -2 16 97.28 8.31 0
 3 -2 17 114.48 9.65 0
 3 -2 18 96.92 9.2 0
 3 -2 19 29.16 6.38 0
 3 -2 20 78.23 9.53 0
 3 -1 5 644.59 13.75 0
 3 -1 6 871.55 16.49 0
 3 -1 7 120.07 7.33 0
 3 -1 11 140.91 8.56 0
 3 -1 13 195.28 10.38 0
 3 -1 14 9.01 4.47 0
 3 -1 15 111.61 9.19 0
 3 -1 16 85.03 8.29 0
 3 -1 17 57.22 8.11 0
 3 -1 18 15.58 6.67 0
 3 -1 19 25.57 6.23 0
 3 0 3 0.29 2.29 0
 3 0 7 3.66 2.95 0
 3 0 10 36 5.07 0
 3 0 11 59.22 6.7 0
 3 0 12 206.22 10.2 0
 3 0 13 0.32 4.35 0
 3 0 14 204.12 10.98 0
 3 0 15 61.43 7.18 0
 3 0 16 139.86 10.36 0
 3 0 17 319.71 15.22 0
 3 0 18 65.06 8.88 0
 3 0 19 1.55 5.57 0
 3 1 0 719.74 12.3 0
 3 1 2 1281.35 17.29 0
 3 1 10 589.68 15.9 0
 3 1 12 223.53 10.98 0
 3 1 13 213.07 11.11 0
 3 1 14 4.81 4.42 0
 3 1 15 112.29 9.24 0
 3 1 16 95.35 9.24 0
 3 1 17 52.15 8.11 0
 3 1 18 7.72 6.46 0
 3 2 -3 518.21 9.55 0
 3 2 -2 464.63 9.15 0
 3 2 5 245.46 9.08 0
 3 2 6 109.54 6.53 0
 3 2 9 320.33 11.73 0
 3 2 11 253.53 11.59 0
 3 2 12 258.26 12.34 0
 3 2 13 95.2 8.04 0
 3 2 14 122.91 10.17 0
 3 2 15 28.25 6.61 0
 3 2 16 98.95 9.51 0
 3 2 18 74.64 9.35 0
 3 3 -4 385.52 7.5 0
 3 3 -3 615.64 9.79 0
 3 3 3 635.22 13.02 0
 3 3 4 390.27 10.78 0
 3 3 5 1936.67 24.69 0
 3 3 9 833.29 18.93 0
 3 3 10 15.82 4.65 0
 3 3 11 34.29 6.34 0
 3 3 12 25.92 5.63 0
 3 3 16 54.06 8.18 0
 3 4 -7 284.02 3.77 0
 3 4 -6 151.48 3.44 0
 3 4 -5 712.52 8.27 0
 3 4 -4 195.18 4.91 0
 3 4 0 74.67 4.51 0
 3 4 1 28.11 3.65 0
 3 4 2 299.06 9.01 0
 3 4 3 56.49 4.79 0
 3 4 4 210.31 8.38 0
 3 4 7 276.52 10.9 0
 3 4 8 58.55 6.14 0
 3 4 11 22.55 5.73 0
 3 4 12 -0.96 4.78 0
 3 4 13 254.61 13.58 0
 3 4 14 103.15 10.22 0
 3 4 15 186.59 12.61 0
 3 5 -1 330.18 8.04 0
 3 5 1 324.51 9.15 0
 3 5 2 791.15 14.69 0
 3 5 3 224.76 8.57 0
 3 5 6 218.4 10.05 0
 3 5 7 117.03 8.37 0
 3 5 8 84.69 7.15 0
 3 5 9 320.98 13.23 0
 3 5 10 6.86 4.49 0
 3 5 11 316.22 13.94 0
 3 5 13 198.82 12.24 0
 3 6 -1 339.35 8.13 0
 3 6 0 136.28 5.83 0
 3 6 1 341.23 9.55 0
 3 6 2 46.96 4.9 0
 3 6 5 252.95 10.43 0
 3 6 6 89.7 7.5 0
 3 6 7 3.81 4.2 0
 3 6 8 11.78 5.33 0
 3 6 9 2.7 4.23 0
 4 -10 5 22.71 5.54 0
 4 -9 6 33.84 6.07 0
 4 -9 7 68.2 7.66 0
 4 -8 6 5.58 4.03 0
 4 -8 7 50.85 6.99 0
 4 -8 8 11.48 4.5 0
 4 -8 9 104.92 8.3 0
 4 -8 10 65.31 7.73 0
 4 -7 6 112.7 9.02 0
 4 -7 7 243.76 11.34 0
 4 -7 8 98.66 8.16 0
 4 -7 9 67.5 8.03 0
 4 -7 10 104.8 8.65 0
 4 -7 11 295.8 12.54 0
 4 -7 12 141.34 9.32 0
 4 -6 6 5.25 4.08 0
 4 -6 8 122.43 8.77 0
 4 -6 9 34.68 5.78 0
 4 -6 10 4.44 4.78 0
 4 -6 11 66.99 8.03 0
 4 -6 14 30.84 5.96 0
 4 -5 6 382.56 13.71 0
 4 -5 7 95.64 7.45 0
 4 -5 9 166.46 9.65 0
 4 -5 12 71.59 8.22 0
 4 -5 13 33.74 6 0
 4 -5 15 10.79 4.65 0
 4 -4 6 65.15 6.91 0
 4 -4 9 3.12 3.83 0
 4 -4 10 10.27 4.5 0
 4 -4 11 89.98 8.15 0
 4 -4 12 112.68 8.54 0
 4 -4 13 220.44 11.86 0
 4 -4 14 52.43 7.57 0
 4 -4 15 52.85 7.63 0
 4 -4 17 40.01 6.45 0
 4 -4 18 152.24 10.66 0
 4 -3 5 55.16 5.82 0
 4 -3 6 192.8 9.49 0
 4 -3 7 254.14 11.26 0
 4 -3 8 551.73 15.89 0
 4 -3 9 549.81 16.37 0
 4 -3 12 252.53 11.94 0
 4 -3 13 187.7 10.82 0
 4 -3 14 349.02 14.43 0
 4 -3 15 74.53 8.56 0
 4 -3 16 18.72 5.92 0
 4 -3 17 25.13 7.04 0
 4 -3 18 20.83 6.23 0
 4 -3 19 89.48 9.45 0
 4 -2 6 383.87 12.66 0
 4 -2 8 14.89 4.67 0
 4 -2 9 176.78 9.94 0
 4 -2 10 11.24 4.95 0
 4 -2 11 110.76 9.06 0
 4 -2 12 88.48 8.57 0
 4 -2 13 19.34 5.32 0
 4 -2 15 320.39 14.84 0
 4 -2 16 108.06 10.11 0
 4 -2 17 6.49 5.17 0
 4 -2 18 24.1 6.96 0
 4 -2 19 32.39 6.99 0
 4 -2 21 57.91 8.3 0
 4 -1 6 269.83 10.96 0
 4 -1 7 1661.59 26.44 0
 4 -1 8 232.9 10.77 0
 4 -1 9 691.62 18.07 0
 4 -1 10 4.92 3.85 0
 4 -1 11 196.58 10.68 0
 4 -1 12 47.53 7.23 0
 4 -1 15 160.75 10.79 0
 4 -1 16 148 11.16 0
 4 -1 17 17.66 7.09 0
 4 -1 19 137.3 11.73 0
 4 -1 20 5.17 6.14 0
 4 -1 21 16.19 6.32 0
 4 0 1 111.64 6.78 0
 4 0 6 13.76 4.01 0
 4 0 7 53.9 5.88 0
 4 0 9 454.48 14.92 0
 4 0 10 647.7 17.9 0
 4 0 11 361.24 14.37 0
 4 0 12 8.5 4.57 0
 4 0 13 105.69 8.74 0
 4 0 14 83.86 9.68 0
 4 0 15 42.92 8.39 0
 4 0 16 327.61 15.98 0
 4 0 17 4.45 5.63 0
 4 0 19 22.27 6.93 0
 4 0 20 4.03 5.87 0
 4 1 -1 53.83 4.82 0
 4 1 0 48.92 4.69 0
 4 1 1 44.49 4.47 0
 4 1 6 261.92 10.75 0
 4 1 7 1623.24 25.89 0
 4 1 8 235.35 10.53 0
 4 1 9 694.84 18.26 0
 4 1 10 1.06 4.18 0
 4 1 11 194.84 11.34 0
 4 1 12 45.62 6.77 0
 4 1 13 317.03 14.73 0
 4 1 15 147.22 11.92 0
 4 1 16 155.86 12.46 0
 4 1 17 24.41 7.2 0
 4 1 18 31.97 7.62 0
 4 1 19 149.93 12.35 0
 4 1 20 -0.49 5.7 0
 4 2 -4 1.59 2.53 0
 4 2 -3 351.9 9.55 0
 4 2 -2 249.27 8.41 0
 4 2 -1 -1.03 2.23 0
 4 2 0 643.89 13.64 0
 4 2 1 2.8 3.02 0
 4 2 7 218.03 10.36 0
 4 2 8 18.33 4.63 0
 4 2 10 8.09 4.48 0
 4 2 12 111.61 9.05 0
 4 2 13 13.39 5.98 0
 4 2 14 176.59 11.92 0
 4 2 15 335.82 16.03 0
 4 2 17 18.7 6.83 0
 4 2 18 32.15 7.95 0
 4 2 19 34.29 9.09 0
 4 3 -7 241.89 6.98 0
 4 3 -5 62.42 4.03 0
 4 3 -4 849.27 13.65 0
 4 3 -3 348.65 9.18 0
 4 3 -2 27.21 3.56 0
 4 3 -1 167.29 7.01 0
 4 3 0 1206.45 18.4 0
 4 3 1 157.11 7.29 0
 4 3 2 20.75 3.9 0
 4 3 7 247.34 10.97 0
 4 3 8 549.61 16.58 0
 4 3 9 550.27 16.9 0
 4 3 10 461.4 16.23 0
 4 3 11 12.54 5.18 0
 4 3 12 260.19 13.4 0
 4 3 13 197.49 12.67 0
 4 3 14 319.05 15.24 0
 4 3 15 74.64 10.11 0
 4 3 16 21.55 6.83 0
 4 3 17 24.36 7.69 0
 4 3 18 20.07 7.26 0
 4 4 -5 23.2 2.55 0
 4 4 -4 93.51 4.66 0
 4 4 -3 64.79 4.24 0
 4 4 -2 168.92 6.55 0
 4 4 -1 293.98 8.83 0
 4 4 0 12.62 3.1 0
 4 4 1 293.72 9.56 0
 4 4 8 67.75 7.41 0
 4 4 9 3.21 4 0
 4 4 12 115.48 9.83 0
 4 4 13 208.47 12.78 0
 4 4 14 44.69 8.02 0
 4 4 16 20.74 8.36 0
 4 4 17 45.56 8.59 0
 4 5 -1 64.46 4.55 0
 4 5 0 115.53 6.25 0
 4 5 4 362.51 12.47 0
 4 5 5 99.77 7.35 0
 4 5 6 405.22 14.2 0
 4 5 7 107.2 8.18 0
 4 5 8 557.89 17.31 0
 4 5 10 463.68 17.38 0
 4 5 11 403.3 16.62 0
 4 5 12 55.37 7.81 0
 4 5 14 101.29 11.37 0
 4 5 15 8.83 7.28 0
 4 6 3 19.99 4.15 0
 4 6 4 72.25 6.29 0
 4 6 5 18.76 4.69 0
 4 6 6 7.25 4.26 0
 4 6 7 44.62 6.51 0
 4 6 8 106.94 9 0
 4 6 10 -2.35 4.38 0
 4 6 11 61.93 9.14 0
 4 6 12 81.43 9.45 0
 4 7 3 88.79 6.85 0
 4 7 4 1.01 3.84 0
 4 7 5 140.07 8.94 0
 4 7 6 105.69 8.62 0
 4 7 7 250.03 12.16 0
 4 7 8 98.95 9.06 0
 5 -10 4 138.25 11.09 0
 5 -10 5 5.94 5.05 0
 5 -9 5 13.33 5.66 0
 5 -9 6 178.72 11.83 0
 5 -9 7 34.4 7.12 0
 5 -9 8 16.52 6.13 0
 5 -8 5 35.93 6.83 0
 5 -8 6 7.6 5.51 0
 5 -8 7 94.81 9.54 0
 5 -8 8 33.39 7.41 0
 5 -8 9 22.27 5.99 0
 5 -8 10 37.34 6.42 0
 5 -7 5 1.14 4.92 0
 5 -7 6 54.16 8.28 0
 5 -7 7 65.43 8.49 0
 5 -7 8 123.78 10.35 0
 5 -7 9 -5.38 4.4 0
 5 -7 10 138.06 10.73 0
 5 -7 11 42.29 7.26 0
 5 -7 12 156.74 10.59 0
 5 -6 5 243 12.57 0
 5 -6 6 34.26 6.34 0
 5 -6 7 42.68 7.15 0
 5 -6 8 22.38 6.15 0
 5 -6 9 54.6 8.16 0
 5 -6 10 40.91 7.4 0
 5 -6 11 37.91 6.86 0
 5 -6 13 148.12 10.55 0
 5 -6 14 23.49 6.56 0
 5 -5 5 8.25 4.63 0
 5 -5 6 35.19 6.29 0
 5 -5 7 -0.74 4.35 0
 5 -5 8 203.52 11.98 0
 5 -5 9 136.88 10.69 0
 5 -5 10 14.13 6.25 0
 5 -5 11 40.83 8.08 0
 5 -5 12 175.13 11.87 0
 5 -5 13 76.77 9.61 0
 5 -5 14 53.38 8.28 0
 5 -5 15 15.04 6.26 0
 5 -5 16 40.85 7.93 0
 5 -4 4 43.08 6.66 0
 5 -4 5 7.12 4.58 0
 5 -4 6 115.39 9.38 0
 5 -4 8 181.75 11.39 0
 5 -4 9 1.96 4.43 0
 5 -4 10 150.63 10.43 0
 5 -4 11 390.32 15.69 0
 5 -4 12 4.1 4.86 0
 5 -4 14 153.92 11.81 0
 5 -4 15 46.03 7.93 0
 5 -4 16 54.91 8.1 0
 5 -4 17 23.06 6.64 0
 5 -4 18 99.12 10.1 0
 5 -3 3 237.12 11.33 0
 5 -3 4 501.27 16.18 0
 5 -3 5 208.84 11.4 0
 5 -3 6 81.02 7.64 0
 5 -3 7 15.58 5.16 0
 5 -3 8 20.22 5.95 0
 5 -3 10 183.59 11.2 0
 5 -3 11 53.95 7.44 0
 5 -3 12 15.51 6.42 0
 5 -3 13 85.45 9 0
 5 -3 14 20.64 6.49 0
 5 -3 15 337.68 16.22 0
 5 -3 16 47.38 8.14 0
 5 -3 17 1.98 6.05 0
 5 -3 18 50.61 8.5 0
 5 -3 19 116.13 11.64 0
 5 -2 2 186.62 9.89 0
 5 -2 3 495.59 15.73 0
 5 -2 4 13.85 4.33 0
 5 -2 5 395.13 14.59 0
 5 -2 6 254.21 12.1 0
 5 -2 8 60.71 7.89 0
 5 -2 9 55.79 7.44 0
 5 -2 10 113.96 9.79 0
 5 -2 11 -0.35 4.02 0
 5 -2 13 23.2 6.59 0
 5 -2 14 149.89 11.8 0
 5 -2 15 56.81 8.6 0
 5 -2 16 23.5 7.77 0
 5 -2 17 503.08 19.48 0
 5 -2 18 32.89 7.82 0
 5 -2 19 9.61 6.2 0
 5 -1 2 392.14 13.52 0
 5 -1 3 44.54 6.31 0
 5 -1 4 368.35 13.36 0
 5 -1 6 7.8 4.23 0
 5 -1 7 52.98 7.16 0
 5 -1 8 299.45 13.32 0
 5 -1 9 38.59 6.84 0
 5 -1 10 85.79 8.4 0
 5 -1 11 2.16 4.62 0
 5 -1 12 82.27 9.61 0
 5 -1 13 58.96 8.31 0
 5 -1 14 241.26 13.82 0
 5 -1 15 208.26 13.93 0
 5 -1 16 134.46 12.31 0
 5 -1 17 2.56 5.51 0
 5 -1 18 89.66 10.59 0
 5 -1 19 15.18 6.62 0
 5 0 0 0.19 3.41 0
 5 0 2 525.35 15.21 0
 5 0 3 121.57 8.58 0
 5 0 4 -2.5 2.84 0
 5 0 5 16.62 4.46 0
 5 0 6 147.44 9.9 0
 5 0 7 10.62 4.45 0
 5 0 8 210.01 11.12 0
 5 0 9 -1.86 3.86 0
 5 0 10 7.57 5.05 0
 5 0 12 5.01 5.02 0
 5 0 14 -4.19 4.51 0
 5 0 15 3.82 5.26 0
 5 0 16 93.43 10.63 0
 5 0 17 229.51 14.33 0
 5 0 18 -3.81 5.46 0
 5 0 19 52.47 9.25 0
 5 1 0 69.04 6.19 0
 5 1 3 45.48 6.13 0
 5 1 5 506.08 15.97 0
 5 1 6 5.38 4.68 0
 5 1 7 57.2 7.38 0
 5 1 8 289.09 13.3 0
 5 1 9 39.82 7.04 0
 5 1 10 86.08 9.22 0
 5 1 11 -1.28 4.99 0
 5 1 12 88.81 9.91 0
 5 1 13 69.11 8.98 0
 5 1 14 261.67 14.51 0
 5 1 15 192.35 13.11 0
 5 1 16 133.53 12.39 0
 5 1 17 -1.44 6.38 0
 5 1 18 89.13 11.86 0
 5 1 19 22.65 7.73 0
 5 2 0 39.81 5.18 0
 5 2 1 161.88 8.62 0
 5 2 3 501.19 15.22 0
 5 2 4 11.61 4.7 0
 5 2 6 254.94 11.81 0
 5 2 8 58.03 7.74 0
 5 2 9 42.98 6.73 0
 5 2 11 1.49 5.08 0
 5 2 12 27.08 6.91 0
 5 2 13 24.17 6.89 0
 5 2 14 165.64 12.71 0
 5 2 15 71.91 10.05 0
 5 2 16 19.35 7.41 0
 5 2 17 479.17 21.22 0
 5 2 18 36.58 8.22 0
 5 3 1 211.73 9.55 0
 5 3 2 286.19 11.45 0
 5 3 3 240.66 10.56 0
 5 3 6 78.75 7.55 0
 5 3 7 11.35 5.36 0
 5 3 8 13.72 4.87 0
 5 3 9 9.42 5.22 0
 5 3 10 161.17 11.11 0
 5 3 11 51.91 7.84 0
 5 3 13 85.85 9.82 0
 5 3 14 24.26 7.21 0
 5 3 16 49.89 9.33 0
 5 3 18 52.52 9.52 0
 5 4 1 469.69 13.74 0
 5 4 2 162.08 9.15 0
 5 4 3 37.67 6.04 0
 5 4 4 46.42 6.55 0
 5 4 5 5.42 4.74 0
 5 4 6 112.68 9.25 0
 5 4 7 97.14 8.94 0
 5 4 8 180.21 11.6 0
 5 4 9 8.65 5.03 0
 5 4 10 169.38 11.35 0
 5 4 11 378 16.51 0
 5 4 13 25.14 7.11 0
 5 4 14 142.72 13.1 0
 5 4 15 45.05 9.65 0
 5 4 16 51.96 9.15 0
 5 4 17 14.32 7.38 0
 5 5 0 35.91 4.96 0
 5 5 1 642.32 15.73 0
 5 5 3 177.78 9.72 0
 5 5 4 51.22 6.41 0
 5 5 5 6.69 4.37 0
 5 5 6 39.36 6.44 0
 5 5 7 1.24 4.31 0
 5 5 8 194.98 12.11 0
 5 5 9 130.43 10.92 0
 5 5 10 14.99 6.05 0
 5 5 11 27.52 6.78 0
 5 5 12 179.47 12.82 0
 5 5 13 80.63 10.47 0
 5 5 14 54.49 9.25 0
 5 5 15 4.6 6.37 0
 5 5 16 39.99 9.02 0
 5 6 2 110.39 7.41 0
 5 6 3 76.04 6.65 0
 5 6 4 106.92 7.93 0
 5 6 5 270.02 12.19 0
 5 6 6 25.83 5.79 0
 5 6 7 45.18 7.62 0
 5 6 8 20.42 5.87 0
 5 6 9 59.5 8.59 0
 5 6 10 38.65 7.67 0
 5 6 11 47.6 9.16 0
 5 6 12 196.37 13.3 0
 5 6 13 144.6 13.02 0
 5 6 14 33.18 8.91 0
 5 7 4 112.26 8.21 0
 5 7 5 -4.9 3.36 0
 5 7 6 43.93 7.43 0
 5 7 7 75.65 9.33 0
 5 7 8 112.94 10.29 0
 5 7 9 0.95 5.12 0
 5 7 11 28.19 7.12 0
 6 -9 3 10.03 7 0
 6 -9 4 82.38 10.98 0
 6 -9 7 0.44 5.74 0
 6 -8 6 62.93 9.27 0
 6 -8 8 101.09 10.37 0
 6 -8 9 66.65 9 0
 6 -8 10 -0.46 5.37 0
 6 -7 5 48.63 8.83 0
 6 -7 6 52.06 8.41 0
 6 -7 7 12.25 6.31 0
 6 -7 8 52.61 8.51 0
 6 -7 10 261.16 14.33 0
 6 -7 11 61.49 8.61 0
 6 -7 12 112.49 10.77 0
 6 -6 4 -6.48 4.44 0
 6 -6 5 74.19 9.13 0
 6 -6 6 63.29 9.08 0
 6 -6 8 18.18 6.49 0
 6 -6 9 16.09 7.25 0
 6 -6 10 172.73 12.29 0
 6 -6 12 173.45 12.98 0
 6 -6 13 20.87 6.8 0
 6 -5 3 137.82 11.15 0
 6 -5 4 143.17 10.84 0
 6 -5 5 25.87 6.58 0
 6 -5 6 212.73 13.35 0
 6 -5 8 42.33 7.74 0
 6 -5 9 106.07 11.06 0
 6 -5 10 28.01 7.08 0
 6 -5 11 10.34 5.86 0
 6 -5 12 43.17 7.82 0
 6 -5 13 236.21 14.53 0
 6 -5 14 63.63 9.36 0
 6 -5 15 54 8.67 0
 6 -4 3 14.84 5.79 0
 6 -4 4 185.96 12.59 0
 6 -4 5 111.93 10.37 0
 6 -4 7 101.17 9.48 0
 6 -4 8 9.81 6.39 0
 6 -4 9 62.15 8.83 0
 6 -4 10 81.56 9.88 0
 6 -4 11 16.79 7.36 0
 6 -4 12 55.37 8.79 0
 6 -4 13 139.67 12.31 0
 6 -4 14 81.21 10.09 0
 6 -4 15 10.46 6.74 0
 6 -3 2 38.98 7.15 0
 6 -3 3 94.19 9.27 0
 6 -3 4 16.37 5.7 0
 6 -3 5 57.21 7.84 0
 6 -3 7 62.01 8.45 0
 6 -3 9 256.06 14.7 0
 6 -3 10 96.94 9.67 0
 6 -3 11 4.88 5.79 0
 6 -3 12 50.43 9.17 0
 6 -3 13 58.7 8.92 0
 6 -3 14 109.54 11.52 0
 6 -3 15 7.25 7.04 0
 6 -3 16 56.4 8.91 0
 6 -2 1 34.34 6.17 0
 6 -2 4 102.62 9.8 0
 6 -2 6 100.23 9.99 0
 6 -2 7 54.41 7.9 0
 6 -2 8 0.28 5.1 0
 6 -2 9 161.15 11.59 0
 6 -2 10 132.72 11.58 0
 6 -2 11 82.68 10.94 0
 6 -2 13 48.31 8.57 0
 6 -2 14 62.24 9.23 0
 6 -2 16 4.92 6.38 0
 6 -1 -1 14.35 4.87 0
 6 -1 0 3.33 4.8 0
 6 -1 1 18.04 5.42 0
 6 -1 2 111.09 8.87 0
 6 -1 3 1.06 4.02 0
 6 -1 4 1.49 4.03 0
 6 -1 5 14.51 5.49 0
 6 -1 6 3.67 4.64 0
 6 -1 7 75.69 8.54 0
 6 -1 8 72.34 8.75 0
 6 -1 10 88.49 9.32 0
 6 -1 12 8.04 5.83 0
 6 -1 13 49.95 8.96 0
 6 -1 14 51.81 9.2 0
 6 -1 15 27.15 8.1 0
 6 -1 16 174.65 14.04 0
 6 0 -2 7.94 4.45 0
 6 0 -1 94.26 8.62 0
 6 0 0 38.88 6.36 0
 6 0 1 96.37 8.34 0
 6 0 2 8.23 5.39 0
 6 0 3 3.39 4.4 0
 6 0 4 41.32 6.76 0
 6 0 5 132.47 9.86 0
 6 0 7 77.76 8.38 0
 6 0 8 19.1 6.43 0
 6 0 9 6.78 5.81 0
 6 0 10 28.41 7.44 0
 6 0 12 23.91 6.73 0
 6 0 13 87.36 10.65 0
 6 0 15 101.68 12.23 0
 6 0 16 19.72 7.81 0
 6 1 -5 20.21 4.55 0
 6 1 -4 11.19 4.24 0
 6 1 -3 3.32 4.18 0
 6 1 -2 112.13 8.39 0
 6 1 0 -0.84 4.42 0
 6 1 2 121.33 9.35 0
 6 1 3 0.36 3.98 0
 6 1 5 23.86 6.35 0
 6 1 6 -0.25 4.48 0
 6 1 7 67.4 8.31 0
 6 1 8 71.99 9.04 0
 6 1 10 90.89 9.4 0
 6 1 12 -3.81 6.16 0
 6 1 13 51.01 8.91 0
 6 1 14 56.34 9.42 0
 6 1 15 24.19 8.41 0
 6 1 16 164 14.12 0
 6 2 -6 91.44 6.85 0
 6 2 -5 140.19 8.38 0
 6 2 -4 102.2 7.49 0
 6 2 -3 117.65 8.09 0
 6 2 -2 23.48 5.07 0
 6 2 -1 37.66 6.33 0
 6 2 1 37.2 6.06 0
 6 2 2 21.96 6.08 0
 6 2 3 108.93 8.81 0
 6 2 4 105.85 9.31 0
 6 2 5 133.15 9.76 0
 6 2 6 102.68 9.49 0
 6 2 7 45.53 7.41 0
 6 2 8 5.75 5.09 0
 6 2 9 154.18 11.66 0
 6 2 10 127.97 10.88 0
 6 2 11 83.37 10.43 0
 6 2 13 58.95 9.28 0
 6 2 14 41.43 8.68 0
 6 2 15 29.01 8.19 0
 6 2 16 7.93 7.22 0
 6 3 -4 26.41 4.56 0
 6 3 -3 105 7.52 0
 6 3 -2 42.98 5.62 0
 6 3 -1 114.35 7.9 0
 6 3 0 35.1 5.67 0
 6 3 3 104.23 8.39 0
 6 3 4 24.23 6.01 0
 6 3 5 56.81 8.6 0
 6 3 7 63.37 8.31 0
 6 3 8 98.08 9.52 0
 6 3 9 259.41 14.83 0
 6 3 10 109.76 10.76 0
 6 3 11 8.86 5.94 0
 6 3 12 76.96 10.6 0
 6 3 13 61.32 10.26 0
 6 3 14 97.97 10.97 0
 6 3 15 7.56 6.85 0
 6 4 -1 197.18 9.69 0
 6 4 0 8.84 3.8 0
 6 4 1 172.88 9.95 0
 6 4 2 156.39 9.93 0
 6 4 3 18.16 5 0
 6 4 6 230.16 12.98 0
 6 4 7 117.89 10.82 0
 6 4 9 74.37 9.88 0
 6 4 10 69.2 10.42 0
 6 4 12 52.48 9.43 0
 6 4 13 176.96 13.79 0
 6 4 14 66.86 9.91 0
 6 4 15 3.05 6.53 0
 6 5 1 3.7 3.35 0
 6 5 2 64.34 6.73 0
 6 5 3 160.96 10.17 0
 6 5 4 149.44 10.3 0
 6 5 5 28.42 6.4 0
 6 5 6 225.58 12.9 0
 6 5 7 114.26 10.58 0
 6 5 8 30.89 6.85 0
 6 5 9 109.05 10.27 0
 6 5 10 30.16 7.99 0
 6 5 11 23.68 7.72 0
 6 5 12 51.22 9.54 0
 6 5 13 239.24 15.98 0
 6 5 14 57.19 10.18 0
 6 6 4 0.89 3.66 0
 6 6 5 70.38 8.33 0
 6 6 7 92.18 9.79 0
 6 6 8 17.84 6.16 0
 6 6 9 12.35 7.24 0
 6 6 10 173.54 12.66 0
 6 6 11 39.48 9.04 0
 6 6 12 170.25 14.03 0
 6 6 13 22.41 7.66 0
 6 7 7 8.31 5.64 0
 6 7 8 47.71 8.81 0
 6 7 9 93.45 11.45 0
 6 7 10 226.81 14.58 0
 6 7 11 75.36 10.14 0
 6 7 12 102.06 12.59 0
 7 -7 2 21.89 7.7 0
 7 -7 3 43.5 9.56 0
 7 -7 5 78.15 10.61 0
 7 -7 6 2.12 5.9 0
 7 -6 3 7.84 6.54 0
 7 -6 6 7.69 6.32 0
 7 -6 7 24.63 7.47 0
 7 -6 8 18.77 7.21 0
 7 -6 9 162.28 13.71 0
 7 -5 4 12.45 7.32 0
 7 -5 6 87.97 10.74 0
 7 -5 7 103.67 10.99 0
 7 -5 9 52.85 9.32 0
 7 -5 10 14.87 6.97 0
 7 -5 11 23.54 7.79 0
 7 -4 1 44.79 8.5 0
 7 -4 2 353.84 17.38 0
 7 -4 3 24.99 7 0
 7 -4 4 86.82 10.21 0
 7 -4 5 83.61 11.27 0
 7 -4 6 22.16 7.62 0
 7 -4 7 12.89 6.8 0
 7 -4 9 1.54 5.81 0
 7 -4 10 32.67 8.42 0
 7 -4 11 23.82 8.57 0
 7 -4 12 75.8 10.9 0
 7 -3 0 9.85 6.16 0
 7 -3 1 39.48 7.89 0
 7 -3 2 140.31 11.91 0
 7 -3 3 2.13 5.39 0
 7 -3 4 14.98 6.24 0
 7 -3 6 14.95 7.04 0
 7 -3 8 39.06 8.24 0
 7 -3 9 12.02 6.48 0
 7 -3 10 9.09 6.48 0
 7 -3 11 72.23 9.82 0
 7 -3 12 11.54 6.31 0
 7 -3 13 122.29 11.84 0
 7 -2 -2 405.68 17.09 0
 7 -2 -1 262.57 14.96 0
 7 -2 0 75.85 10.02 0
 7 -2 1 235.39 13.71 0
 7 -2 3 44.72 7.91 0
 7 -2 4 23.6 7.23 0
 7 -2 5 9.35 5.9 0
 7 -2 6 210.08 14.05 0
 7 -2 7 27.69 8.13 0
 7 -2 8 7.48 6.43 0
 7 -2 9 23.53 7.26 0
 7 -2 10 66.31 9.99 0
 7 -2 12 48.26 8.81 0
 7 -2 13 38.47 9.05 0
 7 -1 -3 82.07 9.91 0
 7 -1 -2 123.31 10.97 0
 7 -1 -1 69.29 9.1 0
 7 -1 0 -2.52 4.43 0
 7 -1 2 124.58 11.38 0
 7 -1 4 38.81 8.37 0
 7 -1 5 155.23 11.84 0
 7 -1 6 43.25 8.23 0
 7 -1 9 13.95 6.84 0
 7 -1 10 22 8.13 0
 7 -1 12 42.49 8.55 0
 7 -1 13 13.01 7.2 0
 7 0 -5 512.52 18.03 0
 7 0 -4 82.76 8.41 0
 7 0 -3 74.28 9.1 0
 7 0 -2 5.27 4.76 0
 7 0 -1 124.1 10.34 0
 7 0 0 0.41 4.7 0
 7 0 2 8.44 5.94 0
 7 0 3 78.8 9.57 0
 7 0 4 78.47 9.54 0
 7 0 5 509.2 19.82 0
 7 0 6 108.34 10.83 0
 7 0 7 13.69 6.37 0
 7 0 8 97.99 11.82 0
 7 0 10 11.54 7.69 0
 7 0 11 50.82 9.14 0
 7 0 12 9.47 6.32 0
 7 0 13 138.62 13.82 0
 7 1 -6 36.09 6.02 0
 7 1 -5 129.48 9.81 0
 7 1 -3 67.65 8.12 0
 7 1 -2 138.93 10.45 0
 7 1 -1 52.3 7.62 0
 7 1 0 1.73 4.78 0
 7 1 1 69.96 8.92 0
 7 1 2 128.02 10.4 0
 7 1 3 79.81 9.53 0
 7 1 5 153.46 11.49 0
 7 1 6 46.36 8.16 0
 7 1 7 60.6 9.8 0
 7 1 8 62.71 9.21 0
 7 1 9 8.21 6.81 0
 7 1 10 27.73 7.64 0
 7 1 12 29.68 8.02 0
 7 1 13 18.01 8.34 0
 7 2 -4 21.6 5.31 0
 7 2 -3 44.18 6.7 0
 7 2 -2 431.13 16.15 0
 7 2 -1 240.11 12.97 0
 7 2 0 77.12 8.75 0
 7 2 1 257.24 13.36 0
 7 2 2 426.99 17.02 0
 7 2 3 51.18 7.85 0
 7 2 4 15.92 6.15 0
 7 2 5 13.84 6.68 0
 7 2 6 218.47 14.11 0
 7 2 7 35.36 7.84 0
 7 2 8 9.86 6.08 0
 7 2 9 18.3 7.3 0
 7 2 10 65.12 9.94 0
 7 2 11 13 6.75 0
 7 2 12 61.09 11.04 0
 7 2 13 39.93 9.33 0
 7 3 -2 133.06 9.2 0
 7 3 -1 29.63 5.63 0
 7 3 0 13.1 5.71 0
 7 3 1 29.32 6.36 0
 7 3 2 141.8 10.21 0
 7 3 3 5.74 5.19 0
 7 3 4 9.9 5.7 0
 7 3 5 26.76 7.18 0
 7 3 6 19.75 6.94 0
 7 3 7 104.43 11.08 0
 7 3 8 35.12 7.92 0
 7 3 9 16.2 6.75 0
 7 3 10 10.11 6.33 0
 7 3 11 79.52 10.68 0
 7 3 12 2.52 6.3 0
 7 4 1 40.83 6.44 0
 7 4 2 375.27 15.58 0
 7 4 3 30.43 6.45 0
 7 4 4 74.74 9.46 0
 7 4 6 31.91 7.15 0
 7 4 7 14.27 6.25 0
 7 4 9 5.44 6.96 0
 7 4 10 36.28 9.07 0
 7 4 11 12.35 7.84 0
 7 5 3 26.16 5.89 0
 7 5 4 1.62 4.46 0
 7 5 5 20.47 6.59 0
 7 5 6 98.73 9.8 0
 7 5 7 74.88 10.2 0
 7 5 8 59.39 9.39 0
 7 5 9 51.34 8.73 0
 7 5 10 22.41 8.06 0
 7 5 11 24.95 8.07 0
 7 6 6 15.96 6.33 0
 7 6 7 18.34 6.99 0
 7 6 8 20.03 7.03 0
 7 6 9 165.03 13.16 0
 8 -5 -2 -0.18 7.57 0
 8 -5 0 0.21 7.07 0
 8 -5 1 1.95 7.72 0
 8 -5 2 2.67 6.84 0
 8 -4 -3 158.3 13.51 0
 8 -4 -2 5.41 6.41 0
 8 -4 -1 130.48 12.39 0
 8 -4 0 24.52 8.13 0
 8 -4 1 126.38 12.03 0
 8 -4 2 0.56 6.02 0
 8 -4 3 172.39 14.29 0
 8 -4 4 16.99 8.08 0
 8 -4 5 37.59 9.15 0
 8 -3 -4 69.14 10.64 0
 8 -3 -1 47.38 8.59 0
 8 -3 0 -0.6 5.85 0
 8 -3 2 41.89 8.64 0
 8 -3 3 22.15 7.57 0
 8 -3 4 63.76 10.52 0
 8 -3 5 108.42 12.82 0
 8 -3 6 31.19 8.58 0
 8 -2 -6 109.52 11.37 0
 8 -2 -5 79.5 10.59 0
 8 -2 -4 102.05 11.02 0
 8 -2 -3 116.28 11.89 0
 8 -2 -2 55.22 9.23 0
 8 -2 1 23.6 7.52 0
 8 -2 2 63.42 9.99 0
 8 -2 3 104.26 13.13 0
 8 -2 4 128.71 12.4 0
 8 -2 5 92.88 11.74 0
 8 -2 8 6.3 7.43 0
 8 -1 -9 102.4 10.26 0
 8 -1 -8 23.75 7.38 0
 8 -1 -7 77.85 10.21 0
 8 -1 -6 99.98 10.78 0
 8 -1 -5 20.84 6.82 0
 8 -1 -3 9.58 5.75 0
 8 -1 -2 24.13 8.03 0
 8 -1 0 148.09 12.58 0
 8 -1 1 41.47 8.53 0
 8 -1 3 17.73 7.63 0
 8 -1 4 73.63 11.37 0
 8 -1 5 35.81 8.9 0
 8 -1 6 109.72 11.38 0
 8 -1 7 80.59 12.03 0
 8 -1 8 17.4 7.44 0
 8 -1 9 88.68 11.88 0
 8 0 -7 18.64 6.03 0
 8 0 -6 458.22 17.92 0
 8 0 -5 139.73 10.92 0
 8 0 -3 78.47 9.58 0
 8 0 -2 7.88 6.42 0
 8 0 -1 311.85 16.08 0
 8 0 0 137.7 11.56 0
 8 0 1 311.82 16.42 0
 8 0 2 8.95 6.06 0
 8 0 4 249.92 15.23 0
 8 0 5 136.92 12.17 0
 8 0 6 475.16 20.9 0
 8 0 7 15.97 8.46 0
 8 0 8 32.33 8.58 0
 8 0 9 65.37 11.16 0
 8 1 -5 34.53 6.49 0
 8 1 -3 16.7 6.68 0
 8 1 -2 24.09 6.51 0
 8 1 -1 37.4 8.63 0
 8 1 0 165.96 12.81 0
 8 1 1 43.19 7.96 0
 8 1 2 19.74 6.69 0
 8 1 3 20.79 7.07 0
 8 1 4 65.55 9.4 0
 8 1 5 27.46 7.58 0
 8 1 6 110.36 11.16 0
 8 1 8 28.97 8.68 0
 8 2 -2 62.6 8.71 0
 8 2 -1 27.92 6.85 0
 8 2 0 338.69 16.28 0
 8 2 1 12.39 5.89 0
 8 2 2 58.03 9.25 0
 8 2 3 118.14 11.76 0
 8 2 4 131.92 12.06 0
 8 2 5 86.12 10.72 0
 8 2 6 99.96 10.89 0
 8 2 7 193.75 14.18 0
 8 2 8 12.04 7.01 0
 8 3 0 1.02 4.24 0
 8 3 1 43.66 8.19 0
 8 3 2 54.68 8.35 0
 8 3 5 113.33 11.25 0
 8 3 6 38.14 8.46 0
 8 3 7 38.59 9.61 0
 8 3 8 187.69 14.96 0
 8 4 3 183.53 12.62 0
 8 4 4 23.65 7.02 0
 8 4 5 49.08 8.48 0
 8 4 6 22.26 6.93 0
 8 4 7 168.11 13.64 0
 8 5 5 3.13 5.18 0
 8 5 6 38.28 8.58 0
 -3 -8 1 4.61 3.34 0
 -3 -8 2 105.78 7.12 0
 -3 -8 4 25.95 4.24 0
 -3 -7 0 2.44 2.71 0
 -3 -7 1 382.63 11.57 0
 -3 -7 2 206.89 8.57 0
 -3 -7 3 72.16 5.17 0
 -3 -7 4 30 4.28 0
 -3 -7 5 24.44 3.66 0
 -3 -7 6 169.26 7.65 0
 -3 -7 7 530.58 12.75 0
 -3 -6 0 137.61 6.66 0
 -3 -6 2 50.27 4.13 0
 -3 -6 3 62.61 4.62 0
 -3 -6 4 296.18 8.86 0
 -3 -6 5 233.37 7.77 0
 -3 -6 6 91.5 5.31 0
 -3 -6 7 7.71 2.64 0
 -3 -6 8 4.9 2.26 0
 -3 -5 1 321.5 8.64 0
 -3 -5 2 773.18 12.63 0
 -3 -5 3 225.48 6.84 0
 -3 -5 4 471.07 9.61 0
 -3 -5 5 146.27 5.57 0
 -3 -5 6 217.23 6.66 0
 -3 -5 7 121.56 5.15 0
 -3 -4 2 280.42 6.62 0
 -3 -4 3 61.79 3.3 0
 -3 -4 4 194.18 5.2 0
 -3 -4 5 695 9.61 0
 -3 -4 6 157.98 4.76 0
 -3 -3 4 383.2 5.11 0
 -3 -3 5 1939.23 11.38 0
 -3 -3 6 140.76 3.46 0
 -3 -1 7 111.43 2.55 0
 -3 -1 8 755.19 8.12 0
 -3 -1 9 691.62 9.06 0
 -3 -1 10 580.82 9.43 0
 -3 -1 11 146.36 5.42 0
 -3 -1 12 237.38 7.22 0
 -3 -1 13 201.34 7.2 0
 -3 0 8 258.83 5.65 0
 -3 0 9 7.17 1.95 0
 -3 0 10 38.6 3.13 0
 -3 0 11 59.14 3.95 0
 -3 0 12 204.47 7.05 0
 -3 0 13 0.76 2.14 0
 -3 0 14 200.78 7.8 0
 -3 1 8 736.77 10.65 0
 -3 1 9 694.77 11.05 0
 -3 1 11 141.23 5.91 0
 -3 1 12 233.49 8 0
 -3 1 13 200.31 7.75 0
 -3 1 14 6.41 3.18 0
 -3 2 10 146.42 6.42 0
 -3 2 11 223.59 7.98 0
 -3 2 12 232.48 8.4 0
 -3 2 13 98.6 6.29 0
 -3 2 14 124.99 7.09 0
 -3 3 12 21.62 3.94 0
 -3 3 13 38.87 4.87 0
 -2 -8 2 142.28 8.61 0
 -2 -8 3 138.36 8.07 0
 -2 -8 4 103.94 7.1 0
 -2 -7 -3 268.33 11.25 0
 -2 -7 -2 134.55 7.97 0
 -2 -7 -1 310.43 11.08 0
 -2 -7 0 103.99 6.69 0
 -2 -7 1 315.64 10.82 0
 -2 -7 2 114.54 6.85 0
 -2 -7 4 152.21 7.92 0
 -2 -7 5 411.76 11.95 0
 -2 -7 6 419.48 12.26 0
 -2 -6 -3 106.41 7.3 0
 -2 -6 -2 222.74 9.48 0
 -2 -6 -1 1001.72 17.76 0
 -2 -6 0 195.83 8.32 0
 -2 -6 1 1005.05 17.19 0
 -2 -6 2 205.89 8.28 0
 -2 -6 3 108.62 6.22 0
 -2 -6 5 85.46 5.57 0
 -2 -5 -2 243 8.8 0
 -2 -5 -1 75.09 5.33 0
 -2 -5 0 391.81 9.91 0
 -2 -5 1 77.14 4.93 0
 -2 -5 2 234.3 7.55 0
 -2 -5 3 740.46 12.96 0
 -2 -5 4 646.58 12.38 0
 -2 -4 1 444.38 9.02 0
 -2 -4 2 400.42 8.62 0
 -2 -4 3 1615.67 16.37 0
 -2 -3 0 1362.62 13.83 0
 -2 -3 1 1189.38 12.33 0
 -2 -3 2 64.13 3.19 0
 -2 -3 3 1442.35 12.92 0
 -2 -2 2 1019.22 7.93 0
 -2 -2 3 313.41 4.45 0
 -2 0 5 1023.24 8.91 0
 -2 0 6 278.39 5.57 0
 -2 0 7 131.01 4.32 0
 -2 0 8 6.73 2.01 0
 -2 0 9 62.01 4.18 0
 -2 0 10 483.6 10.39 0
 -2 0 11 231.03 7.86 0
 -2 0 12 135.32 6.85 0
 -2 0 13 313.6 9.97 0
 -2 0 14 101.49 6.38 0
 -2 0 15 128.09 7.3 0
 -2 1 5 389 6.76 0
 -2 1 6 1523.28 14.57 0
 -2 1 7 303.72 7.11 0
 -2 1 8 52.35 3.84 0
 -2 1 9 191.06 6.52 0
 -2 1 11 17.5 3.29 0
 -2 1 12 566.98 13.02 0
 -2 1 13 24.9 4.04 0
 -2 1 14 11.03 3.83 0
 -2 2 6 56.85 3.84 0
 -2 2 7 30.6 3.66 0
 -2 2 10 209.82 7.91 0
 -2 2 11 49.83 4.98 0
 -2 2 12 146.12 7.5 0
 -2 2 13 496.64 13.13 0
 -2 2 14 50.07 5.92 0
 -2 3 7 615.44 12.31 0
 -2 3 9 533.63 12.46 0
 -2 3 10 272.8 9.79 0
 -2 3 11 2.13 2.73 0
 -2 3 12 22.78 4.4 0
 -2 3 13 37.63 4.95 0
 -2 4 10 95.62 6.39 0
 -2 4 11 -0.61 3.33 0
 -2 4 12 18.49 4.2 0
 -1 -7 -4 15.87 4.68 0
 -1 -7 -3 206.41 10.13 0
 -1 -7 -2 97.36 7.29 0
 -1 -7 -1 24.91 4.61 0
 -1 -7 0 143.36 8.04 0
 -1 -7 1 18.69 4.14 0
 -1 -7 2 90.79 6.61 0
 -1 -7 3 224.24 9.51 0
 -1 -6 -5 1135.38 21.29 0
 -1 -6 -4 610.72 15.23 0
 -1 -6 -3 156.68 8.41 0
 -1 -6 -2 87.53 6.2 0
 -1 -6 -1 199.82 8.57 0
 -1 -6 0 85.72 6 0
 -1 -6 1 188.56 8.17 0
 -1 -5 -3 79.6 5.9 0
 -1 -5 0 11.85 2.92 0
 -1 -5 1 7.47 2.63 0
 -1 -5 2 483.34 11.05 0
 -1 -4 -4 1144.18 17.32 0
 -1 -4 -3 1643.21 19.84 0
 -1 -4 -2 1385.23 17.45 0
 -1 -4 -1 328.51 8.68 0
 -1 -3 -3 188.71 6.29 0
 -1 -3 -1 52.49 3.91 0
 -1 -3 0 8.22 1.99 0
 -1 -3 1 50.87 3.1 0
 -1 -2 -1 6751.06 26.95 0
 -1 -2 0 140.23 3.8 0
 -1 -2 1 6802.39 23.99 0
 -1 -1 0 5715.49 16.57 0
 -1 1 3 217.74 4.64 0
 -1 1 4 428 6.98 0
 -1 1 5 1894.69 16.02 0
 -1 1 6 2475.62 19.83 0
 -1 1 7 288.77 7.49 0
 -1 1 14 371.45 12.54 0
 -1 2 3 1457.01 13.98 0
 -1 2 4 2684.32 20.1 0
 -1 2 5 734.5 11.42 0
 -1 2 6 430.35 9.2 0
 -1 2 7 1042.81 14.97 0
 -1 2 8 981.08 15.29 0
 -1 2 10 121.71 6.88 0
 -1 2 12 625.09 14.99 0
 -1 2 13 496.57 13.97 0
 -1 2 14 6.4 3.43 0
 -1 3 4 797.88 12.75 0
 -1 3 5 195.97 6.98 0
 -1 3 6 302.08 8.58 0
 -1 3 7 200.97 7.58 0
 -1 3 8 1956.68 23.11 0
 -1 3 10 476.64 12.71 0
 -1 3 11 44.07 5.42 0
 -1 3 13 384.33 12.71 0
 -1 4 6 452.75 11.32 0
 -1 4 7 161.23 7.25 0
 -1 4 8 246.02 9.15 0
 -1 4 9 332.97 10.95 0
 -1 4 10 11.73 3.7 0
 -1 4 11 134.26 8.19 0
 -1 4 12 314.47 11.95 0
 -1 5 8 1301.98 21.72 0
 -1 5 10 82.27 6.57 0
 0 -7 -4 -4.25 3.45 0
 0 -7 -3 111.95 7.65 0
 0 -7 -2 88.09 6.92 0
 0 -7 -1 217.49 10.43 0
 0 -7 0 -0.78 3.17 0
 0 -7 1 220.02 9.75 0
 0 -7 2 78.69 6.55 0
 0 -6 -6 80.48 7.33 0
 0 -6 -4 619.81 15.16 0
 0 -6 -3 543.74 14.12 0
 0 -6 -2 0.71 3.23 0
 0 -6 -1 1410.89 22.24 0
 0 -6 1 1389.27 21.59 0
 0 -5 -6 1.61 2.8 0
 0 -5 -4 133.88 6.94 0
 0 -5 -3 124.62 6.6 0
 0 -5 -2 31.94 4.5 0
 0 -5 -1 44.7 5.15 0
 0 -5 0 -0.99 2.48 0
 0 -4 -5 598.38 13 0
 0 -4 -3 3849.48 30.11 0
 0 -4 -2 1583.34 19.18 0
 0 -3 -4 3586.06 27.32 0
 0 -3 -3 3629.24 25.67 0
 0 -3 -2 683.49 11.16 0
 0 -2 -3 4843.47 26.13 0
 0 -2 -2 220.01 5.37 0
 0 -2 -1 5677.54 24.82 0
 0 -1 -2 617.43 7.08 0
 0 1 2 637.84 7.12 0
 0 1 3 2102.85 14.69 0
 0 2 3 4915.76 25.86 0
 0 2 4 7509.79 33.9 0
 0 2 5 578.2 10.59 0
 0 2 6 3119.96 25.41 0
 0 2 8 8.52 2.84 0
 0 2 9 12.34 3.19 0
 0 2 10 7.15 3.11 0
 0 2 11 1148.26 20.1 0
 0 2 12 18.37 4.14 0
 0 2 13 -0.02 3.59 0
 0 3 3 3536.34 25.36 0
 0 3 5 3.46 2.24 0
 0 3 6 54.37 4.32 0
 0 3 9 944.87 17.18 0
 0 3 10 0.83 2.98 0
 0 3 11 35.58 5.02 0
 0 3 12 -1.11 2.96 0
 0 4 8 901.61 17.53 0
 0 4 10 32.94 4.83 0
 0 4 11 229.82 10.13 0
 0 5 7 36.75 5.12 0
 0 5 8 38.63 5.08 0
 0 5 9 7.39 3.79 0
 0 5 10 6.55 3.59 0
 0 6 7 1.1 2.9 0
 0 6 8 299.69 11.6 0
 1 -7 -4 13.26 4.15 0
 1 -7 -3 226.39 11.07 0
 1 -7 -2 103.33 7.53 0
 1 -7 -1 15.85 4.24 0
 1 -7 0 135.87 8.06 0
 1 -6 -7 137.09 8.93 0
 1 -6 -6 267.98 10.78 0
 1 -6 -5 1056.15 20.09 0
 1 -6 -4 593.91 15.09 0
 1 -6 -3 149.8 8 0
 1 -6 -2 92.92 6.63 0
 1 -6 0 78.27 6.03 0
 1 -5 -7 785.52 17.21 0
 1 -5 -5 155.47 7.5 0
 1 -5 -3 85.38 6.04 0
 1 -5 -2 485.33 12.31 0
 1 -4 -6 438.4 11.45 0
 1 -4 -5 292.57 9.02 0
 1 -4 -4 1124.73 17.02 0
 1 -4 -3 1717.74 20.85 0
 1 -4 -2 1360.85 17.83 0
 1 -4 -1 325.58 8.84 0
 1 -3 -5 200.89 7 0
 1 -3 -4 797.18 12.99 0
 1 -3 -3 189.99 6.37 0
 1 -3 -2 229.69 6.78 0
 1 -2 -4 2651.51 20.22 0
 1 -2 -3 1442.51 14.09 0
 1 -2 -2 4110.85 22.68 0
 1 -1 -3 215.62 4.74 0
 1 -1 -2 1793.89 11.64 0
 1 1 0 5871.13 16.49 0
 1 1 1 2715.73 13.69 0
 1 2 1 6792.67 26.83 0
 1 2 2 4031.53 22.25 0
 1 2 4 2606.37 21.31 0
 1 2 5 766.37 12.72 0
 1 3 2 231.01 6.55 0
 1 3 3 192.78 6.58 0
 1 3 5 183.62 7.04 0
 1 3 6 293.01 9.14 0
 1 3 10 488.62 13.59 0
 1 3 11 33.21 4.98 0
 1 3 12 93.09 7.27 0
 1 4 3 1664.95 19.52 0
 1 4 7 161.33 7.62 0
 1 4 8 237.95 9.35 0
 1 4 10 12.19 4.5 0
 1 5 4 617.03 13.62 0
 1 5 5 156.24 7.72 0
 1 5 6 182.05 8.28 0
 1 5 7 793.74 17.14 0
 1 5 8 1302.94 22.68 0
 1 5 9 526.2 15.06 0
 1 6 6 264.24 10.94 0
 1 6 7 135.46 7.99 0
 2 -6 -7 124.9 7.94 0
 2 -6 -6 193.77 9.33 0
 2 -6 -5 79.51 6.58 0
 2 -6 -4 149.84 8.29 0
 2 -6 -3 112.08 7.35 0
 2 -6 -1 951.31 18.92 0
 2 -5 -7 64.34 6.47 0
 2 -5 -6 306.59 10.59 0
 2 -5 -5 344.01 11.24 0
 2 -5 -4 617.32 14.44 0
 2 -5 -3 742.9 15.51 0
 2 -4 -5 58.56 4.71 0
 2 -4 -4 257.63 8.48 0
 2 -4 -3 1603.09 20.16 0
 2 -4 -2 381.12 9.87 0
 2 -3 -6 221.19 7.49 0
 2 -3 -4 1230.02 16.04 0
 2 -3 -3 1447.03 17.05 0
 2 -3 -2 67.29 4.6 0
 2 -2 -5 125.31 4.87 0
 2 -2 -4 132.16 4.7 0
 2 -2 -3 320.82 7.09 0
 2 1 0 4.31 1.06 0
 2 2 0 5015.91 21.33 0
 2 2 1 254.65 5.64 0
 2 2 2 1029.77 11.99 0
 2 2 3 318.01 7.49 0
 2 3 2 62.67 3.83 0
 2 3 3 1462.4 16.96 0
 2 3 8 321.66 10.75 0
 2 3 9 519.96 13.85 0
 2 3 11 1.94 3.73 0
 2 4 4 269.91 8.66 0
 2 4 5 61.64 4.88 0
 2 4 6 727.11 15 0
 2 4 7 551.61 13.57 0
 2 4 9 256.42 10.25 0
 2 4 10 89.07 6.93 0
 2 5 3 751.01 14.68 0
 2 5 4 644.82 14.06 0
 2 5 5 340.48 10.71 0
 2 5 6 320.76 10.87 0
 2 5 7 65.82 6.75 0
 2 5 8 212.59 10.19 0
 2 5 9 123.47 8.11 0
 2 6 5 92.06 6.85 0
 2 6 6 194.14 9.5 0
 2 6 7 126.79 7.98 0
 3 -6 -6 78.9 6.95 0
 3 -6 -4 300.66 11.43 0
 3 -6 -1 339.51 11.97 0
 3 -5 -7 121.09 7.52 0
 3 -5 -5 141.94 7.85 0
 3 -5 -4 469.69 13.09 0
 3 -5 -3 229.95 9.47 0
 3 -4 -6 147.69 7.3 0
 3 -4 -5 721.9 14.42 0
 3 -4 -4 208.33 8.13 0
 3 -4 -3 56.66 5.06 0
 3 -4 -2 298.22 9.48 0
 3 -3 -6 139.08 5.93 0
 3 -3 -5 1916.52 20.23 0
 3 -3 -4 391.92 9.38 0
 3 -3 -3 655.15 11.96 0
 3 -3 -2 180.29 6.44 0
 3 -2 -5 238.61 6.42 0
 3 -2 -4 182.73 5.5 0
 3 -2 -3 532.01 9.07 0
 3 -1 -3 51.09 2.35 0
 3 2 1 877.19 10.49 0
 3 2 2 470.85 8.63 0
 3 3 1 25.65 2.56 0
 3 3 4 373.86 9.46 0
 3 3 5 1969.96 22.65 0
 3 3 6 141.08 7.13 0
 3 3 7 235.73 9.18 0
 3 3 8 579.58 14.46 0
 3 3 10 12.72 4.2 0
 3 4 2 299.98 8.37 0
 3 4 3 56.83 4.32 0
 3 4 4 212.17 7.95 0
 3 4 6 151.49 7.37 0
 3 4 7 271.02 10.22 0
 3 4 8 52.98 5.5 0
 3 4 9 208.83 9.59 0
 3 5 3 216.11 8.12 0
 3 5 4 448.33 12.02 0
 3 5 5 147.47 7.48 0
 3 5 6 226.89 9.37 0
 3 5 7 126.85 8.16 0
 3 5 8 85.75 7.49 0
 3 6 5 258.87 10.31 0
 3 6 6 88.47 7.11 0
 4 -5 -7 104.92 6.73 0
 4 -5 -6 389.02 11.97 0
 4 -5 -5 94.85 6.7 0
 4 -5 -4 380.41 11.97 0
 4 -5 -3 68.79 6.25 0
 4 -5 -2 124.13 7.3 0
 4 -4 -7 12.54 3.03 0
 4 -4 -6 57.42 4.96 0
 4 -4 -5 21.87 3.46 0
 4 -4 -4 88.53 5.61 0
 4 -4 -3 61.74 5.06 0
 4 -4 -2 153.02 6.99 0
 4 -3 -6 178.05 6.49 0
 4 -3 -5 48.63 3.97 0
 4 -3 -4 874.8 13.84 0
 4 -3 -2 16.18 3.05 0
 4 -2 -4 4.55 1.69 0
 4 -1 -3 2250.86 13.77 0
 4 1 0 41.22 2.19 0
 4 2 0 656.43 7.85 0
 4 2 3 349.18 8.55 0
 4 3 2 22.07 2.75 0
 4 3 3 358.97 8.98 0
 4 3 4 846.75 14.54 0
 4 3 5 52.09 4.76 0
 4 3 6 186.3 7.99 0
 4 3 7 230.06 9.34 0
 4 3 8 547.8 14.46 0
 4 4 2 157.25 6.03 0
 4 4 3 57.64 4.26 0
 4 4 4 98.02 5.9 0
 4 4 5 21.65 3.85 0
 4 4 6 48.21 4.74 0
 4 4 7 23.84 4.42 0
 4 4 8 63.77 5.83 0
 4 5 3 67.06 4.88 0
 4 5 4 363.34 10.83 0
 4 5 5 82.89 6.07 0
 4 5 7 91.52 6.79 0
 5 -5 -5 5.28 3.23 0
 5 -5 -4 60.66 5.67 0
 5 -5 -3 172.53 8.47 0
 5 -5 -2 58.25 5.26 0
 5 -5 -1 641.9 15.71 0
 5 -4 -5 3.13 1.96 0
 5 -4 -4 56.91 4.7 0
 5 -4 -3 35.94 4.49 0
 5 -4 -2 166.98 7.56 0
 5 -4 -1 462.33 12.12 0
 5 -3 -2 281.39 8.39 0
 5 -2 -3 472.67 8.33 0
 5 -2 -2 190.65 5.85 0
 5 2 3 493.44 10.27 0
 5 2 4 13.81 2.75 0
 5 2 5 385.38 10.45 0
 5 3 4 486.68 11.15 0
 5 3 5 221.2 8.09 0
 5 3 6 68.94 5.54 0
 5 3 7 22.45 4.27 0
 5 4 6 110.24 6.44 0
 -1 -6 -3 161.05 2.86 0
 -1 -5 -2 483.24 5.26 0
 -1 -4 -1 335.92 4.63 0
 0 -8 -6 331.23 7.93 0
 0 -7 -9 47.13 3.75 0
 0 -7 -8 7.68 2.12 0
 0 -7 -7 134.03 5.24 0
 0 -7 -6 21.35 2.88 0
 0 -6 -12 88.17 5.56 0
 0 -6 -11 4.9 2.58 0
 0 -6 -10 70.25 4.64 0
 0 -6 -9 13.87 2.61 0
 0 -6 -7 -0.34 1.66 0
 0 -6 -6 81.56 4.34 0
 0 -5 -15 57.02 5.98 0
 0 -5 -12 2.4 2.73 0
 0 -5 -11 20.4 3.55 0
 0 -5 -10 8.62 2.9 0
 0 -5 -9 11.71 2.63 0
 0 -5 -8 35.95 3.42 0
 0 -5 -7 36.09 3.27 0
 0 -5 -6 -2.91 1.78 0
 0 -4 -16 82.95 7.63 0
 0 -4 -15 638.84 16.45 0
 0 -4 -14 15.91 4.08 0
 0 -4 -11 240.68 8.61 0
 0 -4 -10 26.96 3.66 0
 0 -4 -9 58.26 4.64 0
 0 -4 -8 834.39 12.77 0
 0 -4 -7 1254.88 14.64 0
 0 -4 -6 353.11 7.62 0
 0 -3 -15 228.19 11.04 0
 0 -3 -14 5.57 3.76 0
 0 -3 -11 35.88 4.56 0
 0 -3 -10 3.89 2.63 0
 0 -3 -9 917.27 14.56 0
 0 -3 -8 19.95 3.19 0
 0 -3 -7 463.29 9.09 0
 0 -3 -6 57.2 3.44 0
 0 -3 -5 7.73 1.92 0
 0 -2 -15 113.69 8.76 0
 0 -2 -14 134.43 8.52 0
 0 -2 -11 1187.29 19.42 0
 0 -2 -10 2.28 2.99 0
 0 -2 -9 10.15 2.91 0
 0 -2 -8 10.09 2.64 0
 0 -2 -7 1033.33 13.76 0
 0 -2 -6 3120.99 21.35 0
 0 -2 -5 567.65 8.51 0
 0 -2 -4 7271.74 26.57 0
 0 -1 -14 10.46 4.37 0
 0 -1 -11 33.6 4.75 0
 0 -1 -10 117.09 6.79 0
 0 -1 -9 43.95 4.3 0
 0 -1 -8 62.6 4.88 0
 0 -1 -7 2248.11 20.61 0
 0 -1 -6 554.02 9.84 0
 0 -1 -5 414.33 7.44 0
 0 -1 -4 4853.07 21.69 0
 0 -1 -3 2034.95 12.01 0
 0 -1 -2 601.56 5.46 0
 0 0 -10 1036.48 18.18 0
 0 0 -8 114.84 5.8 0
 0 0 -7 -1.83 2.05 0
 0 0 -6 370.24 8.43 0
 0 0 -5 0.96 1.85 0
 0 0 -4 5261.18 24.06 0
 0 0 -3 2.11 1.46 0
 0 0 -2 1359.06 8.58 0
 0 0 2 1386.2 8.83 0
 0 1 -9 54.9 5.05 0
 0 1 -8 62.34 4.93 0
 0 1 -7 2252.09 22.96 0
 0 1 -6 524.12 10.43 0
 0 1 -5 409.95 8.5 0
 0 1 -4 4895.91 25.56 0
 0 1 -3 2051.47 14.87 0
 0 1 3 2068.73 12.32 0
 1 -7 -13 130.78 7.95 0
 1 -7 -8 124.48 7.23 0
 1 -7 -7 329.72 10.27 0
 1 -6 -16 258.86 11.98 0
 1 -6 -15 306.1 12.43 0
 1 -6 -14 42.37 5.7 0
 1 -6 -13 72.26 6.84 0
 1 -6 -12 16.39 4.07 0
 1 -6 -8 111.76 6.6 0
 1 -5 -19 32.41 7.02 0
 1 -5 -18 86.35 8.69 0
 1 -5 -17 7.1 5.15 0
 1 -5 -16 4.27 4.55 0
 1 -5 -14 46.85 6.09 0
 1 -5 -13 42.31 5.64 0
 1 -5 -9 521.77 13.27 0
 1 -5 -7 784.77 14.87 0
 1 -4 -19 17.4 6.29 0
 1 -4 -18 213.8 12.37 0
 1 -4 -17 177.16 10.98 0
 1 -4 -16 148.25 10.17 0
 1 -4 -15 51.95 6.95 0
 1 -4 -14 271.81 11.89 0
 1 -4 -10 16.34 3.86 0
 1 -4 -9 332.05 10.44 0
 1 -4 -7 166.69 7.1 0
 1 -3 -19 196.07 13.48 0
 1 -3 -18 1.12 4.74 0
 1 -3 -17 34.31 6.61 0
 1 -3 -16 154.8 10.22 0
 1 -3 -15 166.82 10.69 0
 1 -3 -13 368.02 13.13 0
 1 -3 -8 2007.04 23.72 0
 1 -3 -7 202.58 7.5 0
 1 -3 -6 308.68 8.8 0
 1 -2 -19 23.58 7.22 0
 1 -2 -18 179.12 12.07 0
 1 -2 -17 13.44 6.17 0
 1 -2 -15 77.28 7.7 0
 1 -2 -14 3.49 4.1 0
 1 -2 -13 502.28 15.48 0
 1 -2 -10 124.63 7.23 0
 1 -2 -9 175.42 7.69 0
 1 -2 -8 941 16.13 0
 1 -2 -7 1071.22 16.18 0
 1 -2 -6 419.17 10.13 0
 1 -2 -5 744.35 12.33 0
 1 -1 -18 26.82 7.17 0
 1 -1 -17 131.5 11.05 0
 1 -1 -16 202.76 11.73 0
 1 -1 -15 3.78 4.72 0
 1 -1 -14 356.11 13.84 0
 1 -1 -12 22.74 4.74 0
 1 -1 -9 230.15 8.73 0
 1 -1 -8 1015.96 16.78 0
 1 -1 -7 297.18 8.93 0
 1 -1 -5 1862.16 18.89 0
 1 -1 -4 433.38 8.8 0
 1 0 -17 228.51 13.55 0
 1 0 -16 79.03 9.68 0
 1 0 -15 154.41 10.87 0
 1 0 -14 181.25 10.49 0
 1 0 -13 0.91 3.93 0
 1 0 -12 2192.77 30.97 0
 1 0 -9 783.44 15.95 0
 1 0 -8 42.54 4.45 0
 1 0 -7 305.18 9.23 0
 1 0 -6 2219.16 21.71 0
 1 0 -5 4222.87 27.54 0
 1 0 -4 -2.16 1.67 0
 1 1 -16 216.87 13.08 0
 1 1 -15 2.23 4.48 0
 1 1 -14 383.58 15.05 0
 1 1 -12 24.18 5.14 0
 1 1 -9 229.18 9.52 0
 1 1 -8 1014.25 17.29 0
 1 1 -6 2418.51 23.04 0
 1 1 -5 1908.32 19.1 0
 1 1 -4 434.18 8.86 0
 1 1 -3 214.57 5.64 0
 1 1 -2 1760.45 13.3 0
 1 1 -1 2668.53 14.14 0
 1 2 -14 1.35 4.55 0
 1 2 -12 600.87 17.27 0
 1 2 -11 464.69 14.5 0
 1 2 -8 968.56 17.67 0
 1 2 -7 1046.16 16.92 0
 1 2 -6 413.2 10.42 0
 1 2 -5 739.71 12.57 0
 1 2 -4 2680.89 21.4 0
 1 2 -3 1461.92 14.29 0
 1 2 -2 4076.49 20.82 0
 1 2 -1 6689.54 22.76 0
 1 2 4 2716 12.21 0
 1 3 -10 426.2 14.24 0
 1 3 -8 1867.25 25.19 0
 1 3 -7 212.43 8.47 0
 1 3 -6 312.7 9.31 0
 1 3 -5 199.06 7.18 0
 1 3 -4 808.64 12.83 0
 1 3 -3 195.01 6.22 0
 2 -9 -9 10.42 4.64 0
 2 -9 -8 96.58 8.22 0
 2 -8 -12 156.5 9.59 0
 2 -8 -11 3.29 3.92 0
 2 -8 -10 45.62 6.67 0
 2 -8 -9 20.8 5.03 0
 2 -8 -8 27.32 5.67 0
 2 -7 -15 79.25 8.51 0
 2 -7 -14 65.03 7.6 0
 2 -7 -13 107.54 9.04 0
 2 -7 -12 86.98 8.03 0
 2 -7 -11 149.74 9.8 0
 2 -7 -10 10.74 4.88 0
 2 -7 -9 62.55 7.26 0
 2 -7 -8 65.22 6.52 0
 2 -6 -18 39.91 7.72 0
 2 -6 -17 211.84 12.83 0
 2 -6 -16 30.52 6.8 0
 2 -6 -15 16.69 5.58 0
 2 -6 -14 23.84 5.94 0
 2 -6 -13 176.43 10.87 0
 2 -6 -12 4.21 4.21 0
 2 -6 -11 58.43 7.43 0
 2 -6 -10 310.47 12.78 0
 2 -6 -9 429.91 14.48 0
 2 -6 -8 202.45 9.74 0
 2 -5 -20 81.36 10.33 0
 2 -5 -19 32.7 8.23 0
 2 -5 -18 113.32 9.98 0
 2 -5 -17 9.58 6 0
 2 -5 -16 145.01 11.13 0
 2 -5 -15 9.02 4.82 0
 2 -5 -14 111.99 9.44 0
 2 -5 -13 177.06 10.62 0
 2 -5 -12 197.6 10.56 0
 2 -5 -11 23.31 5.67 0
 2 -5 -10 357.12 13.39 0
 2 -4 -20 5.36 5.84 0
 2 -4 -16 205.03 13.02 0
 2 -4 -15 247.89 12.86 0
 2 -4 -14 48.63 7.51 0
 2 -4 -13 66 8.01 0
 2 -4 -12 22.17 5.92 0
 2 -4 -11 0.4 3.56 0
 2 -4 -10 98.01 8.07 0
 2 -3 -21 77.17 11.89 0
 2 -3 -19 217.02 14.87 0
 2 -3 -18 19.39 7.77 0
 2 -3 -17 22.24 6.76 0
 2 -3 -16 84.87 9.6 0
 2 -3 -15 31.34 6.47 0
 2 -3 -14 80.67 9.07 0
 2 -3 -13 39.42 6.55 0
 2 -3 -12 22.57 5.34 0
 2 -3 -11 6.15 3.94 0
 2 -3 -7 597.88 14.38 0
 2 -2 -20 6.04 6.43 0
 2 -2 -19 111.67 11.15 0
 2 -2 -18 40.84 7.98 0
 2 -2 -17 169.86 12.02 0
 2 -2 -16 121.28 10.25 0
 2 -2 -15 150.73 10.85 0
 2 -2 -14 46.92 7.15 0
 2 -2 -13 500.96 16.68 0
 2 -2 -12 145.55 9.11 0
 2 -2 -11 65.23 6.7 0
 2 -2 -8 286.86 10.59 0
 2 -2 -7 28.52 4.39 0
 2 -2 -6 47.87 4.63 0
 2 -1 -20 123.14 13.57 0
 2 -1 -19 25.39 7.93 0
 2 -1 -16 5.73 5.54 0
 2 -1 -15 128.8 10.17 0
 2 -1 -13 16.37 4.91 0
 2 -1 -12 608.16 17.73 0
 2 -1 -11 23.81 4.74 0
 2 -1 -8 53.37 5.22 0
 2 -1 -7 332.61 10.76 0
 2 -1 -6 1498.61 20.91 0
 2 0 -19 66.03 10.19 0
 2 0 -17 3.3 5.69 0
 2 0 -16 205.97 13.29 0
 2 0 -14 108.07 9.96 0
 2 0 -13 303.8 13.6 0
 2 0 -12 128.34 9.1 0
 2 0 -11 223.03 10.95 0
 2 0 -8 7.44 3.43 0
 2 0 -7 144.07 7.04 0
 2 0 -5 1072.76 16.86 0
 2 0 -4 1018.55 15.71 0
 2 1 -19 30.32 8.55 0
 2 1 -18 159.2 13.59 0
 2 1 -17 220.08 14.53 0
 2 1 -16 2.88 5.04 0
 2 1 -15 135.59 11.08 0
 2 1 -14 16.41 5.96 0
 2 1 -13 17.63 5.44 0
 2 1 -12 569.75 17.41 0
 2 1 -8 50.52 4.88 0
 2 1 -7 308.19 9.87 0
 2 1 -6 1503.07 20.33 0
 2 1 -5 404.37 10.16 0
 2 1 -4 795.86 13.55 0
 2 1 -3 1847.79 19.14 0
 2 1 -2 475.57 8.99 0
 2 2 -17 148.48 12.23 0
 2 2 -16 123.86 10.64 0
 2 2 -15 148.97 10.89 0
 2 2 -13 499.95 17.41 0
 2 2 -12 160.49 10.46 0
 2 2 -11 55.66 7.01 0
 2 2 -6 53.38 5.31 0
 2 2 -5 111.08 6.18 0
 2 2 -4 128.96 5.81 0
 2 2 -3 321.84 8.12 0
 2 2 -2 1058.19 13.11 0
 2 2 -1 250.05 6.01 0
 2 3 -14 70.78 9.36 0
 2 3 -13 36.87 7.04 0
 2 3 -12 14.66 4.89 0
 2 3 -11 3.58 3.78 0
 2 3 -10 287.15 12.3 0
 2 3 -7 596.72 14.26 0
 2 3 -6 223.31 8.52 0
 2 3 -5 90.51 5.74 0
 2 3 -4 1209.7 16.39 0
 2 3 -3 1466.72 16.61 0
 2 3 -2 64.01 3.68 0
 2 3 1 1135.51 8.4 0
 2 3 6 225.15 3.99 0
 2 4 -11 6.71 4.92 0
 2 4 -10 100.21 8.1 0
 2 4 -9 238.62 10.8 0
 2 4 -6 705.54 14.97 0
 2 4 -5 64.93 5.46 0
 2 4 -4 250.99 8.18 0
 2 4 -3 1641.54 17.91 0
 2 4 -2 388.13 8.09 0
 3 -9 -11 84.02 9.5 0
 3 -9 -10 13.36 6.07 0
 3 -9 -9 -1.3 4.72 0
 3 -8 -14 67.26 8.99 0
 3 -8 -13 15.19 5.47 0
 3 -8 -11 130.33 11 0
 3 -8 -10 48.73 7.62 0
 3 -8 -9 73.36 9.2 0
 3 -7 -17 -0.16 5.36 0
 3 -7 -15 13.78 6.47 0
 3 -7 -14 2.75 5.52 0
 3 -7 -13 228.16 13.43 0
 3 -7 -12 228.19 12.88 0
 3 -7 -11 57.14 8.18 0
 3 -6 -19 30.94 7.87 0
 3 -6 -18 127.18 12.16 0
 3 -6 -17 7.72 6.78 0
 3 -6 -15 7.73 5.74 0
 3 -6 -13 30.39 6.76 0
 3 -6 -12 24.74 6.32 0
 3 -6 -11 483.1 17.74 0
 3 -6 -10 55.23 8.6 0
 3 -6 -9 11.75 5.04 0
 3 -5 -20 30.09 8.65 0
 3 -5 -19 1.65 5.83 0
 3 -5 -18 45.4 9.16 0
 3 -5 -16 51.18 8.89 0
 3 -5 -15 44.7 8.6 0
 3 -5 -13 195.58 11.98 0
 3 -5 -12 52.25 7.62 0
 3 -5 -11 300.4 14.32 0
 3 -5 -9 331.7 13.99 0
 3 -4 -21 68.1 10.66 0
 3 -4 -20 14.35 8.77 0
 3 -4 -19 28.45 8.52 0
 3 -4 -18 93.36 11.26 0
 3 -4 -16 210.39 13.98 0
 3 -4 -14 102.51 9.65 0
 3 -4 -12 1.74 5.01 0
 3 -4 -11 36.27 6.82 0
 3 -4 -10 134.31 9.73 0
 3 -4 -9 210.63 11.75 0
 3 -4 -8 54.92 6.56 0
 3 -3 -19 38.47 9.41 0
 3 -3 -18 13.6 7.05 0
 3 -3 -17 147.73 12.12 0
 3 -3 -16 52.55 8.51 0
 3 -3 -15 48.85 8.67 0
 3 -3 -14 50.3 7.85 0
 3 -3 -13 56.26 8.31 0
 3 -3 -12 12.65 5.77 0
 3 -3 -11 39.12 6.91 0
 3 -3 -9 812.33 20.39 0
 3 -2 -21 70.31 10.69 0
 3 -2 -20 95.91 12.29 0
 3 -2 -19 32.74 8.71 0
 3 -2 -17 127.86 11.68 0
 3 -2 -16 100.75 10.35 0
 3 -2 -14 108.65 10.19 0
 3 -2 -13 91.84 8.91 0
 3 -2 -12 237.63 12.82 0
 3 -2 -11 231.52 12.37 0
 3 -2 -10 144.54 9.57 0
 3 -2 -9 318.46 13.23 0
 3 -2 -8 222.05 10.56 0
 3 -1 -20 15.15 8.16 0
 3 -1 -19 33.32 8.76 0
 3 -1 -18 10.62 6.73 0
 3 -1 -17 60.67 10.31 0
 3 -1 -16 99.83 11.92 0
 3 -1 -15 113.29 11.43 0
 3 -1 -14 9.04 5.47 0
 3 -1 -13 204.08 11.94 0
 3 -1 -11 137.68 10.03 0
 3 -1 -10 520.11 16.44 0
 3 -1 -9 660.46 17.81 0
 3 0 -21 59.82 12.15 0
 3 0 -19 0.01 6.97 0
 3 0 -18 84.39 11.03 0
 3 0 -17 307.33 16.65 0
 3 0 -16 119.68 12.14 0
 3 0 -15 56.24 9.21 0
 3 0 -14 210.58 12.72 0
 3 0 -13 4.27 4.61 0
 3 0 -11 57.67 7.03 0
 3 0 -6 20.21 4.22 0
 3 0 -5 238.07 9.46 0
 3 1 -21 194.31 16.41 0
 3 1 -20 32.03 10.12 0
 3 1 -19 23.83 8.49 0
 3 1 -18 7 7.01 0
 3 1 -17 52.31 9.74 0
 3 1 -16 83.03 10.24 0
 3 1 -10 534.51 16.46 0
 3 1 -9 644.02 17.32 0
 3 1 -6 877.91 17.68 0
 3 1 -5 675.62 14.96 0
 3 1 -3 49.31 4.8 0
 3 2 -19 37.28 10.41 0
 3 2 -18 100.65 12.23 0
 3 2 -17 115.72 11.7 0
 3 2 -16 111.56 11.71 0
 3 2 -14 123.64 10.54 0
 3 2 -13 94.73 9.07 0
 3 2 -12 228.69 12.73 0
 3 2 -11 215.44 11.64 0
 3 2 -10 149.61 10.04 0
 3 2 -9 318.17 12.42 0
 3 2 -6 96.09 6.56 0
 3 2 -4 187.19 7.8 0
 3 2 -2 478.56 10.83 0
 3 2 -1 877.56 13.55 0
 3 3 -18 16.03 7.88 0
 3 3 -17 142.65 12.86 0
 3 3 -16 59.47 9.39 0
 3 3 -15 55.13 8.82 0
 3 3 -14 45.49 7.85 0
 3 3 -13 46.52 7.6 0
 3 3 -12 25.77 6.23 0
 3 3 -11 26.76 5.72 0
 3 3 -10 8.41 4.46 0
 3 3 -9 868.72 20.17 0
 3 3 -8 565.89 15.95 0
 3 3 -5 1991.42 24.48 0
 3 3 -4 390.6 10.57 0
 3 3 -2 169.31 6.47 0
 3 3 -1 22.56 2.83 0
 3 3 2 173.99 4.76 0
 3 4 -13 283.51 14.97 0
 3 4 -12 -0.04 4.57 0
 3 4 -11 30.95 6.26 0
 3 4 -10 151.52 10.49 0
 3 4 -9 230.6 11.08 0
 3 4 -8 60.78 7.28 0
 3 4 -5 698.83 15.13 0
 3 4 -4 205.3 7.9 0
 3 4 -3 62.35 4.56 0
 3 4 0 70.19 3.47 0
 3 4 1 27.23 2.07 0
 3 4 2 290.28 4.4 0
 3 5 -12 50.12 7.89 0
 3 5 -11 308.86 14.68 0
 3 5 -10 -1.46 5.06 0
 3 5 -9 322 13.37 0
 3 5 -8 80.9 7.69 0
 3 5 -7 127.25 7.92 0
 3 5 -5 142.59 7.57 0
 3 5 -4 468.95 11.6 0
 3 5 -3 209.57 7.39 0
 3 5 -1 314.66 7.28 0
 4 -10 -9 69.94 10.73 0
 4 -9 -12 1.47 5.94 0
 4 -9 -11 140.87 12.82 0
 4 -9 -10 54.9 9.84 0
 4 -8 -15 21.5 7.5 0
 4 -8 -14 -3.94 5.01 0
 4 -8 -13 106.08 10.88 0
 4 -8 -12 193.27 13.86 0
 4 -8 -11 91.17 11.35 0
 4 -8 -10 55.99 9.23 0
 4 -8 -9 116.05 11.57 0
 4 -7 -17 160.89 13.86 0
 4 -7 -16 34.3 8.34 0
 4 -7 -15 97.23 11.53 0
 4 -7 -14 32.37 8.12 0
 4 -7 -13 36.8 8.82 0
 4 -7 -12 124.9 12.66 0
 4 -7 -11 286.47 16.68 0
 4 -7 -10 112.77 12.06 0
 4 -6 -16 65.02 10.77 0
 4 -6 -14 36.5 8.16 0
 4 -6 -13 167.3 13.9 0
 4 -6 -12 72.35 11.05 0
 4 -6 -11 45.72 8.37 0
 4 -6 -10 0.25 5.63 0
 4 -6 -9 35.83 7.15 0
 4 -5 -19 0.73 6.62 0
 4 -5 -18 98.01 11.92 0
 4 -5 -17 85.15 12.24 0
 4 -5 -16 34.57 8.59 0
 4 -5 -15 2.57 6.54 0
 4 -5 -14 94.83 11.33 0
 4 -5 -13 27.93 7.88 0
 4 -5 -12 77.03 10.67 0
 4 -5 -11 366.99 17.6 0
 4 -5 -10 457.42 18.88 0
 4 -5 -9 155.19 11.77 0
 4 -4 -19 97.35 12.69 0
 4 -4 -18 162.79 14.96 0
 4 -4 -17 58.38 10.38 0
 4 -4 -16 18.24 7.45 0
 4 -4 -15 51.09 9.92 0
 4 -4 -14 60.22 9.15 0
 4 -4 -13 194.14 14.1 0
 4 -4 -12 106.01 10.6 0
 4 -4 -10 9 5.36 0
 4 -4 -9 -2.78 4.58 0
 4 -3 -20 95.33 12.8 0
 4 -3 -18 32.18 8.88 0
 4 -3 -17 18.55 8.72 0
 4 -3 -16 15.81 8.41 0
 4 -3 -15 81.28 10.89 0
 4 -3 -14 332.98 16.79 0
 4 -3 -13 176 13.29 0
 4 -3 -12 242 14.63 0
 4 -3 -11 11.9 5.78 0
 4 -3 -9 539.69 18.97 0
 4 -3 -8 533.29 18.06 0
 4 -2 -20 92.89 13.52 0
 4 -2 -19 30.75 9.93 0
 4 -2 -18 28.72 9.89 0
 4 -2 -17 11.79 8.11 0
 4 -2 -16 88.94 12.22 0
 4 -2 -15 319.28 17.3 0
 4 -2 -14 187.5 13.15 0
 4 -2 -12 101.2 10.47 0
 4 -2 -11 118.37 10.27 0
 4 -2 -10 9.56 5.16 0
 4 -2 -9 154.12 11.19 0
 4 -2 -8 13.01 5.39 0
 4 -2 -7 205.99 11.32 0
 4 -1 -20 5.63 8.29 0
 4 -1 -18 16.89 8.42 0
 4 -1 -17 10.27 7.02 0
 4 -1 -16 141.89 12.55 0
 4 -1 -15 164.39 12.79 0
 4 -1 -14 43.25 8.2 0
 4 -1 -11 186 11.66 0
 4 -1 -10 3.13 4.84 0
 4 -1 -8 232.03 12.54 0
 4 -1 -6 259.94 11.69 0
 4 0 -20 6.27 8.21 0
 4 0 -18 118.31 14.16 0
 4 0 -17 0.73 7.76 0
 4 0 -14 84.14 10.09 0
 4 0 -13 98.57 10.82 0
 4 0 -12 5.61 4.83 0
 4 0 -11 338.98 14.94 0
 4 0 -9 445.07 16.51 0
 4 0 -8 27.8 5.64 0
 4 0 -7 56.35 7.27 0
 4 0 -6 8.73 5 0
 4 1 -20 -0.75 8.02 0
 4 1 -19 140.22 13.88 0
 4 1 -17 25.04 8.45 0
 4 1 -15 176.62 14.13 0
 4 1 -14 49.19 8.41 0
 4 1 -13 305.07 16.17 0
 4 1 -12 54.07 8.31 0
 4 1 -11 193.37 11.8 0
 4 1 -10 5.14 4.51 0
 4 1 -8 213.27 11.62 0
 4 1 -6 260.94 11.63 0
 4 2 -20 100.79 14.29 0
 4 2 -18 29.15 8.59 0
 4 2 -17 13.96 8.35 0
 4 2 -16 115.57 12.08 0
 4 2 -14 169.43 13.26 0
 4 2 -13 17.11 6.56 0
 4 2 -12 86.95 10.55 0
 4 2 -11 114.34 9.41 0
 4 2 -10 16.08 5.8 0
 4 2 -9 162.35 10.63 0
 4 2 -8 12.9 4.68 0
 4 2 -7 214.04 10.44 0
 4 2 -6 359.69 12.68 0
 4 2 -3 355.46 11.61 0
 4 2 -2 255.95 9.67 0
 4 2 -1 2.85 2.73 0
 4 3 -18 22.66 9.97 0
 4 3 -17 24.98 9.15 0
 4 3 -15 87.77 11.33 0
 4 3 -14 344.81 17.13 0
 4 3 -13 194.81 12.93 0
 4 3 -12 236.82 13.51 0
 4 3 -11 18.17 6.77 0
 4 3 -10 451.51 16.9 0
 4 3 -7 231.82 11.21 0
 4 3 -6 186.14 9.48 0
 4 3 -3 350.61 10.97 0
 4 3 -2 23.04 4.1 0
 4 3 -1 174.78 7.38 0
 4 3 0 1214.24 17.16 0
 4 3 1 157.01 6.31 0
 4 4 -17 61.28 10.9 0
 4 4 -16 20.46 7.94 0
 4 4 -15 60.35 9.75 0
 4 4 -14 44.83 8.38 0
 4 4 -13 214.49 14.24 0
 4 4 -12 127.11 11.59 0
 4 4 -11 83.65 9.53 0
 4 4 -10 12.06 5.27 0
 4 4 -9 2.67 4.37 0
 4 4 -7 15.36 5.32 0
 4 4 -6 46 5.83 0
 4 4 -3 60.49 5.48 0
 4 4 -2 153.03 6.95 0
 4 4 -1 289.35 8.4 0
 4 4 1 277.3 6.99 0
 4 4 2 157.98 4.96 0
 4 4 3 60.37 2.92 0
 4 4 4 90.99 2.95 0
 4 5 -14 93.18 11.76 0
 4 5 -13 26.19 7.16 0
 4 5 -12 65.55 9.21 0
 4 5 -11 364.52 16 0
 4 5 -10 453.12 16.68 0
 4 5 -9 153.13 10.6 0
 4 5 -8 553.72 16.99 0
 4 5 -7 93.63 8.02 0
 4 5 -6 384.2 12.92 0
 4 5 -3 61.27 5.12 0
 4 5 0 105.63 4.39 0
 4 6 -9 34.21 7.22 0
 4 6 -8 113.95 8.77 0
 4 6 -6 2.4 3.26 0
 5 -10 -8 5.58 6.64 0
 5 -9 -10 48.84 10.63 0
 5 -9 -9 157.15 14.41 0
 5 -8 -13 2.89 6.79 0
 5 -8 -12 61.76 11.47 0
 5 -8 -11 23.12 8.04 0
 5 -8 -10 37.98 9.12 0
 5 -8 -9 22.85 9.32 0
 5 -7 -15 11.12 7.82 0
 5 -7 -13 59.65 11.55 0
 5 -7 -11 23.38 9.16 0
 5 -7 -10 138.91 13.87 0
 5 -7 -9 2.53 6.19 0
 5 -6 -16 85.08 12.06 0
 5 -6 -14 36.55 9.36 0
 5 -6 -13 161.29 15.14 0
 5 -6 -11 40.23 9.7 0
 5 -5 -16 32.71 9.37 0
 5 -5 -15 11.3 7.61 0
 5 -5 -14 61.51 11.18 0
 5 -5 -13 90.74 11.85 0
 5 -5 -12 174.38 14.88 0
 5 -5 -11 44.03 9.09 0
 5 -5 -10 13.1 8.07 0
 5 -5 -9 134.96 12.22 0
 5 -4 -17 20.13 9.07 0
 5 -4 -16 43.74 9.52 0
 5 -4 -15 37.07 9.08 0
 5 -4 -13 19.35 8.03 0
 5 -4 -12 -0.35 6.26 0
 5 -4 -11 352.83 18.79 0
 5 -4 -10 186.33 13.49 0
 5 -4 -9 5.46 6.12 0
 5 -3 -18 36.23 9.62 0
 5 -3 -15 344.92 19.71 0
 5 -3 -14 23.32 8.34 0
 5 -3 -13 84.47 11.32 0
 5 -3 -12 19.99 7.59 0
 5 -3 -9 9.18 6.4 0
 5 -3 -8 14.84 6.26 0
 5 -2 -18 35.77 11.04 0
 5 -2 -17 512.34 24.08 0
 5 -2 -16 15.84 9.34 0
 5 -2 -15 66.83 11.73 0
 5 -2 -14 158.54 14.16 0
 5 -2 -13 19.22 7.64 0
 5 -2 -12 29.76 8.07 0
 5 -2 -11 1.82 5.2 0
 5 -2 -10 97.1 11.3 0
 5 -2 -9 47.11 7.87 0
 5 -2 -7 92.17 8.69 0
 5 -1 -18 77.05 12.55 0
 5 -1 -17 1.91 7.34 0
 5 -1 -16 159.51 14.25 0
 5 -1 -15 190.27 14.69 0
 5 -1 -14 248.88 15.7 0
 5 -1 -13 58.72 9.54 0
 5 -1 -12 84.28 9.99 0
 5 -1 -11 5.87 5.81 0
 5 -1 -10 90.22 10.92 0
 5 -1 -9 43.03 8.37 0
 5 -1 -8 295.62 14.78 0
 5 -1 -6 6.26 4.94 0
 5 0 -18 -1.69 6.89 0
 5 0 -17 262.79 18.47 0
 5 0 -16 90.55 12.47 0
 5 0 -15 -7.12 5.31 0
 5 0 -14 -1.72 5.56 0
 5 0 -13 269.29 16.67 0
 5 0 -12 5.48 6.75 0
 5 0 -11 150.91 12.18 0
 5 0 -10 3.62 6.19 0
 5 0 -9 -5.68 4.59 0
 5 0 -8 220.54 12.66 0
 5 0 -7 14.66 5.62 0
 5 0 -6 147.99 10.96 0
 5 0 -5 22.39 5.6 0
 5 1 -18 80.13 13.06 0
 5 1 -17 3.43 7.66 0
 5 1 -15 219.92 16.45 0
 5 1 -14 248.43 15.78 0
 5 1 -13 71.84 10.54 0
 5 1 -12 79.04 10.28 0
 5 1 -11 4.62 5.26 0
 5 1 -10 82.68 9.14 0
 5 1 -9 30.34 6.67 0
 5 1 -7 47.14 7.43 0
 5 1 -6 6.3 4.79 0
 5 1 -4 341.43 13.43 0
 5 1 -3 49.59 7.05 0
 5 2 -18 35.15 10.43 0
 5 2 -16 25.15 8.54 0
 5 2 -14 141.67 12.61 0
 5 2 -13 22.62 7.53 0
 5 2 -12 16.8 6.72 0
 5 2 -11 -3.56 4.89 0
 5 2 -9 58.38 8.76 0
 5 2 -8 59.66 7.92 0
 5 2 -7 95.41 8.68 0
 5 2 -5 398.4 14.65 0
 5 2 -4 15.38 4.64 0
 5 2 -3 482.17 14.88 0
 5 3 -18 33.19 10.85 0
 5 3 -17 0.91 7.01 0
 5 3 -16 54.94 10.2 0
 5 3 -15 326.48 18.11 0
 5 3 -12 15.59 6.73 0
 5 3 -11 64.06 8.74 0
 5 3 -10 174.55 11.74 0
 5 3 -9 9.2 5.83 0
 5 3 -8 6.88 4.9 0
 5 3 -7 16.37 5.25 0
 5 3 -6 86.85 8.45 0
 5 3 -5 210.9 10.47 0
 5 3 -4 471.71 14.71 0
 5 3 1 194.7 8.29 0
 5 3 2 269.28 9.01 0
 5 4 -16 56.49 10.83 0
 5 4 -15 41.24 9.41 0
 5 4 -14 150.69 13.34 0
 5 4 -13 15.8 6.84 0
 5 4 -12 0.22 5.41 0
 5 4 -11 389.03 17.08 0
 5 4 -10 167.27 11.93 0
 5 4 -9 4.98 4.99 0
 5 4 -8 190.18 11.86 0
 5 4 -6 126.49 9.18 0
 5 4 -5 1.9 3.65 0
 5 4 -4 50.85 6.18 0
 5 5 -16 35.51 9.76 0
 5 5 -15 8.4 6.84 0
 5 5 -13 72 10.78 0
 5 5 -12 181.68 12.83 0
 5 5 -11 32.32 8.11 0
 5 5 -10 14.18 5.81 0
 5 5 -9 130.81 10.84 0
 5 5 -8 213.74 11.93 0
 5 5 -7 0.24 3.9 0
 5 5 -6 44.44 6.59 0
 5 5 -5 1.58 3.54 0
 5 5 -4 61.79 6.05 0
 5 6 -12 201.92 14.29 0
 5 6 -11 52.82 8.91 0
 5 6 -10 32.48 7.5 0
 5 6 -9 51.86 7.65 0
 5 6 -8 22.02 6.14 0
 5 6 -7 39.19 5.96 0
 5 6 -6 29.56 5.01 0
 6 -8 -9 87.93 13.34 0
 6 -7 -11 80.53 13.01 0
 6 -7 -10 244.44 17.5 0
 6 -7 -9 100.52 13.47 0
 6 -6 -13 17.32 9.02 0
 6 -6 -12 157.59 16.14 0
 6 -6 -11 31.68 10.3 0
 6 -6 -10 146.06 14.23 0
 6 -6 -9 16.56 8.23 0
 6 -5 -14 51.39 12.06 0
 6 -5 -13 234.89 18.14 0
 6 -5 -12 49.55 10.77 0
 6 -5 -11 15.96 8.4 0
 6 -5 -10 36.33 9.56 0
 6 -5 -9 100.22 13.77 0
 6 -5 -8 33.44 8.96 0
 6 -4 -15 3.97 8.08 0
 6 -4 -14 90.39 13.88 0
 6 -4 -13 176.86 16.55 0
 6 -4 -12 46.98 10.77 0
 6 -4 -11 11.46 8.12 0
 6 -4 -10 74.12 11.6 0
 6 -4 -9 59.33 10.51 0
 6 -4 -8 9.29 7.93 0
 6 -3 -15 0.33 7.09 0
 6 -3 -13 53.74 10.6 0
 6 -3 -12 63.11 10.92 0
 6 -3 -11 4.91 6.91 0
 6 -3 -10 94.24 12.06 0
 6 -3 -9 266.89 16.99 0
 6 -3 -8 96.27 12.63 0
 6 -3 -7 61.32 9.64 0
 6 -2 -16 7.37 7.81 0
 6 -2 -15 21.14 8.79 0
 6 -2 -14 43.95 10.19 0
 6 -2 -13 51.09 10.61 0
 6 -2 -12 148.88 14.34 0
 6 -2 -11 76.32 10.89 0
 6 -2 -10 128.62 12.56 0
 6 -2 -9 156.09 13.31 0
 6 -2 -7 51.63 9.01 0
 6 -1 -12 7.25 6.95 0
 6 -1 -11 78.22 10.95 0
 6 -1 -10 78.49 10.59 0
 6 -1 -8 61.66 9.56 0
 6 -1 -7 62.24 9.49 0
 6 -1 -6 5.62 5.72 0
 6 0 -16 9.7 8.31 0
 6 0 -15 96.3 13.3 0
 6 0 -14 147.6 14.12 0
 6 0 -13 79.59 11.17 0
 6 0 -10 17.11 7.31 0
 6 0 -9 11.75 6.58 0
 6 0 -8 24.06 7.06 0
 6 0 -7 72.62 9.6 0
 6 0 -6 284.63 15 0
 6 0 -4 29.69 6.77 0
 6 1 -15 22.19 8.71 0
 6 1 -14 63.31 11.61 0
 6 1 -13 50.11 9.97 0
 6 1 -12 5.94 6.63 0
 6 1 -11 76.42 11.24 0
 6 1 -10 91.9 10.65 0
 6 1 -9 78.71 10.15 0
 6 1 -7 54.26 8.63 0
 6 1 -6 -0.23 4.97 0
 6 1 -5 17.9 6.06 0
 6 1 -4 8.19 5.04 0
 6 1 -3 -1.77 4.19 0
 6 2 -16 12.29 7.96 0
 6 2 -15 25.85 9.38 0
 6 2 -14 58.98 11.26 0
 6 2 -13 50.46 9.71 0
 6 2 -11 80.09 10.53 0
 6 2 -10 131.56 12.17 0
 6 2 -9 129.12 11.59 0
 6 2 -8 -2.53 5.05 0
 6 2 -6 84.48 10.12 0
 6 2 -5 144.13 10.38 0
 6 2 -4 90.59 9.02 0
 6 2 -2 24.53 6.33 0
 6 2 -1 35.44 6.15 0
 6 2 0 39.26 5.85 0
 6 3 -15 7.82 7.27 0
 6 3 -14 119.83 12.89 0
 6 3 -12 46.9 9.96 0
 6 3 -11 11.49 6.91 0
 6 3 -10 104.67 10.59 0
 6 3 -9 261.76 14.29 0
 6 3 -7 49.19 8.15 0
 6 3 -6 158.86 10.76 0
 6 3 -5 50.86 6.96 0
 6 3 -4 11.35 5.32 0
 6 3 -3 112.5 8.66 0
 6 3 -2 33.12 5.6 0
 6 3 -1 110.03 7.98 0
 6 3 0 24.61 4.6 0
 6 3 1 109.83 7.34 0
 6 3 2 27.62 4.16 0
 6 4 -15 0.75 6.8 0
 6 4 -14 82.77 11.6 0
 6 4 -13 157.46 13.46 0
 6 4 -11 6.05 5.8 0
 6 4 -10 86.32 10.18 0
 6 4 -9 65.38 9.29 0
 6 4 -8 0.27 5.45 0
 6 4 -6 224.23 12.28 0
 6 4 -5 111.47 8.6 0
 6 4 -3 17.05 4.59 0
 6 4 -2 153.36 8.43 0
 6 5 -14 71.31 11.58 0
 6 5 -13 240.96 16.13 0
 6 5 -12 48.69 8.95 0
 6 5 -11 16.64 6.69 0
 6 5 -10 29.28 7.15 0
 6 5 -8 49.39 7.53 0
 6 5 -7 128.17 10.06 0
 6 5 -6 229.86 11.62 0
 6 5 -5 20.51 4.49 0
 6 6 -12 188.67 14.11 0
 6 6 -11 36.44 8.06 0
 6 6 -10 165.98 11.77 0
 7 -5 -10 21.14 9.32 0
 7 -5 -9 56.5 11.66 0
 7 -5 -8 63 11.96 0
 7 -5 -7 86.73 12.71 0
 7 -4 -11 9.71 8.43 0
 7 -4 -10 36.65 10.15 0
 7 -4 -9 9.21 8.12 0
 7 -4 -8 108.89 14.06 0
 7 -4 -7 9.2 7.75 0
 7 -3 -11 56.51 12.27 0
 7 -3 -10 17.6 8.78 0
 7 -3 -9 20.05 8.59 0
 7 -3 -7 119.09 12.78 0
 7 -3 -6 22.59 8.35 0
 7 -2 -12 62.74 12.59 0
 7 -2 -11 18.21 8.82 0
 7 -2 -10 73.05 12.14 0
 7 -2 -9 20.29 8.8 0
 7 -2 -8 2.47 7.37 0
 7 -2 -7 23.02 9.37 0
 7 -2 -6 196.07 15.64 0
 7 -1 -13 13.34 8.29 0
 7 -1 -12 41.6 9.72 0
 7 -1 -11 90.24 13.9 0
 7 -1 -10 22.28 8.81 0
 7 -1 -9 4.11 7.2 0
 7 -1 -8 58.82 10.51 0
 7 -1 -7 52.74 10.82 0
 7 -1 -6 45.14 9.45 0
 7 -1 -5 150.22 13.02 0
 7 -1 -4 36.45 8.21 0
 7 0 -13 131.21 13.85 0
 7 0 -12 3.85 7.33 0
 7 0 -9 12.13 8.15 0
 7 0 -8 82.03 11.24 0
 7 0 -5 488.57 20.83 0
 7 0 -4 76.8 10.32 0
 7 1 -13 12.09 8.66 0
 7 1 -11 114.51 13.97 0
 7 1 -10 17.38 7.58 0
 7 1 -9 1.64 7.38 0
 7 1 -8 77.87 10.72 0
 7 1 -7 47.96 9.71 0
 7 1 -6 37.09 8.29 0
 7 1 -5 154.61 13.2 0
 7 1 -4 30.88 7.18 0
 7 1 -2 116.73 10.93 0
 7 1 -1 61.64 8.32 0
 7 2 -13 39.82 11.24 0
 7 2 -12 54.42 10.33 0
 7 2 -11 8.62 7.07 0
 7 2 -9 20.61 7.81 0
 7 2 -8 7.08 6.46 0
 7 2 -5 9.25 5.74 0
 7 2 -4 15.14 7.01 0
 7 2 -3 41.82 7.43 0
 7 2 -2 420.34 16.74 0
 7 2 -1 244.67 13.27 0
 7 2 0 82.25 8.16 0
 7 2 1 245.68 12.43 0
 7 2 2 429.6 14.88 0
 7 3 -13 100.87 12.84 0
 7 3 -12 6.58 7 0
 7 3 -11 85.39 10.88 0
 7 3 -10 8.29 6.72 0
 7 3 -9 21.43 7.82 0
 7 3 -7 116.78 11.24 0
 7 3 -6 15.07 6.55 0
 7 3 -5 18.15 6.24 0
 7 3 -4 14.08 5.66 0
 7 3 -3 5.7 4.55 0
 7 3 -2 141.2 9.7 0
 7 4 -12 69.54 10.97 0
 7 4 -10 33.17 8.38 0
 7 4 -9 10.42 6.35 0
 7 4 -8 96.61 10.63 0
 7 4 -7 18.58 6.27 0
 7 4 -6 28.84 6.89 0
 7 5 -9 55.73 9.04 0
 8 -4 -5 53.91 11.21 0
 8 -3 -7 32.18 10.64 0
 8 -3 -6 45 11.1 0
 8 -3 -5 116.57 15.43 0
 8 -2 -6 103.21 15.02 0
 8 -2 -5 77.61 11.92 0
 8 -1 -8 26.53 9.39 0
 8 -1 -7 77.93 11.82 0
 8 -1 -6 119.77 14.74 0
 8 -1 -5 34.03 9.39 0
 8 -1 -4 64.48 11.28 0
 8 -1 -3 8.47 6.92 0
 8 0 -9 64.28 11.48 0
 8 0 -8 16.18 9.02 0
 8 0 -7 33.23 9.6 0
 8 0 -6 488.59 21.95 0
 8 0 -4 251.05 16.32 0
 8 0 -3 75.11 10.75 0
 8 0 -2 10.65 7.7 0
 8 0 -1 336.25 17.64 0
 8 1 -9 91.36 12.19 0
 8 1 -8 16.81 7.83 0
 8 1 -7 69.8 11.01 0
 8 1 -6 109.07 13.03 0
 8 1 -5 33.51 8.39 0
 8 1 -4 82.8 11.23 0
 8 1 -3 13.6 7.16 0
 8 1 -2 18.64 7.39 0
 8 1 -1 35.32 7.96 0
 8 1 1 44.6 7.63 0
 8 2 -9 15.39 8.51 0
 8 2 -8 15.83 7.76 0
 8 2 -7 180.8 14.11 0
 8 2 -6 97.71 11.9 0
 8 2 -5 93.3 11.24 0
 8 2 -4 116.13 11.08 0
 8 2 -3 106.78 10.43 0
 8 2 -2 57.45 8.55 0
 8 3 -9 3.93 6.28 0
 8 3 -8 184.1 13.64 0
 8 3 -7 33.15 7.74 0
 8 3 -6 48.38 8.34 0
 8 3 -5 119.3 10.91 0
 -6 8 6 58.93 8.41 0
 -6 9 5 -3.46 5.72 0
 -6 9 6 116.01 11.31 0
 -5 3 7 17.89 3.12 0
 -5 5 7 5.3 3.49 0
 -5 5 8 202.92 9.39 0
 -5 5 9 122.46 7.61 0
 -5 6 7 43.33 6.81 0
 -5 6 8 23.28 5.56 0
 -5 7 8 132.66 10.14 0
 -5 7 9 -0.47 4.1 0
 -5 7 10 126.97 9.56 0
 -5 8 6 13.43 6.55 0
 -5 8 7 100.38 10.26 0
 -5 8 8 31.92 7.86 0
 -5 8 9 25 6.95 0
 -5 8 10 38.27 7.1 0
 -5 9 5 8.14 6.45 0
 -5 9 6 181.12 13.4 0
 -5 9 7 38.94 8.02 0
 -5 9 8 24.03 7.1 0
 -5 9 9 157.85 12.05 0
 -5 9 10 65.48 8.81 0
 -5 10 5 2.1 6.27 0
 -5 10 6 58.32 10.09 0
 -5 10 8 6.07 6 0
 -4 1 6 266.09 5.18 0
 -4 2 7 220.22 6.25 0
 -4 2 8 12.51 2.11 0
 -4 2 9 162.55 5.07 0
 -4 2 10 10.8 2.15 0
 -4 3 7 244.95 7.96 0
 -4 3 8 568.27 11.57 0
 -4 3 9 534.47 11.07 0
 -4 3 10 444.03 10.12 0
 -4 3 11 23.02 3.46 0
 -4 5 7 99.11 6.89 0
 -4 5 8 581.96 15.14 0
 -4 5 9 163.47 8.69 0
 -4 5 12 65.85 6.41 0
 -4 6 7 40.9 6.6 0
 -4 6 8 112.08 8.79 0
 -4 6 9 33.76 6.14 0
 -4 6 10 7.44 4.48 0
 -4 6 11 48.97 6.36 0
 -4 6 13 145.31 9.46 0
 -4 7 7 259.41 12.86 0
 -4 7 8 107.03 9.09 0
 -4 7 9 63.81 8.28 0
 -4 7 10 102.68 8.94 0
 -4 7 12 142.19 10.46 0
 -4 7 13 21.84 5.95 0
 -4 8 6 13.17 6.08 0
 -4 8 7 42.93 7.5 0
 -4 8 10 66.34 9.48 0
 -4 8 11 94.16 10.05 0
 -4 8 12 197.43 12.37 0
 -4 8 13 100.36 9.96 0
 -4 9 5 318.84 15.92 0
 -4 9 7 76.28 9.86 0
 -4 9 9 110.38 11.45 0
 -4 9 10 43.64 8.35 0
 -4 9 11 143.41 11.77 0
 -4 9 12 4.93 5.91 0
 -4 10 5 35.04 8.31 0
 -4 10 7 165 13.93 0
 -4 10 8 56.93 10.43 0
 -4 10 9 58.9 9.41 0
 -4 10 10 23.7 8.76 0
 -4 10 11 24.26 7.61 0
 -4 11 3 16.01 8.22 0
 -4 11 6 144.01 14.51 0
 -4 11 7 126.93 14.44 0
 -3 -1 3 49.47 1.61 0
 -3 1 6 873.67 9.02 0
 -3 1 7 108.26 3.45 0
 -3 1 8 726.99 8.67 0
 -3 1 9 655.12 8.46 0
 -3 2 6 95.56 4.39 0
 -3 2 7 142.24 5.14 0
 -3 2 9 312.63 7.61 0
 -3 2 10 143.73 5.67 0
 -3 2 11 236.64 7.2 0
 -3 2 12 243.05 7.49 0
 -3 3 7 228.83 7.76 0
 -3 3 8 588.99 11.86 0
 -3 3 9 859.88 14.41 0
 -3 3 10 16.17 3.63 0
 -3 3 11 25.43 3.79 0
 -3 4 7 278.43 9.46 0
 -3 4 12 0.46 3.13 0
 -3 4 13 266.22 10.44 0
 -3 4 14 94.93 6.97 0
 -3 4 15 183.53 9.04 0
 -3 5 8 78.64 6.82 0
 -3 5 9 323.06 11.47 0
 -3 5 10 3.05 4.12 0
 -3 5 11 298.4 11.46 0
 -3 5 12 42.55 5.81 0
 -3 5 13 195.04 9.94 0
 -3 5 14 57.97 6.8 0
 -3 5 16 48.38 6.77 0
 -3 6 7 3.88 4.26 0
 -3 6 9 -0.86 3.81 0
 -3 6 10 49.01 6.42 0
 -3 6 12 43.63 6.99 0
 -3 6 13 39.11 6.31 0
 -3 6 14 229.89 12.23 0
 -3 6 15 5.88 4.8 0
 -3 7 6 166.89 10.12 0
 -3 7 8 56.73 7.97 0
 -3 7 9 41.18 6.55 0
 -3 7 10 64.06 7.96 0
 -3 7 11 78.98 9.45 0
 -3 7 12 209.09 11.93 0
 -3 7 14 6.47 5.96 0
 -3 7 15 18.87 6.4 0
 -3 7 16 35.72 7.09 0
 -3 8 6 4.53 5.23 0
 -3 8 7 30.48 7.59 0
 -3 8 8 190.97 12.72 0
 -3 8 9 73.8 9.49 0
 -3 8 12 121.89 11.11 0
 -3 8 13 26.48 7.53 0
 -3 8 14 68.04 9.66 0
 -3 8 15 113.16 11.25 0
 -3 8 16 25.12 7.73 0
 -3 9 5 278.83 15.34 0
 -3 9 6 77.91 9.75 0
 -3 9 7 197.18 13.73 0
 -3 9 9 4.58 6.6 0
 -3 9 10 12.88 6.44 0
 -3 9 11 74.76 10.18 0
 -3 9 12 136.86 12.6 0
 -3 9 13 -6.44 5.29 0
 -3 9 14 2.48 6.13 0
 -3 9 15 61.28 9.7 0
 -3 9 16 43.1 9.29 0
 -3 10 5 25.84 7.64 0
 -3 10 6 47.54 9.29 0
 -3 10 7 8.46 7.43 0
 -3 10 8 27.32 9.16 0
 -3 10 9 74.47 10.55 0
 -3 10 10 120.44 12.68 0
 -3 10 11 28.37 8.98 0
 -3 10 12 41.58 9 0
 -3 11 3 17.82 9.28 0
 -3 11 4 29.32 8.52 0
 -3 11 5 11.81 7.42 0
 -3 11 6 32.41 9.01 0
 -3 11 7 117.02 14.01 0
 -3 11 8 11.2 8.18 0
 -3 11 9 7.2 7.6 0
 -3 11 10 70.81 11.11 0
 -3 12 2 -0.86 8.82 0
 -2 -1 1 467.82 5.58 0
 -2 -1 2 483.25 4.36 0
 -2 0 6 273.45 4 0
 -2 1 5 390.28 6.17 0
 -2 1 6 1480.02 12.36 0
 -2 1 7 308.02 6.21 0
 -2 1 8 53.03 3.26 0
 -2 1 9 185.11 5.6 0
 -2 1 10 174.26 5.96 0
 -2 2 5 122.2 4.68 0
 -2 2 6 53.81 3.45 0
 -2 2 7 25.12 2.78 0
 -2 2 8 309.06 7.75 0
 -2 2 10 201.38 7.22 0
 -2 2 11 56.02 4.88 0
 -2 2 12 161.4 7.04 0
 -2 2 13 497.59 12.73 0
 -2 3 6 216.07 7.29 0
 -2 3 8 323.67 9 0
 -2 3 9 541.8 12.05 0
 -2 3 10 287.62 9.39 0
 -2 3 11 2.37 3.02 0
 -2 3 14 69.13 6.44 0
 -2 4 6 703.37 14.09 0
 -2 4 7 554.31 12.99 0
 -2 4 13 58.03 6.9 0
 -2 4 14 47.4 6.52 0
 -2 5 9 122.82 8.18 0
 -2 5 10 350.77 12.43 0
 -2 5 11 20.92 4.96 0
 -2 5 12 197.08 10 0
 -2 5 13 169.58 10.17 0
 -2 5 14 114.92 8.79 0
 -2 5 15 10.47 4.8 0
 -2 5 17 11.57 6.21 0
 -2 6 7 121.1 8.25 0
 -2 6 8 219.73 11.02 0
 -2 6 9 406.7 13.8 0
 -2 6 10 301.01 12.69 0
 -2 6 11 63.22 7.44 0
 -2 6 12 3.26 4.49 0
 -2 6 13 182.92 11.4 0
 -2 6 14 29.67 6.67 0
 -2 6 15 6.94 5.51 0
 -2 6 16 41.7 7.41 0
 -2 6 17 213.08 12.61 0
 -2 6 18 55.88 8.86 0
 -2 7 6 418.13 14.73 0
 -2 7 7 140.54 10.11 0
 -2 7 9 54.27 7.75 0
 -2 7 10 19.56 6 0
 -2 7 11 168.87 11.38 0
 -2 7 14 65.62 9.19 0
 -2 7 15 77.43 10.34 0
 -2 7 16 25.67 7.9 0
 -2 7 17 34.45 8.16 0
 -2 7 18 57.36 9.15 0
 -2 8 5 57.38 7.49 0
 -2 8 6 157.39 11.29 0
 -2 8 7 56.35 8.45 0
 -2 8 8 15.83 5.65 0
 -2 8 9 16.31 5.95 0
 -2 8 10 47.01 8.45 0
 -2 8 11 12.86 6.49 0
 -2 8 12 169.25 11.89 0
 -2 8 13 143.88 11.85 0
 -2 8 14 67.78 10.17 0
 -2 8 15 106.49 11.51 0
 -2 8 16 12.96 6.7 0
 -2 8 17 289.83 16.29 0
 -2 8 18 31.54 8.76 0
 -2 9 4 80.56 9.31 0
 -2 9 5 286.61 14.85 0
 -2 9 6 32.42 8.27 0
 -2 9 7 16.75 6.38 0
 -2 9 8 102.84 10.94 0
 -2 9 9 13.62 7.1 0
 -2 9 10 132.31 11.61 0
 -2 9 11 26.5 8.42 0
 -2 9 12 48.99 8.83 0
 -2 9 13 51.64 9.79 0
 -2 9 14 269.05 16.03 0
 -2 9 15 4.55 7.08 0
 -2 9 16 37.59 9.34 0
 -2 10 3 93.43 10.03 0
 -2 10 4 18.96 7.23 0
 -2 10 5 25.83 8.38 0
 -2 10 6 23.84 8.35 0
 -2 10 7 98.13 11.83 0
 -2 10 8 32.27 8.21 0
 -2 10 9 46.38 8.94 0
 -2 10 10 27.36 8.16 0
 -2 10 11 105.33 13.14 0
 -2 10 12 24.98 8.8 0
 -2 10 13 2.77 6.76 0
 -2 10 14 66.41 11.04 0
 -2 11 2 21.1 8.63 0
 -2 11 3 29.94 8.39 0
 -2 11 5 28.42 8.42 0
 -2 11 6 0.94 6.8 0
 -2 11 7 27.4 8.49 0
 -2 11 8 117.84 13.77 0
 -2 11 9 -1.2 7.97 0
 -2 11 10 77.98 12.26 0
 -2 11 11 58.04 11.76 0
 -2 12 0 85.31 12.99 0
 -2 12 1 21.26 9.25 0
 -2 12 3 8.5 7.94 0
 -2 12 4 57.36 11.79 0
 -2 12 5 30.81 9.17 0
 -1 -1 0 5907.15 17.48 0
 -1 0 4 0.79 0.81 0
 -1 0 5 4031.43 16.82 0
 -1 1 3 218.6 4.39 0
 -1 1 4 414.69 6.15 0
 -1 1 5 1863.68 13.98 0
 -1 1 6 2401.97 17.21 0
 -1 1 7 302.19 6.99 0
 -1 1 8 1004.18 13.18 0
 -1 1 9 232.21 7.1 0
 -1 2 4 2645.33 18.77 0
 -1 2 5 747.61 10.87 0
 -1 2 6 423.7 8.75 0
 -1 2 7 1036 13.97 0
 -1 2 8 967.12 14.3 0
 -1 2 9 179.99 7.01 0
 -1 2 10 123.49 6.14 0
 -1 2 11 462.99 11.85 0
 -1 3 4 813.15 12.57 0
 -1 3 5 185.23 6.83 0
 -1 3 6 313.26 8.61 0
 -1 3 7 205.54 7.44 0
 -1 3 8 1948.55 22.24 0
 -1 3 9 677.03 13.82 0
 -1 3 10 447.5 11.9 0
 -1 3 13 372.44 12.26 0
 -1 3 14 258.26 10.95 0
 -1 4 5 296.4 9.17 0
 -1 4 6 460.88 11.52 0
 -1 4 7 155.96 7.56 0
 -1 4 12 318.76 12.21 0
 -1 4 14 264.96 12.21 0
 -1 4 15 55.77 7.38 0
 -1 4 16 143.42 9.95 0
 -1 5 9 522.51 14.76 0
 -1 5 10 85.88 7.07 0
 -1 5 11 210.51 10.37 0
 -1 5 12 89.59 8.22 0
 -1 5 14 47.77 7.04 0
 -1 5 15 91.15 8.35 0
 -1 5 16 3.16 5.15 0
 -1 5 17 5.2 6.07 0
 -1 6 5 1076.21 20.55 0
 -1 6 6 264.75 11.27 0
 -1 6 7 132.73 8.45 0
 -1 6 8 107.27 8.28 0
 -1 6 9 121.52 8.98 0
 -1 6 10 1.49 4.67 0
 -1 6 11 198.72 11.13 0
 -1 6 12 26.8 6.68 0
 -1 6 14 45.65 7.57 0
 -1 6 15 326.76 15.02 0
 -1 6 16 258.49 14.37 0
 -1 6 17 63.5 9.1 0
 -1 6 18 55.97 9.52 0
 -1 7 4 23.16 5.17 0
 -1 7 5 14.92 4.63 0
 -1 7 7 331.2 13.26 0
 -1 7 8 114.19 8.93 0
 -1 7 10 178.55 11.45 0
 -1 7 11 390.11 15.62 0
 -1 7 12 42.9 7.42 0
 -1 7 13 140.19 11.73 0
 -1 7 14 109.58 10.48 0
 -1 7 15 83.65 10.35 0
 -1 7 17 206.46 14.1 0
 -1 7 18 40.07 9.27 0
 -1 8 4 9.09 4.96 0
 -1 8 5 404.65 15.97 0
 -1 8 6 83.7 8.33 0
 -1 8 7 11.94 6.03 0
 -1 8 8 48.87 7.53 0
 -1 8 10 314.23 14.85 0
 -1 8 11 214.85 13.64 0
 -1 8 12 37.76 7.77 0
 -1 8 13 257.78 15.47 0
 -1 8 14 14.07 6.66 0
 -1 8 15 62.88 10.16 0
 -1 8 16 15.48 7.56 0
 -1 8 17 7.09 7.02 0
 -1 8 18 14.66 8.17 0
 -1 9 3 78.52 8.4 0
 -1 9 5 251.8 14.07 0
 -1 9 6 35.87 7.94 0
 -1 9 7 288.66 15.13 0
 -1 9 8 45.24 8.16 0
 -1 9 9 41.85 7.98 0
 -1 9 10 17.64 7.16 0
 -1 9 11 1.54 6.96 0
 -1 9 12 104.96 10.9 0
 -1 9 13 21.69 7.46 0
 -1 9 15 145.01 13.69 0
 -1 9 16 17.6 7.8 0
 -1 10 2 150.15 11.6 0
 -1 10 3 66.41 9.61 0
 -1 10 4 33.57 9 0
 -1 10 5 32.67 8.42 0
 -1 10 6 19.9 7.21 0
 -1 10 7 93.78 10.54 0
 -1 10 8 220.15 14.24 0
 -1 10 10 146.09 12.84 0
 -1 10 11 1.26 6.67 0
 -1 10 12 111.66 13.31 0
 -1 10 13 57.45 11.23 0
 -1 11 0 9.56 7.55 0
 -1 11 1 57.45 9.63 0
 -1 11 2 30.36 8.26 0
 -1 11 3 3.82 7.8 0
 -1 11 4 154.42 12.96 0
 -1 11 5 19.02 8.35 0
 -1 11 7 33.62 8.48 0
 -1 11 8 90.44 11.35 0
 -1 11 9 219.69 16.33 0
 -1 11 10 2.9 7.79 0
 -1 11 11 0.79 7.23 0
 -1 11 12 72.55 11.84 0
 -1 12 -2 76.48 11.19 0
 -1 12 -1 18.63 7.93 0
 -1 12 0 32.42 8.92 0
 -1 12 1 14.13 8.2 0
 -1 12 2 73.19 11.58 0
 -1 12 3 225.09 16.62 0
 -1 12 4 38.6 9.49 0
 -1 12 6 8.35 7.9 0
 -1 12 7 6.74 7.79 0
 0 0 -3 -0.57 1.39 0
 0 0 -2 1341.9 7.68 0
 0 0 2 1325.4 7.81 0
 0 1 1 2315.56 11.18 0
 0 1 2 598.84 6.58 0
 0 1 3 2077.12 13.43 0
 0 1 4 4856.74 22.87 0
 0 1 5 427.68 7.82 0
 0 1 6 552.82 9.8 0
 0 1 7 2254.35 20.24 0
 0 1 8 62.77 4.61 0
 0 1 9 51 4.66 0
 0 2 2 221.3 5.22 0
 0 2 3 4952.1 25.07 0
 0 2 4 7350.65 32.11 0
 0 2 6 3183.06 24.36 0
 0 2 7 1036.98 15.1 0
 0 2 10 4.22 3.03 0
 0 3 3 3642.8 25.27 0
 0 3 4 3557.29 26.01 0
 0 3 5 4.55 2.68 0
 0 3 6 57.38 4.86 0
 0 3 7 469.48 11.22 0
 0 3 9 911.87 17.14 0
 0 3 12 -3.62 3.02 0
 0 3 13 216.94 10.89 0
 0 4 3 3882.07 29.54 0
 0 4 4 390.1 10.16 0
 0 4 5 609.92 12.95 0
 0 4 6 365.18 10.61 0
 0 4 11 237.49 10.67 0
 0 4 12 115.42 8.38 0
 0 4 13 202.19 11.08 0
 0 4 15 661.35 19.59 0
 0 5 3 121.08 6.55 0
 0 5 4 124.18 7.05 0
 0 5 8 37.99 5.83 0
 0 5 9 11.72 4.79 0
 0 5 10 12.44 4.85 0
 0 5 11 25.87 5.48 0
 0 5 12 0.92 4.35 0
 0 5 13 90.61 9.13 0
 0 5 14 229.69 12.63 0
 0 5 15 61.59 8.2 0
 0 5 16 215.93 13.49 0
 0 6 5 518.47 14.75 0
 0 6 6 82.79 7.24 0
 0 6 7 5.22 4.47 0
 0 6 8 313.59 12.56 0
 0 6 9 22.21 5.1 0
 0 6 10 64.73 7.54 0
 0 6 11 8.11 5.1 0
 0 6 12 83.8 8.52 0
 0 6 13 375.46 16.24 0
 0 6 16 -0.73 5.61 0
 0 6 17 381.86 18.51 0
 0 7 2 79.82 7.43 0
 0 7 3 122.06 8.38 0
 0 7 4 1.17 4.04 0
 0 7 5 690.79 18.4 0
 0 7 6 21.93 5.22 0
 0 7 7 138.87 9.24 0
 0 7 8 8.81 5.14 0
 0 7 9 39.44 6.48 0
 0 7 11 286.99 14.02 0
 0 7 12 113.47 10.08 0
 0 7 13 13.84 6.68 0
 0 7 14 7.89 6.94 0
 0 7 15 7.54 6.48 0
 0 7 16 171.94 13.08 0
 0 7 17 12.21 7.49 0
 0 7 18 49.74 10.29 0
 0 8 2 350.38 14.11 0
 0 8 3 22.29 5.65 0
 0 8 4 446.1 15.8 0
 0 8 5 107.03 9.32 0
 0 8 6 331.12 14.6 0
 0 8 7 175.7 11.02 0
 0 8 8 172.72 11.11 0
 0 8 9 66.82 9.42 0
 0 8 10 1.29 5.89 0
 0 8 11 12.01 6.05 0
 0 8 12 12.84 6.58 0
 0 8 13 1.21 5.95 0
 0 8 14 436.16 19.99 0
 0 8 15 5.33 7.94 0
 0 8 16 120.7 13.27 0
 0 9 1 123.35 9.59 0
 0 9 2 64.12 8.26 0
 0 9 3 43.54 7.4 0
 0 9 4 1.36 5.25 0
 0 9 5 71.5 9.43 0
 0 9 6 31.32 7.7 0
 0 9 7 35.64 8.16 0
 0 9 8 49.25 9.22 0
 0 9 9 368.43 17.64 0
 0 9 10 226.14 14.9 0
 0 9 11 149.19 13.29 0
 0 9 12 32.82 8.85 0
 0 9 13 71.17 11.07 0
 0 9 14 46.29 10.05 0
 0 9 15 51.52 10.41 0
 0 9 16 51.84 10.3 0
 0 10 -1 34.25 7.28 0
 0 10 0 88.48 10.31 0
 0 10 1 30.05 6.99 0
 0 10 3 88.91 9.7 0
 0 10 4 75.56 10.36 0
 0 10 5 15.64 6.61 0
 0 10 6 39.61 8.07 0
 0 10 7 188.12 13.75 0
 0 10 8 34.82 9.42 0
 0 10 9 36.58 8.81 0
 0 10 10 198.58 14.39 0
 0 10 11 3.26 7.09 0
 0 10 12 88.07 11.62 0
 0 10 13 37.61 9.52 0
 0 10 14 78.73 12.9 0
 0 11 -2 -4.83 6.81 0
 0 11 -1 7.02 7.51 0
 0 11 0 -0.93 6.89 0
 0 11 2 7.04 6.45 0
 0 11 5 5.9 6.8 0
 0 11 6 154.01 13.7 0
 0 11 8 101.93 12.48 0
 0 11 10 22.36 8.77 0
 0 11 11 1.03 7.1 0
 0 11 12 2.07 9.29 0
 0 12 -5 15.64 8.45 0
 0 12 -4 14.09 7.1 0
 0 12 -3 21.74 8.84 0
 0 12 -2 107.83 12.32 0
 0 12 -1 155.85 13.3 0
 0 12 0 114.37 11.88 0
 0 12 1 140.67 12.99 0
 0 12 2 77.6 10.95 0
 0 12 4 3.8 6.93 0
 0 12 5 10.59 8.48 0
 0 12 6 8.04 7.7 0
 0 12 7 6.34 7.37 0
 0 12 8 16.95 10.06 0
 0 13 -1 26.29 9.8 0
 0 13 0 0.95 7.47 0
 1 0 -4 0.75 0.89 0
 1 1 -5 1926.13 10.94 0
 1 1 1 2676.7 14.2 0
 1 1 2 1779.4 13.32 0
 1 1 4 431.44 8.14 0
 1 1 5 1888.01 18.48 0
 1 2 -1 6823.74 22.77 0
 1 2 1 6698.13 26.4 0
 1 2 2 4090.98 22.76 0
 1 2 3 1455.15 14.74 0
 1 2 4 2652.87 21.42 0
 1 2 5 744.13 12.82 0
 1 2 6 437.71 10.33 0
 1 2 7 1049.53 16.51 0
 1 2 8 972.47 16.67 0
 1 2 9 181.87 8.42 0
 1 3 2 222.06 6.54 0
 1 3 4 804.85 13.21 0
 1 3 5 187.47 7.37 0
 1 3 7 211.84 8.54 0
 1 3 11 42.6 5.89 0
 1 3 12 99.39 7.96 0
 1 4 1 326.93 8.68 0
 1 4 2 1382.77 17.45 0
 1 4 3 1663.32 19.63 0
 1 4 4 1109.19 17 0
 1 4 5 306.99 9.65 0
 1 4 10 16.99 4.55 0
 1 4 11 131.23 8.74 0
 1 4 12 325.56 13.05 0
 1 4 14 263.77 13.46 0
 1 5 0 9.92 2.9 0
 1 5 2 490.07 11.99 0
 1 5 3 72.67 5.35 0
 1 5 8 1243.06 22.6 0
 1 5 9 530.77 15.84 0
 1 5 10 80.85 7.51 0
 1 5 12 97.73 8.56 0
 1 5 13 42.2 7.21 0
 1 5 14 49.95 7.77 0
 1 6 5 1102.4 20.92 0
 1 6 6 260.9 11.1 0
 1 6 7 136.7 8.77 0
 1 6 9 116.42 9.13 0
 1 6 10 3.67 4.44 0
 1 6 11 188.24 11.35 0
 1 6 12 18.99 6.1 0
 1 6 13 70.17 9.22 0
 1 7 0 134.56 7.94 0
 1 7 1 20.85 4.62 0
 1 7 2 101.78 8.05 0
 1 7 5 15.06 5.34 0
 1 7 7 332.87 13.54 0
 1 7 8 119.38 9.23 0
 1 7 9 166.13 10.67 0
 1 7 11 377.26 16.22 0
 1 7 12 37.9 7.69 0
 1 7 15 98.75 11.85 0
 1 7 16 35.14 8.68 0
 1 7 17 202.9 16.34 0
 1 8 -1 260.25 11.2 0
 1 8 0 309.43 12.48 0
 1 8 1 285.7 12.57 0
 1 8 2 216.52 11.57 0
 1 8 3 165.1 10.54 0
 1 8 4 7.74 5.63 0
 1 8 5 370.41 15 0
 1 8 6 77.03 8.79 0
 1 8 7 6.44 5.6 0
 1 8 8 56.78 8.51 0
 1 8 9 141.32 11.07 0
 1 8 10 297.03 14.92 0
 1 8 11 214.84 13.76 0
 1 8 12 39.74 8.38 0
 1 8 13 251.5 16.11 0
 1 8 14 18.37 9 0
 1 8 15 64.85 11.12 0
 1 8 16 21.77 8.34 0
 1 8 17 14.33 8.19 0
 1 8 18 9.95 8.63 0
 1 9 -3 71.13 7.87 0
 1 9 -2 86.18 8.59 0
 1 9 -1 72.72 8.49 0
 1 9 1 82.69 9.13 0
 1 9 2 95.2 8.82 0
 1 9 3 74.42 9.16 0
 1 9 5 237.18 13 0
 1 9 6 37.22 7.4 0
 1 9 7 278.25 15.39 0
 1 9 8 35.4 7.72 0
 1 9 9 36.74 7.96 0
 1 9 11 7.44 8.37 0
 1 9 13 16.22 7.87 0
 1 9 15 155.31 15.06 0
 1 9 16 10.72 8.83 0
 1 10 -4 24.22 6.45 0
 1 10 -2 143.01 11.19 0
 1 10 -1 4.1 5.39 0
 1 10 0 0.66 6.03 0
 1 10 1 13.11 6.11 0
 1 10 2 135.69 10.79 0
 1 10 3 61.93 9.55 0
 1 10 4 23.89 6.99 0
 1 10 5 24.11 7.46 0
 1 10 6 16.98 6.86 0
 1 10 7 111.81 11.98 0
 1 10 8 243.2 15.13 0
 1 10 10 169 13.73 0
 1 10 11 -3.91 7.42 0
 1 10 12 106.34 13.19 0
 1 10 13 70.65 11.2 0
 1 10 14 245.95 18.29 0
 1 11 -7 38.88 7.24 0
 1 11 -6 179.91 12.17 0
 1 11 -5 23.3 7.51 0
 1 11 -4 155.7 11.64 0
 1 11 -3 4.62 6.6 0
 1 11 -1 57.11 9.17 0
 1 11 0 6.6 6.13 0
 1 11 1 51.4 8.58 0
 1 11 2 22.15 7.33 0
 1 11 3 -3.06 6.27 0
 1 11 4 160.83 13.49 0
 1 11 5 21.7 7.79 0
 1 11 7 30.45 9.84 0
 1 11 8 84.82 11.6 0
 1 11 9 210.42 16.28 0
 1 11 10 15.43 8.26 0
 1 11 11 12.18 8.73 0
 1 12 -8 47.53 8.09 0
 1 12 -7 4 5.67 0
 1 12 -6 18.96 7.32 0
 1 12 -5 75.75 10.54 0
 1 12 -4 29.62 8.29 0
 1 12 -3 199.94 13.94 0
 1 12 -2 60.01 10.22 0
 1 12 -1 13.92 7.21 0
 1 12 0 29.4 8.16 0
 1 12 1 21.72 7.98 0
 1 12 2 67.33 10.59 0
 1 12 3 221.82 15.87 0
 1 12 4 40.96 9.8 0
 1 12 5 96.14 12.13 0
 1 12 6 2.74 7.03 0
 1 12 7 6.54 7.64 0
 1 12 8 69.18 12.4 0
 1 13 -3 5.94 7.15 0
 1 13 -1 19.83 9.03 0
 1 13 0 37.27 9.05 0
 2 1 -8 52.21 1.94 0
 2 2 -8 304.42 4.32 0
 2 2 -7 29.67 1.31 0
 2 2 0 5036.28 23.7 0
 2 2 1 252.15 6.3 0
 2 2 4 133.08 5.9 0
 2 2 5 120.14 6.09 0
 2 2 6 53.55 4.83 0
 2 3 -4 1201.19 10.19 0
 2 3 -1 1153.24 12.17 0
 2 3 0 1333.51 13.98 0
 2 3 1 1181.11 14.39 0
 2 3 2 67.2 4.31 0
 2 3 3 1462.54 17.91 0
 2 3 4 1217.63 17.35 0
 2 3 5 98.7 5.97 0
 2 3 6 216.47 8.9 0
 2 3 10 303.35 12.56 0
 2 4 -3 1674.52 15.92 0
 2 4 -2 398.56 8.22 0
 2 4 -1 426.92 8.94 0
 2 4 0 67.78 4.58 0
 2 4 2 395.47 9.85 0
 2 4 3 1662.03 20.78 0
 2 4 4 259.8 9.15 0
 2 4 5 54.61 5.57 0
 2 4 8 358.64 12.51 0
 2 4 9 248.61 11.49 0
 2 4 10 92.33 7.83 0
 2 4 11 1.85 4.69 0
 2 5 -4 654.65 11.52 0
 2 5 -3 752.17 12.71 0
 2 5 -2 253.56 7.94 0
 2 5 1 80.88 5.29 0
 2 5 2 242.59 9.13 0
 2 5 6 310.72 11.37 0
 2 5 7 63.04 6.47 0
 2 5 9 124.79 8.84 0
 2 5 10 360.11 14.22 0
 2 5 11 33.42 7 0
 2 5 12 199.05 11.66 0
 2 5 13 180.17 12.67 0
 2 5 14 96.77 10.62 0
 2 6 -4 145.28 6.78 0
 2 6 4 146.53 8.36 0
 2 6 5 75.52 6.82 0
 2 6 6 201.16 10.2 0
 2 6 7 116.77 9.14 0
 2 6 8 216.5 11.92 0
 2 6 9 421.73 15.73 0
 2 6 11 52.95 8.57 0
 2 6 12 5.17 5.5 0
 2 6 13 184.11 13.36 0
 2 6 14 23.89 7.54 0
 2 7 -1 296.15 10.79 0
 2 7 0 95.07 7.48 0
 2 7 1 315.29 11.86 0
 2 7 2 122.46 7.91 0
 2 7 3 261.16 11.14 0
 2 7 6 412.98 15 0
 2 7 7 142.68 9.85 0
 2 7 8 73.63 9.06 0
 2 7 9 67.86 8.79 0
 2 7 12 89.32 9.8 0
 2 7 13 127.06 12.63 0
 2 7 14 59.15 9.48 0
 2 7 15 73.06 11.82 0
 2 8 -6 146.77 8.18 0
 2 8 -5 60.93 6.04 0
 2 8 -4 98.92 7.1 0
 2 8 -3 142.7 8.59 0
 2 8 -2 132.98 8.76 0
 2 8 -1 343.38 12.72 0
 2 8 0 61.26 6.92 0
 2 8 1 347.26 13.4 0
 2 8 2 149.82 9.7 0
 2 8 3 133.13 9.96 0
 2 8 4 111.52 9.25 0
 2 8 5 54.19 7.8 0
 2 8 6 151.24 11.07 0
 2 8 7 45.94 7.49 0
 2 8 8 20.59 6.63 0
 2 8 10 48.21 9.09 0
 2 8 11 4.75 6.31 0
 2 8 13 152.69 12.89 0
 2 8 14 64.17 11.45 0
 2 8 16 8.94 9.18 0
 2 9 -8 100.38 7.21 0
 2 9 -7 15.77 4.67 0
 2 9 -6 37.06 5.53 0
 2 9 -5 293.64 12.34 0
 2 9 -4 65.94 7.41 0
 2 9 -3 8.98 4.67 0
 2 9 -2 34.57 6.15 0
 2 9 -1 59.24 7.51 0
 2 9 0 34 6.7 0
 2 9 2 28.95 5.96 0
 2 9 3 10 5.29 0
 2 9 4 75.29 9.6 0
 2 9 5 273.4 14.22 0
 2 9 6 29.8 7.18 0
 2 9 7 12.82 7.39 0
 2 9 9 19.43 7.9 0
 2 9 10 133.07 12.52 0
 2 9 11 14.49 7.42 0
 2 9 12 43.94 9.57 0
 2 9 13 46.13 9.82 0
 2 9 14 229.18 16.79 0
 2 9 15 1.36 7.36 0
 2 10 -7 117.73 8.6 0
 2 10 -6 26.63 5.8 0
 2 10 -5 32.09 6.82 0
 2 10 -4 20.31 5.64 0
 2 10 -2 173.48 11.39 0
 2 10 0 1.35 4.98 0
 2 10 1 88.35 9.08 0
 2 10 2 184.56 11.96 0
 2 10 3 83.57 10.31 0
 2 10 4 17.34 6.66 0
 2 10 5 31.87 8.44 0
 2 10 6 32.44 8.64 0
 2 10 7 108.42 11.13 0
 2 10 8 25.28 7.74 0
 2 10 9 51.73 11.25 0
 2 10 10 31.26 8.73 0
 2 10 12 19.97 9.51 0
 2 10 13 0.05 7.59 0
 2 11 -6 5.14 5.28 0
 2 11 -5 35.56 7.34 0
 2 11 -4 46.33 7.46 0
 2 11 -3 33.73 7.59 0
 2 11 -2 14.24 6.17 0
 2 11 -1 47.31 8.5 0
 2 11 0 5.78 5.82 0
 2 11 1 38.4 7.87 0
 2 11 2 11.74 7.18 0
 2 11 3 28.69 8.66 0
 2 11 4 44.7 9.82 0
 2 11 5 47.81 10.55 0
 2 11 6 -3.87 7.18 0
 2 11 7 32.93 8.83 0
 2 11 8 139.93 13.1 0
 2 11 9 4.16 7.34 0
 2 11 10 81.88 12.32 0
 2 12 -5 23.1 6.44 0
 2 12 -4 55.75 8.22 0
 2 12 -3 6.37 5.93 0
 2 12 -1 17.69 6.69 0
 2 12 1 14.76 6.94 0
 2 12 2 77.26 10.9 0
 2 12 3 5.97 7.71 0
 2 12 4 54.68 10.2 0
 2 12 5 36.38 9.58 0
 2 12 6 13.2 7.82 0
 2 12 7 30.89 9.41 0
 3 3 -3 614.17 7.49 0
 3 3 0 29.96 3.23 0
 3 3 2 173.72 6.64 0
 3 3 3 644.45 13.13 0
 3 3 4 389.81 11.13 0
 3 4 -6 155.67 3.4 0
 3 4 -5 692.29 7.96 0
 3 4 -4 194.66 4.9 0
 3 4 -1 28.84 3.4 0
 3 4 0 67.45 4.63 0
 3 4 1 25.04 3.57 0
 3 4 2 287.21 9.31 0
 3 4 3 63.33 5.63 0
 3 4 8 52.42 6.97 0
 3 4 9 223.41 12.31 0
 3 5 -7 118.21 3.78 0
 3 5 -6 210.12 5.43 0
 3 5 -5 153.52 5.09 0
 3 5 -3 227.88 6.91 0
 3 5 -2 773.99 12.89 0
 3 5 -1 319.28 8.92 0
 3 5 0 150.66 6.76 0
 3 5 1 332.71 9.99 0
 3 5 5 145.4 8.45 0
 3 5 6 213.4 10.32 0
 3 5 7 138.03 9.31 0
 3 5 8 95.2 8.72 0
 3 5 9 311.96 13.67 0
 3 5 10 0.53 5.05 0
 3 5 11 322.69 15.92 0
 3 6 -4 291.97 8.38 0
 3 6 -3 51.96 4.46 0
 3 6 -2 45.81 4.34 0
 3 6 2 42.94 5.64 0
 3 6 3 63.35 6.76 0
 3 6 4 283.58 11.92 0
 3 6 6 98.31 8.48 0
 3 6 7 9.19 5.02 0
 3 6 8 2.67 4.62 0
 3 6 9 9.3 5.02 0
 3 6 10 58.5 8.29 0
 3 6 12 41.08 9.09 0
 3 7 -1 354.36 11.38 0
 3 7 0 3.81 3.42 0
 3 7 1 378.59 12.63 0
 3 7 2 201.07 9.81 0
 3 7 3 74.11 7.11 0
 3 7 4 29.35 5.88 0
 3 7 5 19.88 5.48 0
 3 7 6 171.83 11.29 0
 3 7 8 46.79 8.09 0
 3 7 9 50.17 8.28 0
 3 7 10 58.81 8.6 0
 3 7 12 209.44 14.89 0
 3 7 13 233.77 16.37 0
 3 8 -5 107.3 6.51 0
 3 8 -4 21.94 4.49 0
 3 8 -3 85.73 6.51 0
 3 8 -2 97.02 7.42 0
 3 8 -1 3.39 3.94 0
 3 8 0 590.49 16.4 0
 3 8 1 7.76 4.22 0
 3 8 3 90 8.19 0
 3 8 4 19.66 5.55 0
 3 8 5 111.02 9.35 0
 3 8 6 10.27 5.57 0
 3 8 7 30.72 7.16 0
 3 8 9 85.35 10.87 0
 3 8 10 67.4 10.7 0
 3 8 11 114.33 13.14 0
 3 8 13 13.68 7.71 0
 3 8 14 85.42 12.58 0
 3 9 -4 166.27 9.09 0
 3 9 -3 -1.2 3.8 0
 3 9 -2 20.28 4.91 0
 3 9 -1 4.16 4.99 0
 3 9 0 82.29 8.53 0
 3 9 1 -0.39 4.31 0
 3 9 2 29.18 6.53 0
 3 9 3 1.18 5.64 0
 3 9 4 156.01 11.91 0
 3 9 5 276.25 14.92 0
 3 9 6 62.6 9.87 0
 3 9 7 194.12 14.01 0
 3 9 8 153.28 13.48 0
 3 9 10 20.57 9.11 0
 3 9 11 79.08 11.7 0
 3 9 13 5.99 7.67 0
 3 9 14 8.72 8.57 0
 3 10 -3 185.23 10.54 0
 3 10 -2 159.74 10.55 0
 3 10 0 81.84 8.91 0
 3 10 1 48.96 8.26 0
 3 10 2 161.63 11.99 0
 3 10 4 84.64 10.23 0
 3 10 5 32.36 8.93 0
 3 10 6 55.18 10.41 0
 3 10 7 14.47 7.51 0
 3 10 9 62.37 10.96 0
 3 10 10 117.55 14.62 0
 3 10 11 32.82 10.6 0
 3 10 12 63.12 12.25 0
 3 11 -2 43.51 7.26 0
 3 11 -1 128.43 10.86 0
 3 11 0 151.48 11.88 0
 3 11 1 125.31 11.12 0
 3 11 2 45.76 8.86 0
 3 11 3 10.71 6.59 0
 3 11 4 23.54 8.49 0
 3 11 5 5.04 7.1 0
 3 11 6 40.16 8.89 0
 3 11 7 124.71 12.63 0
 3 11 8 19.67 8.61 0
 3 11 9 22.63 9.92 0
 3 12 -2 -0.84 4.69 0
 3 12 -1 91.18 10.4 0
 3 12 0 -1.52 5.4 0
 3 12 1 100.79 11.43 0
 3 12 2 3.95 6.03 0
 3 12 3 93.43 11.83 0
 3 12 4 24.47 7.75 0
 3 12 5 23.6 9.61 0
 4 5 -3 58.37 3.77 0
 4 5 -1 68.19 4.86 0
 4 5 0 110.14 6.36 0
 4 5 4 363.49 12.86 0
 4 5 5 101.76 8.6 0
 4 5 6 396.81 15.27 0
 4 6 -2 22.22 3.78 0
 4 6 1 149.45 7.98 0
 4 6 2 31.26 5.03 0
 4 6 3 30.68 5.08 0
 4 6 4 61.8 7.44 0
 4 6 5 20.76 6.05 0
 4 6 6 4.73 4.63 0
 4 6 7 44.5 7.59 0
 4 7 0 19.32 4.82 0
 4 7 1 223.52 10.48 0
 4 7 2 274.68 11.68 0
 4 7 3 87.76 7.7 0
 4 7 4 1.7 4.38 0
 4 7 5 148.41 10.38 0
 4 7 6 107.99 9.71 0
 4 7 7 236.42 13.33 0
 4 7 8 112.55 11.26 0
 4 7 10 105.9 13.07 0
 4 8 -1 29.64 5.11 0
 4 8 0 93.21 7.85 0
 4 8 1 29.48 6.19 0
 4 8 2 137.07 9.69 0
 4 8 3 74.26 8.8 0
 4 8 4 135.68 10.54 0
 4 8 5 13.71 5.61 0
 4 8 6 10.11 6.43 0
 4 8 7 44.83 7.92 0
 4 8 8 10.1 7.27 0
 4 8 9 102.88 12.37 0
 4 8 10 73.18 10.61 0
 4 8 11 82.77 11.83 0
 4 9 -1 259.81 11.53 0
 4 9 0 408.33 14.85 0
 4 9 1 252.66 12.66 0
 4 9 2 9.19 5.36 0
 4 9 4 18.18 7.42 0
 4 9 5 322.34 15.51 0
 4 9 6 30.19 8.17 0
 4 9 7 67.99 9.61 0
 4 9 8 12.31 7.89 0
 4 9 9 110.63 13.29 0
 4 9 11 137.82 14.29 0
 4 10 0 93.45 8.91 0
 4 10 1 12.95 6.22 0
 4 10 2 28.52 7.03 0
 4 10 3 24.63 7.32 0
 4 10 4 48.61 8.93 0
 4 10 5 39.37 9.08 0
 4 10 6 157.62 12.82 0
 4 10 7 158.23 13.83 0
 4 10 8 59.78 10.12 0
 4 10 9 74.71 10.92 0
 4 10 10 43.98 10.97 0
 4 11 1 37.03 7.74 0
 4 11 2 44.31 8.62 0
 4 11 4 115.98 12.06 0
 4 11 5 296.96 16.26 0
 4 11 6 159.83 14.17 0
 5 8 2 32.08 6.49 0
 5 8 3 131.28 10.1 0
 5 8 4 121.93 10.88 0
 5 9 3 83.99 9.17 0
 5 9 4 18.87 6.58 0
 5 9 5 4.89 6.07 0
 5 10 5 15 7.55 0
 5 10 6 63.38 11.17 0

_iucr_refine_fcf_details
;
data_fk_03405_intdb_v128_1_0_background
_computing_structure_refinement   'olex2.refine 1.5-alpha (Bourhis et al., 2015)'
_shelx_refln_list_code            4
loop_
  _space_group_symop_id
  _space_group_symop_operation_xyz
  1  x,y,z
  2  x+1/2,-y+1/2,-z
  3  -x,y+1/2,-z+1/2
  4  -x+1/2,-y,z+1/2

_space_group_crystal_system       orthorhombic
_space_group_IT_number            19
_space_group_name_H-M_alt         'P 21 21 21'
_space_group_name_Hall            ' P 2ac 2ab'
_symmetry_space_group_name_H-M    'P 21 21 21'
_symmetry_space_group_name_Hall   ' P 2ac 2ab'
_symmetry_Int_Tables_number       19
_cell_length_a                    5.1155(4)
_cell_length_b                    7.6409(6)
_cell_length_c                    13.6231(11)
_cell_angle_alpha                 90
_cell_angle_beta                  90
_cell_angle_gamma                 90
_cell_volume                      532.49(7)
loop_
  _refln_index_h
  _refln_index_k
  _refln_index_l
  _refln_F_squared_calc
  _refln_F_squared_meas
  _refln_F_squared_sigma
  _refln_F_squared_weight
  _refln_observed_status
-8 -6 -1 30.697 26.306 3.923 10.115 o
-8 -5 -4 3.771 3.515 2.761 24.227 o
-8 -5 -3 7.544 6.817 2.345 31.684 o
-8 -5 -2 2.553 3.234 1.230 113.357 o
-8 -5 -1 1.409 1.195 1.288 109.632 o
-8 -4 -7 68.089 70.927 5.658 4.129 o
-8 -4 -6 12.499 11.061 1.644 52.080 o
-8 -4 -5 14.665 15.057 1.811 41.919 o
-8 -4 -4 7.340 8.844 1.389 76.734 o
-8 -4 -3 60.989 65.110 2.412 10.816 o
-8 -4 -2 1.269 0.631 1.113 146.462 o
-8 -4 -1 45.481 49.365 2.210 15.695 o
-8 -3 -9 1.352 1.069 1.754 60.411 o
-8 -3 -8 68.829 74.708 4.084 6.068 o
-8 -3 -7 11.552 11.615 1.263 76.205 o
-8 -3 -6 18.112 18.100 1.383 53.098 o
-8 -3 -5 46.628 45.821 1.808 18.293 o
-8 -3 -4 28.087 29.275 1.928 27.221 o
-8 -3 -3 9.898 8.362 1.602 58.421 o
-8 -3 -2 22.423 19.113 1.977 31.570 o
-8 -3 -1 15.357 11.936 2.113 33.633 o
-8 -2 -9 8.522 8.935 1.634 57.799 o
-8 -2 -8 5.282 5.039 1.014 139.800 o
-8 -2 -7 73.212 77.305 1.928 9.619 o
-8 -2 -6 40.649 42.726 1.676 21.827 o
-8 -2 -5 33.638 38.876 1.740 24.950 o
-8 -2 -4 45.008 49.432 1.682 19.039 o
-8 -2 -3 47.342 44.127 2.264 15.551 o
-8 -2 -2 23.281 23.708 1.478 41.228 o
-8 -2 -1 8.842 9.889 1.124 98.463 o
-8 -1 -10 25.322 21.910 2.582 20.635 o
-8 -1 -9 39.069 39.705 1.769 22.209 o
-8 -1 -8 10.584 9.657 1.062 100.175 o
-8 -1 -7 29.087 32.013 1.452 33.589 o
-8 -1 -6 46.624 45.876 1.779 18.475 o
-8 -1 -5 11.712 12.918 1.118 86.185 o
-8 -1 -4 28.533 28.777 1.466 34.947 o
-8 -1 -3 6.984 5.476 0.971 138.206 o
-8 -1 -2 8.387 7.893 1.040 114.414 o
-8 -1 -1 15.251 15.690 1.197 68.926 o
-7 -8 -4 68.673 73.641 3.934 6.345 o
-7 -8 -3 8.536 9.309 3.893 12.041 o
-7 -8 -2 8.076 8.382 2.407 29.829 o
-7 -8 -1 38.591 42.467 10.653 1.596 o
-7 -7 -7 12.157 11.418 1.963 39.700 o
-7 -7 -6 3.134 3.200 1.214 114.433 o
-7 -7 -5 29.814 30.035 1.864 27.183 o
-7 -7 -4 22.447 18.304 2.051 30.262 o
-7 -7 -3 18.188 17.970 1.568 46.082 o
-7 -7 -2 6.819 6.998 1.177 102.792 o
-7 -7 -1 9.174 10.226 1.564 60.449 o
-7 -6 -10 42.181 37.724 5.243 5.718 o
-7 -6 -9 64.230 63.619 2.802 9.431 o
-7 -6 -8 9.854 9.257 1.376 72.987 o
-7 -6 -7 9.009 10.960 1.267 82.010 o
-7 -6 -6 4.110 4.103 1.020 147.033 o
-7 -6 -5 14.733 15.613 1.371 60.127 o
-7 -6 -4 11.723 9.279 1.165 86.797 o
-7 -6 -3 2.322 2.220 1.019 162.349 o
-7 -6 -2 43.675 47.307 1.831 18.812 o
-7 -6 -1 23.070 23.499 1.613 38.033 o
-7 -5 -11 14.599 10.644 2.369 28.384 o
-7 -5 -10 5.904 8.426 1.527 68.242 o
-7 -5 -9 21.377 21.054 1.405 46.615 o
-7 -5 -8 19.475 19.650 1.905 34.627 o
-7 -5 -7 31.391 35.087 2.060 22.957 o
-7 -5 -6 39.447 39.684 1.868 21.184 o
-7 -5 -5 8.190 7.345 1.098 108.126 o
-7 -5 -4 2.251 3.424 0.981 170.330 o
-7 -5 -3 9.316 9.356 1.055 106.029 o
-7 -5 -2 42.914 47.298 1.837 19.011 o
-7 -5 -1 33.164 36.812 1.682 26.349 o
-7 -4 -12 28.662 29.391 3.121 14.532 o
-7 -4 -11 7.858 9.487 1.597 60.398 o
-7 -4 -10 11.786 12.949 1.479 60.312 o
-7 -4 -9 2.587 2.779 0.893 199.793 o
-7 -4 -8 40.473 40.796 1.660 22.424 o
-7 -4 -7 7.460 7.775 0.922 138.576 o
-7 -4 -6 11.403 11.277 1.013 99.834 o
-7 -4 -5 32.619 32.889 1.634 28.275 o
-7 -4 -4 31.143 32.924 1.738 27.607 o
-7 -4 -3 15.325 12.312 1.044 83.035 o
-7 -4 -2 145.814 146.977 2.588 3.117 o
-7 -4 -1 16.700 15.670 1.429 54.551 o
-7 -3 -13 46.301 45.791 4.322 7.381 o
-7 -3 -12 3.107 2.142 1.015 159.350 o
-7 -3 -11 28.737 32.466 2.162 23.152 o
-7 -3 -10 3.855 3.347 1.088 134.980 o
-7 -3 -9 7.000 5.374 1.072 120.286 o
-7 -3 -8 15.680 16.310 1.502 52.208 o
-7 -3 -7 49.730 47.336 1.877 16.802 o
-7 -3 -6 8.970 7.277 0.871 140.423 o
-7 -3 -5 12.049 10.554 0.977 102.564 o
-7 -3 -4 5.774 5.463 0.871 168.567 o
-7 -3 -3 1.612 1.691 0.684 339.107 o
-7 -3 -2 51.964 56.031 1.345 17.587 o
-7 -3 -1 13.929 14.141 0.983 89.290 o
-7 -2 -14 45.154 45.452 4.520 6.968 o
-7 -2 -13 15.551 18.095 1.401 55.712 o
-7 -2 -12 22.182 19.294 1.267 51.352 o
-7 -2 -11 4.766 4.845 1.226 105.324 o
-7 -2 -10 29.033 26.325 1.500 34.861 o
-7 -2 -9 8.554 8.325 1.047 111.851 o
-7 -2 -8 3.566 2.454 0.853 206.921 o
-7 -2 -7 11.398 12.301 1.135 86.343 o
-7 -2 -6 84.663 87.112 1.947 7.850 o
-7 -2 -5 7.304 5.284 0.861 160.374 o
-7 -2 -4 8.695 8.975 0.898 132.230 o
-7 -2 -3 18.072 18.178 1.025 69.986 o
-7 -2 -2 165.935 172.566 2.465 2.483 o
-7 -2 -1 96.128 95.549 2.116 6.425 o
-7 -1 -14 13.673 11.820 2.082 35.252 o
-7 -1 -13 6.297 6.086 1.188 104.300 o
-7 -1 -12 17.077 17.385 1.546 48.269 o
-7 -1 -11 39.489 42.331 1.767 21.573 o
-7 -1 -10 8.965 9.196 1.290 81.975 o
-7 -1 -9 2.927 3.557 0.998 160.711 o
-7 -1 -8 27.081 28.810 1.547 34.480 o
-7 -1 -7 23.214 20.613 1.251 49.658 o
-7 -1 -6 18.803 15.851 1.092 67.357 o
-7 -1 -5 57.089 58.088 1.536 15.127 o
-7 -1 -4 15.280 14.539 1.133 74.073 o
-7 -1 -3 31.972 28.547 1.358 34.325 o
-7 -1 -2 49.166 51.761 1.373 19.061 o
-7 -1 -1 26.840 24.447 1.051 48.113 o
-6 -9 -8 38.019 40.892 4.322 7.904 o
-6 -9 -7 0.281 -0.469 1.209 129.196 o
-6 -9 -6 46.047 47.977 2.199 15.787 o
-6 -9 -5 0.987 0.372 0.889 228.311 o
-6 -9 -4 32.416 31.964 1.712 27.564 o
-6 -9 -3 6.549 4.909 1.164 108.718 o
-6 -9 -2 10.269 10.152 1.820 46.591 o
-6 -9 -1 2.226 1.845 1.006 167.950 o
-6 -8 -10 2.690 -0.430 1.590 72.249 o
-6 -8 -9 27.696 26.878 1.685 32.104 o
-6 -8 -8 38.831 41.170 1.919 20.698 o
-6 -8 -7 20.267 18.143 1.379 50.500 o
-6 -8 -6 21.670 23.592 1.340 46.890 o
-6 -8 -5 7.079 5.546 1.078 118.760 o
-6 -8 -4 11.265 10.199 1.217 82.130 o
-6 -8 -3 9.197 9.372 1.166 93.491 o
-6 -8 -2 42.236 41.547 1.770 20.690 o
-6 -8 -1 14.533 14.321 1.123 76.726 o
-6 -7 -12 39.685 43.836 2.954 13.050 o
-6 -7 -11 27.802 30.511 1.813 28.828 o
-6 -7 -10 97.353 102.487 2.317 5.946 o
-6 -7 -9 36.941 36.504 1.966 21.727 o
-6 -7 -8 20.220 18.506 1.356 51.192 o
-6 -7 -7 5.573 5.093 1.093 123.172 o
-6 -7 -6 22.932 19.425 1.325 48.336 o
-6 -7 -5 20.876 17.238 1.194 57.547 o
-6 -7 -4 9.811 9.281 1.076 101.836 o
-6 -7 -3 20.848 17.807 1.077 62.127 o
-6 -7 -2 72.426 74.779 1.726 10.268 o
-6 -7 -1 42.933 44.514 1.415 22.618 o
-6 -6 -14 15.098 11.639 2.987 18.860 o
-6 -6 -13 9.013 8.810 1.547 62.574 o
-6 -6 -12 68.319 73.410 2.174 9.955 o
-6 -6 -11 13.713 13.260 1.420 60.710 o
-6 -6 -10 63.305 69.332 2.459 10.121 o
-6 -6 -9 7.667 7.838 1.115 106.824 o
-6 -6 -8 8.315 7.327 1.019 118.942 o
-6 -6 -7 39.453 38.766 2.131 19.091 o
-6 -6 -6 24.149 24.449 1.509 39.314 o
-6 -6 -5 32.395 28.705 1.352 34.044 o
-6 -6 -4 0.203 -0.391 0.642 452.982 o
-6 -6 -3 91.150 94.173 1.837 7.110 o
-6 -6 -2 10.564 10.332 0.911 117.262 o
-6 -6 -1 8.475 9.100 0.813 148.397 o
-6 -5 -15 19.464 19.757 2.071 30.896 o
-6 -5 -14 25.696 26.380 1.743 32.397 o
-6 -5 -13 92.709 92.430 2.376 6.507 o
-6 -5 -12 18.540 19.033 1.445 49.566 o
-6 -5 -11 6.767 5.529 1.104 115.809 o
-6 -5 -10 12.853 12.997 1.018 91.534 o
-6 -5 -9 41.838 43.099 1.591 21.991 o
-6 -5 -8 16.072 17.875 1.151 67.710 o
-6 -5 -7 48.163 51.949 1.386 19.309 o
-6 -5 -6 86.142 89.235 1.796 7.799 o
-6 -5 -5 8.709 9.390 0.797 148.594 o
-6 -5 -4 55.674 60.239 1.607 14.944 o
-6 -5 -3 61.135 60.279 1.554 13.889 o
-6 -5 -2 25.816 25.608 1.086 47.803 o
-6 -5 -1 0.145 -0.259 0.565 585.416 o
-6 -4 -15 2.885 1.574 1.157 128.396 o
-6 -4 -14 31.356 32.705 1.731 27.653 o
-6 -4 -13 64.005 61.152 2.131 11.505 o
-6 -4 -12 23.242 23.387 1.500 40.823 o
-6 -4 -11 3.644 3.494 0.861 198.483 o
-6 -4 -10 29.068 31.232 1.374 35.283 o
-6 -4 -9 27.319 26.289 1.121 44.621 o
-6 -4 -8 2.752 1.830 0.667 324.473 o
-6 -4 -7 44.322 42.209 1.341 23.072 o
-6 -4 -6 88.837 91.544 1.943 7.297 o
-6 -4 -5 45.449 44.043 1.384 21.875 o
-6 -4 -4 73.010 74.974 1.792 10.051 o
-6 -4 -3 5.739 6.375 0.670 226.595 o
-6 -4 -2 62.553 62.925 1.495 13.488 o
-6 -4 -1 72.199 76.367 1.609 10.410 o
-6 -3 -16 20.582 21.961 2.314 25.590 o
-6 -3 -15 3.574 3.308 1.086 136.779 o
-6 -3 -14 40.983 44.614 2.031 18.590 o
-6 -3 -13 23.171 22.420 1.814 33.707 o
-6 -3 -12 24.208 20.214 1.442 42.973 o
-6 -3 -11 3.416 3.148 0.744 252.586 o
-6 -3 -10 39.024 41.098 1.547 24.006 o
-6 -3 -9 101.554 102.663 1.696 6.156 o
-6 -3 -8 39.154 40.975 1.334 25.979 o
-6 -3 -7 23.615 22.877 1.038 54.374 o
-6 -3 -6 64.110 65.519 1.441 13.054 o
-6 -3 -5 21.603 20.395 0.985 62.041 o
-6 -3 -4 9.228 8.067 0.729 162.912 o
-6 -3 -3 38.217 41.455 1.169 27.957 o
-6 -3 -2 16.865 14.824 0.843 89.177 o
-6 -3 -1 44.347 46.720 1.189 23.105 o
-6 -2 -17 1.739 -1.583 1.448 87.903 o
-6 -2 -16 3.109 3.518 0.933 178.617 o
-6 -2 -15 9.402 8.341 1.162 94.853 o
-6 -2 -14 22.546 22.404 1.378 45.415 o
-6 -2 -13 19.653 20.534 1.217 55.941 o
-6 -2 -12 63.084 65.242 2.172 11.216 o
-6 -2 -11 31.449 33.337 1.669 28.304 o
-6 -2 -10 48.944 52.677 1.606 17.753 o
-6 -2 -9 57.901 60.862 1.983 13.030 o
-6 -2 -8 0.867 0.330 0.605 471.868 o
-6 -2 -7 19.829 20.119 1.234 55.342 o
-6 -2 -6 36.788 36.766 1.349 28.359 o
-6 -2 -5 56.365 57.259 1.428 15.820 o
-6 -2 -4 39.358 40.226 1.159 27.738 o
-6 -2 -3 42.683 47.309 1.312 22.874 o
-6 -2 -2 9.890 9.124 0.726 153.888 o
-6 -2 -1 16.526 13.565 0.763 98.781 o
-6 -1 -17 61.795 65.341 3.948 6.901 o
-6 -1 -16 68.878 69.237 2.279 9.902 o
-6 -1 -15 10.141 10.923 1.206 84.970 o
-6 -1 -14 23.654 25.852 1.675 35.297 o
-6 -1 -13 19.378 20.744 1.331 51.777 o
-6 -1 -12 1.144 0.742 0.790 279.969 o
-6 -1 -11 26.913 26.692 1.443 37.547 o
-6 -1 -10 31.758 36.035 1.549 29.041 o
-6 -1 -9 35.772 35.665 1.698 25.190 o
-6 -1 -8 24.915 26.033 1.287 43.416 o
-6 -1 -7 24.572 26.834 1.190 45.865 o
-6 -1 -6 0.625 1.166 0.670 385.808 o
-6 -1 -5 8.643 7.902 0.746 165.083 o
-6 -1 -4 2.440 2.405 0.575 403.529 o
-6 -1 -3 0.356 0.759 0.466 782.047 o
-6 -1 -2 47.184 44.289 1.077 23.055 o
-6 -1 -1 8.831 7.030 0.574 209.088 o
-5 -10 -8 2.718 2.822 1.511 77.768 o
-5 -10 -7 6.726 8.220 1.424 75.372 o
-5 -10 -6 19.636 19.727 1.507 45.825 o
-5 -10 -5 3.479 3.269 0.923 179.835 o
-5 -10 -4 57.676 54.990 1.952 13.750 o
-5 -10 -3 37.086 35.698 2.628 16.166 o
-5 -10 -2 19.754 17.715 1.556 45.077 o
-5 -10 -1 37.953 35.619 2.012 21.085 o
-5 -9 -11 45.699 53.397 2.717 12.672 o
-5 -9 -10 25.421 25.325 1.838 31.073 o
-5 -9 -9 64.405 63.644 1.914 11.875 o
-5 -9 -8 7.475 6.886 0.956 134.657 o
-5 -9 -7 15.050 15.512 1.224 67.836 o
-5 -9 -6 66.897 71.451 1.755 11.262 o
-5 -9 -5 2.886 3.542 0.775 242.109 o
-5 -9 -4 8.980 7.439 0.890 136.357 o
-5 -9 -3 33.154 36.841 1.692 26.229 o
-5 -9 -2 15.357 13.481 1.015 83.461 o
-5 -9 -1 28.198 26.967 1.395 37.344 o
-5 -8 -13 2.134 2.304 1.169 127.287 o
-5 -8 -12 24.342 22.511 1.723 34.913 o
-5 -8 -11 11.482 9.691 1.152 88.085 o
-5 -8 -10 15.566 13.813 1.083 77.611 o
-5 -8 -9 7.750 8.950 0.929 132.326 o
-5 -8 -8 11.737 11.989 1.113 87.805 o
-5 -8 -7 41.188 42.522 1.456 23.504 o
-5 -8 -6 5.058 4.797 0.760 212.952 o
-5 -8 -5 17.327 17.295 1.116 67.672 o
-5 -8 -4 53.461 54.135 1.554 16.499 o
-5 -8 -3 53.157 52.063 1.546 16.911 o
-5 -8 -2 13.873 14.484 0.917 94.468 o
-5 -8 -1 76.122 79.657 1.504 9.824 o
-5 -7 -15 2.808 3.838 3.087 19.552 o
-5 -7 -14 21.696 19.795 1.897 33.501 o
-5 -7 -13 21.740 23.322 1.605 39.363 o
-5 -7 -12 61.536 66.378 1.868 12.261 o
-5 -7 -11 13.510 15.652 1.512 54.703 o
-5 -7 -10 51.776 55.967 1.687 16.103 o
-5 -7 -9 0.389 0.148 0.684 392.705 o
-5 -7 -8 49.814 51.025 1.670 17.397 o
-5 -7 -7 27.402 29.074 1.312 38.835 o
-5 -7 -6 22.304 19.821 1.168 54.325 o
-5 -7 -5 0.180 0.266 0.635 458.343 o
-5 -7 -4 41.317 41.417 1.641 22.119 o
-5 -7 -3 51.300 46.033 1.598 18.091 o
-5 -7 -2 81.820 82.026 1.347 9.166 o
-5 -7 -1 31.902 33.486 0.968 38.519 o
-5 -6 -16 29.002 27.713 4.752 7.347 o
-5 -6 -15 24.365 20.951 1.542 39.809 o
-5 -6 -14 9.768 10.466 1.348 74.208 o
-5 -6 -13 59.352 63.941 1.837 12.970 o
-5 -6 -12 72.103 75.682 2.122 9.472 o
-5 -6 -11 18.592 17.917 1.218 59.715 o
-5 -6 -10 16.822 16.012 1.017 75.983 o
-5 -6 -9 22.595 22.606 1.357 45.900 o
-5 -6 -8 8.530 8.332 0.858 142.075 o
-5 -6 -7 18.636 17.488 0.898 76.263 o
-5 -6 -6 13.468 11.812 0.913 101.281 o
-5 -6 -5 101.581 99.043 1.773 6.220 o
-5 -6 -4 43.345 43.025 1.337 23.366 o
-5 -6 -3 27.064 26.734 1.032 46.768 o
-5 -6 -2 46.345 41.422 1.112 23.934 o
-5 -6 -1 18.744 19.326 1.008 68.072 o
-5 -5 -17 21.780 19.676 2.659 20.778 o
-5 -5 -16 16.239 14.665 1.341 60.097 o
-5 -5 -15 3.696 3.292 1.089 135.590 o
-5 -5 -14 22.585 23.813 1.852 32.828 o
-5 -5 -13 30.701 30.610 1.899 26.154 o
-5 -5 -12 70.325 70.892 1.896 10.479 o
-5 -5 -11 14.270 15.372 1.029 82.808 o
-5 -5 -10 5.936 5.103 0.795 190.141 o
-5 -5 -9 51.195 52.878 1.178 19.110 o
-5 -5 -8 82.844 80.631 1.487 8.957 o
-5 -5 -7 1.193 0.522 0.521 586.275 o
-5 -5 -6 16.619 16.780 0.840 86.915 o
-5 -5 -5 1.591 1.267 0.546 498.625 o
-5 -5 -4 22.462 24.067 0.996 56.676 o
-5 -5 -3 66.418 70.205 1.542 11.939 o
-5 -5 -2 18.884 19.829 0.895 72.752 o
-5 -5 -1 272.672 259.971 2.413 1.074 o
-5 -4 -18 42.057 40.004 4.076 8.439 o
-5 -4 -17 6.291 8.031 1.320 86.089 o
-5 -4 -16 22.068 21.484 1.922 32.296 o
-5 -4 -15 17.368 17.477 1.424 52.749 o
-5 -4 -14 53.209 58.447 2.013 14.055 o
-5 -4 -13 9.747 8.892 1.039 107.309 o
-5 -4 -12 0.689 1.683 0.701 347.157 o
-5 -4 -11 145.894 154.658 2.451 3.060 o
-5 -4 -10 65.964 67.662 1.722 11.798 o
-5 -4 -9 3.279 3.054 0.598 346.355 o
-5 -4 -8 73.925 73.768 1.447 10.636 o
-5 -4 -7 35.998 36.937 1.178 30.804 o
-5 -4 -6 46.554 49.205 1.348 20.627 o
-5 -4 -5 1.247 0.751 0.521 574.569 o
-5 -4 -4 24.052 20.099 0.908 60.414 o
-5 -4 -3 13.157 12.742 0.740 118.702 o
-5 -4 -2 68.535 67.783 1.843 11.084 o
-5 -4 -1 180.666 183.161 2.116 2.215 o
-5 -3 -19 49.380 46.869 4.698 6.387 o
-5 -3 -18 18.729 17.763 1.451 49.857 o
-5 -3 -17 0.561 0.808 0.979 191.464 o
-5 -3 -16 19.840 19.878 1.431 48.116 o
-5 -3 -15 130.361 133.019 2.575 3.721 o
-5 -3 -14 8.450 7.871 0.998 120.432 o
-5 -3 -13 32.899 33.717 1.459 30.306 o
-5 -3 -12 7.831 7.776 1.073 112.193 o
-5 -3 -11 23.336 25.139 1.107 50.933 o
-5 -3 -10 65.892 71.546 1.378 12.283 o
-5 -3 -9 4.395 5.071 0.678 253.549 o
-5 -3 -8 7.362 5.593 0.714 196.828 o
-5 -3 -7 7.347 7.242 0.553 235.660 o
-5 -3 -6 32.561 32.956 1.053 36.867 o
-5 -3 -5 91.234 87.156 1.716 7.520 o
-5 -3 -4 198.736 196.007 1.957 1.910 o
-5 -3 -3 95.135 91.653 1.486 7.200 o
-5 -3 -2 123.330 113.300 1.537 4.746 o
-5 -3 -1 91.115 77.126 1.296 8.442 o
-5 -2 -19 4.687 5.241 1.776 54.870 o
-5 -2 -18 15.881 16.058 1.302 61.597 o
-5 -2 -17 191.867 200.211 3.530 1.805 o
-5 -2 -16 5.475 6.988 1.062 125.114 o
-5 -2 -15 24.319 26.075 1.404 41.042 o
-5 -2 -14 58.991 61.219 1.820 13.359 o
-5 -2 -13 10.993 9.775 1.080 96.667 o
-5 -2 -12 9.382 7.593 0.909 130.576 o
-5 -2 -11 0.251 -0.537 0.672 412.375 o
-5 -2 -10 38.776 45.552 1.590 22.747 o
-5 -2 -9 22.973 22.236 1.056 55.338 o
-5 -2 -8 23.849 22.366 1.030 54.661 o
-5 -2 -7 40.218 40.132 1.410 24.938 o
-5 -2 -6 102.917 100.053 2.084 5.873 o
-5 -2 -5 160.013 164.126 2.192 2.713 o
-5 -2 -4 7.338 6.202 0.628 219.656 o
-5 -2 -3 204.102 198.495 1.711 1.851 o
-5 -2 -2 81.420 74.084 1.050 10.084 o
-5 -2 -1 64.950 61.920 0.807 14.708 o
-5 -1 -19 5.896 4.822 1.577 66.796 o
-5 -1 -18 31.486 33.218 1.750 27.201 o
-5 -1 -17 0.368 -0.385 0.810 284.262 o
-5 -1 -16 56.268 58.865 1.940 13.694 o
-5 -1 -15 79.990 84.461 2.305 7.898 o
-5 -1 -14 99.405 104.891 2.218 5.834 o
-5 -1 -13 25.717 24.825 1.237 44.460 o
-5 -1 -12 31.344 33.227 1.332 33.443 o
-5 -1 -11 1.194 1.942 0.720 317.225 o
-5 -1 -10 33.127 33.806 1.203 33.793 o
-5 -1 -9 18.839 15.063 1.056 70.081 o
-5 -1 -8 119.257 115.206 1.688 4.830 o
-5 -1 -7 19.685 21.474 1.000 64.180 o
-5 -1 -6 1.794 2.453 0.622 379.149 o
-5 -1 -5 212.174 208.359 2.884 1.633 o
-5 -1 -4 152.949 142.979 1.591 3.211 o
-5 -1 -3 19.437 19.525 0.720 80.308 o
-5 -1 -2 171.324 154.453 2.055 2.611 o
-5 -1 -1 39.550 39.598 0.647 32.164 o
-4 -12 -2 3.543 3.362 3.075 19.658 o
-4 -12 -1 29.211 30.592 4.674 7.505 o
-4 -11 -8 5.199 7.849 2.310 33.129 o
-4 -11 -7 47.695 49.913 3.170 10.731 o
-4 -11 -6 54.107 55.502 1.814 15.024 o
-4 -11 -5 106.405 110.784 2.404 5.163 o
-4 -11 -4 49.255 49.549 2.132 15.269 o
-4 -11 -3 12.048 8.685 1.070 96.056 o
-4 -11 -2 20.468 19.196 1.347 50.780 o
-4 -11 -1 10.790 12.509 1.326 72.076 o
-4 -10 -11 10.482 9.475 2.254 32.559 o
-4 -10 -10 12.709 9.484 1.320 71.766 o
-4 -10 -9 30.180 28.599 1.539 32.525 o
-4 -10 -8 22.374 25.327 1.352 44.777 o
-4 -10 -7 67.051 72.059 1.832 11.012 o
-4 -10 -6 65.442 66.704 2.032 11.152 o
-4 -10 -5 12.851 12.198 0.997 94.798 o
-4 -10 -4 17.381 15.809 1.146 67.451 o
-4 -10 -3 6.275 6.102 0.929 149.290 o
-4 -10 -2 12.918 14.697 1.187 75.537 o
-4 -10 -1 4.550 4.135 0.868 184.796 o
-4 -9 -14 15.491 14.452 2.603 23.543 o
-4 -9 -13 25.102 22.283 1.346 43.646 o
-4 -9 -12 2.177 2.211 0.799 248.716 o
-4 -9 -11 50.834 50.489 1.533 17.893 o
-4 -9 -10 15.820 17.504 0.969 79.703 o
-4 -9 -9 46.987 46.055 1.246 21.712 o
-4 -9 -8 8.165 9.137 0.863 140.922 o
-4 -9 -7 30.869 32.847 1.197 36.157 o
-4 -9 -6 13.658 13.277 0.887 100.204 o
-4 -9 -5 122.712 123.467 1.992 4.380 o
-4 -9 -4 6.538 5.727 0.756 192.641 o
-4 -9 -3 43.566 44.220 1.315 23.154 o
-4 -9 -2 3.818 2.760 0.681 282.977 o
-4 -9 -1 101.636 105.339 1.724 6.044 o
-4 -8 -15 6.923 6.693 1.122 110.508 o
-4 -8 -14 1.989 2.149 0.912 200.481 o
-4 -8 -13 40.319 41.536 1.812 21.032 o
-4 -8 -12 81.071 82.608 1.772 8.665 o
-4 -8 -11 33.441 38.133 1.534 27.692 o
-4 -8 -10 25.683 27.267 1.020 48.554 o
-4 -8 -9 44.780 44.014 1.194 23.502 o
-4 -8 -8 3.979 2.677 0.589 338.964 o
-4 -8 -7 18.970 18.564 0.795 79.385 o
-4 -8 -6 4.513 4.014 0.584 311.383 o
-4 -8 -5 7.194 7.304 0.601 222.426 o
-4 -8 -4 50.497 51.697 1.326 18.855 o
-4 -8 -3 29.302 27.493 1.011 43.935 o
-4 -8 -2 50.124 50.275 1.079 20.465 o
-4 -8 -1 12.859 12.069 0.647 133.276 o
-4 -7 -17 58.640 61.209 3.228 8.940 o
-4 -7 -16 15.570 15.265 1.176 69.965 o
-4 -7 -15 34.072 38.597 1.649 25.860 o
-4 -7 -14 14.375 10.565 1.018 90.571 o
-4 -7 -13 11.838 11.078 0.884 112.958 o
-4 -7 -12 54.712 56.480 1.442 16.314 o
-4 -7 -11 116.416 122.634 1.717 4.778 o
-4 -7 -10 44.458 45.048 1.048 24.396 o
-4 -7 -9 24.871 24.024 0.964 53.699 o
-4 -7 -8 40.308 43.486 1.124 26.516 o
-4 -7 -7 101.064 99.790 1.327 6.526 o
-4 -7 -6 46.173 42.772 1.003 24.385 o
-4 -7 -5 59.571 60.939 1.053 15.686 o
-4 -7 -4 0.874 1.092 0.408 869.742 o
-4 -7 -3 33.916 33.433 0.857 38.078 o
-4 -7 -2 107.810 115.891 1.454 5.503 o
-4 -7 -1 91.558 88.087 1.296 7.840 o
-4 -6 -18 14.698 13.508 1.921 38.870 o
-4 -6 -17 35.210 40.472 2.279 18.791 o
-4 -6 -16 24.084 24.032 1.862 31.711 o
-4 -6 -15 53.151 54.674 1.953 14.723 o
-4 -6 -14 16.022 14.935 1.224 66.537 o
-4 -6 -13 59.720 59.143 1.755 13.643 o
-4 -6 -12 32.110 28.569 1.587 30.512 o
-4 -6 -11 22.619 22.995 0.919 60.017 o
-4 -6 -10 0.713 0.822 0.461 751.322 o
-4 -6 -9 15.733 14.656 0.666 107.579 o
-4 -6 -8 43.004 44.160 0.937 26.172 o
-4 -6 -7 16.003 18.088 0.738 93.673 o
-4 -6 -6 2.717 2.216 0.369 667.936 o
-4 -6 -5 6.329 5.459 0.459 312.983 o
-4 -6 -4 25.671 26.720 0.743 55.988 o
-4 -6 -3 10.959 12.433 0.542 160.891 o
-4 -6 -2 10.808 9.923 0.537 175.720 o
-4 -6 -1 58.298 58.382 1.126 16.178 o
-4 -5 -18 35.485 34.427 2.517 17.482 o
-4 -5 -17 30.466 31.404 2.000 24.746 o
-4 -5 -16 12.421 13.063 1.302 70.213 o
-4 -5 -15 2.286 3.400 0.894 199.337 o
-4 -5 -14 37.788 35.494 1.754 23.731 o
-4 -5 -13 12.711 11.674 1.019 93.996 o
-4 -5 -12 28.327 27.067 1.212 41.034 o
-4 -5 -11 149.404 155.549 2.288 3.008 o
-4 -5 -10 190.944 187.512 2.839 1.968 o
-4 -5 -9 60.048 63.337 1.314 14.520 o
-4 -5 -8 229.271 227.759 1.915 1.465 o
-4 -5 -7 43.079 38.842 0.785 28.842 o
-4 -5 -6 160.311 153.516 1.241 2.956 o
-4 -5 -5 42.402 36.094 0.659 31.199 o
-4 -5 -4 150.458 148.370 1.467 3.226 o
-4 -5 -3 24.414 26.084 0.582 63.142 o
-4 -5 -2 52.006 54.806 0.806 19.922 o
-4 -5 -1 26.764 26.150 0.575 58.245 o
-4 -4 -19 39.735 42.652 2.059 19.021 o
-4 -4 -18 57.969 57.440 2.001 13.271 o
-4 -4 -17 20.872 21.212 1.287 51.096 o
-4 -4 -16 8.936 7.720 1.005 117.535 o
-4 -4 -15 16.969 20.700 1.087 66.432 o
-4 -4 -14 20.238 18.883 1.041 63.854 o
-4 -4 -13 84.542 84.445 1.792 8.186 o
-4 -4 -12 45.948 47.184 1.379 21.066 o
-4 -4 -11 36.877 37.668 1.241 29.246 o
-4 -4 -10 4.290 5.175 0.587 300.984 o
-4 -4 -9 0.200 0.521 0.386 1149.420 o
-4 -4 -8 27.637 26.778 0.840 50.368 o
-4 -4 -7 7.570 7.183 0.402 282.182 o
-4 -4 -6 22.742 22.795 0.538 72.694 o
-4 -4 -5 10.315 8.296 0.351 228.355 o
-4 -4 -4 36.364 36.889 0.607 36.563 o
-4 -4 -3 26.734 25.020 0.436 62.183 o
-4 -4 -2 71.409 65.388 0.661 13.033 o
-4 -4 -1 130.433 116.297 0.892 4.541 o
-4 -3 -20 36.818 36.990 3.227 12.410 o
-4 -3 -19 34.581 33.120 1.805 25.060 o
-4 -3 -18 10.648 9.588 1.003 106.877 o
-4 -3 -17 8.196 9.850 1.197 92.326 o
-4 -3 -16 8.578 7.323 0.943 129.838 o
-4 -3 -15 33.126 34.264 1.218 33.395 o
-4 -3 -14 137.695 136.196 1.939 3.655 o
-4 -3 -13 78.369 77.259 1.626 9.501 o
-4 -3 -12 102.327 98.284 1.489 6.389 o
-4 -3 -11 9.836 8.774 0.572 186.140 o
-4 -3 -10 199.941 184.502 1.845 1.973 o
-4 -3 -9 232.973 217.561 1.813 1.480 o
-4 -3 -8 231.845 220.170 1.691 1.484 o
-4 -3 -7 106.015 99.016 0.946 6.383 o
-4 -3 -6 90.002 78.027 0.796 8.932 o
-4 -3 -5 20.325 22.984 0.617 76.763 o
-4 -3 -4 348.388 343.069 1.586 0.672 o
-4 -3 -3 147.426 146.613 0.711 3.428 o
-4 -3 -2 7.658 9.207 0.287 289.155 o
-4 -3 -1 73.693 67.646 0.722 12.273 o
-4 -2 -21 25.009 23.372 3.350 13.760 o
-4 -2 -20 37.263 38.967 1.583 24.969 o
-4 -2 -19 13.586 12.303 1.118 81.960 o
-4 -2 -18 12.285 12.168 1.018 94.718 o
-4 -2 -17 4.523 5.025 0.854 185.650 o
-4 -2 -16 38.428 41.998 1.606 23.520 o
-4 -2 -15 126.947 132.319 2.306 3.942 o
-4 -2 -14 67.940 65.842 1.374 12.441 o
-4 -2 -13 7.053 7.176 0.846 158.573 o
-4 -2 -12 38.758 36.007 1.145 29.600 o
-4 -2 -11 45.360 44.052 1.157 23.469 o
-4 -2 -10 5.194 4.321 0.436 379.874 o
-4 -2 -9 72.627 65.223 0.894 12.492 o
-4 -2 -8 6.360 5.611 0.375 350.198 o
-4 -2 -7 92.228 86.974 0.772 8.194 o
-4 -2 -6 160.446 150.139 1.253 2.990 o
-4 -2 -5 122.687 120.797 1.198 4.713 o
-4 -2 -4 2.040 1.331 0.199 1342.430 o
-4 -2 -3 146.484 144.347 1.037 3.452 o
-4 -2 -2 116.437 103.809 0.786 5.595 o
-4 -2 -1 1.600 0.658 0.238 1489.700 o
-4 -1 -21 5.570 4.845 1.791 53.560 o
-4 -1 -20 2.454 1.249 0.872 216.614 o
-4 -1 -19 57.489 57.115 1.927 13.671 o
-4 -1 -18 8.810 8.705 1.138 98.742 o
-4 -1 -17 9.057 9.029 0.991 116.151 o
-4 -1 -16 61.075 60.013 1.751 13.298 o
-4 -1 -15 63.865 64.799 1.496 13.030 o
-4 -1 -14 18.485 18.321 1.054 67.418 o
-4 -1 -13 136.616 128.797 2.090 3.759 o
-4 -1 -12 17.107 17.641 0.654 95.681 o
-4 -1 -11 79.184 76.986 1.132 10.099 o
-4 -1 -10 1.004 1.285 0.321 1162.180 o
-4 -1 -9 292.995 276.257 1.944 0.955 o
-4 -1 -8 90.897 88.517 0.951 8.144 o
-4 -1 -7 668.297 660.109 3.924 0.187 o
-4 -1 -6 118.000 106.680 0.795 5.419 o
-4 -1 -5 49.565 47.970 0.841 22.298 o
-4 -1 -4 253.779 243.269 3.086 1.194 o
-4 -1 -3 921.794 920.585 3.511 0.099 o
-4 -1 -2 172.100 169.128 1.076 2.569 o
-4 -1 -1 20.864 20.604 0.666 76.748 o
-3 -12 -6 47.669 55.238 3.426 9.566 o
-3 -12 -5 7.772 7.501 1.634 59.334 o
-3 -12 -4 11.853 10.780 1.101 90.349 o
-3 -12 -3 40.393 43.745 1.809 20.639 o
-3 -12 -2 0.420 0.144 0.811 281.331 o
-3 -12 -1 40.136 38.603 1.714 22.517 o
-3 -11 -11 41.323 38.643 4.942 6.312 o
-3 -11 -10 29.408 25.933 1.839 28.766 o
-3 -11 -9 6.371 5.958 1.029 129.180 o
-3 -11 -8 6.348 6.869 0.992 133.876 o
-3 -11 -7 45.910 48.997 1.757 18.354 o
-3 -11 -6 12.174 11.236 1.097 89.063 o
-3 -11 -5 2.216 2.860 0.871 211.192 o
-3 -11 -4 11.624 11.229 1.002 100.290 o
-3 -11 -3 7.173 5.494 0.862 160.279 o
-3 -11 -2 15.648 16.712 1.013 78.398 o
-3 -11 -1 59.298 57.767 1.553 14.581 o
-3 -10 -13 0.935 0.629 1.025 173.315 o
-3 -10 -12 21.095 19.408 1.358 49.465 o
-3 -10 -11 13.661 13.301 1.050 85.870 o
-3 -10 -10 44.443 48.517 1.592 19.977 o
-3 -10 -9 25.916 27.688 1.113 45.650 o
-3 -10 -8 12.335 12.561 0.872 108.708 o
-3 -10 -7 5.953 6.112 0.750 198.787 o
-3 -10 -6 20.044 19.799 1.024 64.078 o
-3 -10 -5 10.902 9.559 0.873 122.638 o
-3 -10 -4 30.409 32.668 1.172 37.066 o
-3 -10 -3 69.977 72.287 1.410 11.438 o
-3 -10 -2 59.605 61.842 1.503 14.217 o
-3 -10 -1 21.800 21.496 1.140 54.828 o
-3 -9 -16 11.757 17.395 3.749 12.520 o
-3 -9 -15 29.763 29.348 1.888 27.026 o
-3 -9 -14 1.068 2.177 0.822 251.633 o
-3 -9 -13 1.290 0.040 0.705 348.777 o
-3 -9 -12 50.104 52.187 1.413 18.469 o
-3 -9 -11 33.952 33.487 1.285 32.129 o
-3 -9 -10 6.597 6.276 0.753 190.030 o
-3 -9 -9 0.759 1.458 0.579 487.763 o
-3 -9 -8 62.754 64.028 1.354 13.720 o
-3 -9 -7 76.657 79.701 1.304 10.039 o
-3 -9 -6 30.850 30.244 1.049 39.944 o
-3 -9 -5 112.364 112.998 1.692 5.221 o
-3 -9 -4 64.725 62.845 1.274 13.628 o
-3 -9 -3 0.380 0.600 0.455 822.017 o
-3 -9 -2 9.630 10.562 0.631 167.381 o
-3 -9 -1 0.777 1.162 0.454 744.896 o
-3 -8 -17 19.245 16.789 4.117 10.187 o
-3 -8 -16 13.270 11.994 0.978 95.475 o
-3 -8 -15 43.592 44.515 1.400 22.448 o
-3 -8 -14 29.875 29.832 1.184 38.679 o
-3 -8 -13 8.696 9.245 0.968 120.659 o
-3 -8 -12 46.682 51.328 1.312 20.382 o
-3 -8 -11 47.824 52.203 1.370 19.471 o
-3 -8 -10 22.961 25.803 0.985 54.736 o
-3 -8 -9 31.658 33.567 0.989 38.406 o
-3 -8 -8 73.899 74.266 1.304 10.840 o
-3 -8 -7 12.824 12.113 0.650 133.011 o
-3 -8 -6 2.810 2.423 0.468 506.540 o
-3 -8 -5 43.659 42.285 0.906 26.553 o
-3 -8 -4 9.887 9.697 0.542 186.280 o
-3 -8 -3 32.057 30.794 0.800 42.394 o
-3 -8 -2 44.025 43.926 0.844 26.241 o
-3 -8 -1 3.139 2.855 0.424 528.164 o
-3 -7 -18 12.348 14.747 2.851 20.671 o
-3 -7 -17 0.670 2.007 0.970 189.476 o
-3 -7 -16 16.180 15.032 1.059 76.133 o
-3 -7 -15 7.110 6.854 0.853 157.823 o
-3 -7 -14 4.140 2.936 0.793 222.289 o
-3 -7 -13 86.695 89.855 2.035 7.443 o
-3 -7 -12 88.589 89.958 1.608 7.743 o
-3 -7 -11 25.568 26.917 1.029 48.718 o
-3 -7 -10 24.132 24.863 0.757 60.364 o
-3 -7 -9 17.595 17.786 0.716 89.677 o
-3 -7 -8 19.740 21.397 0.809 72.589 o
-3 -7 -7 205.128 210.911 1.846 1.764 o
-3 -7 -6 70.125 67.578 0.980 12.619 o
-3 -7 -5 9.712 8.843 0.472 208.658 o
-3 -7 -4 10.950 10.530 0.465 182.931 o
-3 -7 -3 33.515 31.790 0.672 41.801 o
-3 -7 -2 86.232 83.546 1.163 8.755 o
-3 -7 -1 152.601 147.687 1.449 3.183 o
-3 -6 -20 53.424 56.951 5.368 4.978 o
-3 -6 -19 10.342 9.691 1.449 66.584 o
-3 -6 -18 44.230 50.517 2.277 15.457 o
-3 -6 -17 1.923 2.433 1.023 162.976 o
-3 -6 -16 54.400 55.882 1.856 14.738 o
-3 -6 -15 1.872 2.311 0.772 267.523 o
-3 -6 -14 91.776 95.353 1.978 6.877 o
-3 -6 -13 16.219 16.222 0.916 83.907 o
-3 -6 -12 13.715 14.386 0.856 100.666 o
-3 -6 -11 180.298 191.502 2.190 2.153 o
-3 -6 -10 21.736 23.157 0.909 61.926 o
-3 -6 -9 1.482 1.723 0.394 784.160 o
-3 -6 -8 2.551 1.879 0.434 589.408 o
-3 -6 -7 1.554 1.129 0.320 1050.070 o
-3 -6 -6 33.157 35.407 0.672 40.109 o
-3 -6 -5 105.430 94.452 1.029 6.558 o
-3 -6 -4 121.208 119.185 1.125 4.840 o
-3 -6 -3 26.205 21.107 0.583 64.736 o
-3 -6 -2 18.817 18.649 0.550 92.480 o
-3 -6 -1 148.173 140.400 1.017 3.463 o
-3 -5 -20 13.669 9.858 1.681 49.842 o
-3 -5 -19 2.157 1.063 0.920 200.525 o
-3 -5 -18 20.968 22.197 1.370 47.548 o
-3 -5 -17 33.448 35.714 1.767 25.447 o
-3 -5 -16 21.359 19.973 1.399 47.438 o
-3 -5 -15 22.721 19.880 1.176 53.391 o
-3 -5 -14 20.053 20.147 1.274 53.410 o
-3 -5 -13 78.276 79.676 1.487 9.568 o
-3 -5 -12 19.369 19.182 0.858 74.171 o
-3 -5 -11 122.914 122.345 1.418 4.603 o
-3 -5 -10 1.246 1.388 0.356 959.557 o
-3 -5 -9 144.180 136.069 1.371 3.590 o
-3 -5 -8 33.745 33.062 0.715 40.261 o
-3 -5 -7 50.015 50.133 0.687 22.197 o
-3 -5 -6 92.591 87.640 0.856 8.075 o
-3 -5 -5 67.504 60.411 0.731 14.392 o
-3 -5 -4 182.471 184.079 1.272 2.256 o
-3 -5 -3 84.615 88.676 0.705 8.998 o
-3 -5 -2 309.753 315.600 1.306 0.827 o
-3 -5 -1 141.981 129.061 0.870 3.855 o
-3 -4 -21 28.177 26.167 4.302 8.797 o
-3 -4 -20 6.232 5.312 1.039 129.580 o
-3 -4 -19 8.006 8.310 1.081 109.317 o
-3 -4 -18 37.537 39.572 1.655 23.968 o
-3 -4 -17 39.943 41.752 1.556 23.359 o
-3 -4 -16 78.850 78.499 1.620 9.375 o
-3 -4 -15 76.821 77.242 1.550 9.818 o
-3 -4 -14 38.982 38.270 1.087 29.290 o
-3 -4 -13 113.271 111.433 1.606 5.256 o
-3 -4 -12 0.037 0.240 0.473 829.568 o
-3 -4 -11 13.733 12.511 0.666 124.115 o
-3 -4 -10 58.041 59.174 0.856 16.907 o
-3 -4 -9 91.557 87.356 1.048 8.069 o
-3 -4 -8 20.725 22.484 0.548 78.877 o
-3 -4 -7 120.861 114.641 0.925 5.021 o
-3 -4 -6 64.946 61.441 0.635 15.061 o
-3 -4 -5 284.816 282.097 1.270 0.989 o
-3 -4 -4 94.700 80.861 0.665 8.312 o
-3 -4 -3 21.423 25.250 0.413 76.442 o
-3 -4 -2 123.868 120.596 0.688 4.778 o
-3 -4 -1 12.831 11.607 0.280 178.099 o
-3 -3 -21 76.707 81.610 2.286 8.365 o
-3 -3 -20 47.272 49.121 1.941 16.846 o
-3 -3 -19 16.290 14.636 1.004 80.059 o
-3 -3 -18 9.173 9.684 0.806 142.858 o
-3 -3 -17 60.463 60.981 1.456 14.268 o
-3 -3 -16 20.556 20.712 0.949 65.322 o
-3 -3 -15 18.989 20.943 1.034 64.609 o
-3 -3 -14 20.598 20.469 0.940 65.883 o
-3 -3 -13 21.727 18.515 0.823 70.605 o
-3 -3 -12 9.793 9.159 0.572 184.472 o
-3 -3 -11 11.466 11.922 0.499 164.756 o
-3 -3 -10 4.203 5.597 0.403 417.753 o
-3 -3 -9 362.493 344.946 2.115 0.633 o
-3 -3 -8 237.996 231.907 1.373 1.401 o
-3 -3 -7 102.218 95.773 1.273 6.621 o
-3 -3 -6 55.910 56.822 0.794 18.151 o
-3 -3 -5 815.741 796.608 3.292 0.128 o
-3 -3 -4 161.396 157.331 0.901 2.922 o
-3 -3 -3 254.181 253.828 1.020 1.225 o
-3 -3 -2 58.050 67.983 0.547 16.203 o
-3 -3 -1 12.215 11.001 0.261 191.526 o
-3 -2 -21 35.294 41.301 2.347 18.099 o
-3 -2 -20 34.919 33.853 1.588 27.384 o
-3 -2 -19 15.270 15.026 0.961 85.432 o
-3 -2 -18 39.037 38.035 1.419 25.989 o
-3 -2 -17 50.583 49.780 1.259 19.500 o
-3 -2 -16 40.738 43.179 1.167 26.003 o
-3 -2 -15 13.488 11.603 0.736 120.514 o
-3 -2 -14 48.896 53.316 1.150 20.007 o
-3 -2 -13 37.810 39.154 1.356 27.001 o
-3 -2 -12 97.958 93.763 1.118 7.132 o
-3 -2 -11 97.920 90.343 0.889 7.413 o
-3 -2 -10 65.501 58.636 0.618 15.312 o
-3 -2 -9 133.954 124.081 0.835 4.245 o
-3 -2 -8 101.402 88.910 0.946 7.142 o
-3 -2 -7 51.824 56.311 0.653 20.167 o
-3 -2 -6 43.474 42.504 0.681 27.996 o
-3 -2 -5 109.711 93.042 0.960 6.327 o
-3 -2 -4 75.001 72.486 1.058 11.177 o
-3 -2 -3 196.710 206.584 1.013 1.925 o
-3 -2 -2 189.903 192.808 0.891 2.106 o
-3 -2 -1 324.216 354.980 1.134 0.723 o
-3 -1 -22 32.852 36.297 2.874 15.121 o
-3 -1 -21 73.021 74.191 2.128 9.440 o
-3 -1 -20 9.109 9.928 1.020 110.159 o
-3 -1 -19 10.839 10.379 0.925 114.023 o
-3 -1 -18 7.286 5.066 0.835 167.520 o
-3 -1 -17 25.448 22.329 1.163 48.305 o
-3 -1 -16 31.750 37.615 1.336 31.502 o
-3 -1 -15 41.680 44.459 1.376 23.493 o
-3 -1 -14 4.969 3.352 0.453 395.245 o
-3 -1 -13 87.438 84.039 1.140 8.611 o
-3 -1 -12 99.163 91.124 0.966 7.228 o
-3 -1 -11 65.268 58.510 0.704 15.252 o
-3 -1 -10 241.289 218.894 1.620 1.417 o
-3 -1 -9 288.122 272.421 2.569 0.970 o
-3 -1 -8 328.885 295.238 1.957 0.790 o
-3 -1 -7 44.007 45.197 0.632 27.037 o
-3 -1 -6 378.587 355.909 1.529 0.590 o
-3 -1 -5 244.955 259.142 2.643 1.218 o
-3 -1 -4 22.893 23.110 0.468 73.805 o
-3 -1 -3 20.282 19.101 0.405 91.781 o
-3 -1 -2 510.458 517.364 1.759 0.315 o
-3 -1 -1 312.722 331.474 1.936 0.784 o
-2 -13 -2 9.998 10.324 2.765 22.633 o
-2 -13 -1 27.739 22.020 3.188 14.644 o
-2 -12 -9 5.936 3.144 3.011 20.255 o
-2 -12 -8 2.659 2.453 1.211 117.554 o
-2 -12 -7 14.965 13.304 1.143 75.555 o
-2 -12 -6 5.926 6.848 1.002 134.169 o
-2 -12 -5 10.163 10.501 0.882 122.772 o
-2 -12 -4 24.940 23.066 1.110 50.044 o
-2 -12 -3 2.566 2.283 0.769 258.562 o
-2 -12 -2 35.021 34.483 1.510 28.124 o
-2 -12 -1 8.237 8.343 0.869 142.010 o
-2 -11 -12 2.549 0.517 2.292 35.448 o
-2 -11 -11 19.246 20.924 1.316 52.381 o
-2 -11 -10 33.614 31.805 1.376 31.664 o
-2 -11 -9 2.370 1.566 0.791 254.939 o
-2 -11 -8 53.019 53.204 1.588 16.594 o
-2 -11 -7 12.155 11.416 0.976 100.665 o
-2 -11 -6 2.292 1.292 0.786 260.938 o
-2 -11 -5 17.000 14.209 1.083 73.689 o
-2 -11 -4 21.827 21.280 1.083 57.050 o
-2 -11 -3 14.540 13.811 0.920 93.066 o
-2 -11 -2 5.029 6.625 0.856 174.087 o
-2 -11 -1 16.851 17.565 0.995 75.312 o
-2 -10 -14 30.412 25.793 1.625 31.804 o
-2 -10 -13 3.176 2.546 0.830 219.784 o
-2 -10 -12 11.990 11.147 0.887 111.798 o
-2 -10 -11 40.769 43.450 1.318 24.654 o
-2 -10 -10 11.705 11.568 0.919 108.419 o
-2 -10 -9 19.476 16.645 0.981 70.812 o
-2 -10 -8 14.069 12.509 0.913 97.727 o
-2 -10 -7 42.209 42.813 1.243 24.699 o
-2 -10 -6 10.576 10.840 0.663 152.316 o
-2 -10 -5 14.661 14.268 0.746 106.773 o
-2 -10 -4 6.245 6.894 0.674 214.921 o
-2 -10 -3 33.770 36.417 1.118 33.409 o
-2 -10 -2 74.020 70.967 1.293 11.099 o
-2 -10 -1 36.565 36.771 1.095 31.422 o
-2 -9 -16 10.154 14.034 1.721 49.384 o
-2 -9 -15 0.073 -0.901 0.825 277.985 o
-2 -9 -14 98.140 103.627 2.157 5.997 o
-2 -9 -13 20.973 20.874 1.094 58.419 o
-2 -9 -12 19.698 21.829 1.051 61.609 o
-2 -9 -11 7.773 7.656 0.753 172.214 o
-2 -9 -10 55.081 54.011 1.216 17.467 o
-2 -9 -9 4.360 4.441 0.603 298.685 o
-2 -9 -8 38.510 40.598 0.964 29.983 o
-2 -9 -7 9.294 6.895 0.552 209.153 o
-2 -9 -6 13.807 13.300 0.709 116.984 o
-2 -9 -5 114.305 116.371 1.476 5.131 o
-2 -9 -4 31.037 30.659 0.924 41.669 o
-2 -9 -3 3.839 2.996 0.482 425.499 o
-2 -9 -2 14.802 13.937 0.621 118.238 o
-2 -9 -1 25.773 25.959 0.770 55.822 o
-2 -8 -18 6.978 6.300 5.628 5.915 o
-2 -8 -17 110.110 116.209 2.150 5.011 o
-2 -8 -16 6.100 6.267 0.998 135.645 o
-2 -8 -15 45.052 45.833 1.551 20.523 o
-2 -8 -14 28.197 27.868 1.243 40.087 o
-2 -8 -13 57.167 59.036 1.355 15.640 o
-2 -8 -12 65.523 67.089 1.335 12.878 o
-2 -8 -11 3.226 3.221 0.576 362.548 o
-2 -8 -10 17.246 16.508 0.835 85.611 o
-2 -8 -9 9.621 9.348 0.633 172.870 o
-2 -8 -8 8.980 8.812 0.600 189.508 o
-2 -8 -7 18.698 20.132 0.690 83.180 o
-2 -8 -6 57.442 61.325 0.918 16.601 o
-2 -8 -5 24.717 23.713 0.649 63.396 o
-2 -8 -4 43.918 42.080 0.827 26.973 o
-2 -8 -3 56.230 57.557 0.833 17.810 o
-2 -8 -2 59.958 56.376 0.929 16.558 o
-2 -8 -1 137.826 137.965 1.264 3.780 o
-2 -7 -19 11.684 12.934 2.108 35.210 o
-2 -7 -18 23.080 22.414 1.577 39.377 o
-2 -7 -17 14.795 13.874 1.190 72.104 o
-2 -7 -16 9.326 10.517 0.993 111.545 o
-2 -7 -15 30.050 30.204 1.454 33.519 o
-2 -7 -14 26.712 27.459 1.139 44.228 o
-2 -7 -13 47.063 47.838 1.266 21.188 o
-2 -7 -12 36.562 39.231 1.263 28.707 o
-2 -7 -11 60.776 64.874 1.300 14.214 o
-2 -7 -10 6.804 7.698 0.562 238.014 o
-2 -7 -9 24.717 24.702 0.786 58.537 o
-2 -7 -8 27.909 27.445 0.806 50.184 o
-2 -7 -7 56.514 58.373 0.972 17.181 o
-2 -7 -6 170.837 167.390 1.338 2.587 o
-2 -7 -5 176.501 166.199 1.482 2.482 o
-2 -7 -4 57.181 59.548 0.791 17.285 o
-2 -7 -3 104.143 101.875 1.014 6.387 o
-2 -7 -2 50.327 50.970 0.709 21.780 o
-2 -7 -1 127.795 124.865 0.917 4.466 o
-2 -6 -20 12.041 10.822 1.313 72.232 o
-2 -6 -19 29.032 27.122 1.455 35.416 o
-2 -6 -18 20.329 20.853 1.248 53.524 o
-2 -6 -17 87.423 86.263 1.825 7.784 o
-2 -6 -16 12.979 12.475 1.058 88.418 o
-2 -6 -15 3.789 5.415 0.716 243.342 o
-2 -6 -14 8.785 9.999 0.937 123.036 o
-2 -6 -13 74.435 74.554 1.457 10.486 o
-2 -6 -12 2.407 0.830 0.548 466.927 o
-2 -6 -11 25.528 26.172 0.880 53.216 o
-2 -6 -10 123.108 127.807 1.732 4.376 o
-2 -6 -9 167.030 165.830 2.046 2.587 o
-2 -6 -8 86.064 83.118 1.186 8.776 o
-2 -6 -7 44.179 45.853 0.808 25.802 o
-2 -6 -6 85.946 81.572 1.133 8.931 o
-2 -6 -5 33.121 32.641 0.553 43.143 o
-2 -6 -4 59.111 58.960 0.746 16.875 o
-2 -6 -3 47.389 40.617 0.713 25.969 o
-2 -6 -2 81.431 85.756 0.750 9.557 o
-2 -6 -1 400.522 398.715 1.752 0.510 o
-2 -5 -21 36.403 36.428 2.261 19.169 o
-2 -5 -20 27.426 22.581 1.418 39.441 o
-2 -5 -19 13.235 14.126 1.033 87.327 o
-2 -5 -18 44.381 46.279 1.694 19.694 o
-2 -5 -17 5.073 4.634 0.901 169.150 o
-2 -5 -16 66.084 67.509 1.935 11.248 o
-2 -5 -15 5.148 5.184 0.605 273.573 o
-2 -5 -14 45.706 46.210 1.155 22.813 o
-2 -5 -13 69.635 71.355 1.242 11.896 o
-2 -5 -12 80.096 81.383 1.256 9.531 o
-2 -5 -11 10.733 11.197 0.580 162.851 o
-2 -5 -10 142.255 141.497 1.411 3.559 o
-2 -5 -9 53.820 48.609 0.790 20.495 o
-2 -5 -8 92.504 83.695 1.026 8.176 o
-2 -5 -7 24.476 23.821 0.575 65.818 o
-2 -5 -6 125.664 122.459 1.196 4.545 o
-2 -5 -5 134.708 138.512 0.967 3.928 o
-2 -5 -4 269.628 257.582 1.090 1.125 o
-2 -5 -3 296.901 306.749 1.167 0.890 o
-2 -5 -2 98.868 97.088 0.637 7.139 o
-2 -5 -1 31.546 30.241 0.437 48.297 o
-2 -4 -22 0.959 -0.478 1.264 116.439 o
-2 -4 -21 16.400 16.579 1.231 63.968 o
-2 -4 -20 2.798 2.669 0.805 235.048 o
-2 -4 -19 40.096 37.221 1.568 24.203 o
-2 -4 -18 29.477 27.763 1.321 37.369 o
-2 -4 -17 30.070 31.019 1.156 38.437 o
-2 -4 -16 81.340 82.933 1.429 9.071 o
-2 -4 -15 93.593 95.880 1.495 7.145 o
-2 -4 -14 23.033 21.610 0.802 64.707 o
-2 -4 -13 25.577 23.505 0.814 57.245 o
-2 -4 -12 12.505 9.171 0.569 157.625 o
-2 -4 -11 0.367 0.889 0.333 1359.660 o
-2 -4 -10 40.724 38.898 0.711 31.050 o
-2 -4 -9 104.658 97.981 1.187 6.408 o
-2 -4 -8 147.193 148.028 1.268 3.348 o
-2 -4 -7 232.536 226.611 1.441 1.461 o
-2 -4 -6 294.291 284.410 1.229 0.944 o
-2 -4 -5 23.640 25.128 0.379 70.886 o
-2 -4 -4 110.404 103.560 0.722 5.999 o
-2 -4 -3 616.179 668.489 1.774 0.208 o
-2 -4 -2 159.988 158.527 0.795 2.948 o
-2 -4 -1 181.641 177.074 0.714 2.355 o
-2 -3 -22 15.914 14.858 1.241 65.874 o
-2 -3 -21 32.761 32.724 1.361 32.148 o
-2 -3 -20 58.669 59.731 1.616 14.284 o
-2 -3 -19 78.633 84.430 1.611 9.060 o
-2 -3 -18 9.965 9.938 0.777 141.612 o
-2 -3 -17 10.988 10.646 0.783 131.729 o
-2 -3 -16 30.697 32.817 0.920 40.904 o
-2 -3 -15 13.021 12.966 0.772 115.364 o
-2 -3 -14 28.677 28.800 0.953 45.087 o
-2 -3 -13 17.644 16.526 0.625 97.577 o
-2 -3 -12 10.466 8.428 0.491 197.243 o
-2 -3 -11 1.030 1.051 0.320 1195.390 o
-2 -3 -10 129.826 115.971 1.260 4.489 o
-2 -3 -9 217.403 215.533 2.773 1.564 o
-2 -3 -8 130.164 134.077 1.005 4.169 o
-2 -3 -7 228.970 240.109 1.414 1.437 o
-2 -3 -6 87.862 89.532 0.724 8.557 o
-2 -3 -5 36.655 37.566 0.455 37.077 o
-2 -3 -4 459.272 486.587 1.574 0.376 o
-2 -3 -3 559.185 583.967 1.819 0.259 o
-2 -3 -2 24.560 26.248 0.266 68.702 o
-2 -3 -1 462.612 474.423 1.094 0.380 o
-2 -2 -23 10.924 6.519 1.670 54.594 o
-2 -2 -22 37.163 38.338 1.599 24.994 o
-2 -2 -21 80.089 83.060 1.943 8.498 o
-2 -2 -20 4.158 4.207 0.804 210.225 o
-2 -2 -19 47.476 46.040 1.576 19.459 o
-2 -2 -18 15.306 14.708 0.851 94.344 o
-2 -2 -17 59.750 61.584 1.232 15.046 o
-2 -2 -16 55.977 56.075 1.206 16.917 o
-2 -2 -15 67.731 60.243 1.179 13.485 o
-2 -2 -14 18.831 18.116 0.664 87.531 o
-2 -2 -13 209.753 202.917 1.588 1.772 o
-2 -2 -12 68.904 61.931 0.888 13.625 o
-2 -2 -11 24.493 22.340 0.563 67.928 o
-2 -2 -10 79.077 82.507 1.008 9.869 o
-2 -2 -9 106.690 105.950 1.015 6.068 o
-2 -2 -8 132.986 125.051 0.949 4.244 o
-2 -2 -7 9.919 11.601 0.263 221.255 o
-2 -2 -6 23.022 21.657 0.371 78.103 o
-2 -2 -5 42.856 47.013 0.417 28.096 o
-2 -2 -4 59.692 52.568 0.485 18.262 o
-2 -2 -3 123.758 127.706 0.667 4.623 o
-2 -2 -2 384.916 421.434 1.450 0.518 o
-2 -2 -1 83.685 99.078 0.427 8.622 o
-2 -1 -23 3.416 0.554 1.896 50.831 o
-2 -1 -22 80.158 82.500 2.061 8.342 o
-2 -1 -21 25.294 21.431 1.270 46.010 o
-2 -1 -20 46.031 48.903 1.605 19.280 o
-2 -1 -19 12.705 11.611 0.877 108.630 o
-2 -1 -18 62.038 64.215 1.398 13.733 o
-2 -1 -17 82.252 83.412 1.361 9.016 o
-2 -1 -16 1.941 1.758 0.507 522.953 o
-2 -1 -15 47.614 51.326 1.022 21.567 o
-2 -1 -14 4.200 4.109 0.422 436.809 o
-2 -1 -13 8.534 9.070 0.574 199.500 o
-2 -1 -12 230.580 230.493 1.565 1.457 o
-2 -1 -11 10.146 7.139 0.412 228.237 o
-2 -1 -10 72.052 68.799 0.875 12.284 o
-2 -1 -9 72.278 76.405 0.885 11.534 o
-2 -1 -8 21.917 21.832 0.402 80.683 o
-2 -1 -7 118.934 126.243 0.982 4.818 o
-2 -1 -6 570.886 605.618 1.878 0.246 o
-2 -1 -5 144.717 159.232 1.145 3.281 o
-2 -1 -4 280.937 315.426 1.429 0.932 o
-2 -1 -3 667.525 710.103 4.379 0.178 o
-2 -1 -2 195.541 192.090 0.813 2.038 o
-2 -1 -1 177.486 188.322 1.046 2.315 o
-1 -13 -3 1.292 1.871 1.519 79.541 o
-1 -13 -2 21.228 20.041 2.179 27.992 o
-1 -13 -1 12.264 10.711 1.325 71.083 o
-1 -12 -10 42.063 41.476 4.341 7.644 o
-1 -12 -9 10.103 7.065 1.570 60.833 o
-1 -12 -8 25.154 24.379 1.112 48.801 o
-1 -12 -7 1.831 0.273 0.720 321.489 o
-1 -12 -6 4.576 4.410 0.765 219.216 o
-1 -12 -5 36.848 34.049 1.290 29.875 o
-1 -12 -4 14.331 15.544 0.948 88.589 o
-1 -12 -3 81.972 84.757 1.566 8.723 o
-1 -12 -2 30.482 29.758 1.074 40.125 o
-1 -12 -1 6.699 6.313 0.821 170.785 o
-1 -11 -13 27.782 32.856 3.858 10.369 o
-1 -11 -12 26.141 25.519 1.580 35.696 o
-1 -11 -11 3.757 2.758 0.828 213.492 o
-1 -11 -10 4.899 4.339 0.841 189.290 o
-1 -11 -9 85.232 86.439 1.797 8.014 o
-1 -11 -8 34.486 34.439 1.151 33.189 o
-1 -11 -7 16.120 15.966 0.889 86.473 o
-1 -11 -6 70.591 72.943 1.438 11.231 o
-1 -11 -5 5.869 6.346 0.722 207.056 o
-1 -11 -4 62.358 65.389 1.248 13.935 o
-1 -11 -3 0.686 1.461 0.614 443.402 o
-1 -11 -2 13.821 14.250 1.002 87.905 o
-1 -11 -1 22.417 23.161 0.951 59.135 o
-1 -10 -15 0.113 0.143 1.169 138.299 o
-1 -10 -14 96.214 104.041 2.000 6.236 o
-1 -10 -13 25.270 23.767 1.146 48.085 o
-1 -10 -12 40.428 41.164 1.308 25.495 o
-1 -10 -11 0.269 1.061 0.668 400.477 o
-1 -10 -10 64.363 64.464 1.497 12.960 o
-1 -10 -9 11.497 10.758 0.848 119.814 o
-1 -10 -8 96.113 97.003 1.611 6.807 o
-1 -10 -7 38.457 39.895 1.123 28.747 o
-1 -10 -6 6.193 6.832 0.695 209.092 o
-1 -10 -5 9.518 10.268 0.750 147.978 o
-1 -10 -4 11.255 10.754 0.723 138.446 o
-1 -10 -3 27.930 29.238 1.019 44.373 o
-1 -10 -2 54.456 57.768 1.140 17.361 o
-1 -10 -1 3.699 2.904 0.553 371.148 o
-1 -9 -17 5.088 3.479 4.040 11.444 o
-1 -9 -16 7.050 6.896 0.972 133.991 o
-1 -9 -15 58.202 60.470 1.652 14.178 o
-1 -9 -14 24.030 20.997 1.304 46.748 o
-1 -9 -13 6.927 7.545 0.926 141.486 o
-1 -9 -12 42.570 45.843 1.478 22.016 o
-1 -9 -11 0.170 0.854 0.658 418.726 o
-1 -9 -10 6.885 7.170 0.773 177.468 o
-1 -9 -9 17.598 16.530 0.854 83.273 o
-1 -9 -8 19.054 19.948 0.869 73.418 o
-1 -9 -7 107.082 112.945 1.533 5.591 o
-1 -9 -6 15.333 16.205 0.720 101.540 o
-1 -9 -5 99.808 97.496 1.476 6.608 o
-1 -9 -4 93.828 91.480 1.364 7.418 o
-1 -9 -3 30.038 29.844 0.777 45.939 o
-1 -9 -2 36.180 35.341 0.756 36.085 o
-1 -9 -1 29.990 29.402 0.817 45.602 o
-1 -8 -18 4.298 3.339 1.012 149.877 o
-1 -8 -17 5.651 5.615 0.918 157.336 o
-1 -8 -16 7.737 5.974 0.970 133.066 o
-1 -8 -15 26.769 25.343 1.287 41.826 o
-1 -8 -14 7.334 6.661 0.868 153.637 o
-1 -8 -13 101.533 104.473 1.934 5.933 o
-1 -8 -12 16.426 14.945 0.895 86.744 o
-1 -8 -11 81.016 81.424 1.332 9.319 o
-1 -8 -10 124.656 122.126 1.719 4.433 o
-1 -8 -9 55.751 58.732 1.331 16.146 o
-1 -8 -8 22.306 20.598 0.860 65.274 o
-1 -8 -7 3.855 3.993 0.486 400.757 o
-1 -8 -6 28.540 30.478 0.740 48.264 o
-1 -8 -5 158.893 154.940 1.513 2.938 o
-1 -8 -4 1.708 1.877 0.387 763.338 o
-1 -8 -3 67.736 67.390 0.701 13.565 o
-1 -8 -2 88.781 84.020 0.995 8.583 o
-1 -8 -1 105.139 108.796 1.068 6.056 o
-1 -7 -19 15.466 14.235 1.354 60.928 o
-1 -7 -18 18.212 16.046 1.216 62.004 o
-1 -7 -17 83.411 81.091 2.086 8.061 o
-1 -7 -16 11.875 9.419 1.116 90.854 o
-1 -7 -15 37.125 36.718 1.191 29.954 o
-1 -7 -14 41.001 43.585 1.269 24.913 o
-1 -7 -13 54.537 57.822 1.297 16.744 o
-1 -7 -12 18.175 17.957 0.931 75.049 o
-1 -7 -11 160.526 160.745 2.051 2.760 o
-1 -7 -10 69.055 70.168 1.447 11.697 o
-1 -7 -9 67.927 65.269 1.219 12.837 o
-1 -7 -8 51.432 50.069 0.887 20.818 o
-1 -7 -7 136.473 138.640 1.163 3.833 o
-1 -7 -6 24.597 23.676 0.637 64.026 o
-1 -7 -5 6.079 6.572 0.429 318.567 o
-1 -7 -4 9.187 8.299 0.446 226.616 o
-1 -7 -3 86.414 83.138 0.842 9.025 o
-1 -7 -2 40.450 40.582 0.659 30.976 o
-1 -7 -1 8.526 8.501 0.383 252.732 o
-1 -6 -21 15.574 17.282 3.770 12.162 o
-1 -6 -20 8.217 7.838 1.292 84.988 o
-1 -6 -19 32.363 37.069 1.765 25.651 o
-1 -6 -18 22.721 19.885 1.058 57.662 o
-1 -6 -17 26.929 27.506 1.060 45.783 o
-1 -6 -16 107.213 104.958 2.026 5.524 o
-1 -6 -15 120.276 128.085 2.196 4.301 o
-1 -6 -14 20.585 17.848 0.981 66.931 o
-1 -6 -13 30.568 29.997 1.160 38.369 o
-1 -6 -12 7.285 8.202 0.728 180.298 o
-1 -6 -11 77.062 78.164 1.615 9.626 o
-1 -6 -10 2.716 2.387 0.443 545.920 o
-1 -6 -9 49.724 48.548 0.939 21.652 o
-1 -6 -8 42.696 45.530 0.833 26.624 o
-1 -6 -7 57.317 54.237 0.816 18.048 o
-1 -6 -6 105.783 108.843 1.278 5.919 o
-1 -6 -5 437.795 445.587 3.801 0.413 o
-1 -6 -4 243.047 241.286 1.460 1.329 o
-1 -6 -3 58.794 63.145 0.639 16.548 o
-1 -6 -2 37.115 35.257 0.718 35.619 o
-1 -6 -1 79.470 80.047 1.090 9.896 o
-1 -5 -22 0.401 -0.408 2.401 32.874 o
-1 -5 -21 16.330 14.017 1.200 68.217 o
-1 -5 -20 4.148 3.686 0.932 170.662 o
-1 -5 -19 17.791 17.420 1.019 71.819 o
-1 -5 -18 32.129 33.898 1.392 31.731 o
-1 -5 -17 0.992 0.373 0.541 566.882 o
-1 -5 -16 2.343 1.203 0.582 422.404 o
-1 -5 -15 41.659 42.259 1.157 25.837 o
-1 -5 -14 22.672 21.055 0.927 61.492 o
-1 -5 -13 18.117 19.184 0.727 84.751 o
-1 -5 -12 40.697 37.133 0.835 30.779 o
-1 -5 -11 80.953 82.693 1.321 9.262 o
-1 -5 -10 30.465 36.160 0.838 40.563 o
-1 -5 -9 225.092 209.474 2.121 1.565 o
-1 -5 -8 520.499 512.091 3.173 0.306 o
-1 -5 -7 331.391 336.304 2.505 0.716 o
-1 -5 -6 78.393 73.538 1.039 10.582 o
-1 -5 -5 62.911 64.085 1.084 14.360 o
-1 -5 -4 251.841 256.722 1.274 1.226 o
-1 -5 -3 31.061 31.917 0.405 48.083 o
-1 -5 -2 193.332 198.109 1.079 2.017 o
-1 -5 -1 1.791 2.309 0.343 828.239 o
-1 -4 -22 35.976 36.553 2.086 20.874 o
-1 -4 -21 10.395 9.052 1.008 108.270 o
-1 -4 -20 101.480 105.630 2.102 5.779 o
-1 -4 -19 5.764 5.434 0.823 181.933 o
-1 -4 -18 87.534 88.677 1.717 7.784 o
-1 -4 -17 76.403 74.504 1.342 10.389 o
-1 -4 -16 60.293 62.574 1.104 15.144 o
-1 -4 -15 21.472 21.148 0.871 66.082 o
-1 -4 -14 105.823 112.744 1.467 5.704 o
-1 -4 -13 45.215 36.758 0.901 27.323 o
-1 -4 -12 128.206 127.905 1.463 4.257 o
-1 -4 -11 58.965 51.693 0.904 17.670 o
-1 -4 -10 6.423 5.635 0.451 311.579 o
-1 -4 -9 143.436 134.500 1.507 3.610 o
-1 -4 -8 92.088 99.827 0.873 7.521 o
-1 -4 -7 69.034 66.827 0.844 13.136 o
-1 -4 -6 172.392 181.304 1.125 2.452 o
-1 -4 -5 109.286 118.966 1.154 5.456 o
-1 -4 -4 437.992 460.253 1.888 0.414 o
-1 -4 -3 648.935 677.850 2.266 0.193 o
-1 -4 -2 514.503 557.311 1.884 0.297 o
-1 -4 -1 124.500 133.790 0.725 4.449 o
-1 -3 -23 1.346 0.319 2.103 42.454 o
-1 -3 -22 2.059 2.502 0.925 193.580 o
-1 -3 -21 56.841 56.738 1.533 15.366 o
-1 -3 -20 64.294 66.828 1.493 12.756 o
-1 -3 -19 79.427 82.253 1.565 9.159 o
-1 -3 -18 3.885 3.951 0.677 272.916 o
-1 -3 -17 13.406 14.831 0.820 104.322 o
-1 -3 -16 63.350 65.349 1.297 13.597 o
-1 -3 -15 73.411 73.969 1.448 10.696 o
-1 -3 -14 102.830 99.922 1.389 6.357 o
-1 -3 -13 150.921 149.688 1.579 3.179 o
-1 -3 -12 45.320 39.535 0.868 26.629 o
-1 -3 -11 11.739 17.972 0.740 112.476 o
-1 -3 -10 196.212 182.233 2.581 1.965 o
-1 -3 -9 263.177 270.427 1.738 1.113 o
-1 -3 -8 785.888 777.493 2.987 0.137 o
-1 -3 -7 86.434 84.205 0.801 8.987 o
-1 -3 -6 116.540 124.332 0.957 4.987 o
-1 -3 -5 74.776 77.404 0.630 11.282 o
-1 -3 -4 286.336 323.065 1.008 0.901 o
-1 -3 -3 67.293 78.657 0.497 12.675 o
-1 -3 -2 85.065 91.500 0.567 8.847 o
-1 -3 -1 22.649 21.041 0.251 82.978 o
-1 -2 -23 45.809 47.440 2.426 14.615 o
-1 -2 -22 28.834 29.598 1.350 36.586 o
-1 -2 -21 18.528 16.050 1.039 70.562 o
-1 -2 -20 15.575 16.434 0.947 83.389 o
-1 -2 -19 5.844 5.778 0.676 227.249 o
-1 -2 -18 71.674 75.496 1.412 10.906 o
-1 -2 -17 3.474 3.203 0.592 343.356 o
-1 -2 -16 17.069 15.617 0.773 91.917 o
-1 -2 -15 29.102 31.953 0.814 45.152 o
-1 -2 -14 1.864 1.542 0.436 658.247 o
-1 -2 -13 209.721 197.096 1.644 1.800 o
-1 -2 -12 274.522 256.348 2.545 1.070 o
-1 -2 -11 187.836 184.048 1.591 2.155 o
-1 -2 -10 55.498 47.727 0.670 20.369 o
-1 -2 -9 69.585 70.413 0.758 12.770 o
-1 -2 -8 372.177 394.010 1.659 0.565 o
-1 -2 -7 388.740 418.069 1.513 0.514 o
-1 -2 -6 162.618 169.822 0.830 2.766 o
-1 -2 -5 266.890 298.254 1.187 1.035 o
-1 -2 -4 961.264 1065.110 3.090 0.085 o
-1 -2 -3 570.838 586.876 1.179 0.252 o
-1 -2 -2 1553.140 1644.450 3.773 0.034 o
-1 -2 -1 2633.330 2725.330 2.938 0.012 o
-1 -1 -23 8.644 7.507 0.962 125.942 o
-1 -1 -22 26.662 26.550 1.464 37.354 o
-1 -1 -21 1.887 0.757 0.743 298.378 o
-1 -1 -20 8.186 7.135 0.741 173.701 o
-1 -1 -19 27.244 28.067 1.019 45.957 o
-1 -1 -18 14.840 13.277 0.834 100.300 o
-1 -1 -17 51.608 53.400 1.299 18.328 o
-1 -1 -16 83.237 84.470 1.327 8.879 o
-1 -1 -15 1.974 1.428 0.455 615.827 o
-1 -1 -14 148.079 148.405 1.582 3.268 o
-1 -1 -13 19.629 20.544 0.729 77.748 o
-1 -1 -12 10.442 8.913 0.582 176.697 o
-1 -1 -11 178.161 169.473 1.711 2.403 o
-1 -1 -10 374.318 386.447 1.990 0.566 o
-1 -1 -9 86.431 95.670 0.933 8.250 o
-1 -1 -8 416.342 406.755 1.625 0.479 o
-1 -1 -7 113.290 118.646 0.876 5.327 o
-1 -1 -6 906.412 978.392 3.690 0.097 o
-1 -1 -5 693.981 755.292 2.777 0.164 o
-1 -1 -4 162.073 171.918 0.861 2.753 o
-1 -1 -3 82.636 86.076 0.587 9.481 o
-1 -1 -2 709.326 703.440 1.874 0.168 o
-1 -1 -1 1080.380 1071.880 2.944 0.073 o
0 0 2 485.051 542.272 3.149 0.322 o
0 0 4 1912.040 2125.660 5.705 0.022 o
0 0 6 138.452 151.066 1.071 3.586 o
0 0 8 45.081 46.185 0.710 25.703 o
0 0 10 413.468 427.966 2.820 0.462 o
0 0 12 547.488 515.070 6.264 0.273 o
0 0 14 54.229 49.588 2.010 14.780 o
0 0 16 130.111 128.973 2.733 3.729 o
0 0 18 96.325 93.385 2.579 6.038 o
0 0 20 133.302 140.430 3.891 3.046 o
0 0 22 117.818 121.129 3.041 4.103 o
0 0 24 0.015 -0.787 2.087 43.644 o
0 1 1 952.580 944.707 3.236 0.094 o
0 1 2 269.197 248.226 1.136 1.152 o
0 1 3 908.768 823.826 1.920 0.109 o
0 1 4 1779.110 1954.460 4.956 0.025 o
0 1 5 148.699 167.702 0.725 3.113 o
0 1 6 208.519 216.987 0.947 1.738 o
0 1 7 829.997 911.924 2.364 0.115 o
0 1 8 26.619 24.363 0.423 63.430 o
0 1 9 23.818 19.975 0.416 77.144 o
0 1 10 40.256 47.316 0.675 28.575 o
0 1 11 11.293 12.143 0.520 162.340 o
0 1 12 523.434 513.968 3.446 0.302 o
0 1 13 238.162 233.938 2.761 1.336 o
0 1 14 2.580 3.211 0.528 429.971 o
0 1 15 4.945 4.546 0.540 319.286 o
0 1 16 20.465 18.796 0.824 73.436 o
0 1 17 7.851 7.117 0.671 194.729 o
0 1 18 82.263 81.963 1.496 8.935 o
0 1 19 33.298 34.425 1.131 34.437 o
0 1 20 0.852 0.474 0.598 479.208 o
0 1 21 19.605 16.215 1.108 64.594 o
0 1 22 48.592 49.359 1.472 19.134 o
0 1 23 22.521 22.814 1.298 47.654 o
0 2 0 3579.260 3970.730 16.714 0.006 o
0 2 1 2161.300 2320.180 6.905 0.018 o
0 2 2 61.324 89.946 0.603 12.643 o
0 2 3 1873.420 1983.620 7.011 0.023 o
0 2 4 2922.960 2983.580 9.265 0.010 o
0 2 5 209.439 229.833 1.069 1.661 o
0 2 6 1175.950 1269.580 4.526 0.058 o
0 2 7 404.460 411.459 1.507 0.494 o
0 2 8 3.495 3.981 0.264 653.581 o
0 2 9 4.364 3.749 0.279 568.650 o
0 2 10 2.004 1.818 0.281 1003.250 o
0 2 11 498.647 462.713 2.255 0.347 o
0 2 12 9.946 8.094 0.507 202.925 o
0 2 13 0.443 0.181 0.402 1052.840 o
0 2 14 49.266 52.044 1.244 19.642 o
0 2 15 46.925 46.308 1.152 22.255 o
0 2 16 434.769 431.993 3.005 0.430 o
0 2 17 26.044 24.144 0.862 54.540 o
0 2 18 184.210 186.508 1.971 2.155 o
0 2 19 131.549 137.166 1.847 3.861 o
0 2 20 10.456 11.999 0.805 127.864 o
0 2 21 15.024 14.586 1.119 75.557 o
0 2 22 4.147 3.850 0.994 153.705 o
0 2 23 22.834 21.061 1.385 45.632 o
0 3 1 46.182 47.822 0.465 25.577 o
0 3 2 272.927 281.580 1.224 1.045 o
0 3 3 1398.540 1458.940 4.163 0.042 o
0 3 4 1233.740 1419.550 6.938 0.050 o
0 3 5 2.933 2.311 0.195 962.567 o
0 3 6 19.340 22.974 0.325 90.261 o
0 3 7 176.502 187.689 0.895 2.344 o
0 3 8 10.883 9.302 0.359 209.596 o
0 3 9 337.212 373.750 1.747 0.661 o
0 3 10 0.323 0.393 0.327 1516.170 o
0 3 11 11.220 15.121 0.717 125.544 o
0 3 12 0.188 -0.011 0.353 1445.700 o
0 3 13 105.419 93.464 1.329 6.438 o
0 3 14 4.359 2.981 0.477 408.540 o
0 3 15 92.373 92.752 1.363 7.492 o
0 3 16 3.934 3.454 0.601 321.611 o
0 3 17 1.569 1.226 0.539 512.004 o
0 3 18 77.643 77.922 1.464 9.797 o
0 3 19 3.875 3.154 0.678 279.686 o
0 3 20 59.136 62.168 1.658 13.776 o
0 3 21 4.465 4.817 0.973 154.157 o
0 3 22 32.331 31.482 1.606 29.231 o
0 3 23 10.376 10.020 1.750 49.626 o
0 4 0 106.513 109.879 1.040 5.941 o
0 4 1 778.300 846.132 2.106 0.132 o
0 4 2 635.614 652.614 2.820 0.203 o
0 4 3 1492.100 1591.100 5.876 0.037 o
0 4 4 142.403 152.434 1.064 3.450 o
0 4 5 226.860 246.050 1.011 1.441 o
0 4 6 141.180 142.950 1.072 3.627 o
0 4 7 470.279 504.654 2.225 0.354 o
0 4 8 342.932 348.813 2.718 0.667 o
0 4 9 22.200 21.029 0.489 78.482 o
0 4 10 8.160 13.123 0.401 214.351 o
0 4 11 109.052 94.075 0.831 6.386 o
0 4 12 43.077 44.324 0.847 26.670 o
0 4 13 82.050 85.253 1.261 9.043 o
0 4 14 7.441 6.414 0.500 259.486 o
0 4 15 265.184 266.213 2.157 1.103 o
0 4 16 34.776 34.686 0.904 36.041 o
0 4 17 192.908 205.429 2.286 1.896 o
0 4 18 3.396 2.632 0.665 301.966 o
0 4 19 42.590 42.297 1.585 21.897 o
0 4 20 22.916 22.789 1.200 50.240 o
0 4 21 5.893 5.501 0.993 139.577 o
0 4 22 46.991 45.108 1.982 17.203 o
0 5 1 16.662 18.969 0.356 111.496 o
0 5 2 14.671 13.061 0.905 95.193 o
0 5 3 53.378 50.690 0.633 20.745 o
0 5 4 48.110 50.918 0.870 22.158 o
0 5 5 147.382 146.354 1.359 3.352 o
0 5 6 0.031 -0.270 0.185 5365.790 o
0 5 7 10.848 13.947 0.410 172.765 o
0 5 8 9.943 14.199 0.642 147.252 o
0 5 9 3.799 3.555 0.351 545.006 o
0 5 10 2.559 3.151 0.262 826.571 o
0 5 11 7.534 7.866 0.411 272.461 o
0 5 12 0.074 0.110 0.301 2002.520 o
0 5 13 46.276 40.703 1.071 24.427 o
0 5 14 96.781 99.830 1.339 6.841 o
0 5 15 21.377 23.590 0.837 64.901 o
0 5 16 91.003 91.467 1.456 7.596 o
0 5 17 22.242 19.422 0.912 64.656 o
0 5 18 117.459 118.580 2.202 4.601 o
0 5 19 24.693 24.163 1.268 45.189 o
0 5 20 132.024 136.784 2.460 3.656 o
0 5 21 125.048 134.164 2.712 3.813 o
0 6 0 259.472 282.834 2.595 1.077 o
0 6 1 542.421 548.324 3.993 0.275 o
0 6 2 0.168 0.167 0.384 1217.140 o
0 6 3 211.126 214.079 5.674 1.344 o
0 6 4 241.440 253.084 2.060 1.281 o
0 6 5 229.709 213.951 1.851 1.520 o
0 6 6 34.949 33.888 0.534 40.337 o
0 6 7 0.493 0.272 0.276 1924.090 o
0 6 8 123.167 127.048 1.258 4.537 o
0 6 9 4.870 7.289 0.479 317.870 o
0 6 10 28.434 25.913 0.684 53.133 o
0 6 11 2.843 3.265 0.435 520.084 o
0 6 12 34.260 35.654 1.034 34.424 o
0 6 13 151.995 159.249 2.332 2.900 o
0 6 14 204.974 213.939 2.593 1.698 o
0 6 15 72.621 73.772 1.510 10.719 o
0 6 16 1.357 0.350 0.614 438.785 o
0 6 17 147.912 155.619 2.349 3.027 o
0 6 18 9.692 8.278 1.123 98.408 o
0 6 19 0.000 0.012 0.769 320.839 o
0 6 20 9.184 8.879 1.075 104.877 o
0 6 21 32.802 35.907 3.090 13.747 o
0 7 1 84.473 84.781 0.680 9.272 o
0 7 2 39.092 33.705 0.553 35.877 o
0 7 3 44.216 47.591 0.730 25.697 o
0 7 4 0.063 -0.116 0.200 4520.950 o
0 7 5 274.295 275.011 1.858 1.043 o
0 7 6 10.971 9.073 0.378 206.736 o
0 7 7 65.275 56.538 0.783 15.368 o
0 7 8 1.402 1.961 0.308 1035.310 o
0 7 9 18.102 16.382 0.607 97.009 o
0 7 10 15.880 15.859 0.656 104.844 o
0 7 11 110.427 111.794 1.451 5.472 o
0 7 12 39.533 42.211 1.215 26.535 o
0 7 13 4.873 4.130 0.744 225.219 o
0 7 14 4.425 4.292 0.784 214.377 o
0 7 15 2.437 1.848 0.721 293.035 o
0 7 16 73.123 75.693 1.689 10.180 o
0 7 17 5.309 3.620 0.883 176.374 o
0 7 18 22.742 21.164 1.475 43.004 o
0 7 19 1.923 1.642 0.853 228.576 o
0 7 20 4.152 3.895 1.549 71.770 o
0 8 0 6.891 4.756 0.654 227.489 o
0 8 1 146.473 143.639 1.310 3.423 o
0 8 2 146.031 145.090 1.180 3.435 o
0 8 3 9.071 8.147 0.423 235.562 o
0 8 4 171.176 171.751 1.380 2.537 o
0 8 5 47.617 44.995 0.793 24.221 o
0 8 6 134.336 132.953 1.352 3.965 o
0 8 7 66.576 67.982 1.163 12.952 o
0 8 8 58.987 67.059 1.252 14.509 o
0 8 9 27.875 30.731 1.092 42.074 o
0 8 10 3.875 3.458 0.626 307.124 o
0 8 11 5.851 7.031 0.733 199.941 o
0 8 12 4.646 4.855 0.865 181.961 o
0 8 13 0.202 0.682 0.729 345.177 o
0 8 14 171.967 180.128 2.270 2.351 o
0 8 15 2.065 1.797 0.794 255.610 o
0 8 16 44.458 47.956 1.614 19.927 o
0 8 17 56.965 57.227 1.986 13.541 o
0 8 18 53.899 56.152 1.594 15.942 o
0 8 19 13.868 12.523 2.615 23.943 o
0 9 1 54.519 49.091 1.098 18.946 o
0 9 2 25.099 25.464 0.700 59.377 o
0 9 3 20.161 19.317 0.771 76.010 o
0 9 4 0.439 0.557 0.465 786.758 o
0 9 5 30.788 31.116 0.893 42.217 o
0 9 6 13.056 13.756 0.707 120.039 o
0 9 7 15.737 15.226 0.846 92.183 o
0 9 8 17.364 17.187 0.813 85.520 o
0 9 9 151.714 151.595 2.005 3.059 o
0 9 10 89.657 91.594 1.524 7.650 o
0 9 11 57.885 55.877 1.605 14.944 o
0 9 12 18.727 16.964 1.173 62.416 o
0 9 13 27.868 30.747 1.387 36.199 o
0 9 14 17.947 18.528 1.117 65.150 o
0 9 15 22.703 23.323 1.297 47.147 o
0 9 16 23.276 23.089 1.279 47.162 o
0 9 17 11.680 11.422 1.395 66.704 o
0 10 0 38.468 37.169 1.330 27.466 o
0 10 1 13.910 12.930 0.715 116.782 o
0 10 2 395.311 403.959 2.869 0.507 o
0 10 3 38.057 37.265 1.104 30.087 o
0 10 4 33.865 35.037 1.087 34.309 o
0 10 5 5.157 4.521 0.584 290.393 o
0 10 6 11.844 12.967 0.830 114.707 o
0 10 7 75.024 80.247 1.375 10.127 o
0 10 8 11.553 11.180 0.753 130.877 o
0 10 9 14.878 15.233 0.898 91.186 o
0 10 10 74.921 73.897 1.714 10.014 o
0 10 11 0.168 -0.392 0.620 487.666 o
0 10 12 29.879 29.706 1.358 35.522 o
0 10 13 13.304 12.286 0.981 94.600 o
0 10 14 31.139 29.686 1.483 32.447 o
0 10 15 0.248 0.226 0.987 192.569 o
0 11 1 5.088 4.786 0.689 240.235 o
0 11 2 0.762 0.436 0.557 549.803 o
0 11 3 147.506 145.834 1.973 3.239 o
0 11 4 29.447 27.896 1.144 40.846 o
0 11 5 0.610 0.345 0.598 492.891 o
0 11 6 63.841 65.265 1.344 13.383 o
0 11 7 11.843 13.370 0.842 112.415 o
0 11 8 40.995 42.263 1.184 25.978 o
0 11 9 16.632 15.733 0.968 80.003 o
0 11 10 9.225 8.180 0.903 130.739 o
0 11 11 1.222 0.388 0.801 273.874 o
0 11 12 0.184 0.358 0.713 364.506 o
0 11 13 3.349 5.381 2.007 44.474 o
0 12 0 42.743 43.704 1.963 18.712 o
0 12 1 60.431 60.973 1.419 14.391 o
0 12 2 34.592 37.590 1.227 30.971 o
0 12 3 6.427 5.982 0.890 157.332 o
0 12 4 4.005 4.025 0.683 266.733 o
0 12 5 4.706 5.873 0.743 217.023 o
0 12 6 0.314 -0.015 0.647 441.604 o
0 12 7 0.946 1.412 0.656 386.789 o
0 12 8 6.491 5.853 0.794 181.646 o
0 12 9 117.901 127.178 3.169 3.934 o
0 12 10 33.298 24.950 3.636 11.274 o
0 13 1 14.300 14.066 1.107 78.733 o
0 13 2 92.844 91.138 2.242 6.684 o
0 13 3 1.108 0.611 1.025 172.434 o
0 13 4 1.604 3.004 1.453 85.224 o
0 13 5 6.595 7.616 2.805 22.795 o
1 0 1 1011.740 1094.980 4.529 0.078 o
1 0 2 200.076 179.948 1.001 2.051 o
1 0 3 8.320 7.268 0.243 308.566 o
1 0 4 0.201 -0.175 0.134 7595.200 o
1 0 5 1678.530 1666.270 6.843 0.030 o
1 0 6 846.234 898.975 4.339 0.112 o
1 0 7 124.092 122.292 0.944 4.679 o
1 0 8 17.931 16.195 0.393 110.369 o
1 0 9 318.274 319.034 1.706 0.789 o
1 0 10 112.106 119.920 1.124 5.283 o
1 0 11 48.718 47.500 0.958 22.244 o
1 0 12 940.807 895.080 4.252 0.098 o
1 0 13 0.153 0.309 0.360 1354.890 o
1 0 14 77.222 76.266 1.235 10.298 o
1 0 15 60.838 63.017 1.288 14.448 o
1 0 16 32.813 31.250 1.010 38.098 o
1 0 17 92.283 95.889 1.423 7.314 o
1 0 18 17.266 15.205 0.874 85.105 o
1 0 19 98.150 103.520 1.630 6.404 o
1 0 20 5.838 5.537 0.713 215.452 o
1 0 21 14.931 17.559 1.159 69.891 o
1 0 22 15.915 14.169 1.215 67.995 o
1 0 23 0.396 -0.624 0.825 273.521 o
1 1 0 2275.800 2322.300 5.294 0.016 o
1 1 1 1080.830 1088.130 3.090 0.072 o
1 1 2 708.770 707.996 3.706 0.166 o
1 1 3 82.646 86.861 0.589 9.427 o
1 1 4 162.222 175.169 0.809 2.721 o
1 1 5 693.703 749.848 2.610 0.165 o
1 1 6 905.322 987.662 4.217 0.097 o
1 1 7 113.275 120.192 0.856 5.290 o
1 1 8 416.316 409.380 1.718 0.477 o
1 1 9 86.736 95.867 0.887 8.237 o
1 1 10 374.856 397.706 1.947 0.554 o
1 1 11 178.262 177.059 1.731 2.338 o
1 1 12 10.464 9.105 0.495 192.142 o
1 1 13 19.590 17.970 0.777 79.320 o
1 1 14 148.204 144.647 1.630 3.306 o
1 1 15 2.001 2.086 0.508 508.042 o
1 1 16 83.266 83.578 1.370 8.878 o
1 1 17 51.574 53.310 1.229 18.670 o
1 1 18 14.839 13.007 0.748 108.672 o
1 1 19 27.288 24.718 1.212 43.398 o
1 1 20 8.209 7.983 0.816 153.685 o
1 1 21 1.842 1.828 0.765 275.506 o
1 1 22 26.796 29.295 1.885 28.494 o
1 1 23 8.696 7.467 1.091 107.075 o
1 2 0 56.866 59.332 0.295 18.325 o
1 2 1 2632.910 2718.660 6.325 0.012 o
1 2 2 1552.140 1643.680 5.248 0.034 o
1 2 3 570.856 581.586 1.720 0.253 o
1 2 4 961.574 1071.840 3.435 0.085 o
1 2 5 266.468 298.166 1.384 1.034 o
1 2 6 162.472 171.647 0.874 2.747 o
1 2 7 388.517 422.177 1.336 0.512 o
1 2 8 372.357 392.147 2.074 0.564 o
1 2 9 69.368 71.118 0.702 12.812 o
1 2 10 55.723 48.608 0.814 19.655 o
1 2 11 188.017 185.011 1.605 2.144 o
1 2 12 275.112 259.991 1.798 1.077 o
1 2 13 209.582 203.474 1.617 1.769 o
1 2 14 1.840 1.341 0.430 682.317 o
1 2 15 29.068 31.338 0.873 44.533 o
1 2 16 17.211 17.321 0.766 88.755 o
1 2 17 3.448 3.202 0.534 390.208 o
1 2 18 71.550 74.327 1.345 11.137 o
1 2 19 5.838 7.203 0.953 143.459 o
1 2 20 15.594 15.202 1.000 81.421 o
1 2 21 18.622 15.843 1.304 57.379 o
1 2 22 28.704 27.701 1.547 33.701 o
1 2 23 45.767 47.709 2.286 15.378 o
1 3 0 0.422 2.153 0.133 2626.210 o
1 3 1 22.716 21.413 0.252 82.058 o
1 3 2 84.939 90.381 0.523 8.950 o
1 3 3 67.388 78.840 0.727 12.405 o
1 3 4 286.844 319.482 1.305 0.903 o
1 3 5 74.801 77.750 0.585 11.285 o
1 3 6 116.144 123.014 0.909 5.052 o
1 3 7 86.195 83.329 0.762 9.095 o
1 3 8 786.357 783.388 4.326 0.135 o
1 3 9 263.292 270.392 1.478 1.118 o
1 3 10 195.999 194.138 1.558 1.982 o
1 3 11 11.780 14.660 0.517 147.350 o
1 3 12 45.466 40.441 0.716 27.175 o
1 3 13 150.962 151.543 1.429 3.179 o
1 3 14 102.849 100.396 1.392 6.338 o
1 3 15 73.352 72.453 1.133 11.344 o
1 3 16 63.321 65.659 1.369 13.386 o
1 3 17 13.303 14.165 0.869 101.507 o
1 3 18 3.860 3.146 0.695 270.632 o
1 3 19 79.575 81.843 1.929 8.636 o
1 3 20 64.463 66.702 1.951 11.517 o
1 3 21 57.069 56.301 1.741 14.563 o
1 3 22 2.105 1.062 1.007 170.580 o
1 3 23 1.342 -1.417 1.990 47.419 o
1 4 0 87.595 95.887 0.618 8.290 o
1 4 1 124.611 132.949 0.761 4.457 o
1 4 2 514.431 564.291 1.740 0.294 o
1 4 3 648.885 677.047 2.201 0.193 o
1 4 4 437.761 456.057 2.466 0.414 o
1 4 5 109.390 118.041 1.469 5.349 o
1 4 6 172.344 177.372 1.271 2.476 o
1 4 7 69.286 66.961 0.832 13.087 o
1 4 8 91.761 97.566 1.130 7.502 o
1 4 9 143.840 136.306 1.330 3.604 o
1 4 10 6.521 5.683 0.335 362.063 o
1 4 11 59.077 53.870 0.764 17.658 o
1 4 12 128.134 131.534 1.082 4.282 o
1 4 13 45.401 41.437 0.805 26.398 o
1 4 14 106.088 110.470 1.237 5.867 o
1 4 15 21.459 21.305 0.784 69.425 o
1 4 16 60.153 61.378 1.250 14.919 o
1 4 17 76.348 73.495 1.515 10.193 o
1 4 18 87.576 89.160 1.746 7.727 o
1 4 19 5.760 5.606 0.767 198.106 o
1 4 20 101.480 107.008 2.738 5.251 o
1 4 21 10.365 13.222 1.399 67.146 o
1 4 22 36.069 38.037 2.406 17.830 o
1 5 0 4.558 4.253 0.262 548.966 o
1 5 1 1.780 3.031 0.192 1168.430 o
1 5 2 193.833 199.013 1.331 1.992 o
1 5 3 31.075 31.698 0.563 46.431 o
1 5 4 251.769 252.531 1.658 1.231 o
1 5 5 63.191 62.833 0.692 15.249 o
1 5 6 78.308 76.350 0.942 10.494 o
1 5 7 331.322 313.288 2.977 0.741 o
1 5 8 521.091 509.338 4.218 0.303 o
1 5 9 224.875 211.037 1.475 1.590 o
1 5 10 30.496 35.266 0.621 44.047 o
1 5 11 81.230 83.097 1.043 9.507 o
1 5 12 40.597 36.576 0.757 31.707 o
1 5 13 18.036 17.962 0.739 86.414 o
1 5 14 22.768 19.663 0.849 65.707 o
1 5 15 41.729 41.531 1.143 26.108 o
1 5 16 2.320 1.397 0.558 446.187 o
1 5 17 0.993 1.291 0.620 428.116 o
1 5 18 32.076 34.345 1.178 34.796 o
1 5 19 17.780 16.474 1.059 70.681 o
1 5 20 4.137 4.866 1.092 129.718 o
1 5 21 16.389 14.203 1.327 60.925 o
1 6 0 32.931 32.119 0.635 42.769 o
1 6 1 79.403 78.347 0.734 10.378 o
1 6 2 37.016 35.791 0.395 38.008 o
1 6 3 58.781 59.938 0.765 16.784 o
1 6 4 243.053 237.432 2.125 1.320 o
1 6 5 436.914 439.552 3.023 0.422 o
1 6 6 105.801 108.749 1.312 5.905 o
1 6 7 57.274 55.496 0.903 17.603 o
1 6 8 42.691 47.527 0.899 25.635 o
1 6 9 49.690 50.907 0.948 21.116 o
1 6 10 2.720 2.322 0.428 569.798 o
1 6 11 76.817 76.541 1.428 10.055 o
1 6 12 7.184 8.545 0.689 189.406 o
1 6 13 30.704 27.864 1.068 41.012 o
1 6 14 20.696 19.338 0.944 66.755 o
1 6 15 120.799 127.200 2.138 4.322 o
1 6 16 107.144 112.076 1.762 5.490 o
1 6 17 26.896 25.377 1.218 43.325 o
1 6 18 22.749 20.433 1.198 52.185 o
1 6 19 32.267 31.961 1.540 30.089 o
1 6 20 8.220 7.226 1.194 96.226 o
1 7 0 59.543 54.130 0.586 17.856 o
1 7 1 8.518 7.628 0.317 279.741 o
1 7 2 40.309 39.388 0.419 32.966 o
1 7 3 86.225 87.245 1.029 8.662 o
1 7 4 9.171 7.847 0.423 236.488 o
1 7 5 6.112 6.323 0.533 274.493 o
1 7 6 24.525 24.817 0.755 59.679 o
1 7 7 136.790 138.086 1.416 3.782 o
1 7 8 51.565 51.148 0.838 20.729 o
1 7 9 68.059 64.179 1.108 13.151 o
1 7 10 68.995 73.372 1.381 11.568 o
1 7 11 160.812 156.368 1.801 2.839 o
1 7 12 18.169 17.857 0.950 74.134 o
1 7 13 54.585 57.239 1.344 16.632 o
1 7 14 40.948 42.707 1.360 24.389 o
1 7 15 37.297 37.748 1.410 27.107 o
1 7 16 11.862 11.786 0.904 108.906 o
1 7 17 83.235 83.980 1.730 8.421 o
1 7 18 18.229 18.944 1.106 64.711 o
1 7 19 15.529 12.975 1.117 76.399 o
1 8 0 124.570 122.962 1.075 4.612 o
1 8 1 104.781 108.254 0.829 6.187 o
1 8 2 88.646 85.562 0.961 8.538 o
1 8 3 67.736 69.311 0.952 12.973 o
1 8 4 1.670 1.827 0.432 669.554 o
1 8 5 158.612 155.020 1.603 2.931 o
1 8 6 28.596 29.789 0.861 46.400 o
1 8 7 3.895 4.420 0.506 375.793 o
1 8 8 22.372 19.561 0.909 64.354 o
1 8 9 55.664 61.210 1.222 16.209 o
1 8 10 124.429 124.353 1.757 4.383 o
1 8 11 81.173 82.869 1.711 8.724 o
1 8 12 16.348 16.430 0.950 80.993 o
1 8 13 101.573 101.043 1.794 6.140 o
1 8 14 7.393 7.675 0.837 156.184 o
1 8 15 26.968 27.009 1.247 41.677 o
1 8 16 7.707 6.736 0.828 159.326 o
1 8 17 5.636 5.068 0.882 168.425 o
1 8 18 4.332 5.231 1.061 134.176 o
1 8 19 9.767 9.908 2.773 22.588 o
1 9 0 85.253 81.711 1.204 8.935 o
1 9 1 30.032 29.282 0.916 43.818 o
1 9 2 36.298 36.082 0.891 34.200 o
1 9 3 30.090 32.648 0.895 42.108 o
1 9 4 94.140 95.303 1.488 7.130 o
1 9 5 99.855 99.394 1.364 6.607 o
1 9 6 15.304 15.600 0.725 102.651 o
1 9 7 106.855 109.826 1.538 5.693 o
1 9 8 19.278 18.547 0.863 74.965 o
1 9 9 17.612 14.874 0.833 87.226 o
1 9 10 6.845 7.100 0.748 184.911 o
1 9 11 0.174 0.084 0.672 413.823 o
1 9 12 42.469 41.596 1.437 23.294 o
1 9 13 6.915 4.967 0.854 166.090 o
1 9 14 24.040 24.391 1.234 46.770 o
1 9 15 58.274 62.634 1.682 13.828 o
1 9 16 7.053 7.050 0.899 147.592 o
1 9 17 5.109 5.407 1.792 53.602 o
1 10 0 1.079 0.906 0.533 559.341 o
1 10 1 3.691 3.103 0.571 354.213 o
1 10 2 54.468 54.712 1.117 17.929 o
1 10 3 27.827 28.036 0.996 45.757 o
1 10 4 11.245 10.166 0.757 135.461 o
1 10 5 9.592 9.660 0.710 157.017 o
1 10 6 6.180 6.036 0.651 229.417 o
1 10 7 38.357 39.289 1.053 29.698 o
1 10 8 95.966 102.093 1.693 6.565 o
1 10 9 11.489 11.468 0.866 115.877 o
1 10 10 64.455 66.012 1.665 12.351 o
1 10 11 0.273 -0.059 0.766 318.757 o
1 10 12 40.455 42.099 1.415 24.301 o
1 10 13 25.282 24.910 1.186 46.277 o
1 10 14 96.415 104.543 2.003 6.203 o
1 10 15 0.119 0.409 1.068 164.823 o
1 11 0 3.919 4.111 0.671 273.767 o
1 11 1 22.428 20.471 0.971 60.905 o
1 11 2 13.820 12.681 0.839 105.350 o
1 11 3 0.678 0.251 0.578 523.715 o
1 11 4 62.474 65.677 1.352 13.607 o
1 11 5 5.856 5.779 0.732 207.528 o
1 11 6 70.530 73.904 1.454 11.133 o
1 11 7 16.152 15.357 0.930 84.499 o
1 11 8 34.586 33.420 1.236 32.363 o
1 11 9 85.304 87.228 1.765 8.009 o
1 11 10 4.956 4.468 0.858 183.007 o
1 11 11 3.762 3.031 0.865 197.932 o
1 11 12 26.203 24.069 1.394 40.444 o
1 11 13 27.833 25.233 2.857 17.025 o
1 12 0 12.295 11.114 0.804 120.221 o
1 12 1 6.642 6.073 0.825 171.192 o
1 12 2 30.388 28.413 1.154 39.436 o
1 12 3 81.980 86.904 1.741 8.385 o
1 12 4 14.278 13.754 0.904 95.448 o
1 12 5 36.719 38.032 1.289 28.696 o
1 12 6 4.556 4.688 0.851 187.782 o
1 12 7 1.851 0.527 0.789 270.902 o
1 12 8 25.192 24.392 1.174 47.017 o
1 12 9 10.046 5.739 1.861 46.629 o
1 12 10 42.182 39.164 4.153 8.225 o
1 13 0 19.120 17.896 1.443 49.658 o
1 13 1 12.319 10.561 1.628 53.286 o
1 13 2 21.279 18.567 1.814 36.090 o
1 13 3 1.267 2.097 1.718 62.578 o
1 13 4 8.720 6.502 2.587 26.210 o
1 13 5 2.725 2.648 2.466 30.462 o
2 0 0 1803.690 2090.150 15.641 0.023 o
2 0 1 334.379 327.128 1.410 0.732 o
2 0 2 4.021 0.452 0.131 1036.170 o
2 0 3 7.612 11.318 0.350 250.790 o
2 0 4 398.396 405.161 2.177 0.506 o
2 0 5 398.937 421.265 2.531 0.490 o
2 0 6 107.047 110.618 0.793 5.967 o
2 0 7 48.247 55.635 0.800 21.334 o
2 0 8 4.779 3.567 0.293 531.899 o
2 0 9 23.807 23.811 0.594 66.937 o
2 0 10 182.947 199.333 1.747 2.104 o
2 0 11 95.534 88.079 0.977 7.690 o
2 0 12 52.341 50.865 0.692 20.972 o
2 0 13 135.784 128.538 1.096 4.046 o
2 0 14 40.930 42.087 0.832 28.868 o
2 0 15 50.599 55.080 1.159 19.015 o
2 0 16 91.769 86.562 1.280 7.906 o
2 0 17 0.963 0.862 0.497 637.549 o
2 0 18 32.023 30.533 1.157 36.821 o
2 0 19 30.491 27.568 1.382 35.459 o
2 0 20 2.389 1.338 0.760 273.714 o
2 0 21 4.916 5.217 0.888 171.790 o
2 0 22 4.372 3.293 0.980 157.550 o
2 0 23 59.917 58.521 2.935 9.775 o
2 1 0 2.417 1.610 0.150 1306.400 o
2 1 1 177.069 188.599 0.660 2.338 o
2 1 2 195.821 193.252 0.737 2.030 o
2 1 3 668.071 716.565 2.630 0.179 o
2 1 4 280.881 314.427 1.280 0.937 o
2 1 5 144.602 163.611 1.028 3.241 o
2 1 6 570.614 602.080 1.756 0.247 o
2 1 7 119.136 122.954 1.702 4.655 o
2 1 8 22.017 21.461 0.508 77.761 o
2 1 9 72.412 75.943 0.921 11.505 o
2 1 10 71.882 68.757 0.948 12.215 o
2 1 11 10.140 7.766 0.378 230.540 o
2 1 12 230.456 237.825 1.961 1.415 o
2 1 13 8.549 8.488 0.516 217.616 o
2 1 14 4.221 5.021 0.425 413.057 o
2 1 15 47.597 49.367 0.937 22.436 o
2 1 16 1.994 2.004 0.562 442.349 o
2 1 17 82.272 80.589 1.575 8.911 o
2 1 18 61.668 63.079 1.509 13.615 o
2 1 19 12.714 12.629 0.937 100.264 o
2 1 20 45.941 48.060 1.583 19.597 o
2 1 21 25.379 20.489 1.641 36.749 o
2 1 22 80.283 83.522 2.333 7.871 o
2 1 23 3.441 0.777 1.793 56.486 o
2 2 0 1858.700 1975.780 5.003 0.024 o
2 2 1 83.893 98.748 0.441 8.613 o
2 2 2 383.770 422.168 1.255 0.520 o
2 2 3 124.154 129.470 0.580 4.578 o
2 2 4 59.909 53.444 0.473 18.051 o
2 2 5 42.829 47.836 0.530 27.409 o
2 2 6 23.043 21.122 0.508 75.166 o
2 2 7 9.958 12.191 0.542 171.843 o
2 2 8 133.004 120.918 0.997 4.316 o
2 2 9 106.851 104.592 1.157 6.043 o
2 2 10 78.972 83.388 0.876 9.951 o
2 2 11 24.351 22.775 0.622 66.085 o
2 2 12 68.724 59.289 0.860 14.017 o
2 2 13 209.804 203.876 1.582 1.767 o
2 2 14 18.637 18.221 0.609 90.995 o
2 2 15 67.707 66.167 1.180 12.873 o
2 2 16 55.993 53.575 1.223 17.226 o
2 2 17 59.761 62.297 1.447 14.307 o
2 2 18 15.518 14.940 0.984 83.181 o
2 2 19 47.510 45.492 1.387 20.733 o
2 2 20 4.105 3.051 0.783 226.093 o
2 2 21 80.244 81.332 2.287 8.044 o
2 2 22 37.148 36.965 2.145 19.908 o
2 3 0 468.698 547.000 1.415 0.338 o
2 3 1 462.628 472.280 1.536 0.380 o
2 3 2 24.493 27.103 0.288 67.460 o
2 3 3 558.758 584.495 1.312 0.259 o
2 3 4 459.038 488.197 1.562 0.376 o
2 3 5 36.539 38.391 0.469 36.684 o
2 3 6 88.036 91.334 0.646 8.478 o
2 3 7 229.267 238.094 1.160 1.450 o
2 3 8 130.277 129.339 1.062 4.245 o
2 3 9 217.783 209.654 1.148 1.675 o
2 3 10 130.104 117.381 1.351 4.423 o
2 3 11 1.005 1.229 0.222 1748.980 o
2 3 12 10.532 7.964 0.387 220.445 o
2 3 13 17.690 15.484 0.554 104.182 o
2 3 14 28.858 30.419 0.885 45.170 o
2 3 15 13.029 13.069 0.743 118.145 o
2 3 16 30.680 31.054 0.989 40.745 o
2 3 17 11.041 10.446 0.946 110.478 o
2 3 18 10.018 9.101 0.917 122.046 o
2 3 19 78.417 81.371 1.835 8.931 o
2 3 20 58.409 63.145 2.312 11.630 o
2 3 21 32.730 31.419 1.583 29.354 o
2 3 22 15.860 19.388 1.798 39.926 o
2 4 0 26.333 26.478 0.313 63.339 o
2 4 1 181.841 177.104 0.859 2.345 o
2 4 2 159.985 157.825 0.827 2.954 o
2 4 3 615.187 665.112 1.848 0.210 o
2 4 4 110.149 104.349 0.794 5.969 o
2 4 5 23.582 25.239 0.366 71.135 o
2 4 6 293.937 284.866 1.545 0.940 o
2 4 7 232.700 226.013 1.406 1.463 o
2 4 8 147.181 145.849 1.324 3.370 o
2 4 9 104.742 100.166 1.185 6.325 o
2 4 10 40.775 38.678 0.794 30.475 o
2 4 11 0.356 0.638 0.378 1139.060 o
2 4 12 12.494 10.259 0.599 148.809 o
2 4 13 25.537 23.078 0.902 55.194 o
2 4 14 23.067 18.140 1.110 56.610 o
2 4 15 93.191 95.468 1.430 7.249 o
2 4 16 81.230 82.777 1.413 9.112 o
2 4 17 30.249 27.738 1.457 34.230 o
2 4 18 29.448 28.916 1.798 28.632 o
2 4 19 40.376 45.635 1.892 19.671 o
2 4 20 2.779 2.913 0.947 178.878 o
2 4 21 16.440 18.858 1.467 51.278 o
2 4 22 0.958 -0.815 1.315 107.802 o
2 5 0 156.843 158.296 0.837 3.021 o
2 5 1 31.559 30.677 0.380 48.514 o
2 5 2 98.989 98.476 0.641 7.068 o
2 5 3 296.417 304.378 1.148 0.896 o
2 5 4 269.079 258.131 1.355 1.122 o
2 5 5 135.101 138.167 1.368 3.846 o
2 5 6 125.907 124.988 1.319 4.448 o
2 5 7 24.353 25.294 0.521 65.696 o
2 5 8 92.485 85.853 0.795 8.214 o
2 5 9 53.888 48.255 0.864 20.273 o
2 5 10 142.080 140.074 1.487 3.571 o
2 5 11 10.720 12.518 0.578 157.372 o
2 5 12 80.323 80.386 1.190 9.644 o
2 5 13 69.829 71.450 1.609 11.128 o
2 5 14 46.052 43.542 1.190 23.042 o
2 5 15 5.119 4.237 0.695 241.349 o
2 5 16 65.836 61.244 1.588 12.745 o
2 5 17 5.070 3.894 0.732 229.208 o
2 5 18 44.474 41.681 1.569 21.399 o
2 5 19 13.160 13.425 1.241 72.582 o
2 5 20 27.532 29.017 1.467 35.621 o
2 5 21 36.354 39.406 3.040 13.337 o
2 6 0 79.427 79.764 0.752 10.254 o
2 6 1 401.598 398.062 1.692 0.509 o
2 6 2 81.581 83.708 0.764 9.664 o
2 6 3 47.549 41.998 0.494 26.407 o
2 6 4 58.902 59.275 0.624 17.147 o
2 6 5 33.073 33.821 0.573 42.245 o
2 6 6 85.823 80.783 0.907 9.193 o
2 6 7 44.166 46.939 0.848 25.276 o
2 6 8 86.259 84.384 1.204 8.665 o
2 6 9 166.839 167.021 1.632 2.634 o
2 6 10 123.250 126.354 1.894 4.340 o
2 6 11 25.398 27.575 1.050 47.968 o
2 6 12 2.450 1.640 0.550 444.604 o
2 6 13 74.750 72.143 1.455 10.619 o
2 6 14 8.819 9.407 0.807 145.949 o
2 6 15 3.801 4.412 0.766 228.304 o
2 6 16 13.051 13.318 1.239 73.062 o
2 6 17 87.195 86.936 1.655 7.967 o
2 6 18 20.306 18.103 1.281 54.233 o
2 6 19 28.921 29.071 1.803 28.778 o
2 6 20 12.070 18.060 2.053 35.303 o
2 7 0 45.081 41.482 0.532 28.009 o
2 7 1 128.127 127.054 0.954 4.399 o
2 7 2 50.493 49.129 0.627 22.413 o
2 7 3 104.287 101.425 1.133 6.338 o
2 7 4 57.064 58.486 0.856 17.323 o
2 7 5 176.228 166.903 1.281 2.499 o
2 7 6 171.058 171.870 1.343 2.541 o
2 7 7 56.586 57.892 0.856 17.573 o
2 7 8 27.837 26.109 0.774 52.057 o
2 7 9 24.739 27.307 0.895 53.184 o
2 7 10 6.782 5.822 0.589 244.416 o
2 7 11 60.518 62.697 1.320 14.469 o
2 7 12 36.551 36.387 1.180 30.588 o
2 7 13 47.162 46.606 1.229 21.624 o
2 7 14 26.679 27.338 1.113 44.935 o
2 7 15 30.223 30.644 1.203 37.625 o
2 7 16 9.317 11.216 1.110 96.428 o
2 7 17 14.750 14.855 1.109 76.528 o
2 7 18 23.073 23.863 1.517 40.302 o
2 7 19 11.687 12.768 2.318 30.067 o
2 8 0 21.732 21.077 0.518 78.939 o
2 8 1 138.182 139.292 1.197 3.759 o
2 8 2 60.250 56.397 0.955 16.400 o
2 8 3 56.151 58.184 1.003 17.231 o
2 8 4 43.924 42.586 0.800 26.977 o
2 8 5 24.604 22.689 0.689 63.654 o
2 8 6 57.249 59.864 0.977 16.713 o
2 8 7 18.569 18.856 0.705 84.959 o
2 8 8 9.011 9.668 0.642 175.617 o
2 8 9 9.582 9.174 0.642 172.366 o
2 8 10 17.145 18.375 0.803 84.921 o
2 8 11 3.190 3.612 0.596 343.123 o
2 8 12 65.687 64.307 1.402 12.958 o
2 8 13 57.225 58.466 1.469 15.294 o
2 8 14 28.319 25.481 1.315 39.600 o
2 8 15 44.994 45.429 1.609 20.217 o
2 8 16 6.111 4.804 0.838 177.516 o
2 8 17 110.020 113.640 2.023 5.150 o
2 8 18 6.926 5.715 2.200 36.037 o
2 9 0 13.470 13.219 0.607 130.005 o
2 9 1 25.648 26.182 0.822 54.506 o
2 9 2 14.826 14.062 0.696 110.957 o
2 9 3 3.825 3.704 0.512 385.828 o
2 9 4 30.845 29.404 0.816 44.498 o
2 9 5 114.468 116.425 1.445 5.133 o
2 9 6 13.832 13.122 0.723 115.889 o
2 9 7 9.311 8.542 0.625 181.935 o
2 9 8 38.557 39.226 1.007 30.029 o
2 9 9 4.348 4.850 0.545 328.539 o
2 9 10 55.065 53.801 1.151 17.754 o
2 9 11 7.821 7.183 0.687 190.484 o
2 9 12 19.736 19.333 1.018 65.464 o
2 9 13 21.067 20.803 1.285 51.185 o
2 9 14 98.430 96.856 2.020 6.310 o
2 9 15 0.069 0.346 0.749 333.417 o
2 9 16 10.146 10.822 1.760 49.031 o
2 10 0 0.455 0.388 0.558 568.075 o
2 10 1 36.582 37.319 0.983 32.447 o
2 10 2 73.948 74.185 1.526 10.465 o
2 10 3 33.629 30.810 1.156 35.313 o
2 10 4 6.246 6.109 0.705 209.660 o
2 10 5 14.675 15.114 0.973 86.220 o
2 10 6 10.471 9.638 0.841 129.417 o
2 10 7 42.209 45.508 1.276 23.779 o
2 10 8 13.995 13.324 0.827 104.367 o
2 10 9 19.529 18.879 0.902 71.965 o
2 10 10 11.652 10.969 0.819 122.248 o
2 10 11 40.814 39.213 1.452 24.489 o
2 10 12 11.993 9.196 0.953 108.219 o
2 10 13 3.203 2.833 0.755 252.350 o
2 10 14 30.372 25.578 2.300 22.083 o
2 11 0 3.190 2.632 0.707 280.398 o
2 11 1 16.875 15.729 0.842 87.655 o
2 11 2 4.985 5.183 0.819 191.694 o
2 11 3 14.563 13.952 0.856 98.179 o
2 11 4 21.743 21.519 0.947 62.148 o
2 11 5 16.959 17.605 1.110 68.413 o
2 11 6 2.283 1.829 0.734 287.401 o
2 11 7 12.241 12.532 0.934 102.625 o
2 11 8 52.958 52.810 1.455 17.279 o
2 11 9 2.435 1.858 0.720 293.800 o
2 11 10 33.728 34.677 1.399 30.303 o
2 11 11 19.251 17.820 1.361 52.703 o
2 11 12 2.550 1.659 2.292 35.293 o
2 12 0 37.768 32.682 1.457 27.725 o
2 12 1 8.258 8.132 0.821 151.769 o
2 12 2 34.963 38.133 1.438 28.003 o
2 12 3 2.566 2.602 0.721 283.521 o
2 12 4 24.890 21.687 1.240 47.213 o
2 12 5 10.226 10.157 0.875 124.348 o
2 12 6 5.947 5.228 0.797 188.791 o
2 12 7 14.967 14.066 1.058 80.587 o
2 12 8 2.694 3.199 1.566 72.503 o
2 13 0 5.688 5.089 2.466 29.533 o
2 13 1 27.653 30.510 2.596 18.960 o
2 13 2 9.928 11.017 1.466 65.065 o
2 13 3 18.331 29.523 3.652 12.213 o
3 0 1 546.979 587.527 1.771 0.265 o
3 0 2 393.757 428.636 1.636 0.497 o
3 0 3 1.556 0.492 0.169 2004.680 o
3 0 4 725.184 745.387 3.165 0.156 o
3 0 5 101.547 95.828 0.720 6.938 o
3 0 6 8.223 9.469 0.462 228.988 o
3 0 7 2.664 1.133 0.326 828.712 o
3 0 8 106.877 101.493 1.292 6.080 o
3 0 9 4.286 3.204 0.374 500.773 o
3 0 10 13.893 14.727 0.408 140.917 o
3 0 11 26.849 22.373 0.500 63.710 o
3 0 12 79.553 82.196 0.949 9.884 o
3 0 13 0.124 0.224 0.284 2132.030 o
3 0 14 84.832 82.578 1.353 8.775 o
3 0 15 19.690 23.405 1.225 53.470 o
3 0 16 56.338 53.645 1.339 16.662 o
3 0 17 128.641 127.484 1.927 4.104 o
3 0 18 27.776 28.738 1.200 40.991 o
3 0 19 0.038 0.144 0.763 324.509 o
3 0 20 30.061 28.072 1.663 30.684 o
3 0 21 31.151 29.620 1.743 28.397 o
3 0 22 59.964 55.344 3.028 9.659 o
3 1 0 313.900 287.074 1.137 0.864 o
3 1 1 312.209 336.035 1.270 0.786 o
3 1 2 510.715 514.603 1.601 0.316 o
3 1 3 20.321 18.733 0.448 90.770 o
3 1 4 22.931 23.266 0.347 76.390 o
3 1 5 245.056 261.354 1.552 1.248 o
3 1 6 378.450 363.268 1.921 0.581 o
3 1 7 44.041 45.566 0.650 26.809 o
3 1 8 328.880 303.865 3.551 0.750 o
3 1 9 288.240 272.189 1.675 0.989 o
3 1 10 241.279 223.634 2.909 1.342 o
3 1 11 65.389 57.793 1.087 14.512 o
3 1 12 99.320 94.470 1.329 6.859 o
3 1 13 87.194 82.416 1.355 8.521 o
3 1 14 4.969 3.159 0.667 265.304 o
3 1 15 41.461 44.417 1.168 25.269 o
3 1 16 31.900 34.055 1.189 34.889 o
3 1 17 25.537 23.695 1.093 49.261 o
3 1 18 7.322 6.179 0.810 168.741 o
3 1 19 10.748 10.150 1.156 89.074 o
3 1 20 9.161 9.207 1.229 87.383 o
3 1 21 73.036 73.053 2.194 9.371 o
3 1 22 32.866 25.331 2.885 15.935 o
3 2 0 120.841 138.602 0.823 4.486 o
3 2 1 323.512 350.784 1.142 0.731 o
3 2 2 189.426 188.862 1.034 2.134 o
3 2 3 196.191 210.382 1.238 1.899 o
3 2 4 75.156 73.859 0.641 11.513 o
3 2 5 109.632 95.992 0.955 6.231 o
3 2 6 43.745 42.807 0.780 27.142 o
3 2 7 51.636 58.531 1.030 18.571 o
3 2 8 101.407 91.310 1.266 6.860 o
3 2 9 134.289 129.231 1.373 4.028 o
3 2 10 65.599 60.161 1.097 14.160 o
3 2 11 97.790 98.807 1.789 6.477 o
3 2 12 97.844 97.328 1.219 6.933 o
3 2 13 37.999 40.175 0.933 30.783 o
3 2 14 48.574 48.095 1.152 21.163 o
3 2 15 13.376 11.646 0.934 99.915 o
3 2 16 40.523 42.024 1.308 25.225 o
3 2 17 50.635 50.993 1.611 17.472 o
3 2 18 39.116 35.394 1.334 27.555 o
3 2 19 15.272 13.874 1.070 79.156 o
3 2 20 34.890 35.038 1.814 24.404 o
3 2 21 35.177 32.629 1.952 23.225 o
3 2 22 31.491 24.195 4.859 7.044 o
3 3 0 10.407 11.066 0.273 216.277 o
3 3 1 12.287 10.978 0.285 188.252 o
3 3 2 57.888 69.944 0.558 15.949 o
3 3 3 254.124 258.261 1.105 1.211 o
3 3 4 161.481 156.463 0.766 2.940 o
3 3 5 815.752 788.346 2.117 0.130 o
3 3 6 55.901 56.574 0.567 18.750 o
3 3 7 101.875 94.863 1.287 6.673 o
3 3 8 237.796 230.557 1.577 1.401 o
3 3 9 362.585 335.096 2.014 0.644 o
3 3 10 4.171 4.831 0.373 461.906 o
3 3 11 11.406 13.905 0.583 145.162 o
3 3 12 9.852 8.209 0.517 201.092 o
3 3 13 21.736 21.191 0.820 67.466 o
3 3 14 20.499 20.535 0.915 67.096 o
3 3 15 18.836 20.135 1.122 61.689 o
3 3 16 20.626 20.705 0.966 64.462 o
3 3 17 60.225 61.226 1.665 13.626 o
3 3 18 9.207 9.019 0.973 118.087 o
3 3 19 16.211 15.985 1.488 52.383 o
3 3 20 47.282 55.105 1.958 15.999 o
3 3 21 76.911 80.138 2.801 7.543 o
3 4 0 20.310 28.148 0.377 76.276 o
3 4 1 12.782 10.999 0.291 181.214 o
3 4 2 124.276 118.122 0.713 4.812 o
3 4 3 21.346 25.021 0.432 76.536 o
3 4 4 94.838 83.367 0.802 8.094 o
3 4 5 284.902 284.661 1.688 0.976 o
3 4 6 65.040 61.387 0.653 15.014 o
3 4 7 120.803 113.381 1.246 4.964 o
3 4 8 20.766 22.251 0.529 79.793 o
3 4 9 91.732 84.957 0.944 8.249 o
3 4 10 57.780 57.969 1.046 16.635 o
3 4 11 13.641 12.282 0.666 125.376 o
3 4 12 0.042 0.574 0.462 844.676 o
3 4 13 113.316 107.256 1.904 5.211 o
3 4 14 38.975 38.716 1.189 28.147 o
3 4 15 76.604 76.666 1.671 9.689 o
3 4 16 79.063 78.270 1.972 8.813 o
3 4 17 39.891 44.115 1.809 20.745 o
3 4 18 37.320 37.544 1.519 25.968 o
3 4 19 7.877 8.001 1.051 114.707 o
3 4 20 6.330 4.728 1.077 123.592 o
3 4 21 28.165 28.388 2.436 20.758 o
3 5 0 65.770 61.561 0.705 14.722 o
3 5 1 142.090 131.071 0.872 3.817 o
3 5 2 309.786 314.909 1.454 0.826 o
3 5 3 84.559 88.541 0.757 8.980 o
3 5 4 182.168 187.933 1.292 2.230 o
3 5 5 67.617 60.337 0.774 14.304 o
3 5 6 92.344 89.198 0.916 7.984 o
3 5 7 49.711 50.673 0.775 21.881 o
3 5 8 34.016 34.628 0.804 38.041 o
3 5 9 144.477 132.359 1.291 3.652 o
3 5 10 1.251 1.540 0.470 643.257 o
3 5 11 122.866 122.523 1.553 4.557 o
3 5 12 19.215 20.330 0.996 66.537 o
3 5 13 78.335 75.654 1.574 9.687 o
3 5 14 20.111 21.863 1.013 62.393 o
3 5 15 22.665 22.041 1.183 51.680 o
3 5 16 21.283 20.167 1.220 53.700 o
3 5 17 33.517 36.710 1.885 23.830 o
3 5 18 20.840 22.666 1.426 45.642 o
3 5 19 2.174 2.691 0.894 203.540 o
3 5 20 13.690 12.301 2.196 32.215 o
3 6 0 52.893 55.556 0.681 19.811 o
3 6 1 148.667 139.134 0.915 3.480 o
3 6 2 18.782 18.633 0.448 97.479 o
3 6 3 26.145 22.729 0.465 65.700 o
3 6 4 120.920 119.125 1.070 4.870 o
3 6 5 105.651 97.843 0.814 6.504 o
3 6 6 33.241 36.330 0.623 40.023 o
3 6 7 1.558 1.724 0.357 872.168 o
3 6 8 2.584 2.644 0.389 627.043 o
3 6 9 1.498 2.661 0.462 593.939 o
3 6 10 21.746 23.183 0.847 64.163 o
3 6 11 179.790 194.307 2.125 2.147 o
3 6 12 13.711 13.224 0.847 103.880 o
3 6 13 16.242 14.273 0.884 89.209 o
3 6 14 91.608 92.497 1.980 6.998 o
3 6 15 1.905 2.008 0.790 258.977 o
3 6 16 54.382 56.633 1.847 14.695 o
3 6 17 1.942 0.231 0.886 220.475 o
3 6 18 44.023 46.592 1.616 20.305 o
3 6 19 10.345 12.042 1.542 59.190 o
3 7 0 2.043 1.804 0.360 787.618 o
3 7 1 152.870 149.929 1.323 3.167 o
3 7 2 86.091 82.756 1.007 8.956 o
3 7 3 33.453 31.813 0.737 41.034 o
3 7 4 10.908 10.789 0.527 171.863 o
3 7 5 9.778 10.210 0.534 186.245 o
3 7 6 69.950 70.172 0.944 12.457 o
3 7 7 205.071 208.367 1.646 1.790 o
3 7 8 19.732 19.253 0.735 79.085 o
3 7 9 17.695 19.652 0.940 73.626 o
3 7 10 24.180 26.223 0.987 52.384 o
3 7 11 25.405 23.186 1.138 48.517 o
3 7 12 88.774 92.070 1.868 7.362 o
3 7 13 86.905 95.554 1.671 7.577 o
3 7 14 4.125 3.076 0.832 206.212 o
3 7 15 7.181 5.909 0.829 166.528 o
3 7 16 16.246 15.419 1.352 58.956 o
3 7 17 0.681 1.246 0.934 206.615 o
3 7 18 12.292 13.176 2.388 28.324 o
3 8 0 251.976 248.292 1.854 1.237 o
3 8 1 3.221 3.064 0.386 562.877 o
3 8 2 44.075 44.017 0.849 26.157 o
3 8 3 32.164 33.004 0.755 41.603 o
3 8 4 9.955 9.543 0.542 186.440 o
3 8 5 43.937 42.520 1.046 25.358 o
3 8 6 2.814 1.006 0.396 670.520 o
3 8 7 12.763 12.471 0.762 119.057 o
3 8 8 73.777 72.150 1.368 10.917 o
3 8 9 31.714 32.038 0.989 39.125 o
3 8 10 22.876 23.272 1.051 54.830 o
3 8 11 47.508 49.416 1.158 21.303 o
3 8 12 46.648 50.079 1.364 20.328 o
3 8 13 8.771 8.824 0.763 156.823 o
3 8 14 30.057 31.534 1.220 37.064 o
3 8 15 43.541 43.442 1.614 21.077 o
3 8 16 13.321 13.100 1.217 74.242 o
3 8 17 19.232 12.564 3.584 13.226 o
3 9 0 30.220 32.230 0.902 42.081 o
3 9 1 0.788 -0.181 0.436 870.839 o
3 9 2 9.738 11.140 0.696 152.390 o
3 9 3 0.362 -0.466 0.365 1298.270 o
3 9 4 64.698 63.313 1.290 13.544 o
3 9 5 112.379 113.072 1.952 5.086 o
3 9 6 30.793 31.398 1.000 40.252 o
3 9 7 76.458 77.742 1.327 10.172 o
3 9 8 62.838 62.582 1.400 13.732 o
3 9 9 0.782 0.278 0.631 440.973 o
3 9 10 6.596 5.313 0.718 205.955 o
3 9 11 34.027 34.417 1.148 33.606 o
3 9 12 50.031 51.548 1.589 17.686 o
3 9 13 1.284 1.518 0.703 333.347 o
3 9 14 1.079 0.514 0.654 398.570 o
3 9 15 29.683 32.128 2.264 21.703 o
3 10 0 33.024 37.293 1.197 32.607 o
3 10 1 21.715 21.394 0.985 60.850 o
3 10 2 59.538 64.645 1.761 13.112 o
3 10 3 70.100 71.064 1.601 11.132 o
3 10 4 30.480 29.262 1.270 36.796 o
3 10 5 10.983 12.216 1.010 99.989 o
3 10 6 20.012 21.003 1.164 57.147 o
3 10 7 5.889 5.581 0.897 160.871 o
3 10 8 12.347 12.909 0.981 96.756 o
3 10 9 25.969 26.257 1.277 42.402 o
3 10 10 44.290 44.609 1.336 22.588 o
3 10 11 13.563 13.918 0.986 90.566 o
3 10 12 21.098 22.177 1.200 53.213 o
3 10 13 0.944 -0.304 1.027 174.590 o
3 11 0 56.182 61.465 1.609 14.676 o
3 11 1 59.372 55.290 1.445 15.238 o
3 11 2 15.641 16.671 1.171 68.689 o
3 11 3 7.105 6.283 1.012 128.056 o
3 11 4 11.710 12.524 1.020 95.838 o
3 11 5 2.248 2.795 0.861 215.309 o
3 11 6 12.166 13.995 1.088 85.986 o
3 11 7 45.893 46.287 1.559 20.081 o
3 11 8 6.268 6.336 1.016 131.217 o
3 11 9 6.436 6.894 1.006 130.808 o
3 11 10 29.481 26.611 2.950 15.869 o
3 12 0 0.137 0.457 0.923 219.812 o
3 12 1 40.077 39.803 1.658 22.803 o
3 12 2 0.416 0.185 0.819 275.783 o
3 12 3 40.217 40.071 1.722 22.118 o
3 12 4 11.799 10.874 1.197 81.760 o
3 12 5 7.744 9.324 2.097 38.142 o
4 0 0 11.027 7.676 0.742 147.931 o
4 0 1 45.379 44.659 0.406 27.238 o
4 0 2 1.667 3.622 0.258 949.729 o
4 0 3 4.212 3.116 0.531 368.463 o
4 0 4 361.010 350.573 3.137 0.619 o
4 0 5 111.893 112.043 1.599 5.316 o
4 0 6 5.445 5.618 0.372 385.425 o
4 0 7 20.638 20.878 0.629 78.555 o
4 0 8 10.512 9.708 0.525 182.272 o
4 0 9 182.872 174.349 1.976 2.262 o
4 0 10 263.539 253.874 1.881 1.152 o
4 0 11 147.405 140.451 1.652 3.380 o
4 0 12 4.168 2.874 0.496 402.381 o
4 0 13 48.496 42.153 1.277 21.706 o
4 0 14 31.394 33.255 1.395 32.424 o
4 0 15 20.293 17.584 1.138 60.643 o
4 0 16 133.392 141.152 2.267 3.614 o
4 0 17 0.379 0.532 0.802 285.146 o
4 0 18 42.122 47.081 1.916 18.726 o
4 0 19 10.898 9.993 1.087 95.884 o
4 0 20 1.518 2.297 0.948 190.375 o
4 0 21 11.324 9.405 2.071 37.282 o
4 1 0 19.998 17.837 0.299 99.409 o
4 1 1 20.912 18.795 0.401 89.974 o
4 1 2 172.123 168.231 1.037 2.580 o
4 1 3 921.330 902.305 5.150 0.100 o
4 1 4 254.138 242.697 2.291 1.226 o
4 1 5 49.692 47.014 0.685 23.113 o
4 1 6 118.262 110.880 1.543 5.042 o
4 1 7 667.555 645.941 2.442 0.192 o
4 1 8 91.039 88.725 1.006 8.082 o
4 1 9 292.798 278.454 2.531 0.939 o
4 1 10 1.004 1.072 0.551 528.594 o
4 1 11 79.278 75.650 1.820 9.182 o
4 1 12 17.205 17.087 0.839 84.547 o
4 1 13 136.751 131.373 1.892 3.773 o
4 1 14 18.460 19.337 1.123 63.073 o
4 1 15 63.858 65.376 1.500 12.962 o
4 1 16 60.957 61.171 1.648 13.536 o
4 1 17 9.102 8.205 0.911 130.089 o
4 1 18 8.902 9.870 1.055 106.632 o
4 1 19 57.413 57.673 1.833 13.987 o
4 1 20 2.458 1.146 0.898 206.210 o
4 1 21 5.565 5.965 2.458 29.641 o
4 2 0 273.352 264.251 1.480 1.082 o
4 2 1 1.628 0.690 0.185 1775.260 o
4 2 2 116.365 104.269 1.002 5.523 o
4 2 3 146.441 142.618 1.035 3.479 o
4 2 4 2.043 1.715 0.272 1034.530 o
4 2 5 123.017 124.485 1.369 4.567 o
4 2 6 160.149 152.354 1.153 2.983 o
4 2 7 92.291 83.588 1.030 8.201 o
4 2 8 6.358 6.094 0.412 324.926 o
4 2 9 72.835 65.146 1.040 12.232 o
4 2 10 5.268 4.619 0.451 362.560 o
4 2 11 45.542 47.773 1.375 21.134 o
4 2 12 38.749 40.767 1.416 25.469 o
4 2 13 7.002 5.375 0.751 191.064 o
4 2 14 67.917 75.287 1.821 10.672 o
4 2 15 126.529 130.788 2.141 4.045 o
4 2 16 38.573 40.479 1.308 26.685 o
4 2 17 4.498 4.505 0.747 226.499 o
4 2 18 12.263 10.352 0.940 106.282 o
4 2 19 13.663 14.485 1.266 68.882 o
4 2 20 37.260 36.929 1.822 22.956 o
4 3 0 499.396 483.609 2.167 0.338 o
4 3 1 73.714 65.758 0.737 12.436 o
4 3 2 7.687 8.020 0.370 279.750 o
4 3 3 147.197 144.304 1.219 3.407 o
4 3 4 348.818 345.360 1.641 0.668 o
4 3 5 20.146 20.882 0.560 82.971 o
4 3 6 89.978 75.189 1.235 8.734 o
4 3 7 105.961 98.651 1.169 6.300 o
4 3 8 231.499 223.383 1.897 1.465 o
4 3 9 233.258 224.377 1.887 1.448 o
4 3 10 199.788 188.126 1.570 1.971 o
4 3 11 9.839 7.413 0.598 188.208 o
4 3 12 102.515 101.735 1.630 6.166 o
4 3 13 78.508 76.817 1.396 9.854 o
4 3 14 137.380 134.350 2.201 3.617 o
4 3 15 33.124 34.652 1.334 31.612 o
4 3 16 8.563 8.972 0.838 143.582 o
4 3 17 8.178 9.127 1.046 111.975 o
4 3 18 10.659 10.790 1.177 86.517 o
4 3 19 34.449 35.682 1.671 26.138 o
4 3 20 36.965 35.695 2.499 17.163 o
4 4 0 6.667 4.519 0.269 411.149 o
4 4 1 130.385 114.951 1.016 4.547 o
4 4 2 71.514 63.463 0.745 13.109 o
4 4 3 26.758 24.350 0.490 61.867 o
4 4 4 36.442 36.765 0.658 36.096 o
4 4 5 10.374 8.616 0.473 200.641 o
4 4 6 22.847 21.591 0.701 68.725 o
4 4 7 7.463 6.917 0.519 247.516 o
4 4 8 27.824 25.821 0.778 52.223 o
4 4 9 0.191 0.492 0.436 922.594 o
4 4 10 4.317 5.516 0.567 307.654 o
4 4 11 36.860 36.251 1.068 31.701 o
4 4 12 45.823 47.520 1.236 21.955 o
4 4 13 84.501 84.255 1.548 8.498 o
4 4 14 20.145 20.305 1.038 62.776 o
4 4 15 16.848 19.989 1.066 68.499 o
4 4 16 9.015 8.323 0.891 133.445 o
4 4 17 20.925 21.154 1.316 50.064 o
4 4 18 57.959 64.024 2.005 12.659 o
4 4 19 39.836 44.938 1.821 20.524 o
4 4 20 38.115 36.920 3.874 9.458 o
4 5 0 55.394 43.714 0.695 21.189 o
4 5 1 26.900 25.373 0.687 56.298 o
4 5 2 52.015 50.643 0.883 20.474 o
4 5 3 24.476 27.203 0.701 58.837 o
4 5 4 150.590 146.440 1.373 3.263 o
4 5 5 42.542 37.158 0.820 29.549 o
4 5 6 160.319 159.129 1.860 2.811 o
4 5 7 43.102 40.751 0.781 28.215 o
4 5 8 229.327 225.015 1.946 1.474 o
4 5 9 60.108 63.442 1.190 14.845 o
4 5 10 190.823 183.106 1.923 2.092 o
4 5 11 149.178 155.011 1.796 3.118 o
4 5 12 28.294 26.976 0.963 46.551 o
4 5 13 12.644 13.398 1.176 78.408 o
4 5 14 37.635 37.945 1.277 28.292 o
4 5 15 2.263 2.082 0.766 266.320 o
4 5 16 12.451 11.429 1.050 92.310 o
4 5 17 30.574 32.520 1.629 29.613 o
4 5 18 35.318 40.330 1.816 23.111 o
4 5 19 0.849 0.991 1.276 113.272 o
4 6 0 10.698 8.369 0.547 183.570 o
4 6 1 58.278 57.742 1.131 16.259 o
4 6 2 10.822 10.091 0.512 178.918 o
4 6 3 10.990 11.040 0.508 172.715 o
4 6 4 25.555 26.998 0.779 55.066 o
4 6 5 6.302 6.059 0.494 289.992 o
4 6 6 2.754 2.017 0.427 579.759 o
4 6 7 15.904 17.918 0.694 97.432 o
4 6 8 42.978 43.183 1.067 25.546 o
4 6 9 15.651 14.954 0.740 101.313 o
4 6 10 0.733 0.422 0.505 658.740 o
4 6 11 22.708 21.470 1.025 57.511 o
4 6 12 32.058 31.194 1.041 38.371 o
4 6 13 59.923 63.592 1.715 13.288 o
4 6 14 16.111 15.449 1.284 62.630 o
4 6 15 53.090 57.987 1.924 14.504 o
4 6 16 24.029 23.508 1.434 41.768 o
4 6 17 35.288 33.691 1.496 28.375 o
4 6 18 14.739 16.000 2.286 29.130 o
4 7 0 8.175 8.598 0.580 205.705 o
4 7 1 91.823 88.324 1.267 7.827 o
4 7 2 107.586 111.885 1.412 5.651 o
4 7 3 33.913 34.773 0.919 36.620 o
4 7 4 0.868 1.126 0.393 920.633 o
4 7 5 59.787 57.731 0.999 16.220 o
4 7 6 46.414 44.420 0.947 24.171 o
4 7 7 101.038 95.959 1.361 6.649 o
4 7 8 40.380 43.446 0.977 27.681 o
4 7 9 24.881 26.512 1.070 48.860 o
4 7 10 44.441 44.613 1.128 23.979 o
4 7 11 116.046 122.222 1.883 4.733 o
4 7 12 54.586 52.425 1.396 17.117 o
4 7 13 11.806 11.625 0.965 102.804 o
4 7 14 14.317 12.002 1.094 82.302 o
4 7 15 34.117 37.293 1.618 26.530 o
4 7 16 15.554 14.957 1.131 73.121 o
4 7 17 58.637 65.653 3.177 8.879 o
4 8 0 37.146 39.223 1.068 30.411 o
4 8 1 12.985 13.709 0.749 116.124 o
4 8 2 50.340 51.562 1.107 19.996 o
4 8 3 29.285 25.573 0.980 45.813 o
4 8 4 50.558 52.180 1.157 19.565 o
4 8 5 7.193 6.903 0.685 199.651 o
4 8 6 4.459 4.026 0.567 322.953 o
4 8 7 18.868 18.644 0.820 78.229 o
4 8 8 4.035 3.613 0.670 276.966 o
4 8 9 44.684 44.513 1.278 22.849 o
4 8 10 25.684 24.965 1.101 48.004 o
4 8 11 33.407 36.486 1.261 31.765 o
4 8 12 80.922 83.978 1.724 8.674 o
4 8 13 40.535 42.517 1.351 24.721 o
4 8 14 1.964 1.462 0.747 288.443 o
4 8 15 6.948 8.179 1.252 91.690 o
4 9 0 160.269 167.811 2.197 2.672 o
4 9 1 101.620 107.822 1.928 5.830 o
4 9 2 3.828 4.104 0.672 274.867 o
4 9 3 43.448 44.617 1.284 23.346 o
4 9 4 6.586 7.178 0.729 192.366 o
4 9 5 122.890 123.524 1.779 4.455 o
4 9 6 13.592 12.173 0.823 109.171 o
4 9 7 30.950 30.722 1.165 37.587 o
4 9 8 8.121 8.125 0.782 160.775 o
4 9 9 47.223 48.101 1.410 20.204 o
4 9 10 15.664 18.267 1.057 73.619 o
4 9 11 50.651 53.170 1.427 18.067 o
4 9 12 2.194 1.062 0.708 314.488 o
4 9 13 24.964 22.553 1.468 40.473 o
4 10 0 36.959 39.198 1.611 24.767 o
4 10 1 4.506 4.101 0.842 193.892 o
4 10 2 13.046 13.139 1.143 80.319 o
4 10 3 6.209 7.295 0.896 152.959 o
4 10 4 17.457 17.843 1.109 67.206 o
4 10 5 12.829 14.213 1.136 80.052 o
4 10 6 65.596 63.627 1.599 12.536 o
4 10 7 67.022 68.832 1.482 12.092 o
4 10 8 22.418 25.208 1.113 52.021 o
4 10 9 30.166 31.592 1.481 32.496 o
4 10 10 12.708 14.704 1.170 77.186 o
4 10 11 10.456 9.441 1.383 71.243 o
4 11 0 6.203 4.940 0.965 145.279 o
4 11 1 10.815 12.239 1.054 95.861 o
4 11 2 20.442 19.776 1.207 55.748 o
4 11 3 12.069 11.914 1.033 94.406 o
4 11 4 49.426 48.892 1.743 17.416 o
4 11 5 106.357 114.461 2.289 5.152 o
4 11 6 54.161 56.907 1.899 14.496 o
4 11 7 47.482 43.107 2.039 16.978 o
4 11 8 5.157 9.775 3.164 18.166 o
4 12 0 28.433 24.952 2.265 23.224 o
4 12 1 29.243 33.559 3.491 11.989 o
5 0 1 377.792 353.436 1.978 0.592 o
5 0 2 225.167 203.767 1.910 1.601 o
5 0 3 51.684 44.548 0.936 21.681 o
5 0 4 0.762 0.549 0.358 1147.080 o
5 0 5 8.428 7.765 0.688 180.770 o
5 0 6 64.985 58.272 1.467 13.546 o
5 0 7 6.264 4.724 0.678 227.792 o
5 0 8 81.869 84.818 1.489 8.827 o
5 0 9 0.059 -0.822 0.600 525.288 o
5 0 10 1.533 2.819 0.715 304.947 o
5 0 11 65.340 59.957 1.667 12.739 o
5 0 12 0.871 0.411 0.706 354.174 o
5 0 13 101.804 108.672 2.416 5.442 o
5 0 14 0.001 -0.632 0.765 324.977 o
5 0 15 0.012 -0.475 0.736 350.899 o
5 0 16 38.003 37.838 1.512 25.617 o
5 0 17 92.965 100.181 2.492 6.121 o
5 0 18 0.126 -0.097 0.883 242.568 o
5 0 19 24.980 20.331 1.823 33.054 o
5 1 0 31.972 27.637 0.513 48.756 o
5 1 1 39.496 38.548 0.719 32.097 o
5 1 2 171.390 154.705 1.618 2.667 o
5 1 3 19.453 19.292 0.855 73.956 o
5 1 4 152.936 146.539 1.623 3.161 o
5 1 5 212.781 209.959 1.968 1.685 o
5 1 6 1.819 2.242 0.436 629.812 o
5 1 7 19.709 20.272 0.893 70.236 o
5 1 8 118.977 118.003 1.875 4.700 o
5 1 9 18.848 17.730 0.935 73.413 o
5 1 10 33.072 32.606 1.163 34.911 o
5 1 11 1.212 0.311 0.648 404.999 o
5 1 12 31.306 31.706 1.309 34.434 o
5 1 13 25.646 24.316 1.168 46.663 o
5 1 14 99.626 101.313 2.127 6.002 o
5 1 15 79.801 82.885 2.133 8.250 o
5 1 16 56.120 59.519 1.971 13.541 o
5 1 17 0.381 1.015 0.868 241.802 o
5 1 18 31.525 35.726 1.559 29.140 o
5 1 19 5.931 8.979 1.743 54.161 o
5 2 0 21.226 17.677 0.476 88.199 o
5 2 1 64.983 60.653 0.841 14.795 o
5 2 2 81.648 73.601 0.770 10.366 o
5 2 3 203.568 195.298 1.474 1.889 o
5 2 4 7.331 6.280 0.437 286.441 o
5 2 5 160.080 157.954 1.301 2.905 o
5 2 6 103.005 103.122 1.125 6.373 o
5 2 7 40.455 41.069 0.809 29.726 o
5 2 8 23.838 24.848 0.862 57.811 o
5 2 9 23.069 21.928 0.813 63.893 o
5 2 10 38.695 44.504 1.350 25.151 o
5 2 11 0.255 0.702 0.578 533.791 o
5 2 12 9.335 11.005 0.848 130.921 o
5 2 13 10.872 9.413 0.899 119.591 o
5 2 14 58.899 61.724 1.479 14.468 o
5 2 15 24.462 25.340 1.279 44.479 o
5 2 16 5.455 7.045 1.031 130.628 o
5 2 17 192.242 200.643 2.893 1.872 o
5 2 18 15.949 16.131 1.246 64.360 o
5 2 19 4.743 6.378 2.037 42.340 o
5 3 0 42.773 39.350 0.963 27.573 o
5 3 1 91.248 81.375 0.917 8.513 o
5 3 2 123.211 113.039 1.086 4.902 o
5 3 3 95.305 95.903 1.358 7.106 o
5 3 4 198.829 200.123 1.630 1.907 o
5 3 5 91.478 86.326 1.121 8.076 o
5 3 6 32.582 32.136 0.759 41.557 o
5 3 7 7.419 6.960 0.454 270.515 o
5 3 8 7.319 7.308 0.501 252.687 o
5 3 9 4.412 3.566 0.595 312.793 o
5 3 10 66.099 68.261 1.201 12.942 o
5 3 11 23.316 22.962 0.884 59.898 o
5 3 12 7.818 7.945 0.836 152.374 o
5 3 13 32.776 33.910 1.083 35.784 o
5 3 14 8.515 9.074 0.840 143.104 o
5 3 15 130.204 133.260 2.203 3.857 o
5 3 16 20.009 21.497 1.164 56.763 o
5 3 17 0.567 0.983 0.801 279.463 o
5 3 18 18.754 17.139 1.584 45.350 o
5 4 0 101.864 106.407 1.709 6.005 o
5 4 1 180.843 186.980 2.027 2.194 o
5 4 2 68.306 64.674 1.060 13.142 o
5 4 3 12.995 13.526 0.664 125.725 o
5 4 4 23.912 21.363 0.785 63.631 o
5 4 5 1.250 0.564 0.370 983.676 o
5 4 6 46.668 44.257 0.835 24.711 o
5 4 7 35.883 38.533 0.865 33.784 o
5 4 8 73.957 76.114 1.192 10.861 o
5 4 9 3.303 3.087 0.495 434.509 o
5 4 10 65.914 68.823 1.204 12.916 o
5 4 11 146.045 148.538 1.894 3.258 o
5 4 12 0.694 0.623 0.580 509.625 o
5 4 13 9.769 9.383 0.807 139.727 o
5 4 14 53.183 56.051 1.418 16.905 o
5 4 15 17.492 16.776 1.221 62.416 o
5 4 16 22.071 21.964 1.245 50.455 o
5 4 17 6.298 5.086 0.994 138.410 o
5 4 18 42.354 41.663 4.904 6.308 o
5 5 0 19.726 16.592 0.695 85.405 o
5 5 1 272.641 259.245 2.256 1.080 o
5 5 2 18.715 21.689 0.775 76.563 o
5 5 3 66.447 71.172 1.398 12.171 o
5 5 4 22.510 24.358 0.788 63.326 o
5 5 5 1.594 2.021 0.407 721.243 o
5 5 6 16.780 17.619 0.736 91.688 o
5 5 7 1.221 0.992 0.461 690.056 o
5 5 8 82.769 82.292 1.209 9.192 o
5 5 9 51.076 51.108 1.089 19.884 o
5 5 10 5.958 5.876 0.544 277.646 o
5 5 11 14.320 14.266 0.759 107.138 o
5 5 12 70.252 72.602 1.588 11.017 o
5 5 13 30.663 31.793 1.333 34.511 o
5 5 14 22.596 21.323 1.078 55.910 o
5 5 15 3.676 2.177 0.854 206.812 o
5 5 16 16.232 16.600 1.168 67.741 o
5 5 17 21.794 26.920 2.275 24.953 o
5 6 0 222.178 214.930 2.319 1.555 o
5 6 1 18.717 15.901 0.964 74.446 o
5 6 2 46.559 42.746 1.120 23.451 o
5 6 3 27.048 29.707 0.928 47.172 o
5 6 4 43.492 44.064 0.987 25.584 o
5 6 5 101.997 103.995 1.485 6.216 o
5 6 6 13.463 12.705 0.780 112.909 o
5 6 7 18.562 18.941 0.957 71.479 o
5 6 8 8.557 8.812 0.718 167.925 o
5 6 9 22.571 26.370 0.963 55.601 o
5 6 10 16.830 17.693 0.848 84.177 o
5 6 11 18.587 20.771 1.155 60.119 o
5 6 12 72.343 78.356 1.993 9.537 o
5 6 13 59.291 62.952 1.807 13.174 o
5 6 14 9.850 11.476 0.938 114.399 o
5 6 15 24.358 24.130 1.390 42.305 o
5 6 16 28.803 27.504 2.199 23.519 o
5 7 0 107.118 110.556 1.722 5.557 o
5 7 1 32.082 30.404 0.989 39.595 o
5 7 2 82.044 81.388 1.822 8.557 o
5 7 3 51.260 49.770 1.380 18.652 o
5 7 4 41.292 41.517 1.246 25.494 o
5 7 5 0.185 -0.002 0.569 575.024 o
5 7 6 22.413 20.022 0.959 61.823 o
5 7 7 27.258 27.597 1.001 46.662 o
5 7 8 49.726 48.998 1.254 19.986 o
5 7 9 0.396 -0.371 0.598 511.474 o
5 7 10 51.791 54.813 1.521 17.022 o
5 7 11 13.477 12.658 1.084 84.485 o
5 7 12 61.306 62.410 1.742 13.048 o
5 7 13 21.698 25.056 1.778 34.577 o
5 7 14 21.613 18.024 1.597 41.945 o
5 7 15 2.811 3.746 2.037 43.825 o
5 8 0 27.358 28.743 1.155 42.407 o
5 8 1 76.347 80.629 1.868 9.154 o
5 8 2 13.933 13.651 0.937 93.999 o
5 8 3 53.212 53.571 1.384 17.409 o
5 8 4 53.449 50.971 1.451 17.425 o
5 8 5 17.396 18.555 1.004 72.206 o
5 8 6 5.061 2.867 0.806 207.070 o
5 8 7 41.147 44.791 1.422 23.291 o
5 8 8 11.736 9.215 0.986 105.379 o
5 8 9 7.726 9.430 0.831 148.850 o
5 8 10 15.622 14.054 1.060 78.720 o
5 8 11 11.443 9.864 0.993 104.428 o
5 8 12 24.466 23.636 1.352 43.450 o
5 8 13 2.150 1.604 0.932 193.724 o
5 8 14 7.409 4.072 2.276 33.944 o
5 9 0 9.520 10.120 1.061 103.108 o
5 9 1 28.189 25.569 1.585 34.092 o
5 9 2 15.399 14.999 1.112 74.651 o
5 9 3 33.123 31.502 1.618 28.605 o
5 9 4 8.968 8.412 0.923 128.323 o
5 9 5 2.880 2.683 0.683 300.660 o
5 9 6 67.022 73.080 1.747 11.135 o
5 9 7 15.027 13.267 1.099 78.534 o
5 9 8 7.458 6.491 0.935 139.818 o
5 9 9 64.306 62.384 1.758 12.445 o
5 9 10 25.408 25.379 1.524 37.529 o
5 9 11 45.763 52.523 2.412 14.216 o
5 10 0 14.662 16.412 1.377 59.331 o
5 10 1 38.104 36.940 1.819 22.654 o
5 10 2 19.735 16.139 1.341 53.962 o
5 10 3 37.026 40.465 1.714 23.407 o
5 10 4 57.598 58.449 2.436 11.674 o
5 10 5 3.491 5.031 1.003 151.918 o
5 10 6 19.614 23.721 1.432 46.225 o
5 10 7 6.773 8.195 1.207 97.306 o
5 10 8 2.695 3.360 0.953 176.048 o
5 11 1 2.554 2.010 2.829 23.343 o
6 0 0 11.456 15.322 1.142 81.620 o
6 0 1 42.243 41.971 1.065 26.316 o
6 0 2 4.538 3.493 0.675 266.073 o
6 0 3 2.522 1.132 0.525 483.018 o
6 0 4 15.388 15.769 0.926 86.522 o
6 0 5 54.014 54.105 1.271 17.565 o
6 0 6 105.289 112.213 2.243 5.291 o
6 0 7 30.183 30.481 1.492 32.687 o
6 0 8 9.502 9.121 0.896 127.790 o
6 0 9 3.215 3.332 0.944 175.232 o
6 0 10 11.309 10.108 1.049 98.355 o
6 0 11 11.911 13.242 1.318 69.882 o
6 0 12 9.507 9.975 1.131 95.480 o
6 0 13 30.227 33.805 1.787 27.160 o
6 0 14 60.700 62.195 2.170 11.815 o
6 0 15 40.341 41.873 1.744 21.532 o
6 0 16 6.774 6.187 1.039 125.087 o
6 0 17 21.314 17.578 2.564 22.340 o
6 1 0 0.774 -0.267 0.454 812.128 o
6 1 1 8.774 6.440 0.766 165.878 o
6 1 2 47.237 46.856 1.548 19.574 o
6 1 3 0.339 1.346 0.644 421.059 o
6 1 4 2.401 2.854 0.600 373.844 o
6 1 5 8.527 9.611 0.758 156.563 o
6 1 6 0.606 1.468 0.570 509.222 o
6 1 7 24.649 26.618 1.008 50.802 o
6 1 8 24.817 26.867 1.159 46.350 o
6 1 9 35.739 30.056 1.393 30.577 o
6 1 10 31.734 35.932 1.684 27.275 o
6 1 11 27.175 28.761 1.461 36.110 o
6 1 12 1.194 0.271 0.713 341.657 o
6 1 13 19.303 19.241 1.268 55.369 o
6 1 14 23.737 24.359 1.338 44.226 o
6 1 15 10.042 10.688 1.124 93.569 o
6 1 16 69.012 67.388 2.165 10.271 o
6 1 17 61.840 72.709 6.536 3.424 o
6 2 0 14.968 15.585 0.905 89.723 o
6 2 1 16.462 15.546 0.994 79.003 o
6 2 2 9.834 9.262 0.783 143.752 o
6 2 3 42.844 44.216 1.187 24.459 o
6 2 4 39.256 39.844 0.994 29.449 o
6 2 5 56.446 56.063 1.223 16.720 o
6 2 6 36.886 37.917 1.097 30.753 o
6 2 7 19.771 20.280 0.963 66.894 o
6 2 8 0.882 1.126 0.651 398.366 o
6 2 9 57.913 58.652 1.660 14.417 o
6 2 10 48.981 55.089 1.490 17.976 o
6 2 11 31.475 32.456 1.288 34.336 o
6 2 12 63.027 64.170 1.856 12.229 o
6 2 13 19.515 21.540 1.220 55.271 o
6 2 14 22.742 19.427 1.303 49.310 o
6 2 15 9.330 9.081 1.082 103.134 o
6 2 16 3.097 3.605 0.885 194.346 o
6 2 17 1.718 2.049 1.739 60.732 o
6 3 0 11.201 12.140 0.755 129.871 o
6 3 1 44.335 46.857 1.423 21.480 o
6 3 2 16.851 14.671 0.881 86.819 o
6 3 3 38.131 42.056 1.309 26.485 o
6 3 4 9.369 9.158 0.682 166.408 o
6 3 5 21.660 21.897 0.933 62.472 o
6 3 6 64.052 65.808 1.544 12.766 o
6 3 7 23.580 26.647 0.964 53.666 o
6 3 8 38.885 38.908 1.148 28.542 o
6 3 9 101.135 102.901 1.856 6.064 o
6 3 10 39.193 40.686 1.359 25.806 o
6 3 11 3.441 2.322 0.759 250.684 o
6 3 12 24.178 26.717 1.239 45.092 o
6 3 13 23.202 21.628 1.262 48.674 o
6 3 14 41.105 40.467 1.561 23.097 o
6 3 15 3.566 2.979 0.898 188.440 o
6 3 16 20.606 21.975 2.068 29.931 o
6 4 0 3.926 3.510 0.693 267.389 o
6 4 1 72.091 70.609 1.951 10.142 o
6 4 2 62.391 59.281 1.857 12.776 o
6 4 3 5.826 6.809 0.709 209.144 o
6 4 4 73.135 71.877 1.712 10.399 o
6 4 5 45.499 41.383 1.621 20.683 o
6 4 6 88.908 92.501 2.147 7.028 o
6 4 7 44.571 46.255 1.581 20.413 o
6 4 8 2.686 1.427 0.597 390.909 o
6 4 9 27.543 29.196 1.255 39.833 o
6 4 10 29.099 28.230 1.248 38.938 o
6 4 11 3.597 2.707 0.732 259.089 o
6 4 12 23.311 20.345 1.346 46.682 o
6 4 13 63.839 66.995 1.754 12.133 o
6 4 14 31.364 31.108 1.375 33.539 o
6 4 15 2.907 2.124 0.941 182.885 o
6 5 0 93.245 92.991 1.932 6.900 o
6 5 1 0.143 0.186 0.586 539.537 o
6 5 2 25.797 26.971 1.338 40.769 o
6 5 3 61.202 64.512 1.701 12.991 o
6 5 4 55.954 57.116 1.872 14.200 o
6 5 5 8.678 9.342 0.924 127.219 o
6 5 6 85.791 92.670 2.453 6.897 o
6 5 7 48.135 47.919 1.844 17.341 o
6 5 8 16.018 14.358 1.103 74.522 o
6 5 9 41.889 44.869 1.427 22.906 o
6 5 10 13.031 13.245 0.909 100.638 o
6 5 11 6.775 6.428 1.010 129.597 o
6 5 12 18.425 20.382 1.316 53.862 o
6 5 13 92.680 94.776 2.788 5.999 o
6 5 14 25.722 22.308 1.417 41.172 o
6 5 15 19.557 17.832 2.509 23.524 o
6 6 0 186.863 196.610 2.591 1.990 o
6 6 1 8.434 8.179 1.276 85.633 o
6 6 2 10.488 10.174 0.970 110.350 o
6 6 3 91.299 94.661 1.912 7.006 o
6 6 4 0.195 -0.066 0.590 535.712 o
6 6 5 32.481 31.040 1.641 28.774 o
6 6 6 24.205 23.391 1.490 40.217 o
6 6 7 39.175 37.291 1.629 23.999 o
6 6 8 8.345 6.301 1.197 96.846 o
6 6 9 7.590 6.306 0.990 129.471 o
6 6 10 63.227 64.576 1.757 12.444 o
6 6 11 13.792 12.131 1.155 78.834 o
6 6 12 68.259 67.685 2.245 10.155 o
6 6 13 9.014 8.977 1.397 73.051 o
6 7 0 1.028 0.380 0.812 270.289 o
6 7 1 42.743 46.405 1.999 18.067 o
6 7 2 72.122 79.629 2.448 8.619 o
6 7 3 20.768 20.645 1.601 41.405 o
6 7 4 9.786 10.112 1.167 90.735 o
6 7 5 20.930 18.508 1.614 41.807 o
6 7 6 22.772 23.802 1.803 33.765 o
6 7 7 5.636 4.137 0.928 160.025 o
6 7 8 20.341 19.100 1.398 49.149 o
6 7 9 37.004 39.906 1.711 23.561 o
6 7 10 97.506 97.475 2.336 6.072 o
6 7 11 27.951 31.255 1.742 29.685 o
6 7 12 39.568 40.516 2.686 14.877 o
6 8 0 3.613 3.813 1.025 149.326 o
6 8 1 14.521 13.054 1.305 66.251 o
6 8 2 42.189 41.949 1.987 18.957 o
6 8 3 9.202 8.696 1.167 94.345 o
6 8 4 11.317 10.765 1.435 65.212 o
6 8 5 7.087 8.696 1.238 92.229 o
6 8 6 21.796 22.694 1.787 35.080 o
6 8 7 20.237 20.537 1.686 39.485 o
6 8 8 38.763 39.498 2.315 17.723 o
6 8 9 27.733 33.054 2.339 21.311 o
6 8 10 2.704 -0.589 2.288 35.598 o
6 9 0 0.866 0.261 1.113 149.038 o
6 9 1 2.235 2.784 1.108 139.039 o
6 9 2 10.254 11.415 1.266 78.865 o
6 9 3 6.529 6.559 1.077 119.000 o
6 9 4 32.404 33.344 2.031 23.244 o
6 9 5 1.013 0.538 0.952 199.604 o
6 9 6 45.957 50.284 2.661 13.137 o
6 9 7 0.270 -0.993 1.566 77.199 o
6 10 0 0.675 -1.463 1.368 100.229 o
6 10 1 2.390 0.710 1.419 89.736 o
7 0 1 46.631 45.949 1.506 20.220 o
7 0 2 2.518 1.683 0.661 336.111 o
7 0 3 33.248 32.302 1.165 34.864 o
7 0 4 34.044 35.294 1.309 31.093 o
7 0 5 190.027 200.591 2.584 1.929 o
7 0 6 38.969 43.755 1.639 22.611 o
7 0 7 2.966 2.924 0.786 239.781 o
7 0 8 34.965 36.123 1.393 29.140 o
7 0 9 1.887 2.226 0.909 202.065 o
7 0 10 4.448 4.629 0.912 170.796 o
7 0 11 17.938 17.550 1.298 57.388 o
7 0 12 1.951 3.243 0.889 205.020 o
7 0 13 54.667 58.136 1.812 14.608 o
7 0 14 3.820 3.415 1.264 104.303 o
7 1 0 0.137 0.701 0.604 497.978 o
7 1 1 26.903 27.072 1.350 39.401 o
7 1 2 49.365 52.297 1.402 18.753 o
7 1 3 31.892 33.179 1.281 33.834 o
7 1 4 15.360 12.608 1.137 75.833 o
7 1 5 56.835 60.612 1.805 13.907 o
7 1 6 18.781 17.680 1.030 68.652 o
7 1 7 23.219 21.971 1.274 48.074 o
7 1 8 26.939 28.153 1.593 33.908 o
7 1 9 2.914 2.282 0.767 254.722 o
7 1 10 8.886 10.971 0.996 112.139 o
7 1 11 39.487 42.090 1.618 22.932 o
7 1 12 17.199 16.540 1.241 62.082 o
7 1 13 6.251 5.994 1.058 124.580 o
7 1 14 13.712 12.673 1.512 56.270 o
7 2 0 28.582 31.182 1.415 34.938 o
7 2 1 96.088 103.948 2.296 5.996 o
7 2 2 166.166 170.359 2.283 2.527 o
7 2 3 18.070 18.747 1.484 48.810 o
7 2 4 8.591 9.189 0.963 122.042 o
7 2 5 7.302 6.737 0.926 141.698 o
7 2 6 84.650 85.974 2.067 7.750 o
7 2 7 11.398 11.199 1.077 93.381 o
7 2 8 3.610 1.252 0.686 298.537 o
7 2 9 8.562 8.103 0.870 140.462 o
7 2 10 28.922 29.803 1.496 33.731 o
7 2 11 4.784 3.797 0.839 193.772 o
7 2 12 22.141 22.478 1.325 47.452 o
7 2 13 15.519 14.772 1.342 61.067 o
7 2 14 45.169 47.896 3.320 10.517 o
7 3 0 4.816 4.789 0.819 195.106 o
7 3 1 13.988 14.593 1.323 64.773 o
7 3 2 52.048 58.032 2.179 13.620 o
7 3 3 1.671 1.717 0.905 207.851 o
7 3 4 5.724 3.552 1.000 144.306 o
7 3 5 12.031 11.062 1.387 66.944 o
7 3 6 9.055 8.007 1.202 91.917 o
7 3 7 49.549 48.090 2.174 15.142 o
7 3 8 15.566 13.712 1.256 66.712 o
7 3 9 7.023 7.955 0.983 129.371 o
7 3 10 3.802 5.061 0.826 201.500 o
7 3 11 28.833 27.674 1.348 37.447 o
7 3 12 3.130 2.932 0.812 225.917 o
7 3 13 46.409 43.777 2.555 14.140 o
7 3 14 43.885 40.589 4.714 6.678 o
7 4 0 35.271 37.386 2.323 18.799 o
7 4 1 16.697 16.582 1.515 50.350 o
7 4 2 145.918 146.574 3.764 2.779 o
7 4 3 15.286 14.475 1.420 57.642 o
7 4 4 31.109 28.349 1.736 28.853 o
7 4 5 32.531 29.974 2.089 23.138 o
7 4 6 11.442 15.096 1.499 58.262 o
7 4 7 7.461 6.836 1.277 89.402 o
7 4 8 40.268 44.330 2.118 18.191 o
7 4 9 2.590 4.637 1.035 149.954 o
7 4 10 11.771 12.798 1.229 77.027 o
7 4 11 7.861 5.860 1.086 113.848 o
7 4 12 28.658 31.830 3.019 15.084 o
7 5 0 0.115 0.000 0.961 204.992 o
7 5 1 33.013 35.236 2.061 22.353 o
7 5 2 42.737 44.211 2.595 14.533 o
7 5 3 9.292 8.284 1.393 73.489 o
7 5 4 2.197 2.671 1.008 165.039 o
7 5 5 8.254 7.301 1.609 60.486 o
7 5 6 39.525 35.956 2.140 19.400 o
7 5 7 31.233 35.177 1.829 25.806 o
7 5 8 19.444 23.069 1.397 47.914 o
7 5 9 21.438 22.178 1.584 40.673 o
7 5 10 5.915 6.139 1.512 70.955 o
7 5 11 14.525 13.164 1.874 40.575 o
7 6 0 108.287 107.499 2.962 4.765 o
7 6 1 23.005 22.007 1.441 43.314 o
7 6 2 43.764 45.329 2.333 15.779 o
7 6 3 2.325 1.783 1.167 128.035 o
7 6 4 11.680 14.039 2.004 37.938 o
7 6 5 14.664 16.191 2.118 32.844 o
7 6 6 4.097 5.207 1.581 68.388 o
7 6 7 9.009 8.192 1.534 63.820 o
7 6 8 9.865 8.844 1.764 49.875 o
7 6 9 64.140 67.225 3.679 7.249 o
7 6 10 42.327 43.624 4.750 6.599 o
7 7 0 5.157 6.751 1.373 84.278 o
7 7 1 9.073 7.192 1.295 83.477 o
7 7 2 6.739 8.025 2.040 40.851 o
7 7 3 18.131 16.258 1.970 34.752 o
7 7 4 22.354 19.074 1.790 35.822 o
7 7 5 29.777 24.848 2.728 17.855 o
7 7 6 3.106 -0.377 1.829 54.892 o
7 7 7 12.211 8.467 2.785 22.116 o
7 7 8 19.480 20.369 3.309 14.796 o
7 8 0 23.449 24.068 2.053 28.465 o
7 8 1 38.579 38.278 2.708 15.106 o
7 8 2 8.025 7.713 3.168 17.945 o
7 8 3 8.540 7.902 2.801 22.533 o
7 8 4 68.579 56.717 4.960 5.122 o
8 0 0 54.489 57.559 2.892 10.559 o
8 0 1 123.036 129.465 2.459 4.063 o
8 0 2 3.307 4.132 0.891 188.217 o
8 0 3 33.132 31.397 1.547 29.638 o
8 0 4 104.601 102.782 2.351 5.499 o
8 0 5 54.254 55.897 1.902 14.573 o
8 0 6 187.853 192.323 2.704 1.992 o
8 0 7 11.232 10.140 1.039 99.600 o
8 0 8 9.831 10.747 1.120 94.540 o
8 0 9 24.243 23.314 1.668 35.942 o
8 0 10 41.904 45.239 2.995 12.453 o
8 1 0 56.698 60.998 1.877 13.632 o
8 1 1 15.362 15.504 1.194 69.038 o
8 1 2 8.431 8.006 1.078 108.802 o
8 1 3 6.985 6.201 0.904 149.793 o
8 1 4 28.589 29.500 1.441 35.113 o
8 1 5 11.719 9.797 1.034 98.999 o
8 1 6 46.707 46.134 1.591 19.609 o
8 1 7 29.206 31.214 1.622 30.925 o
8 1 8 10.548 10.655 1.134 91.091 o
8 1 9 39.139 40.663 1.877 21.046 o
8 1 10 25.294 28.476 2.638 19.281 o
8 2 0 127.818 134.521 2.979 3.615 o
8 2 1 8.855 8.624 1.152 97.181 o
8 2 2 23.183 21.874 1.313 46.957 o
8 2 3 47.229 46.495 1.675 18.846 o
8 2 4 44.931 47.124 1.630 19.798 o
8 2 5 33.509 34.863 1.744 25.893 o
8 2 6 40.731 43.681 1.870 20.043 o
8 2 7 73.206 78.073 2.904 7.735 o
8 2 8 5.318 4.920 1.360 87.129 o
8 2 9 8.563 7.640 2.999 19.849 o
8 3 0 0.334 0.863 0.963 198.926 o
8 3 1 15.392 16.947 1.534 50.789 o
8 3 2 22.615 23.201 1.876 32.467 o
8 3 3 9.882 8.582 1.480 65.929 o
8 3 4 28.147 27.771 1.800 29.587 o
8 3 5 46.630 47.662 2.291 15.174 o
8 3 6 18.108 17.494 1.577 46.050 o
8 3 7 11.562 13.644 1.871 42.515 o
8 3 8 68.864 79.240 4.239 5.729 o
8 4 0 7.122 8.488 1.501 68.441 o
8 4 1 45.532 49.425 2.073 16.470 o
8 4 2 1.265 2.015 1.158 133.292 o
8 4 3 60.795 70.864 2.382 10.549 o
8 4 4 7.268 8.356 1.296 86.090 o
8 4 5 14.665 20.296 1.750 41.983 o
8 4 6 12.514 12.110 1.841 43.437 o
8 4 7 68.085 68.490 3.883 6.598 o
8 5 0 1.387 2.109 1.165 131.259 o
8 5 1 1.407 -0.073 1.212 125.113 o
8 5 2 2.558 1.934 1.288 105.874 o
8 5 3 7.514 12.198 2.149 36.033 o
8 5 4 3.779 3.416 1.907 49.250 o
8 5 5 0.337 0.904 1.501 83.350 o
8 5 6 13.966 15.449 3.463 14.390 o
;
_iucr_refine_instructions_details
;
TITL 
CELL 0.71073 5.1155 7.6409 13.6231 90 90 90
ZERR 4 0.0004 0.0006 0.0011 0 0 0
LATT -1
SYMM 0.5-X,-Y,0.5+Z
SYMM 0.5+X,0.5-Y,-Z
SYMM -X,0.5+Y,0.5-Z
SFAC C H N O
UNIT 16 36 4 12

L.S. 4
PLAN  20
CONF
FMAP 2
MORE -1
BOND $H
ACTA
WGHT 0.046686 0.052523
FVAR 1.574089
REM <olex2.extras>
REM <HklSrc "%.\\fk_03405_intdb_v128_1_0_background.hkl">
REM </olex2.extras>

O1    4     0.30835  0.45488  0.24514  11.00000  0.00705  0.01416  0.01337 =
 0.00454 -0.00186  0.00028
O2    4     0.72311  0.46148  0.19076  11.00000  0.00984  0.01888  0.00824 =
 0.00509  0.00108  0.00000
O3    4     0.77788  0.39753  0.51331  11.00000  0.01538  0.01065  0.00595 =
 -0.00119 -0.00277  0.00331
H3    2     0.79530  0.46194  0.56249  11.00000 -1.50000
N2    3     0.89704  0.25914  0.33751  11.00000  0.00803  0.00850  0.00697 =
 0.00015 -0.00021  0.00138
H2a   2     1.01342  0.32423  0.30334  11.00000 -1.20000
H2b   2     0.97911  0.23849  0.39466  11.00000 -1.20000
H2c   2     0.86772  0.15693  0.31009  11.00000 -1.20000
C     1     0.67816  0.49183  0.43087  11.00000  0.00966  0.00811  0.00701 =
 -0.00039 -0.00083  0.00090
H     2     0.81635  0.58289  0.40740  11.00000 -1.20000
C1    1     0.55085  0.42912  0.25318  11.00000  0.00766  0.00797  0.00728 =
 0.00084 -0.00105 -0.00057
C2    1     0.64387  0.35217  0.35124  11.00000  0.00672  0.00723  0.00618 =
 0.00039 -0.00028  0.00032
H2    2     0.51966  0.26615  0.37659  11.00000 -1.20000
C3    1     0.42586  0.58516  0.45716  11.00000  0.01356  0.01387  0.01252 =
 -0.00273 -0.00031  0.00585
H3a   2     0.29567  0.49972  0.47628  11.00000 -1.50000
H3b   2     0.45512  0.66333  0.51231  11.00000 -1.50000
H3c   2     0.37303  0.65818  0.40224  11.00000 -1.50000
HKLF 4

END
Q1 1 0.611111 0.46 0.211111 11 0.05 0.47
Q2 1 0.611111 0.4 0.3 11 0.05 0.43
Q3 1 0.444444 0.44 0.255556 11 0.05 0.37
Q4 1 0.666667 0.42 0.388889 11 0.05 0.37
Q5 1 0.555556 0.54 0.455556 11 0.05 0.34
Q6 1 0.777778 0.3 0.344444 11 0.05 0.32
Q7 1 0.722222 0.46 0.477778 11 0.05 0.25
Q8 1 0.666667 0.34 0.5 11 0.05 0.21
Q9 1 0.833333 0.44 0.2 11 0.05 0.2
Q10 1 0.777778 0.54 0.411111 11 0.05 0.19

  REM The information below was added by Olex2.
  REM
  REM R1 = 0.0298 for 2809 Fo > 4sig(Fo) and 0.0328 for all 2972 data
  REM 100 parameters refined using 0 restraints
  REM Highest difference peak 0.4735, deepest hole -0.2045
  REM Mean Shift 0.0001, Max Shift 0.0005.

  REM +++ Tabular Listing of Refinement Information +++
  REM R1_all = 0.0328
  REM R1_gt = 0.0298
  REM wR_ref = 0.0772
  REM GOOF = 1.0678
  REM Shift_max = 0.0005
  REM Shift_mean = 0.0001
  REM Reflections_all = 2972
  REM Reflections_gt = 2809
  REM Parameters = 100
  REM Hole = -0.2045
  REM Peak = 0.4735
  REM Flack = 0.06(16)

  
;
_olex2_exptl_crystal_mounting_method  'Cryo loop'
_olex2_submission_special_instructions  'No special instructions were received'
